MODEL 1
REMARK VINA RESULT: -8.757625206      0.000      0.000
REMARK  16 active torsions:
REMARK  status: ('A' for Active; 'I' for Inactive)
REMARK    1  A    between atoms: O1_2  and  C2_3 
REMARK    2  A    between atoms: C2_3  and  C3_4 
REMARK    3  A    between atoms: C3_4  and  O2_5 
REMARK    4  A    between atoms: O2_5  and  C4_6 
REMARK    5  A    between atoms: C8_10  and  C9_11 
REMARK    6  A    between atoms: C9_11  and  N1_12 
REMARK       I    between atoms: N1_12  and  C10_13 
REMARK    7  A    between atoms: C10_13  and  C11_15 
REMARK    8  A    between atoms: C11_15  and  N2_17 
REMARK    9  A    between atoms: N2_17  and  C13_18 
REMARK   10  A    between atoms: C17_24  and  N4_25 
REMARK   11  A    between atoms: N4_25  and  C18_26 
REMARK   12  A    between atoms: C21_29  and  C22_30 
REMARK   13  A    between atoms: C22_30  and  C23_31 
REMARK   14  A    between atoms: C23_31  and  O4_32 
REMARK   15  A    between atoms: N5_34  and  C24_36 
REMARK   16  A    between atoms: C24_36  and  C25_37 
ROOT
HETATM    1  C25 UNL     1      67.218 104.933  12.461  1.00  0.00     0.143 C 
HETATM    2  C26 UNL     1      67.366 103.591  12.957  1.00  0.00     0.060 C 
HETATM    3  N6  UNL     1      67.505 102.499  13.318  1.00  0.00    -0.197 NA
ENDROOT
BRANCH   1   4
HETATM    4  C24 UNL     1      68.323 105.861  13.071  1.00  0.00     0.135 C 
BRANCH   4   5
HETATM    5  N5  UNL     1      67.503 106.657  14.059  1.00  0.00    -0.373 N 
HETATM    6  C23 UNL     1      67.010 107.820  13.726  1.00  0.00     0.115 C 
ATOM      7  H5  UNL     1      67.332 106.284  14.992  1.00  0.00     0.161 HD
BRANCH   6   8
HETATM    8  C22 UNL     1      66.289 108.799  14.661  1.00  0.00     0.122 C 
BRANCH   8   9
HETATM    9  C21 UNL     1      67.305 109.506  15.456  1.00  0.00    -0.051 A 
HETATM   10  C20 UNL     1      68.008 108.818  16.398  1.00  0.00     0.011 A 
HETATM   11  C19 UNL     1      69.022 109.454  17.237  1.00  0.00     0.045 A 
HETATM   12  C18 UNL     1      69.127 110.779  16.963  1.00  0.00     0.111 A 
HETATM   13  C28 UNL     1      68.415 111.490  16.013  1.00  0.00     0.045 A 
HETATM   14  C27 UNL     1      67.487 110.872  15.231  1.00  0.00     0.011 A 
BRANCH  12  15
HETATM   15  N4  UNL     1      70.048 111.575  17.605  1.00  0.00    -0.371 NA
BRANCH  15  16
HETATM   16  C17 UNL     1      70.843 112.252  18.079  1.00  0.00     0.262 A 
HETATM   17  N3  UNL     1      72.184 111.670  17.634  1.00  0.00    -0.314 N 
HETATM   18  C16 UNL     1      73.110 112.492  18.127  1.00  0.00     0.059 A 
ATOM     19  H3  UNL     1      72.337 110.829  17.077  1.00  0.00     0.170 HD
HETATM   20  C15 UNL     1      74.507 112.467  17.892  1.00  0.00     0.034 A 
HETATM   21  C30 UNL     1      72.546 113.415  18.785  1.00  0.00     0.048 A 
HETATM   22  C14 UNL     1      75.281 113.462  18.393  1.00  0.00     0.043 A 
HETATM   23  C13 UNL     1      74.745 114.476  19.111  1.00  0.00     0.090 A 
HETATM   24  C31 UNL     1      73.304 114.489  19.339  1.00  0.00     0.132 A 
HETATM   25  N7  UNL     1      71.166 113.330  18.792  1.00  0.00    -0.313 N 
HETATM   26  C29 UNL     1      70.300 114.254  19.414  1.00  0.00     0.160 C 
BRANCH  23  27
HETATM   27  N2  UNL     1      75.378 115.478  19.711  1.00  0.00    -0.408 NA
BRANCH  27  28
HETATM   28  C11 UNL     1      75.958 116.315  20.378  1.00  0.00     0.162 C 
HETATM   29  C12 UNL     1      76.695 116.246  21.608  1.00  0.00     0.092 C 
BRANCH  28  30
HETATM   30  C10 UNL     1      75.584 117.742  19.856  1.00  0.00     0.347 C 
HETATM   31  N1  UNL     1      74.381 117.973  19.424  1.00  0.00    -0.405 NA
HETATM   32  O3  UNL     1      76.525 118.619  19.925  1.00  0.00    -0.249 OA
BRANCH  31  33
HETATM   33  C9  UNL     1      73.026 118.233  18.938  1.00  0.00     0.261 C 
BRANCH  33  34
HETATM   34  C8  UNL     1      72.006 117.994  19.964  1.00  0.00    -0.025 A 
HETATM   35  C7  UNL     1      70.684 118.017  19.520  1.00  0.00     0.010 A 
HETATM   36  C6  UNL     1      69.630 117.911  20.382  1.00  0.00     0.003 A 
HETATM   37  C5  UNL     1      69.983 117.788  21.767  1.00  0.00     0.037 A 
HETATM   38  C4  UNL     1      71.204 117.790  22.174  1.00  0.00     0.069 A 
HETATM   39  C32 UNL     1      72.317 117.878  21.316  1.00  0.00     0.046 A 
BRANCH  38  40
HETATM   40  O2  UNL     1      71.546 117.729  23.553  1.00  0.00    -0.349 OA
BRANCH  40  41
HETATM   41  C3  UNL     1      71.639 118.921  24.361  1.00  0.00     0.201 C 
BRANCH  41  42
HETATM   42  C2  UNL     1      73.073 119.091  24.836  1.00  0.00     0.193 C 
BRANCH  42  43
HETATM   43  O1  UNL     1      74.213 119.041  24.156  1.00  0.00    -0.394 OA
HETATM   44  C1  UNL     1      74.361 120.121  23.262  1.00  0.00     0.201 C 
ENDBRANCH  42  43
ENDBRANCH  41  42
ENDBRANCH  40  41
ENDBRANCH  38  40
ENDBRANCH  33  34
ENDBRANCH  31  33
ENDBRANCH  28  30
ENDBRANCH  27  28
ENDBRANCH  23  27
ENDBRANCH  15  16
ENDBRANCH  12  15
ENDBRANCH   8   9
ENDBRANCH   6   8
BRANCH   6  45
HETATM   45  O4  UNL     1      67.065 108.353  12.532  1.00  0.00    -0.349 OA
ATOM     46  H4  UNL     1      67.148 107.654  11.894  1.00  0.00     0.219 HD
ENDBRANCH   6  45
ENDBRANCH   4   5
ENDBRANCH   1   4
TORSDOF 16
ENDMDL
MODEL 2
REMARK VINA RESULT: -8.551540997      2.897      6.129
REMARK  16 active torsions:
REMARK  status: ('A' for Active; 'I' for Inactive)
REMARK    1  A    between atoms: O1_2  and  C2_3 
REMARK    2  A    between atoms: C2_3  and  C3_4 
REMARK    3  A    between atoms: C3_4  and  O2_5 
REMARK    4  A    between atoms: O2_5  and  C4_6 
REMARK    5  A    between atoms: C8_10  and  C9_11 
REMARK    6  A    between atoms: C9_11  and  N1_12 
REMARK       I    between atoms: N1_12  and  C10_13 
REMARK    7  A    between atoms: C10_13  and  C11_15 
REMARK    8  A    between atoms: C11_15  and  N2_17 
REMARK    9  A    between atoms: N2_17  and  C13_18 
REMARK   10  A    between atoms: C17_24  and  N4_25 
REMARK   11  A    between atoms: N4_25  and  C18_26 
REMARK   12  A    between atoms: C21_29  and  C22_30 
REMARK   13  A    between atoms: C22_30  and  C23_31 
REMARK   14  A    between atoms: C23_31  and  O4_32 
REMARK   15  A    between atoms: N5_34  and  C24_36 
REMARK   16  A    between atoms: C24_36  and  C25_37 
ROOT
HETATM    1  C25 UNL     1      70.361 102.878  13.239  1.00  0.00     0.143 C 
HETATM    2  C26 UNL     1      70.144 102.766  14.656  1.00  0.00     0.060 C 
HETATM    3  N6  UNL     1      69.963 102.721  15.800  1.00  0.00    -0.197 NA
ENDROOT
BRANCH   1   4
HETATM    4  C24 UNL     1      69.088 102.404  12.457  1.00  0.00     0.135 C 
BRANCH   4   5
HETATM    5  N5  UNL     1      68.513 103.735  12.030  1.00  0.00    -0.373 N 
HETATM    6  C23 UNL     1      67.492 104.248  12.663  1.00  0.00     0.115 C 
ATOM      7  H5  UNL     1      68.925 104.235  11.243  1.00  0.00     0.161 HD
BRANCH   6   8
HETATM    8  C22 UNL     1      66.716 105.508  12.256  1.00  0.00     0.122 C 
BRANCH   8   9
HETATM    9  C21 UNL     1      67.286 106.651  12.985  1.00  0.00    -0.051 A 
HETATM   10  C20 UNL     1      68.634 106.718  13.167  1.00  0.00     0.011 A 
HETATM   11  C19 UNL     1      69.272 107.813  13.894  1.00  0.00     0.045 A 
HETATM   12  C18 UNL     1      68.353 108.696  14.362  1.00  0.00     0.111 A 
HETATM   13  C28 UNL     1      66.981 108.637  14.188  1.00  0.00     0.045 A 
HETATM   14  C27 UNL     1      66.411 107.614  13.492  1.00  0.00     0.011 A 
BRANCH  12  15
HETATM   15  N4  UNL     1      68.728 109.831  15.044  1.00  0.00    -0.371 NA
BRANCH  15  16
HETATM   16  C17 UNL     1      69.010 110.751  15.667  1.00  0.00     0.262 A 
HETATM   17  N3  UNL     1      70.312 111.267  15.056  1.00  0.00    -0.314 N 
HETATM   18  C16 UNL     1      70.609 112.375  15.735  1.00  0.00     0.059 A 
ATOM     19  H3  UNL     1      70.842 110.851  14.290  1.00  0.00     0.170 HD
HETATM   20  C15 UNL     1      71.652 113.299  15.475  1.00  0.00     0.034 A 
HETATM   21  C30 UNL     1      69.734 112.569  16.628  1.00  0.00     0.048 A 
HETATM   22  C14 UNL     1      71.727 114.436  16.211  1.00  0.00     0.043 A 
HETATM   23  C13 UNL     1      70.829 114.704  17.186  1.00  0.00     0.090 A 
HETATM   24  C31 UNL     1      69.759 113.744  17.437  1.00  0.00     0.132 A 
HETATM   25  N7  UNL     1      68.730 111.619  16.639  1.00  0.00    -0.313 N 
HETATM   26  C29 UNL     1      67.615 111.626  17.504  1.00  0.00     0.160 C 
BRANCH  23  27
HETATM   27  N2  UNL     1      70.811 115.736  18.022  1.00  0.00    -0.408 NA
BRANCH  27  28
HETATM   28  C11 UNL     1      70.708 116.604  18.871  1.00  0.00     0.162 C 
HETATM   29  C12 UNL     1      69.602 117.396  19.329  1.00  0.00     0.092 C 
BRANCH  28  30
HETATM   30  C10 UNL     1      72.136 117.044  19.335  1.00  0.00     0.347 C 
HETATM   31  N1  UNL     1      73.044 116.144  19.562  1.00  0.00    -0.405 NA
HETATM   32  O3  UNL     1      72.316 118.316  19.431  1.00  0.00    -0.249 OA
BRANCH  31  33
HETATM   33  C9  UNL     1      74.066 115.130  19.817  1.00  0.00     0.261 C 
BRANCH  33  34
HETATM   34  C8  UNL     1      73.779 113.861  19.142  1.00  0.00    -0.025 A 
HETATM   35  C7  UNL     1      72.681 113.151  19.629  1.00  0.00     0.010 A 
HETATM   36  C6  UNL     1      72.359 111.909  19.162  1.00  0.00     0.003 A 
HETATM   37  C5  UNL     1      73.236 111.388  18.153  1.00  0.00     0.037 A 
HETATM   38  C4  UNL     1      74.261 112.037  17.723  1.00  0.00     0.069 A 
HETATM   39  C32 UNL     1      74.615 113.327  18.165  1.00  0.00     0.046 A 
BRANCH  38  40
HETATM   40  O2  UNL     1      75.162 111.491  16.768  1.00  0.00    -0.349 OA
BRANCH  40  41
HETATM   41  C3  UNL     1      74.690 110.860  15.559  1.00  0.00     0.201 C 
BRANCH  41  42
HETATM   42  C2  UNL     1      75.010 109.376  15.613  1.00  0.00     0.193 C 
BRANCH  42  43
HETATM   43  O1  UNL     1      74.279 108.356  16.048  1.00  0.00    -0.394 OA
HETATM   44  C1  UNL     1      73.867 107.497  15.008  1.00  0.00     0.201 C 
ENDBRANCH  42  43
ENDBRANCH  41  42
ENDBRANCH  40  41
ENDBRANCH  38  40
ENDBRANCH  33  34
ENDBRANCH  31  33
ENDBRANCH  28  30
ENDBRANCH  27  28
ENDBRANCH  23  27
ENDBRANCH  15  16
ENDBRANCH  12  15
ENDBRANCH   8   9
ENDBRANCH   6   8
BRANCH   6  45
HETATM   45  O4  UNL     1      66.949 103.760  13.748  1.00  0.00    -0.349 OA
ATOM     46  H4  UNL     1      66.012 103.909  13.709  1.00  0.00     0.219 HD
ENDBRANCH   6  45
ENDBRANCH   4   5
ENDBRANCH   1   4
TORSDOF 16
ENDMDL
MODEL 3
REMARK VINA RESULT: -8.515202345      1.449      1.956
REMARK  16 active torsions:
REMARK  status: ('A' for Active; 'I' for Inactive)
REMARK    1  A    between atoms: O1_2  and  C2_3 
REMARK    2  A    between atoms: C2_3  and  C3_4 
REMARK    3  A    between atoms: C3_4  and  O2_5 
REMARK    4  A    between atoms: O2_5  and  C4_6 
REMARK    5  A    between atoms: C8_10  and  C9_11 
REMARK    6  A    between atoms: C9_11  and  N1_12 
REMARK       I    between atoms: N1_12  and  C10_13 
REMARK    7  A    between atoms: C10_13  and  C11_15 
REMARK    8  A    between atoms: C11_15  and  N2_17 
REMARK    9  A    between atoms: N2_17  and  C13_18 
REMARK   10  A    between atoms: C17_24  and  N4_25 
REMARK   11  A    between atoms: N4_25  and  C18_26 
REMARK   12  A    between atoms: C21_29  and  C22_30 
REMARK   13  A    between atoms: C22_30  and  C23_31 
REMARK   14  A    between atoms: C23_31  and  O4_32 
REMARK   15  A    between atoms: N5_34  and  C24_36 
REMARK   16  A    between atoms: C24_36  and  C25_37 
ROOT
HETATM    1  C25 UNL     1      69.520 105.577  13.601  1.00  0.00     0.143 C 
HETATM    2  C26 UNL     1      70.217 106.831  13.496  1.00  0.00     0.060 C 
HETATM    3  N6  UNL     1      70.803 107.823  13.379  1.00  0.00    -0.197 NA
ENDROOT
BRANCH   1   4
HETATM    4  C24 UNL     1      68.128 105.669  12.889  1.00  0.00     0.135 C 
BRANCH   4   5
HETATM    5  N5  UNL     1      67.334 106.426  13.928  1.00  0.00    -0.373 N 
HETATM    6  C23 UNL     1      66.935 107.648  13.695  1.00  0.00     0.115 C 
ATOM      7  H5  UNL     1      67.109 105.982  14.818  1.00  0.00     0.161 HD
BRANCH   6   8
HETATM    8  C22 UNL     1      66.254 108.585  14.700  1.00  0.00     0.122 C 
BRANCH   8   9
HETATM    9  C21 UNL     1      67.264 109.529  15.202  1.00  0.00    -0.051 A 
HETATM   10  C20 UNL     1      67.218 110.828  14.798  1.00  0.00     0.011 A 
HETATM   11  C19 UNL     1      68.195 111.821  15.240  1.00  0.00     0.045 A 
HETATM   12  C18 UNL     1      69.128 111.265  16.056  1.00  0.00     0.111 A 
HETATM   13  C28 UNL     1      69.188 109.946  16.471  1.00  0.00     0.045 A 
HETATM   14  C27 UNL     1      68.255 109.042  16.058  1.00  0.00     0.011 A 
BRANCH  12  15
HETATM   15  N4  UNL     1      70.127 112.020  16.627  1.00  0.00    -0.371 NA
BRANCH  15  16
HETATM   16  C17 UNL     1      70.924 112.705  17.084  1.00  0.00     0.262 A 
HETATM   17  N3  UNL     1      72.164 111.827  17.244  1.00  0.00    -0.314 N 
HETATM   18  C16 UNL     1      73.115 112.637  17.713  1.00  0.00     0.059 A 
ATOM     19  H3  UNL     1      72.248 110.833  17.035  1.00  0.00     0.170 HD
HETATM   20  C15 UNL     1      74.486 112.341  17.913  1.00  0.00     0.034 A 
HETATM   21  C30 UNL     1      72.638 113.799  17.870  1.00  0.00     0.048 A 
HETATM   22  C14 UNL     1      75.329 113.334  18.293  1.00  0.00     0.043 A 
HETATM   23  C13 UNL     1      74.885 114.598  18.485  1.00  0.00     0.090 A 
HETATM   24  C31 UNL     1      73.471 114.886  18.270  1.00  0.00     0.132 A 
HETATM   25  N7  UNL     1      71.310 113.910  17.502  1.00  0.00    -0.313 N 
HETATM   26  C29 UNL     1      70.555 115.101  17.538  1.00  0.00     0.160 C 
BRANCH  23  27
HETATM   27  N2  UNL     1      75.573 115.651  18.913  1.00  0.00    -0.408 NA
BRANCH  27  28
HETATM   28  C11 UNL     1      76.269 116.526  19.395  1.00  0.00     0.162 C 
HETATM   29  C12 UNL     1      77.690 116.699  19.500  1.00  0.00     0.092 C 
BRANCH  28  30
HETATM   30  C10 UNL     1      75.374 117.488  20.245  1.00  0.00     0.347 C 
HETATM   31  N1  UNL     1      74.325 118.034  19.707  1.00  0.00    -0.405 NA
HETATM   32  O3  UNL     1      75.743 117.648  21.469  1.00  0.00    -0.249 OA
BRANCH  31  33
HETATM   33  C9  UNL     1      73.145 118.648  19.100  1.00  0.00     0.261 C 
BRANCH  33  34
HETATM   34  C8  UNL     1      71.894 118.173  19.700  1.00  0.00    -0.025 A 
HETATM   35  C7  UNL     1      70.731 118.473  18.991  1.00  0.00     0.010 A 
HETATM   36  C6  UNL     1      69.490 118.182  19.482  1.00  0.00     0.003 A 
HETATM   37  C5  UNL     1      69.474 117.562  20.776  1.00  0.00     0.037 A 
HETATM   38  C4  UNL     1      70.549 117.308  21.436  1.00  0.00     0.069 A 
HETATM   39  C32 UNL     1      71.846 117.576  20.956  1.00  0.00     0.046 A 
BRANCH  38  40
HETATM   40  O2  UNL     1      70.524 116.751  22.744  1.00  0.00    -0.349 OA
BRANCH  40  41
HETATM   41  C3  UNL     1      70.280 117.566  23.909  1.00  0.00     0.201 C 
BRANCH  41  42
HETATM   42  C2  UNL     1      71.003 116.962  25.102  1.00  0.00     0.193 C 
BRANCH  42  43
HETATM   43  O1  UNL     1      71.798 117.532  26.001  1.00  0.00    -0.394 OA
HETATM   44  C1  UNL     1      71.578 118.919  26.121  1.00  0.00     0.201 C 
ENDBRANCH  42  43
ENDBRANCH  41  42
ENDBRANCH  40  41
ENDBRANCH  38  40
ENDBRANCH  33  34
ENDBRANCH  31  33
ENDBRANCH  28  30
ENDBRANCH  27  28
ENDBRANCH  23  27
ENDBRANCH  15  16
ENDBRANCH  12  15
ENDBRANCH   8   9
ENDBRANCH   6   8
BRANCH   6  45
HETATM   45  O4  UNL     1      67.064 108.284  12.558  1.00  0.00    -0.349 OA
ATOM     46  H4  UNL     1      67.517 109.102  12.722  1.00  0.00     0.219 HD
ENDBRANCH   6  45
ENDBRANCH   4   5
ENDBRANCH   1   4
TORSDOF 16
ENDMDL
MODEL 4
REMARK VINA RESULT: -8.509786293      3.325     11.735
REMARK  16 active torsions:
REMARK  status: ('A' for Active; 'I' for Inactive)
REMARK    1  A    between atoms: O1_2  and  C2_3 
REMARK    2  A    between atoms: C2_3  and  C3_4 
REMARK    3  A    between atoms: C3_4  and  O2_5 
REMARK    4  A    between atoms: O2_5  and  C4_6 
REMARK    5  A    between atoms: C8_10  and  C9_11 
REMARK    6  A    between atoms: C9_11  and  N1_12 
REMARK       I    between atoms: N1_12  and  C10_13 
REMARK    7  A    between atoms: C10_13  and  C11_15 
REMARK    8  A    between atoms: C11_15  and  N2_17 
REMARK    9  A    between atoms: N2_17  and  C13_18 
REMARK   10  A    between atoms: C17_24  and  N4_25 
REMARK   11  A    between atoms: N4_25  and  C18_26 
REMARK   12  A    between atoms: C21_29  and  C22_30 
REMARK   13  A    between atoms: C22_30  and  C23_31 
REMARK   14  A    between atoms: C23_31  and  O4_32 
REMARK   15  A    between atoms: N5_34  and  C24_36 
REMARK   16  A    between atoms: C24_36  and  C25_37 
ROOT
HETATM    1  C25 UNL     1      73.465 118.290  25.961  1.00  0.00     0.143 C 
HETATM    2  C26 UNL     1      72.370 119.189  26.208  1.00  0.00     0.060 C 
HETATM    3  N6  UNL     1      71.489 119.902  26.450  1.00  0.00    -0.197 NA
ENDROOT
BRANCH   1   4
HETATM    4  C24 UNL     1      74.803 119.092  25.816  1.00  0.00     0.135 C 
BRANCH   4   5
HETATM    5  N5  UNL     1      74.687 119.571  24.388  1.00  0.00    -0.373 N 
HETATM    6  C23 UNL     1      75.361 118.984  23.436  1.00  0.00     0.115 C 
ATOM      7  H5  UNL     1      74.078 120.358  24.166  1.00  0.00     0.161 HD
BRANCH   6   8
HETATM    8  C22 UNL     1      75.456 119.447  21.976  1.00  0.00     0.122 C 
BRANCH   8   9
HETATM    9  C21 UNL     1      74.675 118.516  21.149  1.00  0.00    -0.051 A 
HETATM   10  C20 UNL     1      75.268 117.922  20.076  1.00  0.00     0.011 A 
HETATM   11  C19 UNL     1      74.552 116.998  19.199  1.00  0.00     0.045 A 
HETATM   12  C18 UNL     1      73.259 116.853  19.585  1.00  0.00     0.111 A 
HETATM   13  C28 UNL     1      72.644 117.453  20.670  1.00  0.00     0.045 A 
HETATM   14  C27 UNL     1      73.336 118.299  21.483  1.00  0.00     0.011 A 
BRANCH  12  15
HETATM   15  N4  UNL     1      72.403 115.998  18.928  1.00  0.00    -0.371 NA
BRANCH  15  16
HETATM   16  C17 UNL     1      71.741 115.242  18.377  1.00  0.00     0.262 A 
HETATM   17  N3  UNL     1      72.483 114.930  17.078  1.00  0.00    -0.314 N 
HETATM   18  C16 UNL     1      71.750 114.000  16.465  1.00  0.00     0.059 A 
ATOM     19  H3  UNL     1      73.354 115.346  16.749  1.00  0.00     0.170 HD
HETATM   20  C15 UNL     1      72.068 113.283  15.284  1.00  0.00     0.034 A 
HETATM   21  C30 UNL     1      70.725 113.744  17.162  1.00  0.00     0.048 A 
HETATM   22  C14 UNL     1      71.245 112.287  14.872  1.00  0.00     0.043 A 
HETATM   23  C13 UNL     1      70.128 111.966  15.566  1.00  0.00     0.090 A 
HETATM   24  C31 UNL     1      69.819 112.710  16.782  1.00  0.00     0.132 A 
HETATM   25  N7  UNL     1      70.660 114.463  18.341  1.00  0.00    -0.313 N 
HETATM   26  C29 UNL     1      69.647 114.336  19.314  1.00  0.00     0.160 C 
BRANCH  23  27
HETATM   27  N2  UNL     1      69.203 111.064  15.255  1.00  0.00    -0.408 NA
BRANCH  27  28
HETATM   28  C11 UNL     1      68.458 110.140  14.982  1.00  0.00     0.162 C 
HETATM   29  C12 UNL     1      67.068 110.077  14.631  1.00  0.00     0.092 C 
BRANCH  28  30
HETATM   30  C10 UNL     1      69.163 108.788  15.331  1.00  0.00     0.347 C 
HETATM   31  N1  UNL     1      70.195 108.404  14.642  1.00  0.00    -0.405 NA
HETATM   32  O3  UNL     1      68.664 108.148  16.332  1.00  0.00    -0.249 OA
BRANCH  31  33
HETATM   33  C9  UNL     1      71.357 107.973  13.866  1.00  0.00     0.261 C 
BRANCH  33  34
HETATM   34  C8  UNL     1      72.611 108.539  14.372  1.00  0.00    -0.025 A 
HETATM   35  C7  UNL     1      73.708 108.440  13.516  1.00  0.00     0.010 A 
HETATM   36  C6  UNL     1      74.960 108.833  13.898  1.00  0.00     0.003 A 
HETATM   37  C5  UNL     1      75.061 109.336  15.237  1.00  0.00     0.037 A 
HETATM   38  C4  UNL     1      74.051 109.404  16.031  1.00  0.00     0.069 A 
HETATM   39  C32 UNL     1      72.742 109.027  15.669  1.00  0.00     0.046 A 
BRANCH  38  40
HETATM   40  O2  UNL     1      74.169 109.846  17.377  1.00  0.00    -0.349 OA
BRANCH  40  41
HETATM   41  C3  UNL     1      73.791 111.182  17.770  1.00  0.00     0.201 C 
BRANCH  41  42
HETATM   42  C2  UNL     1      74.899 112.148  17.385  1.00  0.00     0.193 C 
BRANCH  42  43
HETATM   43  O1  UNL     1      75.014 113.453  17.606  1.00  0.00    -0.394 OA
HETATM   44  C1  UNL     1      75.387 113.749  18.932  1.00  0.00     0.201 C 
ENDBRANCH  42  43
ENDBRANCH  41  42
ENDBRANCH  40  41
ENDBRANCH  38  40
ENDBRANCH  33  34
ENDBRANCH  31  33
ENDBRANCH  28  30
ENDBRANCH  27  28
ENDBRANCH  23  27
ENDBRANCH  15  16
ENDBRANCH  12  15
ENDBRANCH   8   9
ENDBRANCH   6   8
BRANCH   6  45
HETATM   45  O4  UNL     1      76.085 117.903  23.575  1.00  0.00    -0.349 OA
ATOM     46  H4  UNL     1      75.804 117.452  24.362  1.00  0.00     0.219 HD
ENDBRANCH   6  45
ENDBRANCH   4   5
ENDBRANCH   1   4
TORSDOF 16
ENDMDL
MODEL 5
REMARK VINA RESULT: -8.419468732      2.832     11.763
REMARK  16 active torsions:
REMARK  status: ('A' for Active; 'I' for Inactive)
REMARK    1  A    between atoms: O1_2  and  C2_3 
REMARK    2  A    between atoms: C2_3  and  C3_4 
REMARK    3  A    between atoms: C3_4  and  O2_5 
REMARK    4  A    between atoms: O2_5  and  C4_6 
REMARK    5  A    between atoms: C8_10  and  C9_11 
REMARK    6  A    between atoms: C9_11  and  N1_12 
REMARK       I    between atoms: N1_12  and  C10_13 
REMARK    7  A    between atoms: C10_13  and  C11_15 
REMARK    8  A    between atoms: C11_15  and  N2_17 
REMARK    9  A    between atoms: N2_17  and  C13_18 
REMARK   10  A    between atoms: C17_24  and  N4_25 
REMARK   11  A    between atoms: N4_25  and  C18_26 
REMARK   12  A    between atoms: C21_29  and  C22_30 
REMARK   13  A    between atoms: C22_30  and  C23_31 
REMARK   14  A    between atoms: C23_31  and  O4_32 
REMARK   15  A    between atoms: N5_34  and  C24_36 
REMARK   16  A    between atoms: C24_36  and  C25_37 
ROOT
HETATM    1  C25 UNL     1      71.863 118.143  23.205  1.00  0.00     0.143 C 
HETATM    2  C26 UNL     1      71.621 117.870  21.814  1.00  0.00     0.060 C 
HETATM    3  N6  UNL     1      71.391 117.679  20.695  1.00  0.00    -0.197 NA
ENDROOT
BRANCH   1   4
HETATM    4  C24 UNL     1      73.093 119.101  23.363  1.00  0.00     0.135 C 
BRANCH   4   5
HETATM    5  N5  UNL     1      73.889 118.735  22.132  1.00  0.00    -0.373 N 
HETATM    6  C23 UNL     1      75.110 118.284  22.243  1.00  0.00     0.115 C 
ATOM      7  H5  UNL     1      73.471 118.842  21.208  1.00  0.00     0.161 HD
BRANCH   6   8
HETATM    8  C22 UNL     1      76.083 118.013  21.089  1.00  0.00     0.122 C 
BRANCH   8   9
HETATM    9  C21 UNL     1      75.593 116.843  20.343  1.00  0.00    -0.051 A 
HETATM   10  C20 UNL     1      74.578 117.002  19.449  1.00  0.00     0.011 A 
HETATM   11  C19 UNL     1      74.028 115.886  18.683  1.00  0.00     0.045 A 
HETATM   12  C18 UNL     1      74.637 114.717  19.008  1.00  0.00     0.111 A 
HETATM   13  C28 UNL     1      75.666 114.542  19.917  1.00  0.00     0.045 A 
HETATM   14  C27 UNL     1      76.174 115.600  20.608  1.00  0.00     0.011 A 
BRANCH  12  15
HETATM   15  N4  UNL     1      74.309 113.536  18.382  1.00  0.00    -0.371 NA
BRANCH  15  16
HETATM   16  C17 UNL     1      74.101 112.538  17.860  1.00  0.00     0.262 A 
HETATM   17  N3  UNL     1      75.400 112.185  17.136  1.00  0.00    -0.314 N 
HETATM   18  C16 UNL     1      75.185 110.991  16.582  1.00  0.00     0.059 A 
ATOM     19  H3  UNL     1      76.251 112.744  17.087  1.00  0.00     0.170 HD
HETATM   20  C15 UNL     1      76.120 110.167  15.907  1.00  0.00     0.034 A 
HETATM   21  C30 UNL     1      74.004 110.614  16.838  1.00  0.00     0.048 A 
HETATM   22  C14 UNL     1      75.742 108.926  15.509  1.00  0.00     0.043 A 
HETATM   23  C13 UNL     1      74.492 108.462  15.743  1.00  0.00     0.090 A 
HETATM   24  C31 UNL     1      73.545 109.322  16.444  1.00  0.00     0.132 A 
HETATM   25  N7  UNL     1      73.291 111.508  17.615  1.00  0.00    -0.313 N 
HETATM   26  C29 UNL     1      71.972 111.311  18.075  1.00  0.00     0.160 C 
BRANCH  23  27
HETATM   27  N2  UNL     1      73.964 107.304  15.363  1.00  0.00    -0.408 NA
BRANCH  27  28
HETATM   28  C11 UNL     1      73.485 106.294  14.881  1.00  0.00     0.162 C 
HETATM   29  C12 UNL     1      73.966 104.947  14.758  1.00  0.00     0.092 C 
BRANCH  28  30
HETATM   30  C10 UNL     1      72.211 106.669  14.054  1.00  0.00     0.347 C 
HETATM   31  N1  UNL     1      71.079 106.091  14.320  1.00  0.00    -0.405 NA
HETATM   32  O3  UNL     1      72.383 107.579  13.158  1.00  0.00    -0.249 OA
BRANCH  31  33
HETATM   33  C9  UNL     1      69.804 105.440  14.620  1.00  0.00     0.261 C 
BRANCH  33  34
HETATM   34  C8  UNL     1      68.662 106.347  14.469  1.00  0.00    -0.025 A 
HETATM   35  C7  UNL     1      67.778 106.039  13.434  1.00  0.00     0.010 A 
HETATM   36  C6  UNL     1      66.728 106.853  13.115  1.00  0.00     0.003 A 
HETATM   37  C5  UNL     1      66.613 108.042  13.908  1.00  0.00     0.037 A 
HETATM   38  C4  UNL     1      67.444 108.333  14.846  1.00  0.00     0.069 A 
HETATM   39  C32 UNL     1      68.527 107.512  15.218  1.00  0.00     0.046 A 
BRANCH  38  40
HETATM   40  O2  UNL     1      67.361 109.544  15.588  1.00  0.00    -0.349 OA
BRANCH  40  41
HETATM   41  C3  UNL     1      68.271 109.831  16.670  1.00  0.00     0.201 C 
BRANCH  41  42
HETATM   42  C2  UNL     1      68.759 111.265  16.546  1.00  0.00     0.193 C 
BRANCH  42  43
HETATM   43  O1  UNL     1      68.970 112.007  15.465  1.00  0.00    -0.394 OA
HETATM   44  C1  UNL     1      70.176 111.684  14.809  1.00  0.00     0.201 C 
ENDBRANCH  42  43
ENDBRANCH  41  42
ENDBRANCH  40  41
ENDBRANCH  38  40
ENDBRANCH  33  34
ENDBRANCH  31  33
ENDBRANCH  28  30
ENDBRANCH  27  28
ENDBRANCH  23  27
ENDBRANCH  15  16
ENDBRANCH  12  15
ENDBRANCH   8   9
ENDBRANCH   6   8
BRANCH   6  45
HETATM   45  O4  UNL     1      75.714 118.001  23.369  1.00  0.00    -0.349 OA
ATOM     46  H4  UNL     1      75.054 117.813  24.026  1.00  0.00     0.219 HD
ENDBRANCH   6  45
ENDBRANCH   4   5
ENDBRANCH   1   4
TORSDOF 16
ENDMDL
