MODEL 1
REMARK VINA RESULT: -8.710916597      0.000      0.000
REMARK  14 active torsions:
REMARK  status: ('A' for Active; 'I' for Inactive)
REMARK    1  A    between atoms: C2_2  and  C3_3 
REMARK    2  A    between atoms: C3_3  and  C4_4 
REMARK    3  A    between atoms: C6_6  and  C7_7 
REMARK    4  A    between atoms: C7_7  and  C8_8 
REMARK    5  A    between atoms: C8_8  and  N1_9 
REMARK    6  A    between atoms: C8_8  and  C26_34 
REMARK       I    between atoms: N1_9  and  C9_11 
REMARK    7  A    between atoms: C9_11  and  C10_13 
REMARK    8  A    between atoms: C12_15  and  C13_16 
REMARK    9  A    between atoms: C13_16  and  N2_17 
REMARK   10  A    between atoms: C15_21  and  C16_22 
REMARK   11  A    between atoms: C16_22  and  O3_24 
REMARK   12  A    between atoms: O3_24  and  C17_25 
REMARK   13  A    between atoms: C27_37  and  C28_38 
REMARK   14  A    between atoms: C30_42  and  O8_43 
ROOT
HETATM    1  N1  UNL     1      71.367 110.833  15.947  1.00  0.00    -0.342 N 
ATOM      2  H1  UNL     1      71.426 110.913  14.932  1.00  0.00     0.163 HD
HETATM    3  C9  UNL     1      70.218 110.198  16.470  1.00  0.00     0.253 C 
HETATM    4  O1  UNL     1      70.177 110.155  17.750  1.00  0.00    -0.268 OA
ENDROOT
BRANCH   3   5
HETATM    5  C10 UNL     1      69.131 109.623  15.703  1.00  0.00     0.038 A 
HETATM    6  C11 UNL     1      69.445 108.604  14.841  1.00  0.00     0.027 A 
HETATM    7  C12 UNL     1      68.456 107.938  14.090  1.00  0.00    -0.033 A 
HETATM    8  C21 UNL     1      67.157 108.316  14.224  1.00  0.00    -0.053 A 
HETATM    9  C22 UNL     1      66.039 107.672  13.514  1.00  0.00     0.049 C 
HETATM   10  C23 UNL     1      66.813 109.347  15.093  1.00  0.00     0.015 A 
HETATM   11  C24 UNL     1      67.811 109.986  15.820  1.00  0.00    -0.046 A 
HETATM   12  C25 UNL     1      67.443 111.104  16.716  1.00  0.00     0.049 C 
BRANCH   7  13
HETATM   13  C13 UNL     1      68.860 106.871  13.165  1.00  0.00     0.168 C 
BRANCH  13  14
HETATM   14  N2  UNL     1      69.254 105.624  13.791  1.00  0.00    -0.346 N 
HETATM   15  C14 UNL     1      68.368 104.631  14.154  1.00  0.00     0.183 A 
HETATM   16  N3  UNL     1      69.036 103.604  14.681  1.00  0.00    -0.346 N 
HETATM   17  C15 UNL     1      70.354 103.869  14.688  1.00  0.00     0.124 A 
ATOM     18  H3  UNL     1      68.610 102.744  15.028  1.00  0.00     0.167 HD
HETATM   19  C20 UNL     1      70.450 105.126  14.129  1.00  0.00     0.128 A 
BRANCH  17  20
HETATM   20  C16 UNL     1      71.399 102.990  15.175  1.00  0.00     0.311 C 
HETATM   21  O2  UNL     1      71.666 101.949  14.476  1.00  0.00    -0.258 OA
BRANCH  20  22
HETATM   22  O3  UNL     1      72.142 103.141  16.305  1.00  0.00    -0.312 OA
BRANCH  22  23
HETATM   23  C17 UNL     1      73.511 103.448  16.386  1.00  0.00     0.124 C 
HETATM   24  C18 UNL     1      73.908 103.339  17.849  1.00  0.00     0.040 C 
HETATM   25  C19 UNL     1      73.827 104.802  15.804  1.00  0.00     0.040 C 
ENDBRANCH  22  23
ENDBRANCH  20  22
ENDBRANCH  17  20
ENDBRANCH  13  14
ENDBRANCH   7  13
ENDBRANCH   3   5
BRANCH   1  26
HETATM   26  C8  UNL     1      72.442 111.369  16.690  1.00  0.00     0.190 C 
BRANCH  26  27
HETATM   27  C7  UNL     1      73.009 112.705  16.228  1.00  0.00     0.076 C 
BRANCH  27  28
HETATM   28  C6  UNL     1      73.161 113.689  17.303  1.00  0.00    -0.038 A 
HETATM   29  C5  UNL     1      74.496 113.779  17.792  1.00  0.00     0.018 A 
HETATM   30  C4  UNL     1      74.745 114.573  18.859  1.00  0.00    -0.021 A 
HETATM   31  C30 UNL     1      73.717 115.285  19.463  1.00  0.00     0.075 A 
HETATM   32  C29 UNL     1      72.449 115.192  18.985  1.00  0.00     0.056 A 
HETATM   33  C27 UNL     1      72.131 114.374  17.867  1.00  0.00     0.049 A 
BRANCH  30  34
HETATM   34  C3  UNL     1      76.109 114.715  19.468  1.00  0.00     0.067 C 
BRANCH  34  35
HETATM   35  C2  UNL     1      76.823 115.870  18.851  1.00  0.00    -0.032 C 
HETATM   36  C1  UNL     1      77.452 116.769  19.596  1.00  0.00     0.007 C 
ENDBRANCH  34  35
ENDBRANCH  30  34
BRANCH  31  37
HETATM   37  O8  UNL     1      73.998 116.078  20.540  1.00  0.00    -0.355 OA
HETATM   38  C31 UNL     1      73.787 117.460  20.513  1.00  0.00     0.210 C 
ENDBRANCH  31  37
BRANCH  33  39
HETATM   39  C28 UNL     1      70.753 114.422  17.388  1.00  0.00     0.210 C 
HETATM   40  O6  UNL     1      70.361 115.258  16.572  1.00  0.00    -0.644 OA
HETATM   41  O7  UNL     1      69.867 113.468  17.895  1.00  0.00    -0.644 OA
ENDBRANCH  33  39
ENDBRANCH  27  28
ENDBRANCH  26  27
BRANCH  26  42
HETATM   42  C26 UNL     1      73.514 110.377  16.862  1.00  0.00     0.197 C 
HETATM   43  O4  UNL     1      74.326 110.346  17.805  1.00  0.00    -0.646 OA
HETATM   44  O5  UNL     1      73.616 109.391  15.872  1.00  0.00    -0.646 OA
ENDBRANCH  26  42
ENDBRANCH   1  26
TORSDOF 14
ENDMDL
MODEL 2
REMARK VINA RESULT: -8.709665420      2.652      5.461
REMARK  14 active torsions:
REMARK  status: ('A' for Active; 'I' for Inactive)
REMARK    1  A    between atoms: C2_2  and  C3_3 
REMARK    2  A    between atoms: C3_3  and  C4_4 
REMARK    3  A    between atoms: C6_6  and  C7_7 
REMARK    4  A    between atoms: C7_7  and  C8_8 
REMARK    5  A    between atoms: C8_8  and  N1_9 
REMARK    6  A    between atoms: C8_8  and  C26_34 
REMARK       I    between atoms: N1_9  and  C9_11 
REMARK    7  A    between atoms: C9_11  and  C10_13 
REMARK    8  A    between atoms: C12_15  and  C13_16 
REMARK    9  A    between atoms: C13_16  and  N2_17 
REMARK   10  A    between atoms: C15_21  and  C16_22 
REMARK   11  A    between atoms: C16_22  and  O3_24 
REMARK   12  A    between atoms: O3_24  and  C17_25 
REMARK   13  A    between atoms: C27_37  and  C28_38 
REMARK   14  A    between atoms: C30_42  and  O8_43 
ROOT
HETATM    1  N1  UNL     1      71.932 113.357  18.154  1.00  0.00    -0.342 N 
ATOM      2  H1  UNL     1      71.986 112.573  18.804  1.00  0.00     0.163 HD
HETATM    3  C9  UNL     1      72.718 113.266  16.981  1.00  0.00     0.253 C 
HETATM    4  O1  UNL     1      72.640 114.290  16.216  1.00  0.00    -0.268 OA
ENDROOT
BRANCH   3   5
HETATM    5  C10 UNL     1      73.568 112.156  16.602  1.00  0.00     0.038 A 
HETATM    6  C11 UNL     1      73.186 111.420  15.511  1.00  0.00     0.027 A 
HETATM    7  C12 UNL     1      73.970 110.355  15.024  1.00  0.00    -0.033 A 
HETATM    8  C21 UNL     1      75.136 110.050  15.654  1.00  0.00    -0.053 A 
HETATM    9  C22 UNL     1      76.048 108.981  15.216  1.00  0.00     0.049 C 
HETATM   10  C23 UNL     1      75.545 110.783  16.764  1.00  0.00     0.015 A 
HETATM   11  C24 UNL     1      74.751 111.827  17.221  1.00  0.00    -0.046 A 
HETATM   12  C25 UNL     1      75.174 112.580  18.422  1.00  0.00     0.049 C 
BRANCH   7  13
HETATM   13  C13 UNL     1      73.493 109.589  13.865  1.00  0.00     0.168 C 
BRANCH  13  14
HETATM   14  N2  UNL     1      72.517 108.558  14.161  1.00  0.00    -0.346 N 
HETATM   15  C14 UNL     1      72.833 107.226  14.334  1.00  0.00     0.183 A 
HETATM   16  N3  UNL     1      71.727 106.536  14.618  1.00  0.00    -0.346 N 
HETATM   17  C15 UNL     1      70.666 107.360  14.644  1.00  0.00     0.124 A 
ATOM     18  H3  UNL     1      71.693 105.531  14.790  1.00  0.00     0.167 HD
HETATM   19  C20 UNL     1      71.194 108.602  14.358  1.00  0.00     0.128 A 
BRANCH  17  20
HETATM   20  C16 UNL     1      69.296 106.980  14.926  1.00  0.00     0.311 C 
HETATM   21  O2  UNL     1      69.048 105.729  15.066  1.00  0.00    -0.258 OA
BRANCH  20  22
HETATM   22  O3  UNL     1      68.223 107.806  15.063  1.00  0.00    -0.312 OA
BRANCH  22  23
HETATM   23  C17 UNL     1      67.490 108.423  14.036  1.00  0.00     0.124 C 
HETATM   24  C18 UNL     1      66.804 109.636  14.642  1.00  0.00     0.040 C 
HETATM   25  C19 UNL     1      66.514 107.477  13.384  1.00  0.00     0.040 C 
ENDBRANCH  22  23
ENDBRANCH  20  22
ENDBRANCH  17  20
ENDBRANCH  13  14
ENDBRANCH   7  13
ENDBRANCH   3   5
BRANCH   1  26
HETATM   26  C8  UNL     1      71.080 114.424  18.513  1.00  0.00     0.190 C 
BRANCH  26  27
HETATM   27  C7  UNL     1      71.252 115.012  19.907  1.00  0.00     0.076 C 
BRANCH  27  28
HETATM   28  C6  UNL     1      72.287 116.046  19.991  1.00  0.00    -0.038 A 
HETATM   29  C5  UNL     1      73.587 115.516  20.228  1.00  0.00     0.018 A 
HETATM   30  C4  UNL     1      74.612 116.374  20.433  1.00  0.00    -0.021 A 
HETATM   31  C30 UNL     1      74.397 117.746  20.411  1.00  0.00     0.075 A 
HETATM   32  C29 UNL     1      73.153 118.239  20.182  1.00  0.00     0.056 A 
HETATM   33  C27 UNL     1      72.041 117.383  19.959  1.00  0.00     0.049 A 
BRANCH  30  34
HETATM   34  C3  UNL     1      76.013 115.918  20.720  1.00  0.00     0.067 C 
BRANCH  34  35
HETATM   35  C2  UNL     1      76.690 115.530  19.449  1.00  0.00    -0.032 C 
HETATM   36  C1  UNL     1      77.511 116.364  18.823  1.00  0.00     0.007 C 
ENDBRANCH  34  35
ENDBRANCH  30  34
BRANCH  31  37
HETATM   37  O8  UNL     1      75.451 118.590  20.624  1.00  0.00    -0.355 OA
HETATM   38  C31 UNL     1      75.620 119.269  21.834  1.00  0.00     0.210 C 
ENDBRANCH  31  37
BRANCH  33  39
HETATM   39  C28 UNL     1      70.771 118.025  19.634  1.00  0.00     0.210 C 
HETATM   40  O6  UNL     1      70.311 118.050  18.492  1.00  0.00    -0.644 OA
HETATM   41  O7  UNL     1      70.073 118.628  20.684  1.00  0.00    -0.644 OA
ENDBRANCH  33  39
ENDBRANCH  27  28
ENDBRANCH  26  27
BRANCH  26  42
HETATM   42  C26 UNL     1      69.671 114.087  18.257  1.00  0.00     0.197 C 
HETATM   43  O4  UNL     1      69.270 113.136  17.561  1.00  0.00    -0.646 OA
HETATM   44  O5  UNL     1      68.712 114.917  18.852  1.00  0.00    -0.646 OA
ENDBRANCH  26  42
ENDBRANCH   1  26
TORSDOF 14
ENDMDL
MODEL 3
REMARK VINA RESULT: -8.606731369      2.297      3.230
REMARK  14 active torsions:
REMARK  status: ('A' for Active; 'I' for Inactive)
REMARK    1  A    between atoms: C2_2  and  C3_3 
REMARK    2  A    between atoms: C3_3  and  C4_4 
REMARK    3  A    between atoms: C6_6  and  C7_7 
REMARK    4  A    between atoms: C7_7  and  C8_8 
REMARK    5  A    between atoms: C8_8  and  N1_9 
REMARK    6  A    between atoms: C8_8  and  C26_34 
REMARK       I    between atoms: N1_9  and  C9_11 
REMARK    7  A    between atoms: C9_11  and  C10_13 
REMARK    8  A    between atoms: C12_15  and  C13_16 
REMARK    9  A    between atoms: C13_16  and  N2_17 
REMARK   10  A    between atoms: C15_21  and  C16_22 
REMARK   11  A    between atoms: C16_22  and  O3_24 
REMARK   12  A    between atoms: O3_24  and  C17_25 
REMARK   13  A    between atoms: C27_37  and  C28_38 
REMARK   14  A    between atoms: C30_42  and  O8_43 
ROOT
HETATM    1  N1  UNL     1      70.682 111.298  16.294  1.00  0.00    -0.342 N 
ATOM      2  H1  UNL     1      71.260 110.946  15.531  1.00  0.00     0.163 HD
HETATM    3  C9  UNL     1      69.370 110.778  16.390  1.00  0.00     0.253 C 
HETATM    4  O1  UNL     1      68.675 111.277  17.342  1.00  0.00    -0.268 OA
ENDROOT
BRANCH   3   5
HETATM    5  C10 UNL     1      68.780 109.773  15.528  1.00  0.00     0.038 A 
HETATM    6  C11 UNL     1      69.475 108.602  15.368  1.00  0.00     0.027 A 
HETATM    7  C12 UNL     1      68.965 107.538  14.596  1.00  0.00    -0.033 A 
HETATM    8  C21 UNL     1      67.752 107.677  13.998  1.00  0.00    -0.053 A 
HETATM    9  C22 UNL     1      67.108 106.622  13.196  1.00  0.00     0.049 C 
HETATM   10  C23 UNL     1      67.028 108.856  14.146  1.00  0.00     0.015 A 
HETATM   11  C24 UNL     1      67.558 109.888  14.912  1.00  0.00    -0.046 A 
HETATM   12  C25 UNL     1      66.799 111.152  15.037  1.00  0.00     0.049 C 
BRANCH   7  13
HETATM   13  C13 UNL     1      69.769 106.318  14.443  1.00  0.00     0.168 C 
BRANCH  13  14
HETATM   14  N2  UNL     1      71.201 106.527  14.351  1.00  0.00    -0.346 N 
HETATM   15  C14 UNL     1      72.140 105.564  14.660  1.00  0.00     0.183 A 
HETATM   16  N3  UNL     1      73.365 106.050  14.452  1.00  0.00    -0.346 N 
HETATM   17  C15 UNL     1      73.287 107.317  14.010  1.00  0.00     0.124 A 
ATOM     18  H3  UNL     1      74.233 105.536  14.605  1.00  0.00     0.167 HD
HETATM   19  C20 UNL     1      71.933 107.576  13.959  1.00  0.00     0.128 A 
BRANCH  17  20
HETATM   20  C16 UNL     1      74.406 108.172  13.666  1.00  0.00     0.311 C 
HETATM   21  O2  UNL     1      74.607 108.410  12.422  1.00  0.00    -0.258 OA
BRANCH  20  22
HETATM   22  O3  UNL     1      75.285 108.762  14.521  1.00  0.00    -0.312 OA
BRANCH  22  23
HETATM   23  C17 UNL     1      74.984 109.646  15.572  1.00  0.00     0.124 C 
HETATM   24  C18 UNL     1      74.359 110.883  14.950  1.00  0.00     0.040 C 
HETATM   25  C19 UNL     1      76.197 109.973  16.405  1.00  0.00     0.040 C 
ENDBRANCH  22  23
ENDBRANCH  20  22
ENDBRANCH  17  20
ENDBRANCH  13  14
ENDBRANCH   7  13
ENDBRANCH   3   5
BRANCH   1  26
HETATM   26  C8  UNL     1      71.270 112.255  17.149  1.00  0.00     0.190 C 
BRANCH  26  27
HETATM   27  C7  UNL     1      72.060 113.380  16.494  1.00  0.00     0.076 C 
BRANCH  27  28
HETATM   28  C6  UNL     1      72.420 114.464  17.411  1.00  0.00    -0.038 A 
HETATM   29  C5  UNL     1      73.826 114.592  17.601  1.00  0.00     0.018 A 
HETATM   30  C4  UNL     1      74.281 115.485  18.508  1.00  0.00    -0.021 A 
HETATM   31  C30 UNL     1      73.392 116.263  19.239  1.00  0.00     0.075 A 
HETATM   32  C29 UNL     1      72.054 116.134  19.047  1.00  0.00     0.056 A 
HETATM   33  C27 UNL     1      71.521 115.212  18.106  1.00  0.00     0.049 A 
BRANCH  30  34
HETATM   34  C3  UNL     1      75.740 115.675  18.803  1.00  0.00     0.067 C 
BRANCH  34  35
HETATM   35  C2  UNL     1      76.186 114.681  19.822  1.00  0.00    -0.032 C 
HETATM   36  C1  UNL     1      76.393 115.034  21.084  1.00  0.00     0.007 C 
ENDBRANCH  34  35
ENDBRANCH  30  34
BRANCH  31  37
HETATM   37  O8  UNL     1      73.881 117.157  20.150  1.00  0.00    -0.355 OA
HETATM   38  C31 UNL     1      73.641 118.530  20.038  1.00  0.00     0.210 C 
ENDBRANCH  31  37
BRANCH  33  39
HETATM   39  C28 UNL     1      70.073 115.224  17.921  1.00  0.00     0.210 C 
HETATM   40  O6  UNL     1      69.303 114.607  18.659  1.00  0.00    -0.644 OA
HETATM   41  O7  UNL     1      69.572 115.974  16.854  1.00  0.00    -0.644 OA
ENDBRANCH  33  39
ENDBRANCH  27  28
ENDBRANCH  26  27
BRANCH  26  42
HETATM   42  C26 UNL     1      72.060 111.607  18.207  1.00  0.00     0.197 C 
HETATM   43  O4  UNL     1      73.077 110.914  18.027  1.00  0.00    -0.646 OA
HETATM   44  O5  UNL     1      71.615 111.795  19.522  1.00  0.00    -0.646 OA
ENDBRANCH  26  42
ENDBRANCH   1  26
TORSDOF 14
ENDMDL
MODEL 4
REMARK VINA RESULT: -8.572755464      2.845      4.385
REMARK  14 active torsions:
REMARK  status: ('A' for Active; 'I' for Inactive)
REMARK    1  A    between atoms: C2_2  and  C3_3 
REMARK    2  A    between atoms: C3_3  and  C4_4 
REMARK    3  A    between atoms: C6_6  and  C7_7 
REMARK    4  A    between atoms: C7_7  and  C8_8 
REMARK    5  A    between atoms: C8_8  and  N1_9 
REMARK    6  A    between atoms: C8_8  and  C26_34 
REMARK       I    between atoms: N1_9  and  C9_11 
REMARK    7  A    between atoms: C9_11  and  C10_13 
REMARK    8  A    between atoms: C12_15  and  C13_16 
REMARK    9  A    between atoms: C13_16  and  N2_17 
REMARK   10  A    between atoms: C15_21  and  C16_22 
REMARK   11  A    between atoms: C16_22  and  O3_24 
REMARK   12  A    between atoms: O3_24  and  C17_25 
REMARK   13  A    between atoms: C27_37  and  C28_38 
REMARK   14  A    between atoms: C30_42  and  O8_43 
ROOT
HETATM    1  N1  UNL     1      72.682 112.513  17.479  1.00  0.00    -0.342 N 
ATOM      2  H1  UNL     1      72.596 112.699  16.480  1.00  0.00     0.163 HD
HETATM    3  C9  UNL     1      71.555 111.949  18.121  1.00  0.00     0.253 C 
HETATM    4  O1  UNL     1      71.702 111.767  19.380  1.00  0.00    -0.268 OA
ENDROOT
BRANCH   3   5
HETATM    5  C10 UNL     1      70.302 111.583  17.490  1.00  0.00     0.038 A 
HETATM    6  C11 UNL     1      70.227 110.336  16.926  1.00  0.00     0.027 A 
HETATM    7  C12 UNL     1      69.039 109.860  16.336  1.00  0.00    -0.033 A 
HETATM    8  C21 UNL     1      67.939 110.658  16.328  1.00  0.00    -0.053 A 
HETATM    9  C22 UNL     1      66.637 110.254  15.769  1.00  0.00     0.049 C 
HETATM   10  C23 UNL     1      67.990 111.928  16.895  1.00  0.00     0.015 A 
HETATM   11  C24 UNL     1      69.176 112.370  17.467  1.00  0.00    -0.046 A 
HETATM   12  C25 UNL     1      69.234 113.735  18.037  1.00  0.00     0.049 C 
BRANCH   7  13
HETATM   13  C13 UNL     1      69.030 108.523  15.727  1.00  0.00     0.168 C 
BRANCH  13  14
HETATM   14  N2  UNL     1      70.106 108.261  14.791  1.00  0.00    -0.346 N 
HETATM   15  C14 UNL     1      69.927 108.144  13.427  1.00  0.00     0.183 A 
HETATM   16  N3  UNL     1      71.105 107.929  12.838  1.00  0.00    -0.346 N 
HETATM   17  C15 UNL     1      72.081 107.897  13.761  1.00  0.00     0.124 A 
ATOM     18  H3  UNL     1      71.244 107.807  11.834  1.00  0.00     0.167 HD
HETATM   19  C20 UNL     1      71.424 108.107  14.956  1.00  0.00     0.128 A 
BRANCH  17  20
HETATM   20  C16 UNL     1      73.493 107.694  13.504  1.00  0.00     0.311 C 
HETATM   21  O2  UNL     1      73.940 106.494  13.580  1.00  0.00    -0.258 OA
BRANCH  20  22
HETATM   22  O3  UNL     1      74.417 108.642  13.187  1.00  0.00    -0.312 OA
BRANCH  22  23
HETATM   23  C17 UNL     1      74.995 109.587  14.051  1.00  0.00     0.124 C 
HETATM   24  C18 UNL     1      75.454 108.838  15.291  1.00  0.00     0.040 C 
HETATM   25  C19 UNL     1      74.049 110.714  14.377  1.00  0.00     0.040 C 
ENDBRANCH  22  23
ENDBRANCH  20  22
ENDBRANCH  17  20
ENDBRANCH  13  14
ENDBRANCH   7  13
ENDBRANCH   3   5
BRANCH   1  26
HETATM   26  C8  UNL     1      73.914 112.844  18.084  1.00  0.00     0.190 C 
BRANCH  26  27
HETATM   27  C7  UNL     1      74.505 114.209  17.758  1.00  0.00     0.076 C 
BRANCH  27  28
HETATM   28  C6  UNL     1      74.139 115.257  18.714  1.00  0.00    -0.038 A 
HETATM   29  C5  UNL     1      72.733 115.359  18.921  1.00  0.00     0.018 A 
HETATM   30  C4  UNL     1      72.261 116.360  19.698  1.00  0.00    -0.021 A 
HETATM   31  C30 UNL     1      73.133 117.269  20.282  1.00  0.00     0.075 A 
HETATM   32  C29 UNL     1      74.471 117.160  20.080  1.00  0.00     0.056 A 
HETATM   33  C27 UNL     1      75.021 116.128  19.273  1.00  0.00     0.049 A 
BRANCH  30  34
HETATM   34  C3  UNL     1      70.797 116.571  19.955  1.00  0.00     0.067 C 
BRANCH  34  35
HETATM   35  C2  UNL     1      70.152 117.172  18.752  1.00  0.00    -0.032 C 
HETATM   36  C1  UNL     1      69.910 118.475  18.679  1.00  0.00     0.007 C 
ENDBRANCH  34  35
ENDBRANCH  30  34
BRANCH  31  37
HETATM   37  O8  UNL     1      72.627 118.271  21.062  1.00  0.00    -0.355 OA
HETATM   38  C31 UNL     1      73.318 118.760  22.175  1.00  0.00     0.210 C 
ENDBRANCH  31  37
BRANCH  33  39
HETATM   39  C28 UNL     1      76.477 116.056  19.199  1.00  0.00     0.210 C 
HETATM   40  O6  UNL     1      77.118 115.092  19.619  1.00  0.00    -0.644 OA
HETATM   41  O7  UNL     1      77.141 117.143  18.624  1.00  0.00    -0.644 OA
ENDBRANCH  33  39
ENDBRANCH  27  28
ENDBRANCH  26  27
BRANCH  26  42
HETATM   42  C26 UNL     1      74.908 111.779  17.878  1.00  0.00     0.197 C 
HETATM   43  O4  UNL     1      76.115 111.956  17.632  1.00  0.00    -0.646 OA
HETATM   44  O5  UNL     1      74.440 110.462  17.969  1.00  0.00    -0.646 OA
ENDBRANCH  26  42
ENDBRANCH   1  26
TORSDOF 14
ENDMDL
MODEL 5
REMARK VINA RESULT: -8.571667303      2.626     10.841
REMARK  14 active torsions:
REMARK  status: ('A' for Active; 'I' for Inactive)
REMARK    1  A    between atoms: C2_2  and  C3_3 
REMARK    2  A    between atoms: C3_3  and  C4_4 
REMARK    3  A    between atoms: C6_6  and  C7_7 
REMARK    4  A    between atoms: C7_7  and  C8_8 
REMARK    5  A    between atoms: C8_8  and  N1_9 
REMARK    6  A    between atoms: C8_8  and  C26_34 
REMARK       I    between atoms: N1_9  and  C9_11 
REMARK    7  A    between atoms: C9_11  and  C10_13 
REMARK    8  A    between atoms: C12_15  and  C13_16 
REMARK    9  A    between atoms: C13_16  and  N2_17 
REMARK   10  A    between atoms: C15_21  and  C16_22 
REMARK   11  A    between atoms: C16_22  and  O3_24 
REMARK   12  A    between atoms: O3_24  and  C17_25 
REMARK   13  A    between atoms: C27_37  and  C28_38 
REMARK   14  A    between atoms: C30_42  and  O8_43 
ROOT
HETATM    1  N1  UNL     1      71.418 107.867  15.020  1.00  0.00    -0.342 N 
ATOM      2  H1  UNL     1      71.891 107.879  15.923  1.00  0.00     0.163 HD
HETATM    3  C9  UNL     1      70.611 108.986  14.709  1.00  0.00     0.253 C 
HETATM    4  O1  UNL     1      70.013 108.905  13.580  1.00  0.00    -0.268 OA
ENDROOT
BRANCH   3   5
HETATM    5  C10 UNL     1      70.415 110.159  15.538  1.00  0.00     0.038 A 
HETATM    6  C11 UNL     1      71.229 111.235  15.299  1.00  0.00     0.027 A 
HETATM    7  C12 UNL     1      71.085 112.445  16.008  1.00  0.00    -0.033 A 
HETATM    8  C21 UNL     1      70.113 112.545  16.953  1.00  0.00    -0.053 A 
HETATM    9  C22 UNL     1      69.852 113.767  17.733  1.00  0.00     0.049 C 
HETATM   10  C23 UNL     1      69.275 111.466  17.214  1.00  0.00     0.015 A 
HETATM   11  C24 UNL     1      69.441 110.286  16.499  1.00  0.00    -0.046 A 
HETATM   12  C25 UNL     1      68.569 109.131  16.805  1.00  0.00     0.049 C 
BRANCH   7  13
HETATM   13  C13 UNL     1      72.005 113.554  15.722  1.00  0.00     0.168 C 
BRANCH  13  14
HETATM   14  N2  UNL     1      73.122 113.685  16.637  1.00  0.00    -0.346 N 
HETATM   15  C14 UNL     1      73.930 112.635  17.022  1.00  0.00     0.183 A 
HETATM   16  N3  UNL     1      74.879 113.078  17.848  1.00  0.00    -0.346 N 
HETATM   17  C15 UNL     1      74.741 114.401  18.038  1.00  0.00     0.124 A 
ATOM     18  H3  UNL     1      75.603 112.498  18.273  1.00  0.00     0.167 HD
HETATM   19  C20 UNL     1      73.644 114.741  17.272  1.00  0.00     0.128 A 
BRANCH  17  20
HETATM   20  C16 UNL     1      75.589 115.239  18.863  1.00  0.00     0.311 C 
HETATM   21  O2  UNL     1      76.487 114.655  19.568  1.00  0.00    -0.258 OA
BRANCH  20  22
HETATM   22  O3  UNL     1      75.544 116.594  18.982  1.00  0.00    -0.312 OA
BRANCH  22  23
HETATM   23  C17 UNL     1      74.915 117.337  19.995  1.00  0.00     0.124 C 
HETATM   24  C18 UNL     1      73.687 117.985  19.379  1.00  0.00     0.040 C 
HETATM   25  C19 UNL     1      75.844 118.346  20.621  1.00  0.00     0.040 C 
ENDBRANCH  22  23
ENDBRANCH  20  22
ENDBRANCH  17  20
ENDBRANCH  13  14
ENDBRANCH   7  13
ENDBRANCH   3   5
BRANCH   1  26
HETATM   26  C8  UNL     1      71.635 106.735  14.204  1.00  0.00     0.190 C 
BRANCH  26  27
HETATM   27  C7  UNL     1      71.052 105.412  14.681  1.00  0.00     0.076 C 
BRANCH  27  28
HETATM   28  C6  UNL     1      70.015 104.868  13.800  1.00  0.00    -0.038 A 
HETATM   29  C5  UNL     1      68.893 105.733  13.657  1.00  0.00     0.018 A 
HETATM   30  C4  UNL     1      67.822 105.298  12.956  1.00  0.00    -0.021 A 
HETATM   31  C30 UNL     1      67.820 104.031  12.386  1.00  0.00     0.075 A 
HETATM   32  C29 UNL     1      68.897 103.217  12.527  1.00  0.00     0.056 A 
HETATM   33  C27 UNL     1      70.049 103.624  13.252  1.00  0.00     0.049 A 
BRANCH  30  34
HETATM   34  C3  UNL     1      66.580 106.120  12.772  1.00  0.00     0.067 C 
BRANCH  34  35
HETATM   35  C2  UNL     1      66.841 107.532  13.174  1.00  0.00    -0.032 C 
HETATM   36  C1  UNL     1      66.123 108.124  14.120  1.00  0.00     0.007 C 
ENDBRANCH  34  35
ENDBRANCH  30  34
BRANCH  31  37
HETATM   37  O8  UNL     1      66.722 103.618  11.684  1.00  0.00    -0.355 OA
HETATM   38  C31 UNL     1      66.838 102.919  10.479  1.00  0.00     0.210 C 
ENDBRANCH  31  37
BRANCH  33  39
HETATM   39  C28 UNL     1      71.180 102.701  13.261  1.00  0.00     0.210 C 
HETATM   40  O6  UNL     1      71.982 102.622  12.330  1.00  0.00    -0.644 OA
HETATM   41  O7  UNL     1      71.330 101.886  14.387  1.00  0.00    -0.644 OA
ENDBRANCH  33  39
ENDBRANCH  27  28
ENDBRANCH  26  27
BRANCH  26  42
HETATM   42  C26 UNL     1      73.059 106.590  13.867  1.00  0.00     0.197 C 
HETATM   43  O4  UNL     1      73.826 107.517  13.554  1.00  0.00    -0.646 OA
HETATM   44  O5  UNL     1      73.580 105.289  13.905  1.00  0.00    -0.646 OA
ENDBRANCH  26  42
ENDBRANCH   1  26
TORSDOF 14
ENDMDL
