MODEL 1
REMARK VINA RESULT: -8.951279628      0.000      0.000
REMARK  14 active torsions:
REMARK  status: ('A' for Active; 'I' for Inactive)
REMARK    1  A    between atoms: O1_2  and  C2_3 
REMARK    2  A    between atoms: C5_6  and  C6_7 
REMARK    3  A    between atoms: C6_7  and  C7_9 
REMARK    4  A    between atoms: C8_10  and  C9_11 
REMARK    5  A    between atoms: C11_13  and  C12_14 
REMARK    6  A    between atoms: C13_17  and  C14_18 
REMARK    7  A    between atoms: C18_22  and  N1_23 
REMARK    8  A    between atoms: N1_23  and  C19_24 
REMARK    9  A    between atoms: N1_23  and  C21_27 
REMARK   10  A    between atoms: C19_24  and  C20_25 
REMARK   11  A    between atoms: C21_27  and  C22_28 
REMARK   12  A    between atoms: C25_32  and  N2_33 
REMARK       I    between atoms: N2_33  and  C26_35 
REMARK   13  A    between atoms: C26_35  and  O6_37 
REMARK   14  A    between atoms: O6_37  and  C27_38 
ROOT
HETATM    1  C7  UNL     1      12.458  21.070  63.412  1.00  0.00     0.056 C 
HETATM    2  C8  UNL     1      13.417  21.316  64.283  1.00  0.00     0.015 C 
ENDROOT
BRANCH   2   3
HETATM    3  C9  UNL     1      14.613  22.046  63.918  1.00  0.00    -0.033 A 
HETATM    4  C10 UNL     1      15.211  22.916  64.763  1.00  0.00     0.030 A 
HETATM    5  C11 UNL     1      16.389  23.654  64.461  1.00  0.00     0.050 A 
HETATM    6  C13 UNL     1      16.964  23.455  63.178  1.00  0.00    -0.007 A 
HETATM    7  C18 UNL     1      16.383  22.586  62.302  1.00  0.00     0.039 A 
HETATM    8  C23 UNL     1      15.194  21.885  62.703  1.00  0.00     0.041 A 
BRANCH   5   9
HETATM    9  C12 UNL     1      16.849  24.511  65.481  1.00  0.00     0.210 C 
HETATM   10  O3  UNL     1      16.196  25.686  65.510  1.00  0.00    -0.644 OA
HETATM   11  O4  UNL     1      17.776  24.509  66.459  1.00  0.00    -0.644 OA
ENDBRANCH   5   9
BRANCH   6  12
HETATM   12  C14 UNL     1      18.153  24.211  62.871  1.00  0.00    -0.021 C 
HETATM   13  C15 UNL     1      18.640  25.197  63.901  1.00  0.00     0.019 C 
HETATM   14  C16 UNL     1      18.096  25.024  61.584  1.00  0.00     0.019 C 
HETATM   15  C17 UNL     1      19.393  23.280  62.748  1.00  0.00     0.019 C 
ENDBRANCH   6  12
BRANCH   7  16
HETATM   16  N1  UNL     1      16.629  22.216  60.975  1.00  0.00    -0.378 N 
BRANCH  16  17
HETATM   17  C19 UNL     1      17.784  21.473  60.563  1.00  0.00     0.138 C 
BRANCH  17  18
HETATM   18  C20 UNL     1      18.494  22.206  59.397  1.00  0.00     0.134 C 
HETATM   19 CL1  UNL     1      20.092  21.441  59.258  1.00  0.00    -0.129 Cl
ENDBRANCH  17  18
ENDBRANCH  16  17
BRANCH  16  20
HETATM   20  C21 UNL     1      15.825  22.795  59.923  1.00  0.00     0.138 C 
BRANCH  20  21
HETATM   21  C22 UNL     1      14.751  21.987  59.327  1.00  0.00     0.134 C 
HETATM   22 CL2  UNL     1      15.456  21.012  57.998  1.00  0.00    -0.129 Cl
ENDBRANCH  20  21
ENDBRANCH  16  20
ENDBRANCH   7  16
ENDBRANCH   2   3
BRANCH   1  23
HETATM   23  C6  UNL     1      11.259  20.333  63.799  1.00  0.00     0.182 C 
HETATM   24  O2  UNL     1      10.619  20.748  64.793  1.00  0.00    -0.288 OA
BRANCH  23  25
HETATM   25  C5  UNL     1      10.829  19.162  63.057  1.00  0.00     0.016 A 
HETATM   26  C4  UNL     1      11.604  18.518  62.141  1.00  0.00     0.018 A 
HETATM   27  C3  UNL     1      11.133  17.419  61.481  1.00  0.00     0.040 A 
HETATM   28  C2  UNL     1       9.885  16.933  61.712  1.00  0.00     0.095 A 
HETATM   29  C25 UNL     1       9.046  17.567  62.650  1.00  0.00     0.071 A 
HETATM   30  C24 UNL     1       9.537  18.653  63.291  1.00  0.00     0.048 A 
BRANCH  28  31
HETATM   31  O1  UNL     1       9.385  15.827  61.060  1.00  0.00    -0.354 OA
HETATM   32  C1  UNL     1       9.655  15.612  59.687  1.00  0.00     0.210 C 
ENDBRANCH  28  31
BRANCH  29  33
HETATM   33  N2  UNL     1       7.773  17.040  62.867  1.00  0.00    -0.300 N 
HETATM   34  C26 UNL     1       7.431  15.891  63.587  1.00  0.00     0.366 C 
HETATM   35  O5  UNL     1       8.266  15.172  64.147  1.00  0.00    -0.238 OA
ATOM     36  H2  UNL     1       6.997  17.555  62.451  1.00  0.00     0.171 HD
BRANCH  34  37
HETATM   37  O6  UNL     1       6.057  15.523  63.687  1.00  0.00    -0.294 OA
BRANCH  37  38
HETATM   38  C27 UNL     1       5.348  15.326  62.466  1.00  0.00     0.061 C 
HETATM   39  C28 UNL     1       4.669  13.984  62.457  1.00  0.00     0.046 C 
HETATM   40  C29 UNL     1       6.316  15.398  61.289  1.00  0.00     0.046 C 
HETATM   41  C30 UNL     1       4.297  16.409  62.370  1.00  0.00     0.046 C 
ENDBRANCH  37  38
ENDBRANCH  34  37
ENDBRANCH  29  33
ENDBRANCH  23  25
ENDBRANCH   1  23
TORSDOF 14
ENDMDL
MODEL 2
REMARK VINA RESULT: -8.861338231      0.547      1.592
REMARK  14 active torsions:
REMARK  status: ('A' for Active; 'I' for Inactive)
REMARK    1  A    between atoms: O1_2  and  C2_3 
REMARK    2  A    between atoms: C5_6  and  C6_7 
REMARK    3  A    between atoms: C6_7  and  C7_9 
REMARK    4  A    between atoms: C8_10  and  C9_11 
REMARK    5  A    between atoms: C11_13  and  C12_14 
REMARK    6  A    between atoms: C13_17  and  C14_18 
REMARK    7  A    between atoms: C18_22  and  N1_23 
REMARK    8  A    between atoms: N1_23  and  C19_24 
REMARK    9  A    between atoms: N1_23  and  C21_27 
REMARK   10  A    between atoms: C19_24  and  C20_25 
REMARK   11  A    between atoms: C21_27  and  C22_28 
REMARK   12  A    between atoms: C25_32  and  N2_33 
REMARK       I    between atoms: N2_33  and  C26_35 
REMARK   13  A    between atoms: C26_35  and  O6_37 
REMARK   14  A    between atoms: O6_37  and  C27_38 
ROOT
HETATM    1  C7  UNL     1      13.167  20.098  63.543  1.00  0.00     0.056 C 
HETATM    2  C8  UNL     1      13.610  21.068  64.318  1.00  0.00     0.015 C 
ENDROOT
BRANCH   2   3
HETATM    3  C9  UNL     1      14.732  21.900  63.935  1.00  0.00    -0.033 A 
HETATM    4  C10 UNL     1      15.335  22.741  64.807  1.00  0.00     0.030 A 
HETATM    5  C11 UNL     1      16.442  23.575  64.489  1.00  0.00     0.050 A 
HETATM    6  C13 UNL     1      16.937  23.512  63.159  1.00  0.00    -0.007 A 
HETATM    7  C18 UNL     1      16.348  22.676  62.255  1.00  0.00     0.039 A 
HETATM    8  C23 UNL     1      15.234  21.871  62.677  1.00  0.00     0.041 A 
BRANCH   5   9
HETATM    9  C12 UNL     1      16.921  24.380  65.542  1.00  0.00     0.210 C 
HETATM   10  O3  UNL     1      16.090  25.393  65.844  1.00  0.00    -0.644 OA
HETATM   11  O4  UNL     1      17.994  24.445  66.356  1.00  0.00    -0.644 OA
ENDBRANCH   5   9
BRANCH   6  12
HETATM   12  C14 UNL     1      18.054  24.365  62.837  1.00  0.00    -0.021 C 
HETATM   13  C15 UNL     1      18.418  25.444  63.823  1.00  0.00     0.019 C 
HETATM   14  C16 UNL     1      17.951  25.104  61.509  1.00  0.00     0.019 C 
HETATM   15  C17 UNL     1      19.381  23.555  62.787  1.00  0.00     0.019 C 
ENDBRANCH   6  12
BRANCH   7  16
HETATM   16  N1  UNL     1      16.523  22.425  60.891  1.00  0.00    -0.378 N 
BRANCH  16  17
HETATM   17  C19 UNL     1      15.569  22.801  59.889  1.00  0.00     0.138 C 
BRANCH  17  18
HETATM   18  C20 UNL     1      14.702  21.578  59.500  1.00  0.00     0.134 C 
HETATM   19 CL1  UNL     1      15.331  21.028  57.931  1.00  0.00    -0.129 Cl
ENDBRANCH  17  18
ENDBRANCH  16  17
BRANCH  16  20
HETATM   20  C21 UNL     1      17.588  21.544  60.469  1.00  0.00     0.138 C 
BRANCH  20  21
HETATM   21  C22 UNL     1      18.468  21.971  59.371  1.00  0.00     0.134 C 
HETATM   22 CL2  UNL     1      20.114  21.335  59.694  1.00  0.00    -0.129 Cl
ENDBRANCH  20  21
ENDBRANCH  16  20
ENDBRANCH   7  16
ENDBRANCH   2   3
BRANCH   1  23
HETATM   23  C6  UNL     1      12.034  19.269  63.945  1.00  0.00     0.182 C 
HETATM   24  O2  UNL     1      11.741  19.241  65.163  1.00  0.00    -0.288 OA
BRANCH  23  25
HETATM   25  C5  UNL     1      11.280  18.508  62.967  1.00  0.00     0.016 A 
HETATM   26  C4  UNL     1      11.783  18.106  61.767  1.00  0.00     0.018 A 
HETATM   27  C3  UNL     1      11.014  17.388  60.896  1.00  0.00     0.040 A 
HETATM   28  C2  UNL     1       9.730  17.053  61.192  1.00  0.00     0.095 A 
HETATM   29  C25 UNL     1       9.166  17.448  62.422  1.00  0.00     0.071 A 
HETATM   30  C24 UNL     1       9.949  18.157  63.267  1.00  0.00     0.048 A 
BRANCH  28  31
HETATM   31  O1  UNL     1       8.933  16.331  60.332  1.00  0.00    -0.354 OA
HETATM   32  C1  UNL     1       9.471  15.271  59.562  1.00  0.00     0.210 C 
ENDBRANCH  28  31
BRANCH  29  33
HETATM   33  N2  UNL     1       7.848  17.083  62.697  1.00  0.00    -0.300 N 
HETATM   34  C26 UNL     1       7.397  15.970  63.414  1.00  0.00     0.366 C 
HETATM   35  O5  UNL     1       8.160  15.137  63.915  1.00  0.00    -0.238 OA
ATOM     36  H2  UNL     1       7.126  17.703  62.331  1.00  0.00     0.171 HD
BRANCH  34  37
HETATM   37  O6  UNL     1       5.994  15.779  63.579  1.00  0.00    -0.294 OA
BRANCH  37  38
HETATM   38  C27 UNL     1       5.246  15.426  62.419  1.00  0.00     0.061 C 
HETATM   39  C28 UNL     1       4.669  14.044  62.559  1.00  0.00     0.046 C 
HETATM   40  C29 UNL     1       6.150  15.462  61.191  1.00  0.00     0.046 C 
HETATM   41  C30 UNL     1       4.114  16.420  62.288  1.00  0.00     0.046 C 
ENDBRANCH  37  38
ENDBRANCH  34  37
ENDBRANCH  29  33
ENDBRANCH  23  25
ENDBRANCH   1  23
TORSDOF 14
ENDMDL
MODEL 3
REMARK VINA RESULT: -8.792129342      1.644      1.942
REMARK  14 active torsions:
REMARK  status: ('A' for Active; 'I' for Inactive)
REMARK    1  A    between atoms: O1_2  and  C2_3 
REMARK    2  A    between atoms: C5_6  and  C6_7 
REMARK    3  A    between atoms: C6_7  and  C7_9 
REMARK    4  A    between atoms: C8_10  and  C9_11 
REMARK    5  A    between atoms: C11_13  and  C12_14 
REMARK    6  A    between atoms: C13_17  and  C14_18 
REMARK    7  A    between atoms: C18_22  and  N1_23 
REMARK    8  A    between atoms: N1_23  and  C19_24 
REMARK    9  A    between atoms: N1_23  and  C21_27 
REMARK   10  A    between atoms: C19_24  and  C20_25 
REMARK   11  A    between atoms: C21_27  and  C22_28 
REMARK   12  A    between atoms: C25_32  and  N2_33 
REMARK       I    between atoms: N2_33  and  C26_35 
REMARK   13  A    between atoms: C26_35  and  O6_37 
REMARK   14  A    between atoms: O6_37  and  C27_38 
ROOT
HETATM    1  C7  UNL     1      12.541  21.176  63.893  1.00  0.00     0.056 C 
HETATM    2  C8  UNL     1      13.435  21.736  64.684  1.00  0.00     0.015 C 
ENDROOT
BRANCH   2   3
HETATM    3  C9  UNL     1      14.642  22.344  64.163  1.00  0.00    -0.033 A 
HETATM    4  C10 UNL     1      15.365  23.236  64.878  1.00  0.00     0.030 A 
HETATM    5  C11 UNL     1      16.559  23.859  64.420  1.00  0.00     0.050 A 
HETATM    6  C13 UNL     1      17.011  23.510  63.120  1.00  0.00    -0.007 A 
HETATM    7  C18 UNL     1      16.303  22.615  62.373  1.00  0.00     0.039 A 
HETATM    8  C23 UNL     1      15.108  22.039  62.927  1.00  0.00     0.041 A 
BRANCH   5   9
HETATM    9  C12 UNL     1      17.158  24.763  65.321  1.00  0.00     0.210 C 
HETATM   10  O3  UNL     1      16.639  26.000  65.241  1.00  0.00    -0.644 OA
HETATM   11  O4  UNL     1      18.126  24.761  66.259  1.00  0.00    -0.644 OA
ENDBRANCH   5   9
BRANCH   6  12
HETATM   12  C14 UNL     1      18.218  24.149  62.656  1.00  0.00    -0.021 C 
HETATM   13  C15 UNL     1      18.795  25.253  63.502  1.00  0.00     0.019 C 
HETATM   14  C16 UNL     1      18.139  24.760  61.263  1.00  0.00     0.019 C 
HETATM   15  C17 UNL     1      19.408  23.147  62.629  1.00  0.00     0.019 C 
ENDBRANCH   6  12
BRANCH   7  16
HETATM   16  N1  UNL     1      16.414  22.117  61.071  1.00  0.00    -0.378 N 
BRANCH  16  17
HETATM   17  C19 UNL     1      17.497  21.290  60.629  1.00  0.00     0.138 C 
BRANCH  17  18
HETATM   18  C20 UNL     1      18.166  21.917  59.381  1.00  0.00     0.134 C 
HETATM   19 CL1  UNL     1      19.888  21.491  59.499  1.00  0.00    -0.129 Cl
ENDBRANCH  17  18
ENDBRANCH  16  17
BRANCH  16  20
HETATM   20  C21 UNL     1      15.538  22.635  60.044  1.00  0.00     0.138 C 
BRANCH  20  21
HETATM   21  C22 UNL     1      14.536  21.739  59.449  1.00  0.00     0.134 C 
HETATM   22 CL2  UNL     1      15.254  20.988  57.988  1.00  0.00    -0.129 Cl
ENDBRANCH  20  21
ENDBRANCH  16  20
ENDBRANCH   7  16
ENDBRANCH   2   3
BRANCH   1  23
HETATM   23  C6  UNL     1      11.329  20.569  64.436  1.00  0.00     0.182 C 
HETATM   24  O2  UNL     1      10.778  21.142  65.404  1.00  0.00    -0.288 OA
BRANCH  23  25
HETATM   25  C5  UNL     1      10.788  19.346  63.873  1.00  0.00     0.016 A 
HETATM   26  C4  UNL     1      11.428  18.597  62.932  1.00  0.00     0.018 A 
HETATM   27  C3  UNL     1      10.858  17.454  62.447  1.00  0.00     0.040 A 
HETATM   28  C2  UNL     1       9.643  17.027  62.883  1.00  0.00     0.095 A 
HETATM   29  C25 UNL     1       8.944  17.769  63.856  1.00  0.00     0.071 A 
HETATM   30  C24 UNL     1       9.530  18.897  64.319  1.00  0.00     0.048 A 
BRANCH  28  31
HETATM   31  O1  UNL     1       9.046  15.879  62.411  1.00  0.00    -0.354 OA
HETATM   32  C1  UNL     1       9.150  15.517  61.046  1.00  0.00     0.210 C 
ENDBRANCH  28  31
BRANCH  29  33
HETATM   33  N2  UNL     1       7.702  17.300  64.285  1.00  0.00    -0.300 N 
HETATM   34  C26 UNL     1       7.281  17.064  65.597  1.00  0.00     0.366 C 
HETATM   35  O5  UNL     1       8.002  17.258  66.582  1.00  0.00    -0.238 OA
ATOM     36  H2  UNL     1       7.019  17.106  63.553  1.00  0.00     0.171 HD
BRANCH  34  37
HETATM   37  O6  UNL     1       5.960  16.578  65.820  1.00  0.00    -0.294 OA
BRANCH  37  38
HETATM   38  C27 UNL     1       4.969  17.536  66.184  1.00  0.00     0.061 C 
HETATM   39  C28 UNL     1       5.280  18.878  65.581  1.00  0.00     0.046 C 
HETATM   40  C29 UNL     1       4.919  17.676  67.703  1.00  0.00     0.046 C 
HETATM   41  C30 UNL     1       3.644  17.049  65.642  1.00  0.00     0.046 C 
ENDBRANCH  37  38
ENDBRANCH  34  37
ENDBRANCH  29  33
ENDBRANCH  23  25
ENDBRANCH   1  23
TORSDOF 14
ENDMDL
MODEL 4
REMARK VINA RESULT: -8.731989256      1.878      2.935
REMARK  14 active torsions:
REMARK  status: ('A' for Active; 'I' for Inactive)
REMARK    1  A    between atoms: O1_2  and  C2_3 
REMARK    2  A    between atoms: C5_6  and  C6_7 
REMARK    3  A    between atoms: C6_7  and  C7_9 
REMARK    4  A    between atoms: C8_10  and  C9_11 
REMARK    5  A    between atoms: C11_13  and  C12_14 
REMARK    6  A    between atoms: C13_17  and  C14_18 
REMARK    7  A    between atoms: C18_22  and  N1_23 
REMARK    8  A    between atoms: N1_23  and  C19_24 
REMARK    9  A    between atoms: N1_23  and  C21_27 
REMARK   10  A    between atoms: C19_24  and  C20_25 
REMARK   11  A    between atoms: C21_27  and  C22_28 
REMARK   12  A    between atoms: C25_32  and  N2_33 
REMARK       I    between atoms: N2_33  and  C26_35 
REMARK   13  A    between atoms: C26_35  and  O6_37 
REMARK   14  A    between atoms: O6_37  and  C27_38 
ROOT
HETATM    1  C7  UNL     1      12.343  20.664  63.944  1.00  0.00     0.056 C 
HETATM    2  C8  UNL     1      13.422  20.804  63.198  1.00  0.00     0.015 C 
ENDROOT
BRANCH   2   3
HETATM    3  C9  UNL     1      14.430  21.801  63.492  1.00  0.00    -0.033 A 
HETATM    4  C10 UNL     1      14.440  22.494  64.654  1.00  0.00     0.030 A 
HETATM    5  C11 UNL     1      15.407  23.478  64.998  1.00  0.00     0.050 A 
HETATM    6  C13 UNL     1      16.427  23.742  64.046  1.00  0.00    -0.007 A 
HETATM    7  C18 UNL     1      16.443  23.061  62.864  1.00  0.00     0.039 A 
HETATM    8  C23 UNL     1      15.420  22.084  62.611  1.00  0.00     0.041 A 
BRANCH   5   9
HETATM    9  C12 UNL     1      15.235  24.087  66.258  1.00  0.00     0.210 C 
HETATM   10  O3  UNL     1      14.373  25.118  66.226  1.00  0.00    -0.644 OA
HETATM   11  O4  UNL     1      15.692  23.946  67.518  1.00  0.00    -0.644 OA
ENDBRANCH   5   9
BRANCH   6  12
HETATM   12  C14 UNL     1      17.402  24.746  64.395  1.00  0.00    -0.021 C 
HETATM   13  C15 UNL     1      17.869  24.801  65.826  1.00  0.00     0.019 C 
HETATM   14  C16 UNL     1      16.999  26.182  64.086  1.00  0.00     0.019 C 
HETATM   15  C17 UNL     1      18.749  24.499  63.656  1.00  0.00     0.019 C 
ENDBRANCH   6  12
BRANCH   7  16
HETATM   16  N1  UNL     1      17.228  23.119  61.708  1.00  0.00    -0.378 N 
BRANCH  16  17
HETATM   17  C19 UNL     1      17.196  24.214  60.784  1.00  0.00     0.138 C 
BRANCH  17  18
HETATM   18  C20 UNL     1      16.502  23.776  59.470  1.00  0.00     0.134 C 
HETATM   19 CL1  UNL     1      17.638  24.196  58.169  1.00  0.00    -0.129 Cl
ENDBRANCH  17  18
ENDBRANCH  16  17
BRANCH  16  20
HETATM   20  C21 UNL     1      17.937  21.935  61.279  1.00  0.00     0.138 C 
BRANCH  20  21
HETATM   21  C22 UNL     1      19.389  22.016  61.064  1.00  0.00     0.134 C 
HETATM   22 CL2  UNL     1      19.726  21.600  59.353  1.00  0.00    -0.129 Cl
ENDBRANCH  20  21
ENDBRANCH  16  20
ENDBRANCH   7  16
ENDBRANCH   2   3
BRANCH   1  23
HETATM   23  C6  UNL     1      11.337  19.653  63.631  1.00  0.00     0.182 C 
HETATM   24  O2  UNL     1      11.314  19.200  62.463  1.00  0.00    -0.288 OA
BRANCH  23  25
HETATM   25  C5  UNL     1      10.400  19.194  64.639  1.00  0.00     0.016 A 
HETATM   26  C4  UNL     1      10.595  19.343  65.979  1.00  0.00     0.018 A 
HETATM   27  C3  UNL     1       9.667  18.887  66.872  1.00  0.00     0.040 A 
HETATM   28  C2  UNL     1       8.526  18.273  66.459  1.00  0.00     0.095 A 
HETATM   29  C25 UNL     1       8.283  18.095  65.083  1.00  0.00     0.071 A 
HETATM   30  C24 UNL     1       9.217  18.556  64.219  1.00  0.00     0.048 A 
BRANCH  28  31
HETATM   31  O1  UNL     1       7.576  17.803  67.337  1.00  0.00    -0.354 OA
HETATM   32  C1  UNL     1       7.803  16.625  68.089  1.00  0.00     0.210 C 
ENDBRANCH  28  31
BRANCH  29  33
HETATM   33  N2  UNL     1       7.100  17.465  64.692  1.00  0.00    -0.300 N 
HETATM   34  C26 UNL     1       6.922  16.128  64.324  1.00  0.00     0.366 C 
HETATM   35  O5  UNL     1       7.844  15.305  64.303  1.00  0.00    -0.238 OA
ATOM     36  H2  UNL     1       6.266  18.050  64.673  1.00  0.00     0.171 HD
BRANCH  34  37
HETATM   37  O6  UNL     1       5.620  15.682  63.953  1.00  0.00    -0.294 OA
BRANCH  37  38
HETATM   38  C27 UNL     1       5.347  15.565  62.559  1.00  0.00     0.061 C 
HETATM   39  C28 UNL     1       5.018  14.141  62.200  1.00  0.00     0.046 C 
HETATM   40  C29 UNL     1       6.565  16.009  61.755  1.00  0.00     0.046 C 
HETATM   41  C30 UNL     1       4.149  16.436  62.255  1.00  0.00     0.046 C 
ENDBRANCH  37  38
ENDBRANCH  34  37
ENDBRANCH  29  33
ENDBRANCH  23  25
ENDBRANCH   1  23
TORSDOF 14
ENDMDL
MODEL 5
REMARK VINA RESULT: -8.730463281      3.509     11.652
REMARK  14 active torsions:
REMARK  status: ('A' for Active; 'I' for Inactive)
REMARK    1  A    between atoms: O1_2  and  C2_3 
REMARK    2  A    between atoms: C5_6  and  C6_7 
REMARK    3  A    between atoms: C6_7  and  C7_9 
REMARK    4  A    between atoms: C8_10  and  C9_11 
REMARK    5  A    between atoms: C11_13  and  C12_14 
REMARK    6  A    between atoms: C13_17  and  C14_18 
REMARK    7  A    between atoms: C18_22  and  N1_23 
REMARK    8  A    between atoms: N1_23  and  C19_24 
REMARK    9  A    between atoms: N1_23  and  C21_27 
REMARK   10  A    between atoms: C19_24  and  C20_25 
REMARK   11  A    between atoms: C21_27  and  C22_28 
REMARK   12  A    between atoms: C25_32  and  N2_33 
REMARK       I    between atoms: N2_33  and  C26_35 
REMARK   13  A    between atoms: C26_35  and  O6_37 
REMARK   14  A    between atoms: O6_37  and  C27_38 
ROOT
HETATM    1  C7  UNL     1      13.085  20.328  62.809  1.00  0.00     0.056 C 
HETATM    2  C8  UNL     1      11.790  20.474  63.009  1.00  0.00     0.015 C 
ENDROOT
BRANCH   2   3
HETATM    3  C9  UNL     1      10.867  19.365  62.882  1.00  0.00    -0.033 A 
HETATM    4  C10 UNL     1      10.812  18.598  61.769  1.00  0.00     0.030 A 
HETATM    5  C11 UNL     1       9.932  17.496  61.592  1.00  0.00     0.050 A 
HETATM    6  C13 UNL     1       9.054  17.191  62.666  1.00  0.00    -0.007 A 
HETATM    7  C18 UNL     1       9.083  17.948  63.801  1.00  0.00     0.039 A 
HETATM    8  C23 UNL     1      10.012  19.042  63.882  1.00  0.00     0.041 A 
BRANCH   5   9
HETATM    9  C12 UNL     1      10.033  16.828  60.354  1.00  0.00     0.210 C 
HETATM   10  O3  UNL     1      11.281  16.406  60.089  1.00  0.00    -0.644 OA
HETATM   11  O4  UNL     1       9.233  16.482  59.326  1.00  0.00    -0.644 OA
ENDBRANCH   5   9
BRANCH   6  12
HETATM   12  C14 UNL     1       8.157  16.077  62.480  1.00  0.00    -0.021 C 
HETATM   13  C15 UNL     1       8.657  14.901  61.682  1.00  0.00     0.019 C 
HETATM   14  C16 UNL     1       6.820  16.416  61.834  1.00  0.00     0.019 C 
HETATM   15  C17 UNL     1       7.827  15.391  63.837  1.00  0.00     0.019 C 
ENDBRANCH   6  12
BRANCH   7  16
HETATM   16  N1  UNL     1       8.334  17.976  64.981  1.00  0.00    -0.378 N 
BRANCH  16  17
HETATM   17  C19 UNL     1       7.058  18.618  65.093  1.00  0.00     0.138 C 
BRANCH  17  18
HETATM   18  C20 UNL     1       6.102  17.748  65.948  1.00  0.00     0.134 C 
HETATM   19 CL1  UNL     1       4.836  17.193  64.830  1.00  0.00    -0.129 Cl
ENDBRANCH  17  18
ENDBRANCH  16  17
BRANCH  16  20
HETATM   20  C21 UNL     1       8.954  17.553  66.217  1.00  0.00     0.138 C 
BRANCH  20  21
HETATM   21  C22 UNL     1       9.279  18.567  67.230  1.00  0.00     0.134 C 
HETATM   22 CL2  UNL     1      11.011  19.000  67.052  1.00  0.00    -0.129 Cl
ENDBRANCH  20  21
ENDBRANCH  16  20
ENDBRANCH   7  16
ENDBRANCH   2   3
BRANCH   1  23
HETATM   23  C6  UNL     1      14.000  21.458  62.942  1.00  0.00     0.182 C 
HETATM   24  O2  UNL     1      13.802  22.256  63.888  1.00  0.00    -0.288 OA
BRANCH  23  25
HETATM   25  C5  UNL     1      15.097  21.646  62.010  1.00  0.00     0.016 A 
HETATM   26  C4  UNL     1      15.386  20.784  60.996  1.00  0.00     0.018 A 
HETATM   27  C3  UNL     1      16.434  21.027  60.155  1.00  0.00     0.040 A 
HETATM   28  C2  UNL     1      17.219  22.128  60.298  1.00  0.00     0.095 A 
HETATM   29  C25 UNL     1      16.958  23.048  61.333  1.00  0.00     0.071 A 
HETATM   30  C24 UNL     1      15.914  22.784  62.152  1.00  0.00     0.048 A 
BRANCH  28  31
HETATM   31  O1  UNL     1      18.282  22.397  59.465  1.00  0.00    -0.354 OA
HETATM   32  C1  UNL     1      19.515  21.717  59.620  1.00  0.00     0.210 C 
ENDBRANCH  28  31
BRANCH  29  33
HETATM   33  N2  UNL     1      17.779  24.170  61.449  1.00  0.00    -0.300 N 
HETATM   34  C26 UNL     1      18.751  24.425  62.421  1.00  0.00     0.366 C 
HETATM   35  O5  UNL     1      19.010  23.638  63.339  1.00  0.00    -0.238 OA
ATOM     36  H2  UNL     1      17.655  24.892  60.740  1.00  0.00     0.171 HD
BRANCH  34  37
HETATM   37  O6  UNL     1      19.485  25.646  62.359  1.00  0.00    -0.294 OA
BRANCH  37  38
HETATM   38  C27 UNL     1      18.857  26.807  62.896  1.00  0.00     0.061 C 
HETATM   39  C28 UNL     1      19.853  27.652  63.642  1.00  0.00     0.046 C 
HETATM   40  C29 UNL     1      17.742  26.396  63.854  1.00  0.00     0.046 C 
HETATM   41  C30 UNL     1      18.308  27.605  61.736  1.00  0.00     0.046 C 
ENDBRANCH  37  38
ENDBRANCH  34  37
ENDBRANCH  29  33
ENDBRANCH  23  25
ENDBRANCH   1  23
TORSDOF 14
ENDMDL
