MODEL 1
REMARK VINA RESULT: -7.551394012      0.000      0.000
REMARK  13 active torsions:
REMARK  status: ('A' for Active; 'I' for Inactive)
REMARK    1  A    between atoms: C4_4  and  N1_5 
REMARK       I    between atoms: N1_5  and  C6_7 
REMARK    2  A    between atoms: C6_7  and  O2_9 
REMARK    3  A    between atoms: O2_9  and  C7_10 
REMARK    4  A    between atoms: C7_10  and  C8_11 
REMARK    5  A    between atoms: C11_17  and  C12_18 
REMARK       I    between atoms: C12_18  and  N2_20 
REMARK    6  A    between atoms: N2_20  and  C13_21 
REMARK    7  A    between atoms: N2_20  and  C17_25 
REMARK    8  A    between atoms: C13_21  and  C14_22 
REMARK    9  A    between atoms: C19_27  and  N3_28 
REMARK       I    between atoms: N3_28  and  C20_30 
REMARK   10  A    between atoms: C20_30  and  O5_32 
REMARK   11  A    between atoms: O5_32  and  C21_33 
REMARK   12  A    between atoms: C21_33  and  C22_34 
REMARK   13  A    between atoms: C26_38  and  C27_39 
ROOT
HETATM    1  C12 UNL     1       7.122  18.109  65.651  1.00  0.00     0.264 C 
HETATM    2  O3  UNL     1       7.847  19.159  65.697  1.00  0.00    -0.267 OA
HETATM    3  N2  UNL     1       7.480  17.104  64.732  1.00  0.00    -0.292 N 
ENDROOT
BRANCH   3   4
HETATM    4  C13 UNL     1       6.645  15.989  64.508  1.00  0.00     0.077 C 
BRANCH   4   5
HETATM    5  C14 UNL     1       5.510  15.996  63.584  1.00  0.00     0.016 C 
HETATM    6  C15 UNL     1       5.870  14.908  62.506  1.00  0.00     0.015 C 
HETATM    7  C16 UNL     1       4.163  15.587  64.044  1.00  0.00     0.015 C 
ENDBRANCH   4   5
ENDBRANCH   3   4
BRANCH   3   8
HETATM    8  C17 UNL     1       8.661  17.369  63.941  1.00  0.00     0.044 A 
HETATM    9  C18 UNL     1       9.709  18.034  64.593  1.00  0.00     0.059 A 
HETATM   10  C19 UNL     1      10.931  18.355  63.995  1.00  0.00     0.040 A 
HETATM   11  C25 UNL     1      11.103  17.991  62.681  1.00  0.00     0.048 A 
HETATM   12  C26 UNL     1      10.092  17.338  62.023  1.00  0.00     0.045 A 
HETATM   13  C28 UNL     1       8.880  17.029  62.652  1.00  0.00     0.048 A 
BRANCH  10  14
HETATM   14  N3  UNL     1      11.870  19.019  64.804  1.00  0.00    -0.303 N 
HETATM   15  C20 UNL     1      12.036  20.405  64.842  1.00  0.00     0.365 C 
HETATM   16  O4  UNL     1      11.368  21.213  64.168  1.00  0.00    -0.238 OA
ATOM     17  H3  UNL     1      12.470  18.450  65.401  1.00  0.00     0.171 HD
BRANCH  15  18
HETATM   18  O5  UNL     1      13.013  20.995  65.679  1.00  0.00    -0.303 OA
BRANCH  18  19
HETATM   19  C21 UNL     1      14.319  21.115  65.164  1.00  0.00     0.184 C 
BRANCH  19  20
HETATM   20  C22 UNL     1      14.823  22.541  65.307  1.00  0.00     0.002 C 
HETATM   21  C23 UNL     1      14.479  23.103  66.662  1.00  0.00     0.011 C 
HETATM   22  C24 UNL     1      14.224  23.404  64.203  1.00  0.00     0.011 C 
ENDBRANCH  19  20
ENDBRANCH  18  19
ENDBRANCH  15  18
ENDBRANCH  10  14
BRANCH  12  23
HETATM   23  C27 UNL     1      10.271  16.953  60.625  1.00  0.00     0.209 C 
HETATM   24  O6  UNL     1      11.401  17.027  60.115  1.00  0.00    -0.644 OA
HETATM   25  O7  UNL     1       9.195  16.511  59.881  1.00  0.00    -0.644 OA
ENDBRANCH  12  23
ENDBRANCH   3   8
BRANCH   1  26
HETATM   26  C11 UNL     1       6.006  18.092  66.560  1.00  0.00     0.060 A 
HETATM   27  C2  UNL     1       4.775  18.612  66.212  1.00  0.00    -0.042 A 
HETATM   28  C1  UNL     1       4.562  19.233  64.867  1.00  0.00     0.049 C 
HETATM   29  C3  UNL     1       3.735  18.556  67.104  1.00  0.00     0.037 A 
HETATM   30  C4  UNL     1       3.834  18.000  68.363  1.00  0.00     0.041 A 
HETATM   31  C9  UNL     1       5.072  17.486  68.694  1.00  0.00     0.054 A 
HETATM   32  C10 UNL     1       6.137  17.522  67.829  1.00  0.00     0.052 A 
HETATM   33 CL1  UNL     1       7.690  16.813  68.330  1.00  0.00    -0.083 Cl
BRANCH  30  34
HETATM   34  N1  UNL     1       2.717  17.958  69.253  1.00  0.00    -0.298 N 
HETATM   35  C5  UNL     1       2.349  19.144  69.984  1.00  0.00     0.162 C 
HETATM   36  C6  UNL     1       1.964  16.763  69.414  1.00  0.00     0.367 C 
HETATM   37  O1  UNL     1       2.298  15.764  68.705  1.00  0.00    -0.238 OA
BRANCH  36  38
HETATM   38  O2  UNL     1       0.909  16.666  70.299  1.00  0.00    -0.298 OA
BRANCH  38  39
HETATM   39  C7  UNL     1       0.934  15.830  71.429  1.00  0.00     0.251 C 
BRANCH  39  40
HETATM   40  C8  UNL     1       1.640  16.434  72.605  1.00  0.00     0.377 C 
HETATM   41  F1  UNL     1       1.159  17.744  72.745  1.00  0.00    -0.212 F 
HETATM   42  F2  UNL     1       2.998  16.441  72.401  1.00  0.00    -0.212 F 
ENDBRANCH  39  40
ENDBRANCH  38  39
ENDBRANCH  36  38
ENDBRANCH  30  34
ENDBRANCH   1  26
TORSDOF 13
ENDMDL
MODEL 2
REMARK VINA RESULT: -7.322187441      0.950      1.469
REMARK  13 active torsions:
REMARK  status: ('A' for Active; 'I' for Inactive)
REMARK    1  A    between atoms: C4_4  and  N1_5 
REMARK       I    between atoms: N1_5  and  C6_7 
REMARK    2  A    between atoms: C6_7  and  O2_9 
REMARK    3  A    between atoms: O2_9  and  C7_10 
REMARK    4  A    between atoms: C7_10  and  C8_11 
REMARK    5  A    between atoms: C11_17  and  C12_18 
REMARK       I    between atoms: C12_18  and  N2_20 
REMARK    6  A    between atoms: N2_20  and  C13_21 
REMARK    7  A    between atoms: N2_20  and  C17_25 
REMARK    8  A    between atoms: C13_21  and  C14_22 
REMARK    9  A    between atoms: C19_27  and  N3_28 
REMARK       I    between atoms: N3_28  and  C20_30 
REMARK   10  A    between atoms: C20_30  and  O5_32 
REMARK   11  A    between atoms: O5_32  and  C21_33 
REMARK   12  A    between atoms: C21_33  and  C22_34 
REMARK   13  A    between atoms: C26_38  and  C27_39 
ROOT
HETATM    1  C12 UNL     1       7.165  18.047  65.681  1.00  0.00     0.264 C 
HETATM    2  O3  UNL     1       7.883  19.100  65.741  1.00  0.00    -0.267 OA
HETATM    3  N2  UNL     1       7.522  17.061  64.740  1.00  0.00    -0.292 N 
ENDROOT
BRANCH   3   4
HETATM    4  C13 UNL     1       6.693  15.944  64.502  1.00  0.00     0.077 C 
BRANCH   4   5
HETATM    5  C14 UNL     1       5.545  15.963  63.593  1.00  0.00     0.016 C 
HETATM    6  C15 UNL     1       5.877  14.868  62.514  1.00  0.00     0.015 C 
HETATM    7  C16 UNL     1       4.199  15.572  64.073  1.00  0.00     0.015 C 
ENDBRANCH   4   5
ENDBRANCH   3   4
BRANCH   3   8
HETATM    8  C17 UNL     1       8.694  17.349  63.944  1.00  0.00     0.044 A 
HETATM    9  C18 UNL     1       9.738  18.020  64.597  1.00  0.00     0.059 A 
HETATM   10  C19 UNL     1      10.952  18.363  63.994  1.00  0.00     0.040 A 
HETATM   11  C25 UNL     1      11.120  18.015  62.675  1.00  0.00     0.048 A 
HETATM   12  C26 UNL     1      10.112  17.356  62.016  1.00  0.00     0.045 A 
HETATM   13  C28 UNL     1       8.909  17.026  62.650  1.00  0.00     0.048 A 
BRANCH  10  14
HETATM   14  N3  UNL     1      11.888  19.029  64.804  1.00  0.00    -0.303 N 
HETATM   15  C20 UNL     1      12.056  20.415  64.836  1.00  0.00     0.365 C 
HETATM   16  O4  UNL     1      11.392  21.221  64.155  1.00  0.00    -0.238 OA
ATOM     17  H3  UNL     1      12.485  18.463  65.407  1.00  0.00     0.171 HD
BRANCH  15  18
HETATM   18  O5  UNL     1      13.029  21.008  65.675  1.00  0.00    -0.303 OA
BRANCH  18  19
HETATM   19  C21 UNL     1      14.335  21.134  65.161  1.00  0.00     0.184 C 
BRANCH  19  20
HETATM   20  C22 UNL     1      14.838  22.559  65.317  1.00  0.00     0.002 C 
HETATM   21  C23 UNL     1      14.508  23.103  66.683  1.00  0.00     0.011 C 
HETATM   22  C24 UNL     1      14.226  23.435  64.231  1.00  0.00     0.011 C 
ENDBRANCH  19  20
ENDBRANCH  18  19
ENDBRANCH  15  18
ENDBRANCH  10  14
BRANCH  12  23
HETATM   23  C27 UNL     1      10.287  16.989  60.613  1.00  0.00     0.209 C 
HETATM   24  O6  UNL     1      11.408  17.101  60.091  1.00  0.00    -0.644 OA
HETATM   25  O7  UNL     1       9.216  16.522  59.877  1.00  0.00    -0.644 OA
ENDBRANCH  12  23
ENDBRANCH   3   8
BRANCH   1  26
HETATM   26  C11 UNL     1       6.057  18.004  66.598  1.00  0.00     0.060 A 
HETATM   27  C2  UNL     1       6.179  17.466  67.864  1.00  0.00    -0.042 A 
HETATM   28  C1  UNL     1       7.481  16.887  68.325  1.00  0.00     0.049 C 
HETATM   29  C3  UNL     1       5.101  17.463  68.710  1.00  0.00     0.037 A 
HETATM   30  C4  UNL     1       3.863  17.976  68.378  1.00  0.00     0.041 A 
HETATM   31  C9  UNL     1       3.759  18.510  67.109  1.00  0.00     0.054 A 
HETATM   32  C10 UNL     1       4.816  18.531  66.232  1.00  0.00     0.052 A 
HETATM   33 CL1  UNL     1       4.598  19.260  64.624  1.00  0.00    -0.083 Cl
BRANCH  30  34
HETATM   34  N1  UNL     1       2.772  17.958  69.301  1.00  0.00    -0.298 N 
HETATM   35  C5  UNL     1       2.445  19.153  70.035  1.00  0.00     0.162 C 
HETATM   36  C6  UNL     1       2.005  16.776  69.489  1.00  0.00     0.367 C 
HETATM   37  O1  UNL     1       2.302  15.767  68.776  1.00  0.00    -0.238 OA
BRANCH  36  38
HETATM   38  O2  UNL     1       0.976  16.700  70.406  1.00  0.00    -0.298 OA
BRANCH  38  39
HETATM   39  C7  UNL     1       1.036  15.898  71.559  1.00  0.00     0.251 C 
BRANCH  39  40
HETATM   40  C8  UNL     1       2.349  15.978  72.276  1.00  0.00     0.377 C 
HETATM   41  F1  UNL     1       2.315  15.025  73.305  1.00  0.00    -0.212 F 
HETATM   42  F2  UNL     1       2.542  17.235  72.794  1.00  0.00    -0.212 F 
ENDBRANCH  39  40
ENDBRANCH  38  39
ENDBRANCH  36  38
ENDBRANCH  30  34
ENDBRANCH   1  26
TORSDOF 13
ENDMDL
MODEL 3
REMARK VINA RESULT: -7.144478947      1.088      1.507
REMARK  13 active torsions:
REMARK  status: ('A' for Active; 'I' for Inactive)
REMARK    1  A    between atoms: C4_4  and  N1_5 
REMARK       I    between atoms: N1_5  and  C6_7 
REMARK    2  A    between atoms: C6_7  and  O2_9 
REMARK    3  A    between atoms: O2_9  and  C7_10 
REMARK    4  A    between atoms: C7_10  and  C8_11 
REMARK    5  A    between atoms: C11_17  and  C12_18 
REMARK       I    between atoms: C12_18  and  N2_20 
REMARK    6  A    between atoms: N2_20  and  C13_21 
REMARK    7  A    between atoms: N2_20  and  C17_25 
REMARK    8  A    between atoms: C13_21  and  C14_22 
REMARK    9  A    between atoms: C19_27  and  N3_28 
REMARK       I    between atoms: N3_28  and  C20_30 
REMARK   10  A    between atoms: C20_30  and  O5_32 
REMARK   11  A    between atoms: O5_32  and  C21_33 
REMARK   12  A    between atoms: C21_33  and  C22_34 
REMARK   13  A    between atoms: C26_38  and  C27_39 
ROOT
HETATM    1  C12 UNL     1       7.012  18.131  65.636  1.00  0.00     0.264 C 
HETATM    2  O3  UNL     1       7.747  19.174  65.668  1.00  0.00    -0.267 OA
HETATM    3  N2  UNL     1       7.369  17.101  64.745  1.00  0.00    -0.292 N 
ENDROOT
BRANCH   3   4
HETATM    4  C13 UNL     1       6.526  15.990  64.536  1.00  0.00     0.077 C 
BRANCH   4   5
HETATM    5  C14 UNL     1       5.390  15.993  63.613  1.00  0.00     0.016 C 
HETATM    6  C15 UNL     1       5.749  14.900  62.540  1.00  0.00     0.015 C 
HETATM    7  C16 UNL     1       4.043  15.588  64.076  1.00  0.00     0.015 C 
ENDBRANCH   4   5
ENDBRANCH   3   4
BRANCH   3   8
HETATM    8  C17 UNL     1       8.563  17.336  63.962  1.00  0.00     0.044 A 
HETATM    9  C18 UNL     1       9.619  17.981  64.620  1.00  0.00     0.059 A 
HETATM   10  C19 UNL     1      10.853  18.273  64.030  1.00  0.00     0.040 A 
HETATM   11  C25 UNL     1      11.027  17.898  62.719  1.00  0.00     0.048 A 
HETATM   12  C26 UNL     1      10.008  17.264  62.056  1.00  0.00     0.045 A 
HETATM   13  C28 UNL     1       8.784  16.985  62.677  1.00  0.00     0.048 A 
BRANCH  10  14
HETATM   14  N3  UNL     1      11.800  18.919  64.843  1.00  0.00    -0.303 N 
HETATM   15  C20 UNL     1      11.948  20.305  64.930  1.00  0.00     0.365 C 
HETATM   16  O4  UNL     1      11.254  21.128  64.301  1.00  0.00    -0.238 OA
ATOM     17  H3  UNL     1      12.420  18.338  65.406  1.00  0.00     0.171 HD
BRANCH  15  18
HETATM   18  O5  UNL     1      12.934  20.878  65.768  1.00  0.00    -0.303 OA
BRANCH  18  19
HETATM   19  C21 UNL     1      14.163  21.228  65.174  1.00  0.00     0.184 C 
BRANCH  19  20
HETATM   20  C22 UNL     1      14.351  22.735  65.176  1.00  0.00     0.002 C 
HETATM   21  C23 UNL     1      15.544  23.134  64.347  1.00  0.00     0.011 C 
HETATM   22  C24 UNL     1      14.509  23.224  66.611  1.00  0.00     0.011 C 
ENDBRANCH  19  20
ENDBRANCH  18  19
ENDBRANCH  15  18
ENDBRANCH  10  14
BRANCH  12  23
HETATM   23  C27 UNL     1      10.190  16.868  60.661  1.00  0.00     0.209 C 
HETATM   24  O6  UNL     1      11.296  17.034  60.122  1.00  0.00    -0.644 OA
HETATM   25  O7  UNL     1       9.141  16.315  59.952  1.00  0.00    -0.644 OA
ENDBRANCH  12  23
ENDBRANCH   3   8
BRANCH   1  26
HETATM   26  C11 UNL     1       5.885  18.145  66.532  1.00  0.00     0.060 A 
HETATM   27  C2  UNL     1       4.663  18.669  66.157  1.00  0.00    -0.042 A 
HETATM   28  C1  UNL     1       4.471  19.260  64.796  1.00  0.00     0.049 C 
HETATM   29  C3  UNL     1       3.612  18.644  67.038  1.00  0.00     0.037 A 
HETATM   30  C4  UNL     1       3.691  18.117  68.311  1.00  0.00     0.041 A 
HETATM   31  C9  UNL     1       4.919  17.599  68.668  1.00  0.00     0.054 A 
HETATM   32  C10 UNL     1       5.995  17.605  67.815  1.00  0.00     0.052 A 
HETATM   33 CL1  UNL     1       7.536  16.894  68.351  1.00  0.00    -0.083 Cl
BRANCH  30  34
HETATM   34  N1  UNL     1       2.563  18.107  69.188  1.00  0.00    -0.298 N 
HETATM   35  C5  UNL     1       2.092  16.855  69.723  1.00  0.00     0.162 C 
HETATM   36  C6  UNL     1       1.912  19.320  69.542  1.00  0.00     0.367 C 
HETATM   37  O1  UNL     1       2.402  20.400  69.087  1.00  0.00    -0.238 OA
BRANCH  36  38
HETATM   38  O2  UNL     1       0.790  19.351  70.346  1.00  0.00    -0.298 OA
BRANCH  38  39
HETATM   39  C7  UNL     1       0.726  20.086  71.543  1.00  0.00     0.251 C 
BRANCH  39  40
HETATM   40  C8  UNL     1       1.284  19.352  72.725  1.00  0.00     0.377 C 
HETATM   41  F1  UNL     1       2.672  19.556  72.718  1.00  0.00    -0.212 F 
HETATM   42  F2  UNL     1       0.996  18.012  72.642  1.00  0.00    -0.212 F 
ENDBRANCH  39  40
ENDBRANCH  38  39
ENDBRANCH  36  38
ENDBRANCH  30  34
ENDBRANCH   1  26
TORSDOF 13
ENDMDL
MODEL 4
REMARK VINA RESULT: -6.979621079      6.354     10.458
REMARK  13 active torsions:
REMARK  status: ('A' for Active; 'I' for Inactive)
REMARK    1  A    between atoms: C4_4  and  N1_5 
REMARK       I    between atoms: N1_5  and  C6_7 
REMARK    2  A    between atoms: C6_7  and  O2_9 
REMARK    3  A    between atoms: O2_9  and  C7_10 
REMARK    4  A    between atoms: C7_10  and  C8_11 
REMARK    5  A    between atoms: C11_17  and  C12_18 
REMARK       I    between atoms: C12_18  and  N2_20 
REMARK    6  A    between atoms: N2_20  and  C13_21 
REMARK    7  A    between atoms: N2_20  and  C17_25 
REMARK    8  A    between atoms: C13_21  and  C14_22 
REMARK    9  A    between atoms: C19_27  and  N3_28 
REMARK       I    between atoms: N3_28  and  C20_30 
REMARK   10  A    between atoms: C20_30  and  O5_32 
REMARK   11  A    between atoms: O5_32  and  C21_33 
REMARK   12  A    between atoms: C21_33  and  C22_34 
REMARK   13  A    between atoms: C26_38  and  C27_39 
ROOT
HETATM    1  C12 UNL     1      14.370  21.264  63.673  1.00  0.00     0.264 C 
HETATM    2  O3  UNL     1      14.596  21.163  64.925  1.00  0.00    -0.267 OA
HETATM    3  N2  UNL     1      14.993  22.317  62.976  1.00  0.00    -0.292 N 
ENDROOT
BRANCH   3   4
HETATM    4  C13 UNL     1      14.673  22.591  61.629  1.00  0.00     0.077 C 
BRANCH   4   5
HETATM    5  C14 UNL     1      15.601  22.389  60.515  1.00  0.00     0.016 C 
HETATM    6  C15 UNL     1      14.744  21.666  59.413  1.00  0.00     0.015 C 
HETATM    7  C16 UNL     1      16.176  23.548  59.795  1.00  0.00     0.015 C 
ENDBRANCH   4   5
ENDBRANCH   3   4
BRANCH   3   8
HETATM    8  C17 UNL     1      15.851  23.172  63.766  1.00  0.00     0.044 A 
HETATM    9  C18 UNL     1      16.941  23.746  63.098  1.00  0.00     0.059 A 
HETATM   10  C19 UNL     1      17.863  24.613  63.694  1.00  0.00     0.040 A 
HETATM   11  C25 UNL     1      17.677  24.911  65.022  1.00  0.00     0.048 A 
HETATM   12  C26 UNL     1      16.615  24.362  65.697  1.00  0.00     0.045 A 
HETATM   13  C28 UNL     1      15.709  23.499  65.069  1.00  0.00     0.048 A 
BRANCH  10  14
HETATM   14  N3  UNL     1      18.891  25.099  62.869  1.00  0.00    -0.303 N 
HETATM   15  C20 UNL     1      18.935  26.393  62.345  1.00  0.00     0.365 C 
HETATM   16  O4  UNL     1      18.071  27.267  62.553  1.00  0.00    -0.238 OA
ATOM     17  H3  UNL     1      19.656  24.465  62.637  1.00  0.00     0.171 HD
BRANCH  15  18
HETATM   18  O5  UNL     1      20.004  26.802  61.513  1.00  0.00    -0.303 OA
BRANCH  18  19
HETATM   19  C21 UNL     1      19.674  27.323  60.246  1.00  0.00     0.184 C 
BRANCH  19  20
HETATM   20  C22 UNL     1      18.690  26.413  59.532  1.00  0.00     0.002 C 
HETATM   21  C23 UNL     1      19.387  25.563  58.501  1.00  0.00     0.011 C 
HETATM   22  C24 UNL     1      17.600  27.255  58.882  1.00  0.00     0.011 C 
ENDBRANCH  19  20
ENDBRANCH  18  19
ENDBRANCH  15  18
ENDBRANCH  10  14
BRANCH  12  23
HETATM   23  C27 UNL     1      16.417  24.676  67.110  1.00  0.00     0.209 C 
HETATM   24  O6  UNL     1      16.906  25.719  67.575  1.00  0.00    -0.644 OA
HETATM   25  O7  UNL     1      15.695  23.820  67.918  1.00  0.00    -0.644 OA
ENDBRANCH  12  23
ENDBRANCH   3   8
BRANCH   1  26
HETATM   26  C11 UNL     1      13.484  20.271  63.126  1.00  0.00     0.060 A 
HETATM   27  C2  UNL     1      12.135  20.254  63.423  1.00  0.00    -0.042 A 
HETATM   28  C1  UNL     1      11.545  21.271  64.348  1.00  0.00     0.049 C 
HETATM   29  C3  UNL     1      11.327  19.299  62.863  1.00  0.00     0.037 A 
HETATM   30  C4  UNL     1      11.778  18.323  61.997  1.00  0.00     0.041 A 
HETATM   31  C9  UNL     1      13.128  18.355  61.712  1.00  0.00     0.054 A 
HETATM   32  C10 UNL     1      13.970  19.295  62.252  1.00  0.00     0.052 A 
HETATM   33 CL1  UNL     1      15.694  19.276  61.810  1.00  0.00    -0.083 Cl
BRANCH  30  34
HETATM   34  N1  UNL     1      10.891  17.355  61.433  1.00  0.00    -0.298 N 
HETATM   35  C5  UNL     1      10.997  17.026  60.034  1.00  0.00     0.162 C 
HETATM   36  C6  UNL     1       9.916  16.710  62.241  1.00  0.00     0.367 C 
HETATM   37  O1  UNL     1       9.902  16.996  63.479  1.00  0.00    -0.238 OA
BRANCH  36  38
HETATM   38  O2  UNL     1       9.008  15.806  61.727  1.00  0.00    -0.298 OA
BRANCH  38  39
HETATM   39  C7  UNL     1       7.655  15.779  62.109  1.00  0.00     0.251 C 
BRANCH  39  40
HETATM   40  C8  UNL     1       6.706  15.906  60.957  1.00  0.00     0.377 C 
HETATM   41  F1  UNL     1       5.492  15.327  61.358  1.00  0.00    -0.212 F 
HETATM   42  F2  UNL     1       7.200  15.262  59.849  1.00  0.00    -0.212 F 
ENDBRANCH  39  40
ENDBRANCH  38  39
ENDBRANCH  36  38
ENDBRANCH  30  34
ENDBRANCH   1  26
TORSDOF 13
ENDMDL
MODEL 5
REMARK VINA RESULT: -6.923095050      4.807      8.701
REMARK  13 active torsions:
REMARK  status: ('A' for Active; 'I' for Inactive)
REMARK    1  A    between atoms: C4_4  and  N1_5 
REMARK       I    between atoms: N1_5  and  C6_7 
REMARK    2  A    between atoms: C6_7  and  O2_9 
REMARK    3  A    between atoms: O2_9  and  C7_10 
REMARK    4  A    between atoms: C7_10  and  C8_11 
REMARK    5  A    between atoms: C11_17  and  C12_18 
REMARK       I    between atoms: C12_18  and  N2_20 
REMARK    6  A    between atoms: N2_20  and  C13_21 
REMARK    7  A    between atoms: N2_20  and  C17_25 
REMARK    8  A    between atoms: C13_21  and  C14_22 
REMARK    9  A    between atoms: C19_27  and  N3_28 
REMARK       I    between atoms: N3_28  and  C20_30 
REMARK   10  A    between atoms: C20_30  and  O5_32 
REMARK   11  A    between atoms: O5_32  and  C21_33 
REMARK   12  A    between atoms: C21_33  and  C22_34 
REMARK   13  A    between atoms: C26_38  and  C27_39 
ROOT
HETATM    1  C12 UNL     1      12.552  20.934  64.923  1.00  0.00     0.264 C 
HETATM    2  O3  UNL     1      12.242  22.003  65.547  1.00  0.00    -0.267 OA
HETATM    3  N2  UNL     1      13.869  20.813  64.439  1.00  0.00    -0.292 N 
ENDROOT
BRANCH   3   4
HETATM    4  C13 UNL     1      14.246  19.738  63.607  1.00  0.00     0.077 C 
BRANCH   4   5
HETATM    5  C14 UNL     1      14.054  19.727  62.156  1.00  0.00     0.016 C 
HETATM    6  C15 UNL     1      15.504  19.582  61.565  1.00  0.00     0.015 C 
HETATM    7  C16 UNL     1      13.307  18.626  61.504  1.00  0.00     0.015 C 
ENDBRANCH   4   5
ENDBRANCH   3   4
BRANCH   3   8
HETATM    8  C17 UNL     1      14.746  21.928  64.723  1.00  0.00     0.044 A 
HETATM    9  C18 UNL     1      15.537  22.382  63.659  1.00  0.00     0.059 A 
HETATM   10  C19 UNL     1      16.426  23.458  63.742  1.00  0.00     0.040 A 
HETATM   11  C25 UNL     1      16.523  24.102  64.952  1.00  0.00     0.048 A 
HETATM   12  C26 UNL     1      15.758  23.676  66.008  1.00  0.00     0.045 A 
HETATM   13  C28 UNL     1      14.874  22.595  65.890  1.00  0.00     0.048 A 
BRANCH  10  14
HETATM   14  N3  UNL     1      17.134  23.779  62.570  1.00  0.00    -0.303 N 
HETATM   15  C20 UNL     1      18.496  23.533  62.380  1.00  0.00     0.365 C 
HETATM   16  O4  UNL     1      19.239  22.996  63.226  1.00  0.00    -0.238 OA
ATOM     17  H3  UNL     1      16.619  24.221  61.809  1.00  0.00     0.171 HD
BRANCH  15  18
HETATM   18  O5  UNL     1      19.136  23.895  61.172  1.00  0.00    -0.303 OA
BRANCH  18  19
HETATM   19  C21 UNL     1      18.318  24.097  60.042  1.00  0.00     0.184 C 
BRANCH  19  20
HETATM   20  C22 UNL     1      18.331  22.872  59.145  1.00  0.00     0.002 C 
HETATM   21  C23 UNL     1      17.034  22.113  59.245  1.00  0.00     0.011 C 
HETATM   22  C24 UNL     1      19.505  21.977  59.526  1.00  0.00     0.011 C 
ENDBRANCH  19  20
ENDBRANCH  18  19
ENDBRANCH  15  18
ENDBRANCH  10  14
BRANCH  12  23
HETATM   23  C27 UNL     1      15.861  24.357  67.296  1.00  0.00     0.209 C 
HETATM   24  O6  UNL     1      16.507  25.415  67.374  1.00  0.00    -0.644 OA
HETATM   25  O7  UNL     1      15.248  23.828  68.415  1.00  0.00    -0.644 OA
ENDBRANCH  12  23
ENDBRANCH   3   8
BRANCH   1  26
HETATM   26  C11 UNL     1      11.491  19.971  64.788  1.00  0.00     0.060 A 
HETATM   27  C2  UNL     1      11.191  19.071  65.792  1.00  0.00    -0.042 A 
HETATM   28  C1  UNL     1      11.980  19.057  67.065  1.00  0.00     0.049 C 
HETATM   29  C3  UNL     1      10.159  18.184  65.626  1.00  0.00     0.037 A 
HETATM   30  C4  UNL     1       9.374  18.124  64.492  1.00  0.00     0.041 A 
HETATM   31  C9  UNL     1       9.689  19.029  63.499  1.00  0.00     0.054 A 
HETATM   32  C10 UNL     1      10.714  19.933  63.628  1.00  0.00     0.052 A 
HETATM   33 CL1  UNL     1      11.034  21.081  62.306  1.00  0.00    -0.083 Cl
BRANCH  30  34
HETATM   34  N1  UNL     1       8.304  17.185  64.372  1.00  0.00    -0.298 N 
HETATM   35  C5  UNL     1       7.149  17.315  65.222  1.00  0.00     0.162 C 
HETATM   36  C6  UNL     1       8.368  16.134  63.416  1.00  0.00     0.367 C 
HETATM   37  O1  UNL     1       9.384  16.098  62.655  1.00  0.00    -0.238 OA
BRANCH  36  38
HETATM   38  O2  UNL     1       7.379  15.177  63.301  1.00  0.00    -0.298 OA
BRANCH  38  39
HETATM   39  C7  UNL     1       6.867  14.751  62.063  1.00  0.00     0.251 C 
BRANCH  39  40
HETATM   40  C8  UNL     1       5.918  15.729  61.439  1.00  0.00     0.377 C 
HETATM   41  F1  UNL     1       6.695  16.679  60.759  1.00  0.00    -0.212 F 
HETATM   42  F2  UNL     1       5.151  16.339  62.402  1.00  0.00    -0.212 F 
ENDBRANCH  39  40
ENDBRANCH  38  39
ENDBRANCH  36  38
ENDBRANCH  30  34
ENDBRANCH   1  26
TORSDOF 13
ENDMDL
