MODEL 1
REMARK VINA RESULT: -9.382375569      0.000      0.000
REMARK  11 active torsions:
REMARK  status: ('A' for Active; 'I' for Inactive)
REMARK    1  A    between atoms: C1_2  and  C2_4 
REMARK    2  A    between atoms: C2_4  and  O3_5 
REMARK    3  A    between atoms: O3_5  and  C3_6 
REMARK    4  A    between atoms: C3_6  and  C4_7 
REMARK    5  A    between atoms: C4_7  and  C5_8 
REMARK    6  A    between atoms: N1_11  and  C8_12 
REMARK    7  A    between atoms: C8_12  and  C9_13 
REMARK    8  A    between atoms: C9_13  and  C10_14 
REMARK    9  A    between atoms: C10_14  and  S1_15 
REMARK   10  A    between atoms: S1_15  and  C11_16 
REMARK   11  A    between atoms: C12_19  and  C13_20 
ROOT
HETATM    1  C11 UNL     1      14.810  21.213  62.985  1.00  0.00     0.081 A 
HETATM    2  N2  UNL     1      13.620  20.595  63.240  1.00  0.00    -0.349 N 
ATOM      3  H2  UNL     1      13.281  19.894  62.582  1.00  0.00     0.166 HD
HETATM    4  C12 UNL     1      12.874  20.875  64.331  1.00  0.00     0.044 A 
HETATM    5  C19 UNL     1      13.382  21.829  65.184  1.00  0.00     0.042 A 
HETATM    6  C20 UNL     1      14.584  22.483  64.965  1.00  0.00    -0.020 A 
HETATM    7  C21 UNL     1      15.064  23.442  65.830  1.00  0.00     0.029 A 
HETATM    8  C22 UNL     1      16.254  24.105  65.616  1.00  0.00     0.033 A 
HETATM    9  C23 UNL     1      16.969  25.080  66.278  1.00  0.00     0.130 A 
HETATM   10 CL3  UNL     1      16.513  25.850  67.774  1.00  0.00    -0.062 Cl
HETATM   11  N3  UNL     1      18.094  25.361  65.596  1.00  0.00    -0.289 N 
ATOM     12  H3  UNL     1      18.809  26.040  65.854  1.00  0.00     0.188 HD
HETATM   13  N4  UNL     1      18.092  24.581  64.522  1.00  0.00    -0.299 N 
ATOM     14  H4  UNL     1      18.826  24.574  63.813  1.00  0.00     0.187 HD
HETATM   15  C24 UNL     1      17.002  23.804  64.490  1.00  0.00     0.062 A 
HETATM   16  C25 UNL     1      16.515  22.833  63.614  1.00  0.00     0.047 A 
HETATM   17  C26 UNL     1      15.320  22.169  63.834  1.00  0.00     0.010 A 
ENDROOT
BRANCH   1  18
HETATM   18  S1  UNL     1      15.731  20.792  61.519  1.00  0.00    -0.111 SA
BRANCH  18  19
HETATM   19  C10 UNL     1      15.163  21.624  60.041  1.00  0.00     0.082 C 
BRANCH  19  20
HETATM   20  C9  UNL     1      16.175  21.584  58.924  1.00  0.00     0.041 C 
BRANCH  20  21
HETATM   21  C8  UNL     1      17.570  21.813  59.399  1.00  0.00     0.273 C 
BRANCH  21  22
HETATM   22  N1  UNL     1      18.089  23.122  59.247  1.00  0.00     0.088 N 
HETATM   23  C7  UNL     1      17.363  24.012  58.409  1.00  0.00     0.272 C 
HETATM   24  C6  UNL     1      18.303  25.192  58.116  1.00  0.00     0.035 C 
HETATM   25  C5  UNL     1      18.570  25.907  59.396  1.00  0.00    -0.009 C 
HETATM   26  C28 UNL     1      18.124  25.184  60.620  1.00  0.00     0.035 C 
HETATM   27  C27 UNL     1      18.312  23.695  60.541  1.00  0.00     0.272 C 
BRANCH  25  28
HETATM   28  C4  UNL     1      18.056  27.312  59.308  1.00  0.00     0.031 C 
BRANCH  28  29
HETATM   29  C3  UNL     1      19.040  28.198  60.094  1.00  0.00     0.168 C 
BRANCH  29  30
HETATM   30  O3  UNL     1      18.419  28.892  61.085  1.00  0.00    -0.381 OA
BRANCH  30  31
HETATM   31  C2  UNL     1      19.027  28.992  62.299  1.00  0.00     0.280 C 
BRANCH  31  32
HETATM   32  C1  UNL     1      18.802  27.848  63.172  1.00  0.00     0.197 C 
HETATM   33  O1  UNL     1      17.693  27.280  63.236  1.00  0.00    -0.646 OA
HETATM   34  O2  UNL     1      19.812  27.318  63.993  1.00  0.00    -0.646 OA
ENDBRANCH  31  32
ENDBRANCH  30  31
ENDBRANCH  29  30
ENDBRANCH  28  29
ENDBRANCH  25  28
ENDBRANCH  21  22
ENDBRANCH  20  21
ENDBRANCH  19  20
ENDBRANCH  18  19
ENDBRANCH   1  18
BRANCH   4  35
HETATM   35  C13 UNL     1      11.624  20.169  64.522  1.00  0.00    -0.008 A 
HETATM   36  C14 UNL     1      10.895  20.305  65.680  1.00  0.00     0.015 A 
HETATM   37  C15 UNL     1       9.695  19.636  65.878  1.00  0.00     0.026 A 
HETATM   38  C16 UNL     1       9.224  18.805  64.870  1.00  0.00     0.055 A 
HETATM   39 CL1  UNL     1       7.712  17.955  65.109  1.00  0.00    -0.083 Cl
HETATM   40  C17 UNL     1       9.937  18.656  63.707  1.00  0.00     0.056 A 
HETATM   41 CL2  UNL     1       9.318  17.596  62.447  1.00  0.00    -0.083 Cl
HETATM   42  C18 UNL     1      11.148  19.347  63.537  1.00  0.00     0.039 A 
ENDBRANCH   4  35
TORSDOF 11
ENDMDL
MODEL 2
REMARK VINA RESULT: -9.358337510      0.516      1.136
REMARK  11 active torsions:
REMARK  status: ('A' for Active; 'I' for Inactive)
REMARK    1  A    between atoms: C1_2  and  C2_4 
REMARK    2  A    between atoms: C2_4  and  O3_5 
REMARK    3  A    between atoms: O3_5  and  C3_6 
REMARK    4  A    between atoms: C3_6  and  C4_7 
REMARK    5  A    between atoms: C4_7  and  C5_8 
REMARK    6  A    between atoms: N1_11  and  C8_12 
REMARK    7  A    between atoms: C8_12  and  C9_13 
REMARK    8  A    between atoms: C9_13  and  C10_14 
REMARK    9  A    between atoms: C10_14  and  S1_15 
REMARK   10  A    between atoms: S1_15  and  C11_16 
REMARK   11  A    between atoms: C12_19  and  C13_20 
ROOT
HETATM    1  C11 UNL     1      14.914  21.210  62.873  1.00  0.00     0.081 A 
HETATM    2  N2  UNL     1      13.739  20.562  63.113  1.00  0.00    -0.349 N 
ATOM      3  H2  UNL     1      13.418  19.864  62.442  1.00  0.00     0.166 HD
HETATM    4  C12 UNL     1      12.982  20.807  64.206  1.00  0.00     0.044 A 
HETATM    5  C19 UNL     1      13.465  21.757  65.076  1.00  0.00     0.042 A 
HETATM    6  C20 UNL     1      14.653  22.442  64.872  1.00  0.00    -0.020 A 
HETATM    7  C21 UNL     1      15.108  23.397  65.755  1.00  0.00     0.029 A 
HETATM    8  C22 UNL     1      16.283  24.091  65.556  1.00  0.00     0.033 A 
HETATM    9  C23 UNL     1      16.973  25.071  66.237  1.00  0.00     0.130 A 
HETATM   10 CL3  UNL     1      16.495  25.805  67.743  1.00  0.00    -0.062 Cl
HETATM   11  N3  UNL     1      18.094  25.388  65.564  1.00  0.00    -0.289 N 
ATOM     12  H3  UNL     1      18.793  26.080  65.836  1.00  0.00     0.188 HD
HETATM   13  N4  UNL     1      18.114  24.626  64.477  1.00  0.00    -0.299 N 
ATOM     14  H4  UNL     1      18.850  24.648  63.771  1.00  0.00     0.187 HD
HETATM   15  C24 UNL     1      17.042  23.826  64.428  1.00  0.00     0.062 A 
HETATM   16  C25 UNL     1      16.580  22.859  63.534  1.00  0.00     0.047 A 
HETATM   17  C26 UNL     1      15.400  22.163  63.739  1.00  0.00     0.010 A 
ENDROOT
BRANCH   1  18
HETATM   18  S1  UNL     1      15.850  20.834  61.403  1.00  0.00    -0.111 SA
BRANCH  18  19
HETATM   19  C10 UNL     1      15.312  21.730  59.951  1.00  0.00     0.082 C 
BRANCH  19  20
HETATM   20  C9  UNL     1      16.325  21.692  58.834  1.00  0.00     0.041 C 
BRANCH  20  21
HETATM   21  C8  UNL     1      17.714  21.955  59.304  1.00  0.00     0.273 C 
BRANCH  21  22
HETATM   22  N1  UNL     1      18.188  23.286  59.185  1.00  0.00     0.088 N 
HETATM   23  C7  UNL     1      17.441  24.164  58.353  1.00  0.00     0.272 C 
HETATM   24  C6  UNL     1      18.341  25.382  58.094  1.00  0.00     0.035 C 
HETATM   25  C5  UNL     1      18.564  26.083  59.390  1.00  0.00    -0.009 C 
HETATM   26  C28 UNL     1      18.129  25.321  60.595  1.00  0.00     0.035 C 
HETATM   27  C27 UNL     1      18.372  23.842  60.492  1.00  0.00     0.272 C 
BRANCH  25  28
HETATM   28  C4  UNL     1      18.001  27.470  59.321  1.00  0.00     0.031 C 
BRANCH  28  29
HETATM   29  C3  UNL     1      18.967  28.384  60.098  1.00  0.00     0.168 C 
BRANCH  29  30
HETATM   30  O3  UNL     1      18.344  29.024  61.124  1.00  0.00    -0.381 OA
BRANCH  30  31
HETATM   31  C2  UNL     1      18.981  29.114  62.324  1.00  0.00     0.280 C 
BRANCH  31  32
HETATM   32  C1  UNL     1      18.825  27.939  63.169  1.00  0.00     0.197 C 
HETATM   33  O1  UNL     1      17.734  27.341  63.267  1.00  0.00    -0.646 OA
HETATM   34  O2  UNL     1      19.885  27.408  63.922  1.00  0.00    -0.646 OA
ENDBRANCH  31  32
ENDBRANCH  30  31
ENDBRANCH  29  30
ENDBRANCH  28  29
ENDBRANCH  25  28
ENDBRANCH  21  22
ENDBRANCH  20  21
ENDBRANCH  19  20
ENDBRANCH  18  19
ENDBRANCH   1  18
BRANCH   4  35
HETATM   35  C13 UNL     1      11.748  20.069  64.380  1.00  0.00    -0.008 A 
HETATM   36  C14 UNL     1      11.129  19.450  63.319  1.00  0.00     0.015 A 
HETATM   37  C15 UNL     1       9.947  18.739  63.468  1.00  0.00     0.026 A 
HETATM   38  C16 UNL     1       9.377  18.656  64.732  1.00  0.00     0.055 A 
HETATM   39 CL1  UNL     1       7.885  17.762  64.933  1.00  0.00    -0.083 Cl
HETATM   40  C17 UNL     1       9.979  19.266  65.803  1.00  0.00     0.056 A 
HETATM   41 CL2  UNL     1       9.237  19.146  67.393  1.00  0.00    -0.083 Cl
HETATM   42  C18 UNL     1      11.176  19.979  65.620  1.00  0.00     0.039 A 
ENDBRANCH   4  35
TORSDOF 11
ENDMDL
MODEL 3
REMARK VINA RESULT: -9.016941211      6.625     12.843
REMARK  11 active torsions:
REMARK  status: ('A' for Active; 'I' for Inactive)
REMARK    1  A    between atoms: C1_2  and  C2_4 
REMARK    2  A    between atoms: C2_4  and  O3_5 
REMARK    3  A    between atoms: O3_5  and  C3_6 
REMARK    4  A    between atoms: C3_6  and  C4_7 
REMARK    5  A    between atoms: C4_7  and  C5_8 
REMARK    6  A    between atoms: N1_11  and  C8_12 
REMARK    7  A    between atoms: C8_12  and  C9_13 
REMARK    8  A    between atoms: C9_13  and  C10_14 
REMARK    9  A    between atoms: C10_14  and  S1_15 
REMARK   10  A    between atoms: S1_15  and  C11_16 
REMARK   11  A    between atoms: C12_19  and  C13_20 
ROOT
HETATM    1  C11 UNL     1      11.301  18.512  64.319  1.00  0.00     0.081 A 
HETATM    2  N2  UNL     1      12.328  19.358  64.015  1.00  0.00    -0.349 N 
ATOM      3  H2  UNL     1      12.752  19.903  64.766  1.00  0.00     0.166 HD
HETATM    4  C12 UNL     1      12.805  19.501  62.760  1.00  0.00     0.044 A 
HETATM    5  C19 UNL     1      12.194  18.741  61.789  1.00  0.00     0.042 A 
HETATM    6  C20 UNL     1      11.149  17.870  62.051  1.00  0.00    -0.020 A 
HETATM    7  C21 UNL     1      10.548  17.127  61.058  1.00  0.00     0.029 A 
HETATM    8  C22 UNL     1       9.499  16.266  61.306  1.00  0.00     0.033 A 
HETATM    9  C23 UNL     1       8.721  15.420  60.546  1.00  0.00     0.130 A 
HETATM   10 CL3  UNL     1       8.860  15.163  58.828  1.00  0.00    -0.062 Cl
HETATM   11  N3  UNL     1       7.818  14.805  61.331  1.00  0.00    -0.289 N 
ATOM     12  H3  UNL     1       7.116  14.127  61.036  1.00  0.00     0.188 HD
HETATM   13  N4  UNL     1       8.019  15.252  62.565  1.00  0.00    -0.299 N 
ATOM     14  H4  UNL     1       7.478  14.960  63.379  1.00  0.00     0.187 HD
HETATM   15  C24 UNL     1       9.025  16.136  62.601  1.00  0.00     0.062 A 
HETATM   16  C25 UNL     1       9.633  16.889  63.606  1.00  0.00     0.047 A 
HETATM   17  C26 UNL     1      10.686  17.751  63.352  1.00  0.00     0.010 A 
ENDROOT
BRANCH   1  18
HETATM   18  S1  UNL     1      10.725  18.386  66.002  1.00  0.00    -0.111 SA
BRANCH  18  19
HETATM   19  C10 UNL     1       9.166  19.210  66.298  1.00  0.00     0.082 C 
BRANCH  19  20
HETATM   20  C9  UNL     1       8.482  18.731  67.554  1.00  0.00     0.041 C 
BRANCH  20  21
HETATM   21  C8  UNL     1       7.970  17.336  67.437  1.00  0.00     0.273 C 
BRANCH  21  22
HETATM   22  N1  UNL     1       6.638  17.182  66.978  1.00  0.00     0.088 N 
HETATM   23  C7  UNL     1       5.801  18.330  67.027  1.00  0.00     0.272 C 
HETATM   24  C6  UNL     1       4.362  17.822  66.847  1.00  0.00     0.035 C 
HETATM   25  C5  UNL     1       4.237  17.242  65.480  1.00  0.00    -0.009 C 
HETATM   26  C28 UNL     1       5.530  17.043  64.767  1.00  0.00     0.035 C 
HETATM   27  C27 UNL     1       6.653  16.607  65.666  1.00  0.00     0.272 C 
BRANCH  25  28
HETATM   28  C4  UNL     1       3.228  18.018  64.689  1.00  0.00     0.031 C 
BRANCH  28  29
HETATM   29  C3  UNL     1       2.454  17.000  63.831  1.00  0.00     0.168 C 
BRANCH  29  30
HETATM   30  O3  UNL     1       2.794  17.082  62.517  1.00  0.00    -0.381 OA
BRANCH  30  31
HETATM   31  C2  UNL     1       3.072  15.936  61.837  1.00  0.00     0.280 C 
BRANCH  31  32
HETATM   32  C1  UNL     1       4.485  15.583  61.821  1.00  0.00     0.197 C 
HETATM   33  O1  UNL     1       5.357  16.378  61.416  1.00  0.00    -0.646 OA
HETATM   34  O2  UNL     1       4.952  14.331  62.257  1.00  0.00    -0.646 OA
ENDBRANCH  31  32
ENDBRANCH  30  31
ENDBRANCH  29  30
ENDBRANCH  28  29
ENDBRANCH  25  28
ENDBRANCH  21  22
ENDBRANCH  20  21
ENDBRANCH  19  20
ENDBRANCH  18  19
ENDBRANCH   1  18
BRANCH   4  35
HETATM   35  C13 UNL     1      13.900  20.423  62.530  1.00  0.00    -0.008 A 
HETATM   36  C14 UNL     1      14.155  21.459  63.397  1.00  0.00     0.015 A 
HETATM   37  C15 UNL     1      15.199  22.350  63.192  1.00  0.00     0.026 A 
HETATM   38  C16 UNL     1      16.005  22.182  62.073  1.00  0.00     0.055 A 
HETATM   39 CL1  UNL     1      17.326  23.300  61.804  1.00  0.00    -0.083 Cl
HETATM   40  C17 UNL     1      15.767  21.154  61.197  1.00  0.00     0.056 A 
HETATM   41 CL2  UNL     1      16.802  20.964  59.788  1.00  0.00    -0.083 Cl
HETATM   42  C18 UNL     1      14.701  20.268  61.432  1.00  0.00     0.039 A 
ENDBRANCH   4  35
TORSDOF 11
ENDMDL
MODEL 4
REMARK VINA RESULT: -9.001167935      6.436     12.547
REMARK  11 active torsions:
REMARK  status: ('A' for Active; 'I' for Inactive)
REMARK    1  A    between atoms: C1_2  and  C2_4 
REMARK    2  A    between atoms: C2_4  and  O3_5 
REMARK    3  A    between atoms: O3_5  and  C3_6 
REMARK    4  A    between atoms: C3_6  and  C4_7 
REMARK    5  A    between atoms: C4_7  and  C5_8 
REMARK    6  A    between atoms: N1_11  and  C8_12 
REMARK    7  A    between atoms: C8_12  and  C9_13 
REMARK    8  A    between atoms: C9_13  and  C10_14 
REMARK    9  A    between atoms: C10_14  and  S1_15 
REMARK   10  A    between atoms: S1_15  and  C11_16 
REMARK   11  A    between atoms: C12_19  and  C13_20 
ROOT
HETATM    1  C11 UNL     1      11.258  19.913  64.037  1.00  0.00     0.081 A 
HETATM    2  N2  UNL     1      12.420  20.537  63.688  1.00  0.00    -0.349 N 
ATOM      3  H2  UNL     1      12.801  21.248  64.312  1.00  0.00     0.166 HD
HETATM    4  C12 UNL     1      13.087  20.249  62.550  1.00  0.00     0.044 A 
HETATM    5  C19 UNL     1      12.527  19.281  61.748  1.00  0.00     0.042 A 
HETATM    6  C20 UNL     1      11.349  18.622  62.060  1.00  0.00    -0.020 A 
HETATM    7  C21 UNL     1      10.804  17.663  61.234  1.00  0.00     0.029 A 
HETATM    8  C22 UNL     1       9.627  17.010  61.531  1.00  0.00     0.033 A 
HETATM    9  C23 UNL     1       8.861  16.039  60.922  1.00  0.00     0.130 A 
HETATM   10 CL3  UNL     1       9.210  15.258  59.404  1.00  0.00    -0.062 Cl
HETATM   11  N3  UNL     1       7.782  15.771  61.679  1.00  0.00    -0.289 N 
ATOM     12  H3  UNL     1       7.045  15.095  61.473  1.00  0.00     0.188 HD
HETATM   13  N4  UNL     1       7.861  16.556  62.747  1.00  0.00    -0.299 N 
ATOM     14  H4  UNL     1       7.175  16.573  63.502  1.00  0.00     0.187 HD
HETATM   15  C24 UNL     1       8.958  17.322  62.703  1.00  0.00     0.062 A 
HETATM   16  C25 UNL     1       9.510  18.293  63.539  1.00  0.00     0.047 A 
HETATM   17  C26 UNL     1      10.693  18.946  63.237  1.00  0.00     0.010 A 
ENDROOT
BRANCH   1  18
HETATM   18  S1  UNL     1      10.435  20.356  65.555  1.00  0.00    -0.111 SA
BRANCH  18  19
HETATM   19  C10 UNL     1      10.545  19.108  66.832  1.00  0.00     0.082 C 
BRANCH  19  20
HETATM   20  C9  UNL     1       9.288  19.006  67.658  1.00  0.00     0.041 C 
BRANCH  20  21
HETATM   21  C8  UNL     1       8.332  17.989  67.135  1.00  0.00     0.273 C 
BRANCH  21  22
HETATM   22  N1  UNL     1       7.000  18.419  66.914  1.00  0.00     0.088 N 
HETATM   23  C7  UNL     1       6.476  18.250  65.603  1.00  0.00     0.272 C 
HETATM   24  C6  UNL     1       5.207  19.113  65.532  1.00  0.00     0.035 C 
HETATM   25  C5  UNL     1       4.206  18.554  66.485  1.00  0.00    -0.009 C 
HETATM   26  C28 UNL     1       4.744  17.534  67.427  1.00  0.00     0.035 C 
HETATM   27  C27 UNL     1       6.143  17.825  67.896  1.00  0.00     0.272 C 
BRANCH  25  28
HETATM   28  C4  UNL     1       2.992  18.097  65.734  1.00  0.00     0.031 C 
BRANCH  28  29
HETATM   29  C3  UNL     1       3.025  18.795  64.362  1.00  0.00     0.168 C 
BRANCH  29  30
HETATM   30  O3  UNL     1       2.796  17.924  63.344  1.00  0.00    -0.381 OA
BRANCH  30  31
HETATM   31  C2  UNL     1       3.083  16.606  63.529  1.00  0.00     0.280 C 
BRANCH  31  32
HETATM   32  C1  UNL     1       4.384  16.204  63.015  1.00  0.00     0.197 C 
HETATM   33  O1  UNL     1       5.239  15.659  63.743  1.00  0.00    -0.646 OA
HETATM   34  O2  UNL     1       4.758  16.404  61.676  1.00  0.00    -0.646 OA
ENDBRANCH  31  32
ENDBRANCH  30  31
ENDBRANCH  29  30
ENDBRANCH  28  29
ENDBRANCH  25  28
ENDBRANCH  21  22
ENDBRANCH  20  21
ENDBRANCH  19  20
ENDBRANCH  18  19
ENDBRANCH   1  18
BRANCH   4  35
HETATM   35  C13 UNL     1      14.315  20.961  62.261  1.00  0.00    -0.008 A 
HETATM   36  C14 UNL     1      14.808  21.914  63.122  1.00  0.00     0.015 A 
HETATM   37  C15 UNL     1      15.983  22.606  62.860  1.00  0.00     0.026 A 
HETATM   38  C16 UNL     1      16.675  22.320  61.690  1.00  0.00     0.055 A 
HETATM   39 CL1  UNL     1      18.158  23.186  61.350  1.00  0.00    -0.083 Cl
HETATM   40  C17 UNL     1      16.200  21.373  60.820  1.00  0.00     0.056 A 
HETATM   41 CL2  UNL     1      17.096  21.031  59.345  1.00  0.00    -0.083 Cl
HETATM   42  C18 UNL     1      15.007  20.690  61.112  1.00  0.00     0.039 A 
ENDBRANCH   4  35
TORSDOF 11
ENDMDL
MODEL 5
REMARK VINA RESULT: -8.967320601      6.497     12.853
REMARK  11 active torsions:
REMARK  status: ('A' for Active; 'I' for Inactive)
REMARK    1  A    between atoms: C1_2  and  C2_4 
REMARK    2  A    between atoms: C2_4  and  O3_5 
REMARK    3  A    between atoms: O3_5  and  C3_6 
REMARK    4  A    between atoms: C3_6  and  C4_7 
REMARK    5  A    between atoms: C4_7  and  C5_8 
REMARK    6  A    between atoms: N1_11  and  C8_12 
REMARK    7  A    between atoms: C8_12  and  C9_13 
REMARK    8  A    between atoms: C9_13  and  C10_14 
REMARK    9  A    between atoms: C10_14  and  S1_15 
REMARK   10  A    between atoms: S1_15  and  C11_16 
REMARK   11  A    between atoms: C12_19  and  C13_20 
ROOT
HETATM    1  C11 UNL     1      11.321  18.584  64.350  1.00  0.00     0.081 A 
HETATM    2  N2  UNL     1      12.345  19.432  64.043  1.00  0.00    -0.349 N 
ATOM      3  H2  UNL     1      12.763  19.986  64.790  1.00  0.00     0.166 HD
HETATM    4  C12 UNL     1      12.827  19.566  62.788  1.00  0.00     0.044 A 
HETATM    5  C19 UNL     1      12.224  18.794  61.822  1.00  0.00     0.042 A 
HETATM    6  C20 UNL     1      11.182  17.920  62.086  1.00  0.00    -0.020 A 
HETATM    7  C21 UNL     1      10.589  17.165  61.097  1.00  0.00     0.029 A 
HETATM    8  C22 UNL     1       9.544  16.302  61.349  1.00  0.00     0.033 A 
HETATM    9  C23 UNL     1       8.773  15.445  60.593  1.00  0.00     0.130 A 
HETATM   10 CL3  UNL     1       8.921  15.174  58.878  1.00  0.00    -0.062 Cl
HETATM   11  N3  UNL     1       7.870  14.832  61.380  1.00  0.00    -0.289 N 
ATOM     12  H3  UNL     1       7.172  14.148  61.088  1.00  0.00     0.188 HD
HETATM   13  N4  UNL     1       8.063  15.292  62.610  1.00  0.00    -0.299 N 
ATOM     14  H4  UNL     1       7.520  15.004  63.425  1.00  0.00     0.187 HD
HETATM   15  C24 UNL     1       9.064  16.181  62.643  1.00  0.00     0.062 A 
HETATM   16  C25 UNL     1       9.664  16.945  63.644  1.00  0.00     0.047 A 
HETATM   17  C26 UNL     1      10.714  17.811  63.386  1.00  0.00     0.010 A 
ENDROOT
BRANCH   1  18
HETATM   18  S1  UNL     1      10.738  18.470  66.031  1.00  0.00    -0.111 SA
BRANCH  18  19
HETATM   19  C10 UNL     1       9.136  19.219  66.295  1.00  0.00     0.082 C 
BRANCH  19  20
HETATM   20  C9  UNL     1       8.453  18.710  67.540  1.00  0.00     0.041 C 
BRANCH  20  21
HETATM   21  C8  UNL     1       7.928  17.323  67.385  1.00  0.00     0.273 C 
BRANCH  21  22
HETATM   22  N1  UNL     1       6.594  17.193  66.927  1.00  0.00     0.088 N 
HETATM   23  C7  UNL     1       5.789  18.364  66.941  1.00  0.00     0.272 C 
HETATM   24  C6  UNL     1       4.337  17.891  66.772  1.00  0.00     0.035 C 
HETATM   25  C5  UNL     1       4.199  17.276  65.422  1.00  0.00    -0.009 C 
HETATM   26  C28 UNL     1       5.487  17.021  64.718  1.00  0.00     0.035 C 
HETATM   27  C27 UNL     1       6.596  16.580  65.632  1.00  0.00     0.272 C 
BRANCH  25  28
HETATM   28  C4  UNL     1       3.213  18.056  64.606  1.00  0.00     0.031 C 
BRANCH  28  29
HETATM   29  C3  UNL     1       2.438  17.039  63.748  1.00  0.00     0.168 C 
BRANCH  29  30
HETATM   30  O3  UNL     1       2.817  17.082  62.443  1.00  0.00    -0.381 OA
BRANCH  30  31
HETATM   31  C2  UNL     1       3.096  15.915  61.801  1.00  0.00     0.280 C 
BRANCH  31  32
HETATM   32  C1  UNL     1       4.510  15.567  61.787  1.00  0.00     0.197 C 
HETATM   33  O1  UNL     1       5.375  16.351  61.345  1.00  0.00    -0.646 OA
HETATM   34  O2  UNL     1       4.987  14.335  62.266  1.00  0.00    -0.646 OA
ENDBRANCH  31  32
ENDBRANCH  30  31
ENDBRANCH  29  30
ENDBRANCH  28  29
ENDBRANCH  25  28
ENDBRANCH  21  22
ENDBRANCH  20  21
ENDBRANCH  19  20
ENDBRANCH  18  19
ENDBRANCH   1  18
BRANCH   4  35
HETATM   35  C13 UNL     1      13.918  20.491  62.554  1.00  0.00    -0.008 A 
HETATM   36  C14 UNL     1      14.521  20.588  61.322  1.00  0.00     0.015 A 
HETATM   37  C15 UNL     1      15.567  21.469  61.082  1.00  0.00     0.026 A 
HETATM   38  C16 UNL     1      16.011  22.272  62.124  1.00  0.00     0.055 A 
HETATM   39 CL1  UNL     1      17.329  23.387  61.833  1.00  0.00    -0.083 Cl
HETATM   40  C17 UNL     1      15.421  22.190  63.360  1.00  0.00     0.056 A 
HETATM   41 CL2  UNL     1      16.003  23.219  64.663  1.00  0.00    -0.083 Cl
HETATM   42  C18 UNL     1      14.365  21.289  63.572  1.00  0.00     0.039 A 
ENDBRANCH   4  35
TORSDOF 11
ENDMDL
