MODEL 1
REMARK VINA RESULT: -9.638087876      0.000      0.000
REMARK  12 active torsions:
REMARK  status: ('A' for Active; 'I' for Inactive)
REMARK    1  A    between atoms: C2_2  and  C3_3 
REMARK    2  A    between atoms: C6_6  and  C7_7 
REMARK    3  A    between atoms: C7_7  and  C8_8 
REMARK    4  A    between atoms: C8_8  and  C9_9 
REMARK    5  A    between atoms: C9_9  and  C10_11 
REMARK    6  A    between atoms: C10_11  and  C11_12 
REMARK    7  A    between atoms: C11_12  and  C12_13 
REMARK    8  A    between atoms: C12_13  and  N1_14 
REMARK    9  A    between atoms: C15_17  and  C16_18 
REMARK   10  A    between atoms: C16_18  and  N2_19 
REMARK       I    between atoms: N2_19  and  C17_21 
REMARK   11  A    between atoms: C17_21  and  C18_23 
REMARK   12  A    between atoms: C18_23  and  C21_26 
ROOT
HETATM    1  C9  UNL     1       9.574  15.768  60.048  1.00  0.00     0.127 C 
HETATM    2  O1  UNL     1       9.348  15.269  58.971  1.00  0.00    -0.298 OA
ENDROOT
BRANCH   1   3
HETATM    3  C8  UNL     1       8.941  15.157  61.283  1.00  0.00     0.079 C 
BRANCH   3   4
HETATM    4  C7  UNL     1       7.488  14.928  61.089  1.00  0.00     0.012 C 
BRANCH   4   5
HETATM    5  C6  UNL     1       6.641  15.529  62.211  1.00  0.00    -0.014 C 
HETATM    6  C5  UNL     1       7.393  15.593  63.524  1.00  0.00     0.008 C 
HETATM    7  C4  UNL     1       7.528  17.017  63.925  1.00  0.00     0.046 C 
HETATM    8  C3  UNL     1       7.647  17.364  65.335  1.00  0.00     0.140 C 
HETATM    9  C31 UNL     1       6.584  17.141  66.290  1.00  0.00     0.188 C 
HETATM   10  O4  UNL     1       8.356  16.490  66.158  1.00  0.00    -0.224 OA
HETATM   11  C30 UNL     1       5.207  16.856  65.875  1.00  0.00     0.057 C 
HETATM   12  S1  UNL     1       6.588  18.203  67.773  1.00  0.00    -0.049 SA
HETATM   13  O3  UNL     1       7.248  15.947  66.612  1.00  0.00    -0.213 OA
HETATM   14  C29 UNL     1       4.398  17.983  65.327  1.00  0.00     0.004 C 
HETATM   15  C28 UNL     1       3.054  17.483  64.889  1.00  0.00     0.000 C 
HETATM   16  C27 UNL     1       3.058  16.421  63.850  1.00  0.00     0.000 C 
HETATM   17  C26 UNL     1       3.700  16.791  62.557  1.00  0.00     0.000 C 
HETATM   18  C25 UNL     1       4.176  15.657  61.735  1.00  0.00     0.000 C 
HETATM   19  C24 UNL     1       5.314  14.853  62.292  1.00  0.00     0.004 C 
BRANCH   8  20
HETATM   20  C2  UNL     1       8.177  18.808  65.454  1.00  0.00     0.041 C 
HETATM   21  C1  UNL     1       9.655  18.830  65.712  1.00  0.00     0.008 C 
ENDBRANCH   8  20
ENDBRANCH   4   5
ENDBRANCH   3   4
ENDBRANCH   1   3
BRANCH   1  22
HETATM   22  C10 UNL     1      10.443  16.956  60.233  1.00  0.00     0.083 C 
BRANCH  22  23
HETATM   23  C11 UNL     1      10.736  17.287  61.654  1.00  0.00     0.052 C 
BRANCH  23  24
HETATM   24  C12 UNL     1      10.392  18.638  62.132  1.00  0.00     0.058 C 
BRANCH  24  25
HETATM   25  N1  UNL     1      11.385  19.596  62.338  1.00  0.00    -0.393 N 
HETATM   26  C13 UNL     1      11.170  20.949  62.519  1.00  0.00     0.122 C 
HETATM   27  C14 UNL     1      12.451  21.513  63.244  1.00  0.00     0.029 C 
HETATM   28  C15 UNL     1      13.511  21.443  62.207  1.00  0.00     0.027 C 
HETATM   29  C22 UNL     1      13.791  19.968  61.889  1.00  0.00     0.029 C 
HETATM   30  C23 UNL     1      12.724  19.086  62.450  1.00  0.00     0.122 C 
BRANCH  28  31
HETATM   31  C16 UNL     1      14.761  22.201  62.394  1.00  0.00     0.068 C 
BRANCH  31  32
HETATM   32  N2  UNL     1      14.927  23.115  63.444  1.00  0.00    -0.340 N 
HETATM   33  C17 UNL     1      15.203  22.899  64.793  1.00  0.00     0.238 C 
HETATM   34  O2  UNL     1      15.338  21.769  65.279  1.00  0.00    -0.272 OA
ATOM     35  H2  UNL     1      14.830  24.094  63.178  1.00  0.00     0.167 HD
BRANCH  33  36
HETATM   36  C18 UNL     1      15.352  24.062  65.729  1.00  0.00     0.131 C 
HETATM   37  C19 UNL     1      14.886  23.686  67.124  1.00  0.00     0.034 C 
HETATM   38  C20 UNL     1      14.500  25.218  65.252  1.00  0.00     0.034 C 
BRANCH  36  39
HETATM   39  C21 UNL     1      16.782  24.511  65.741  1.00  0.00     0.403 C 
HETATM   40  F1  UNL     1      17.328  24.247  66.982  1.00  0.00    -0.170 F 
HETATM   41  F2  UNL     1      17.475  23.890  64.722  1.00  0.00    -0.170 F 
HETATM   42  F3  UNL     1      16.888  25.879  65.513  1.00  0.00    -0.170 F 
ENDBRANCH  36  39
ENDBRANCH  33  36
ENDBRANCH  31  32
ENDBRANCH  28  31
ENDBRANCH  24  25
ENDBRANCH  23  24
ENDBRANCH  22  23
ENDBRANCH   1  22
TORSDOF 12
ENDMDL
MODEL 2
REMARK VINA RESULT: -9.322922977      2.426      4.004
REMARK  12 active torsions:
REMARK  status: ('A' for Active; 'I' for Inactive)
REMARK    1  A    between atoms: C2_2  and  C3_3 
REMARK    2  A    between atoms: C6_6  and  C7_7 
REMARK    3  A    between atoms: C7_7  and  C8_8 
REMARK    4  A    between atoms: C8_8  and  C9_9 
REMARK    5  A    between atoms: C9_9  and  C10_11 
REMARK    6  A    between atoms: C10_11  and  C11_12 
REMARK    7  A    between atoms: C11_12  and  C12_13 
REMARK    8  A    between atoms: C12_13  and  N1_14 
REMARK    9  A    between atoms: C15_17  and  C16_18 
REMARK   10  A    between atoms: C16_18  and  N2_19 
REMARK       I    between atoms: N2_19  and  C17_21 
REMARK   11  A    between atoms: C17_21  and  C18_23 
REMARK   12  A    between atoms: C18_23  and  C21_26 
ROOT
HETATM    1  C9  UNL     1      10.305  18.759  66.207  1.00  0.00     0.127 C 
HETATM    2  O1  UNL     1      11.096  19.021  67.083  1.00  0.00    -0.298 OA
ENDROOT
BRANCH   1   3
HETATM    3  C8  UNL     1       8.823  18.857  66.509  1.00  0.00     0.079 C 
BRANCH   3   4
HETATM    4  C7  UNL     1       8.248  17.530  66.839  1.00  0.00     0.012 C 
BRANCH   4   5
HETATM    5  C6  UNL     1       7.270  17.029  65.776  1.00  0.00    -0.014 C 
HETATM    6  C5  UNL     1       5.836  17.053  66.262  1.00  0.00     0.008 C 
HETATM    7  C4  UNL     1       5.062  17.992  65.411  1.00  0.00     0.046 C 
HETATM    8  C3  UNL     1       3.629  17.794  65.233  1.00  0.00     0.140 C 
HETATM    9  C31 UNL     1       3.074  16.642  64.556  1.00  0.00     0.188 C 
HETATM   10  O4  UNL     1       2.903  17.309  66.319  1.00  0.00    -0.224 OA
HETATM   11  C30 UNL     1       3.892  15.755  63.724  1.00  0.00     0.057 C 
HETATM   12  S1  UNL     1       1.420  16.852  63.818  1.00  0.00    -0.049 SA
HETATM   13  O3  UNL     1       2.909  16.087  65.835  1.00  0.00    -0.213 OA
HETATM   14  C29 UNL     1       4.323  16.258  62.387  1.00  0.00     0.004 C 
HETATM   15  C28 UNL     1       5.209  15.248  61.722  1.00  0.00     0.000 C 
HETATM   16  C27 UNL     1       6.449  14.880  62.455  1.00  0.00     0.000 C 
HETATM   17  C26 UNL     1       7.389  16.004  62.727  1.00  0.00     0.000 C 
HETATM   18  C25 UNL     1       8.322  15.794  63.856  1.00  0.00     0.000 C 
HETATM   19  C24 UNL     1       7.714  15.716  65.225  1.00  0.00     0.004 C 
BRANCH   8  20
HETATM   20  C2  UNL     1       3.009  19.091  64.673  1.00  0.00     0.041 C 
HETATM   21  C1  UNL     1       3.786  20.301  65.101  1.00  0.00     0.008 C 
ENDBRANCH   8  20
ENDBRANCH   4   5
ENDBRANCH   3   4
ENDBRANCH   1   3
BRANCH   1  22
HETATM   22  C10 UNL     1      10.705  18.341  64.841  1.00  0.00     0.083 C 
BRANCH  22  23
HETATM   23  C11 UNL     1       9.869  18.917  63.753  1.00  0.00     0.052 C 
BRANCH  23  24
HETATM   24  C12 UNL     1      10.532  19.261  62.483  1.00  0.00     0.058 C 
BRANCH  24  25
HETATM   25  N1  UNL     1      11.781  19.883  62.475  1.00  0.00    -0.393 N 
HETATM   26  C13 UNL     1      12.966  19.299  62.072  1.00  0.00     0.122 C 
HETATM   27  C14 UNL     1      13.947  20.479  61.712  1.00  0.00     0.029 C 
HETATM   28  C15 UNL     1      14.267  21.094  63.025  1.00  0.00     0.027 C 
HETATM   29  C22 UNL     1      12.991  21.731  63.593  1.00  0.00     0.029 C 
HETATM   30  C23 UNL     1      11.783  21.272  62.845  1.00  0.00     0.122 C 
BRANCH  28  31
HETATM   31  C16 UNL     1      15.421  22.003  63.140  1.00  0.00     0.068 C 
BRANCH  31  32
HETATM   32  N2  UNL     1      15.406  23.120  63.988  1.00  0.00    -0.340 N 
HETATM   33  C17 UNL     1      16.459  23.847  64.542  1.00  0.00     0.238 C 
HETATM   34  O2  UNL     1      17.648  23.565  64.343  1.00  0.00    -0.272 OA
ATOM     35  H2  UNL     1      14.476  23.453  64.241  1.00  0.00     0.167 HD
BRANCH  33  36
HETATM   36  C18 UNL     1      16.180  25.031  65.420  1.00  0.00     0.131 C 
HETATM   37  C19 UNL     1      14.761  25.527  65.210  1.00  0.00     0.034 C 
HETATM   38  C20 UNL     1      17.123  26.162  65.072  1.00  0.00     0.034 C 
BRANCH  36  39
HETATM   39  C21 UNL     1      16.413  24.653  66.851  1.00  0.00     0.403 C 
HETATM   40  F1  UNL     1      17.715  24.218  66.999  1.00  0.00    -0.170 F 
HETATM   41  F2  UNL     1      16.124  25.725  67.670  1.00  0.00    -0.170 F 
HETATM   42  F3  UNL     1      15.573  23.618  67.248  1.00  0.00    -0.170 F 
ENDBRANCH  36  39
ENDBRANCH  33  36
ENDBRANCH  31  32
ENDBRANCH  28  31
ENDBRANCH  24  25
ENDBRANCH  23  24
ENDBRANCH  22  23
ENDBRANCH   1  22
TORSDOF 12
ENDMDL
MODEL 3
REMARK VINA RESULT: -9.302300726      2.493      3.359
REMARK  12 active torsions:
REMARK  status: ('A' for Active; 'I' for Inactive)
REMARK    1  A    between atoms: C2_2  and  C3_3 
REMARK    2  A    between atoms: C6_6  and  C7_7 
REMARK    3  A    between atoms: C7_7  and  C8_8 
REMARK    4  A    between atoms: C8_8  and  C9_9 
REMARK    5  A    between atoms: C9_9  and  C10_11 
REMARK    6  A    between atoms: C10_11  and  C11_12 
REMARK    7  A    between atoms: C11_12  and  C12_13 
REMARK    8  A    between atoms: C12_13  and  N1_14 
REMARK    9  A    between atoms: C15_17  and  C16_18 
REMARK   10  A    between atoms: C16_18  and  N2_19 
REMARK       I    between atoms: N2_19  and  C17_21 
REMARK   11  A    between atoms: C17_21  and  C18_23 
REMARK   12  A    between atoms: C18_23  and  C21_26 
ROOT
HETATM    1  C9  UNL     1      10.480  17.041  60.610  1.00  0.00     0.127 C 
HETATM    2  O1  UNL     1      11.460  16.761  59.960  1.00  0.00    -0.298 OA
ENDROOT
BRANCH   1   3
HETATM    3  C8  UNL     1       9.188  16.295  60.339  1.00  0.00     0.079 C 
BRANCH   3   4
HETATM    4  C7  UNL     1       8.933  15.261  61.372  1.00  0.00     0.012 C 
BRANCH   4   5
HETATM    5  C6  UNL     1       7.792  15.637  62.316  1.00  0.00    -0.014 C 
HETATM    6  C5  UNL     1       8.258  15.774  63.751  1.00  0.00     0.008 C 
HETATM    7  C4  UNL     1       8.041  17.177  64.189  1.00  0.00     0.046 C 
HETATM    8  C3  UNL     1       7.825  17.468  65.601  1.00  0.00     0.140 C 
HETATM    9  C31 UNL     1       6.664  17.006  66.329  1.00  0.00     0.188 C 
HETATM   10  O4  UNL     1       8.521  16.701  66.534  1.00  0.00    -0.224 OA
HETATM   11  C30 UNL     1       5.470  16.492  65.652  1.00  0.00     0.057 C 
HETATM   12  S1  UNL     1       6.187  17.974  67.799  1.00  0.00    -0.049 SA
HETATM   13  O3  UNL     1       7.472  15.941  66.757  1.00  0.00    -0.213 OA
HETATM   14  C29 UNL     1       4.578  17.475  64.973  1.00  0.00     0.004 C 
HETATM   15  C28 UNL     1       3.460  16.758  64.276  1.00  0.00     0.000 C 
HETATM   16  C27 UNL     1       3.862  15.767  63.243  1.00  0.00     0.000 C 
HETATM   17  C26 UNL     1       4.652  16.315  62.104  1.00  0.00     0.000 C 
HETATM   18  C25 UNL     1       5.482  15.331  61.375  1.00  0.00     0.000 C 
HETATM   19  C24 UNL     1       6.627  14.725  62.130  1.00  0.00     0.004 C 
BRANCH   8  20
HETATM   20  C2  UNL     1       8.037  18.977  65.840  1.00  0.00     0.041 C 
HETATM   21  C1  UNL     1       9.316  19.242  66.579  1.00  0.00     0.008 C 
ENDBRANCH   8  20
ENDBRANCH   4   5
ENDBRANCH   3   4
ENDBRANCH   1   3
BRANCH   1  22
HETATM   22  C10 UNL     1      10.467  18.083  61.665  1.00  0.00     0.083 C 
BRANCH  22  23
HETATM   23  C11 UNL     1      11.396  17.822  62.798  1.00  0.00     0.052 C 
BRANCH  23  24
HETATM   24  C12 UNL     1      11.477  18.829  63.870  1.00  0.00     0.058 C 
BRANCH  24  25
HETATM   25  N1  UNL     1      12.507  19.770  63.889  1.00  0.00    -0.393 N 
HETATM   26  C13 UNL     1      12.818  20.599  64.949  1.00  0.00     0.122 C 
HETATM   27  C14 UNL     1      14.314  21.050  64.742  1.00  0.00     0.029 C 
HETATM   28  C15 UNL     1      14.256  21.958  63.569  1.00  0.00     0.027 C 
HETATM   29  C22 UNL     1      13.861  21.139  62.333  1.00  0.00     0.029 C 
HETATM   30  C23 UNL     1      13.347  19.792  62.723  1.00  0.00     0.122 C 
BRANCH  28  31
HETATM   31  C16 UNL     1      15.394  22.850  63.284  1.00  0.00     0.068 C 
BRANCH  31  32
HETATM   32  N2  UNL     1      15.904  23.013  61.988  1.00  0.00    -0.340 N 
HETATM   33  C17 UNL     1      17.223  23.081  61.539  1.00  0.00     0.238 C 
HETATM   34  O2  UNL     1      18.196  23.010  62.300  1.00  0.00    -0.272 OA
ATOM     35  H2  UNL     1      15.198  23.095  61.257  1.00  0.00     0.167 HD
BRANCH  33  36
HETATM   36  C18 UNL     1      17.515  23.245  60.077  1.00  0.00     0.131 C 
HETATM   37  C19 UNL     1      18.842  23.954  59.875  1.00  0.00     0.034 C 
HETATM   38  C20 UNL     1      16.437  24.086  59.429  1.00  0.00     0.034 C 
BRANCH  36  39
HETATM   39  C21 UNL     1      17.517  21.900  59.416  1.00  0.00     0.403 C 
HETATM   40  F1  UNL     1      16.670  21.930  58.326  1.00  0.00    -0.170 F 
HETATM   41  F2  UNL     1      18.806  21.552  59.067  1.00  0.00    -0.170 F 
HETATM   42  F3  UNL     1      17.062  20.908  60.279  1.00  0.00    -0.170 F 
ENDBRANCH  36  39
ENDBRANCH  33  36
ENDBRANCH  31  32
ENDBRANCH  28  31
ENDBRANCH  24  25
ENDBRANCH  23  24
ENDBRANCH  22  23
ENDBRANCH   1  22
TORSDOF 12
ENDMDL
MODEL 4
REMARK VINA RESULT: -9.287894949      2.122      3.677
REMARK  12 active torsions:
REMARK  status: ('A' for Active; 'I' for Inactive)
REMARK    1  A    between atoms: C2_2  and  C3_3 
REMARK    2  A    between atoms: C6_6  and  C7_7 
REMARK    3  A    between atoms: C7_7  and  C8_8 
REMARK    4  A    between atoms: C8_8  and  C9_9 
REMARK    5  A    between atoms: C9_9  and  C10_11 
REMARK    6  A    between atoms: C10_11  and  C11_12 
REMARK    7  A    between atoms: C11_12  and  C12_13 
REMARK    8  A    between atoms: C12_13  and  N1_14 
REMARK    9  A    between atoms: C15_17  and  C16_18 
REMARK   10  A    between atoms: C16_18  and  N2_19 
REMARK       I    between atoms: N2_19  and  C17_21 
REMARK   11  A    between atoms: C17_21  and  C18_23 
REMARK   12  A    between atoms: C18_23  and  C21_26 
ROOT
HETATM    1  C9  UNL     1       8.218  15.314  60.906  1.00  0.00     0.127 C 
HETATM    2  O1  UNL     1       8.703  14.356  61.460  1.00  0.00    -0.298 OA
ENDROOT
BRANCH   1   3
HETATM    3  C8  UNL     1       6.734  15.579  61.072  1.00  0.00     0.079 C 
BRANCH   3   4
HETATM    4  C7  UNL     1       6.178  14.837  62.231  1.00  0.00     0.012 C 
BRANCH   4   5
HETATM    5  C6  UNL     1       6.055  15.705  63.483  1.00  0.00    -0.014 C 
HETATM    6  C5  UNL     1       4.857  16.630  63.423  1.00  0.00     0.008 C 
HETATM    7  C4  UNL     1       3.928  16.277  64.526  1.00  0.00     0.046 C 
HETATM    8  C3  UNL     1       3.046  17.295  65.084  1.00  0.00     0.140 C 
HETATM    9  C31 UNL     1       3.538  18.453  65.798  1.00  0.00     0.188 C 
HETATM   10  O4  UNL     1       2.527  18.249  64.210  1.00  0.00    -0.224 OA
HETATM   11  C30 UNL     1       4.914  18.538  66.297  1.00  0.00     0.057 C 
HETATM   12  S1  UNL     1       2.388  19.224  66.985  1.00  0.00    -0.049 SA
HETATM   13  O3  UNL     1       3.423  19.138  64.578  1.00  0.00    -0.213 OA
HETATM   14  C29 UNL     1       5.271  17.723  67.493  1.00  0.00     0.004 C 
HETATM   15  C28 UNL     1       6.730  17.882  67.804  1.00  0.00     0.000 C 
HETATM   16  C27 UNL     1       7.675  17.489  66.726  1.00  0.00     0.000 C 
HETATM   17  C26 UNL     1       7.592  16.067  66.288  1.00  0.00     0.000 C 
HETATM   18  C25 UNL     1       8.108  15.788  64.930  1.00  0.00     0.000 C 
HETATM   19  C24 UNL     1       7.347  16.386  63.785  1.00  0.00     0.004 C 
BRANCH   8  20
HETATM   20  C2  UNL     1       1.930  16.604  65.894  1.00  0.00     0.041 C 
HETATM   21  C1  UNL     1       1.810  15.152  65.535  1.00  0.00     0.008 C 
ENDBRANCH   8  20
ENDBRANCH   4   5
ENDBRANCH   3   4
ENDBRANCH   1   3
BRANCH   1  22
HETATM   22  C10 UNL     1       8.996  16.254  60.063  1.00  0.00     0.083 C 
BRANCH  22  23
HETATM   23  C11 UNL     1      10.466  16.208  60.286  1.00  0.00     0.052 C 
BRANCH  23  24
HETATM   24  C12 UNL     1      11.177  17.486  60.461  1.00  0.00     0.058 C 
BRANCH  24  25
HETATM   25  N1  UNL     1      11.437  17.991  61.736  1.00  0.00    -0.393 N 
HETATM   26  C13 UNL     1      10.784  17.617  62.895  1.00  0.00     0.122 C 
HETATM   27  C14 UNL     1      11.740  17.996  64.089  1.00  0.00     0.029 C 
HETATM   28  C15 UNL     1      11.715  19.481  64.113  1.00  0.00     0.027 C 
HETATM   29  C22 UNL     1      12.373  20.004  62.830  1.00  0.00     0.029 C 
HETATM   30  C23 UNL     1      12.537  18.911  61.825  1.00  0.00     0.122 C 
BRANCH  28  31
HETATM   31  C16 UNL     1      12.207  20.197  65.303  1.00  0.00     0.068 C 
BRANCH  31  32
HETATM   32  N2  UNL     1      12.949  21.383  65.203  1.00  0.00    -0.340 N 
HETATM   33  C17 UNL     1      14.325  21.580  65.098  1.00  0.00     0.238 C 
HETATM   34  O2  UNL     1      15.139  20.648  65.091  1.00  0.00    -0.272 OA
ATOM     35  H2  UNL     1      12.392  22.237  65.207  1.00  0.00     0.167 HD
BRANCH  33  36
HETATM   36  C18 UNL     1      14.882  22.969  64.986  1.00  0.00     0.131 C 
HETATM   37  C19 UNL     1      14.021  23.816  64.067  1.00  0.00     0.034 C 
HETATM   38  C20 UNL     1      16.275  22.918  64.400  1.00  0.00     0.034 C 
BRANCH  36  39
HETATM   39  C21 UNL     1      14.973  23.579  66.352  1.00  0.00     0.403 C 
HETATM   40  F1  UNL     1      16.283  23.937  66.601  1.00  0.00    -0.170 F 
HETATM   41  F2  UNL     1      14.112  24.654  66.442  1.00  0.00    -0.170 F 
HETATM   42  F3  UNL     1      14.584  22.680  67.339  1.00  0.00    -0.170 F 
ENDBRANCH  36  39
ENDBRANCH  33  36
ENDBRANCH  31  32
ENDBRANCH  28  31
ENDBRANCH  24  25
ENDBRANCH  23  24
ENDBRANCH  22  23
ENDBRANCH   1  22
TORSDOF 12
ENDMDL
MODEL 5
REMARK VINA RESULT: -9.075675554      3.294      5.663
REMARK  12 active torsions:
REMARK  status: ('A' for Active; 'I' for Inactive)
REMARK    1  A    between atoms: C2_2  and  C3_3 
REMARK    2  A    between atoms: C6_6  and  C7_7 
REMARK    3  A    between atoms: C7_7  and  C8_8 
REMARK    4  A    between atoms: C8_8  and  C9_9 
REMARK    5  A    between atoms: C9_9  and  C10_11 
REMARK    6  A    between atoms: C10_11  and  C11_12 
REMARK    7  A    between atoms: C11_12  and  C12_13 
REMARK    8  A    between atoms: C12_13  and  N1_14 
REMARK    9  A    between atoms: C15_17  and  C16_18 
REMARK   10  A    between atoms: C16_18  and  N2_19 
REMARK       I    between atoms: N2_19  and  C17_21 
REMARK   11  A    between atoms: C17_21  and  C18_23 
REMARK   12  A    between atoms: C18_23  and  C21_26 
ROOT
HETATM    1  C9  UNL     1      11.823  20.991  63.074  1.00  0.00     0.127 C 
HETATM    2  O1  UNL     1      11.237  21.910  62.551  1.00  0.00    -0.298 OA
ENDROOT
BRANCH   1   3
HETATM    3  C8  UNL     1      12.631  20.051  62.201  1.00  0.00     0.079 C 
BRANCH   3   4
HETATM    4  C7  UNL     1      12.639  18.674  62.752  1.00  0.00     0.012 C 
BRANCH   4   5
HETATM    5  C6  UNL     1      11.363  17.899  62.425  1.00  0.00    -0.014 C 
HETATM    6  C5  UNL     1      10.675  17.379  63.671  1.00  0.00     0.008 C 
HETATM    7  C4  UNL     1       9.334  18.009  63.771  1.00  0.00     0.046 C 
HETATM    8  C3  UNL     1       8.256  17.313  64.462  1.00  0.00     0.140 C 
HETATM    9  C31 UNL     1       7.693  16.069  63.984  1.00  0.00     0.188 C 
HETATM   10  O4  UNL     1       8.591  16.551  65.580  1.00  0.00    -0.224 OA
HETATM   11  C30 UNL     1       7.926  15.577  62.623  1.00  0.00     0.057 C 
HETATM   12  S1  UNL     1       5.987  15.696  64.506  1.00  0.00    -0.049 SA
HETATM   13  O3  UNL     1       8.568  15.436  64.882  1.00  0.00    -0.213 OA
HETATM   14  C29 UNL     1       7.212  16.259  61.506  1.00  0.00     0.004 C 
HETATM   15  C28 UNL     1       7.634  15.670  60.193  1.00  0.00     0.000 C 
HETATM   16  C27 UNL     1       9.085  15.746  59.877  1.00  0.00     0.000 C 
HETATM   17  C26 UNL     1       9.655  17.121  59.810  1.00  0.00     0.000 C 
HETATM   18  C25 UNL     1      11.116  17.215  60.020  1.00  0.00     0.000 C 
HETATM   19  C24 UNL     1      11.625  16.862  61.386  1.00  0.00     0.004 C 
BRANCH   8  20
HETATM   20  C2  UNL     1       7.131  18.319  64.781  1.00  0.00     0.041 C 
HETATM   21  C1  UNL     1       7.118  18.685  66.236  1.00  0.00     0.008 C 
ENDBRANCH   8  20
ENDBRANCH   4   5
ENDBRANCH   3   4
ENDBRANCH   1   3
BRANCH   1  22
HETATM   22  C10 UNL     1      11.794  20.726  64.533  1.00  0.00     0.083 C 
BRANCH  22  23
HETATM   23  C11 UNL     1      12.683  21.608  65.336  1.00  0.00     0.052 C 
BRANCH  23  24
HETATM   24  C12 UNL     1      14.118  21.277  65.388  1.00  0.00     0.058 C 
BRANCH  24  25
HETATM   25  N1  UNL     1      15.052  22.044  64.690  1.00  0.00    -0.393 N 
HETATM   26  C13 UNL     1      15.745  21.638  63.566  1.00  0.00     0.122 C 
HETATM   27  C14 UNL     1      16.223  22.950  62.836  1.00  0.00     0.029 C 
HETATM   28  C15 UNL     1      17.268  23.501  63.735  1.00  0.00     0.027 C 
HETATM   29  C22 UNL     1      16.606  23.937  65.049  1.00  0.00     0.029 C 
HETATM   30  C23 UNL     1      15.220  23.392  65.158  1.00  0.00     0.122 C 
BRANCH  28  31
HETATM   31  C16 UNL     1      18.192  24.532  63.229  1.00  0.00     0.068 C 
BRANCH  31  32
HETATM   32  N2  UNL     1      18.039  25.110  61.960  1.00  0.00    -0.340 N 
HETATM   33  C17 UNL     1      18.509  24.694  60.716  1.00  0.00     0.238 C 
HETATM   34  O2  UNL     1      19.193  23.673  60.563  1.00  0.00    -0.272 OA
ATOM     35  H2  UNL     1      17.496  25.973  61.946  1.00  0.00     0.167 HD
BRANCH  33  36
HETATM   36  C18 UNL     1      18.192  25.489  59.484  1.00  0.00     0.131 C 
HETATM   37  C19 UNL     1      19.388  25.521  58.549  1.00  0.00     0.034 C 
HETATM   38  C20 UNL     1      17.863  26.916  59.864  1.00  0.00     0.034 C 
BRANCH  36  39
HETATM   39  C21 UNL     1      16.994  24.899  58.806  1.00  0.00     0.403 C 
HETATM   40  F1  UNL     1      16.203  25.919  58.315  1.00  0.00    -0.170 F 
HETATM   41  F2  UNL     1      17.398  24.029  57.814  1.00  0.00    -0.170 F 
HETATM   42  F3  UNL     1      16.222  24.154  59.692  1.00  0.00    -0.170 F 
ENDBRANCH  36  39
ENDBRANCH  33  36
ENDBRANCH  31  32
ENDBRANCH  28  31
ENDBRANCH  24  25
ENDBRANCH  23  24
ENDBRANCH  22  23
ENDBRANCH   1  22
TORSDOF 12
ENDMDL
