MODEL 1
REMARK VINA RESULT: -8.296560514      0.000      0.000
REMARK  12 active torsions:
REMARK  status: ('A' for Active; 'I' for Inactive)
REMARK    1  A    between atoms: C2_2  and  O1_3 
REMARK    2  A    between atoms: O1_3  and  C3_4 
REMARK    3  A    between atoms: C5_6  and  N1_7 
REMARK       I    between atoms: N1_7  and  C6_9 
REMARK    4  A    between atoms: C6_9  and  C7_11 
REMARK    5  A    between atoms: C12_18  and  O3_19 
REMARK    6  A    between atoms: O3_19  and  C13_20 
REMARK    7  A    between atoms: C17_24  and  O4_25 
REMARK    8  A    between atoms: O4_25  and  C18_26 
REMARK    9  A    between atoms: C18_26  and  C19_27 
REMARK   10  A    between atoms: C19_27  and  N2_28 
REMARK   11  A    between atoms: N2_28  and  C20_29 
REMARK   12  A    between atoms: N2_28  and  C22_31 
ROOT
HETATM    1  C7  UNL     1      10.034  18.728  64.300  1.00  0.00     0.069 A 
HETATM    2  C8  UNL     1      10.704  19.964  64.384  1.00  0.00     0.044 A 
HETATM    3  C9  UNL     1      11.609  20.328  63.442  1.00  0.00     0.036 A 
HETATM    4 CL1  UNL     1      12.422  21.891  63.593  1.00  0.00    -0.084 Cl
HETATM    5  C10 UNL     1      11.924  19.538  62.373  1.00  0.00     0.050 A 
HETATM    6  C11 UNL     1      11.250  18.313  62.306  1.00  0.00     0.070 A 
HETATM    7 CL2  UNL     1      11.742  17.320  60.928  1.00  0.00    -0.081 Cl
HETATM    8  C12 UNL     1      10.330  17.914  63.240  1.00  0.00     0.113 A 
ENDROOT
BRANCH   1   9
HETATM    9  C6  UNL     1       9.037  18.489  65.326  1.00  0.00     0.259 C 
HETATM   10  N1  UNL     1       7.672  18.708  65.231  1.00  0.00    -0.323 N 
ATOM     11  H1  UNL     1       7.318  19.096  64.356  1.00  0.00     0.169 HD
HETATM   12  O2  UNL     1       9.443  18.022  66.452  1.00  0.00    -0.267 OA
BRANCH  10  13
HETATM   13  C5  UNL     1       6.708  18.429  66.274  1.00  0.00     0.038 A 
HETATM   14  C4  UNL     1       6.983  17.890  67.486  1.00  0.00     0.068 A 
HETATM   15  C3  UNL     1       6.023  17.680  68.466  1.00  0.00     0.097 A 
HETATM   16  C28 UNL     1       4.726  18.037  68.188  1.00  0.00     0.068 A 
HETATM   17  C27 UNL     1       4.404  18.585  66.973  1.00  0.00    -0.025 A 
HETATM   18  N3  UNL     1       3.514  17.958  68.977  1.00  0.00    -0.387 N 
HETATM   19  C26 UNL     1       5.379  18.784  66.016  1.00  0.00     0.039 A 
HETATM   20  C30 UNL     1       2.923  18.869  66.945  1.00  0.00     0.060 C 
HETATM   21  C29 UNL     1       2.564  18.903  68.390  1.00  0.00     0.124 C 
ATOM     22  H3  UNL     1       3.353  17.359  69.785  1.00  0.00     0.159 HD
BRANCH  15  23
HETATM   23  O1  UNL     1       6.348  17.128  69.688  1.00  0.00    -0.349 OA
BRANCH  23  24
HETATM   24  C2  UNL     1       7.612  16.493  69.822  1.00  0.00     0.171 C 
HETATM   25  C1  UNL     1       7.709  15.836  71.169  1.00  0.00     0.034 C 
ENDBRANCH  23  24
ENDBRANCH  15  23
ENDBRANCH  10  13
ENDBRANCH   1   9
BRANCH   8  26
HETATM   26  O3  UNL     1       9.731  16.693  63.100  1.00  0.00    -0.306 OA
BRANCH  26  27
HETATM   27  C13 UNL     1       8.517  16.289  62.699  1.00  0.00     0.104 A 
HETATM   28  C14 UNL     1       8.046  16.435  61.422  1.00  0.00    -0.024 A 
HETATM   29  C15 UNL     1       8.909  17.083  60.432  1.00  0.00     0.051 C 
HETATM   30  C16 UNL     1       6.764  15.988  61.053  1.00  0.00     0.046 A 
HETATM   31  C17 UNL     1       5.927  15.385  61.964  1.00  0.00     0.071 A 
HETATM   32  C24 UNL     1       6.410  15.237  63.262  1.00  0.00     0.063 A 
HETATM   33  C25 UNL     1       7.662  15.677  63.606  1.00  0.00     0.071 A 
HETATM   34 CL3  UNL     1       8.163  15.332  65.262  1.00  0.00    -0.081 Cl
BRANCH  31  35
HETATM   35  O4  UNL     1       4.670  14.929  61.689  1.00  0.00    -0.349 OA
BRANCH  35  36
HETATM   36  C18 UNL     1       3.843  14.011  62.248  1.00  0.00     0.195 C 
BRANCH  36  37
HETATM   37  C19 UNL     1       2.551  14.601  62.758  1.00  0.00     0.148 C 
BRANCH  37  38
HETATM   38  N2  UNL     1       2.635  15.007  64.106  1.00  0.00    -0.392 N 
BRANCH  38  39
HETATM   39  C20 UNL     1       3.040  16.309  64.420  1.00  0.00     0.054 C 
HETATM   40  C21 UNL     1       2.710  17.379  63.415  1.00  0.00     0.054 C 
ENDBRANCH  38  39
BRANCH  38  41
HETATM   41  C22 UNL     1       1.808  14.322  65.005  1.00  0.00     0.117 C 
HETATM   42  C23 UNL     1       1.477  15.218  66.203  1.00  0.00     0.026 C 
ENDBRANCH  38  41
ENDBRANCH  37  38
ENDBRANCH  36  37
ENDBRANCH  35  36
ENDBRANCH  31  35
ENDBRANCH  26  27
ENDBRANCH   8  26
TORSDOF 12
ENDMDL
MODEL 2
REMARK VINA RESULT: -8.244531826      7.604     12.698
REMARK  12 active torsions:
REMARK  status: ('A' for Active; 'I' for Inactive)
REMARK    1  A    between atoms: C2_2  and  O1_3 
REMARK    2  A    between atoms: O1_3  and  C3_4 
REMARK    3  A    between atoms: C5_6  and  N1_7 
REMARK       I    between atoms: N1_7  and  C6_9 
REMARK    4  A    between atoms: C6_9  and  C7_11 
REMARK    5  A    between atoms: C12_18  and  O3_19 
REMARK    6  A    between atoms: O3_19  and  C13_20 
REMARK    7  A    between atoms: C17_24  and  O4_25 
REMARK    8  A    between atoms: O4_25  and  C18_26 
REMARK    9  A    between atoms: C18_26  and  C19_27 
REMARK   10  A    between atoms: C19_27  and  N2_28 
REMARK   11  A    between atoms: N2_28  and  C20_29 
REMARK   12  A    between atoms: N2_28  and  C22_31 
ROOT
HETATM    1  C7  UNL     1      16.161  22.855  64.219  1.00  0.00     0.069 A 
HETATM    2  C8  UNL     1      16.114  23.641  65.388  1.00  0.00     0.044 A 
HETATM    3  C9  UNL     1      16.966  24.683  65.557  1.00  0.00     0.036 A 
HETATM    4 CL1  UNL     1      16.865  25.639  67.041  1.00  0.00    -0.084 Cl
HETATM    5  C10 UNL     1      17.906  25.031  64.629  1.00  0.00     0.050 A 
HETATM    6  C11 UNL     1      17.939  24.238  63.475  1.00  0.00     0.070 A 
HETATM    7 CL2  UNL     1      19.210  24.712  62.340  1.00  0.00    -0.081 Cl
HETATM    8  C12 UNL     1      17.094  23.179  63.271  1.00  0.00     0.113 A 
ENDROOT
BRANCH   1   9
HETATM    9  C6  UNL     1      15.149  21.820  64.124  1.00  0.00     0.259 C 
HETATM   10  N1  UNL     1      13.913  21.915  63.506  1.00  0.00    -0.323 N 
ATOM     11  H1  UNL     1      13.667  22.810  63.082  1.00  0.00     0.169 HD
HETATM   12  O2  UNL     1      15.409  20.684  64.664  1.00  0.00    -0.267 OA
BRANCH  10  13
HETATM   13  C5  UNL     1      12.943  20.845  63.412  1.00  0.00     0.038 A 
HETATM   14  C4  UNL     1      11.835  20.708  64.179  1.00  0.00     0.068 A 
HETATM   15  C3  UNL     1      10.916  19.680  64.020  1.00  0.00     0.097 A 
HETATM   16  C28 UNL     1      11.147  18.753  63.033  1.00  0.00     0.068 A 
HETATM   17  C27 UNL     1      12.257  18.853  62.235  1.00  0.00    -0.025 A 
HETATM   18  N3  UNL     1      10.398  17.588  62.610  1.00  0.00    -0.387 N 
HETATM   19  C26 UNL     1      13.155  19.887  62.414  1.00  0.00     0.039 A 
HETATM   20  C30 UNL     1      12.256  17.708  61.253  1.00  0.00     0.060 C 
HETATM   21  C29 UNL     1      10.831  17.278  61.247  1.00  0.00     0.124 C 
ATOM     22  H3  UNL     1       9.703  17.081  63.157  1.00  0.00     0.159 HD
BRANCH  15  23
HETATM   23  O1  UNL     1       9.800  19.579  64.824  1.00  0.00    -0.349 OA
BRANCH  23  24
HETATM   24  C2  UNL     1       9.791  20.295  66.052  1.00  0.00     0.171 C 
HETATM   25  C1  UNL     1       9.735  19.329  67.202  1.00  0.00     0.034 C 
ENDBRANCH  23  24
ENDBRANCH  15  23
ENDBRANCH  10  13
ENDBRANCH   1   9
BRANCH   8  26
HETATM   26  O3  UNL     1      17.208  22.453  62.118  1.00  0.00    -0.306 OA
BRANCH  26  27
HETATM   27  C13 UNL     1      17.770  22.680  60.923  1.00  0.00     0.104 A 
HETATM   28  C14 UNL     1      17.132  23.304  59.885  1.00  0.00    -0.024 A 
HETATM   29  C15 UNL     1      15.748  23.741  60.081  1.00  0.00     0.051 C 
HETATM   30  C16 UNL     1      17.771  23.523  58.651  1.00  0.00     0.046 A 
HETATM   31  C17 UNL     1      19.068  23.116  58.435  1.00  0.00     0.071 A 
HETATM   32  C24 UNL     1      19.714  22.482  59.493  1.00  0.00     0.063 A 
HETATM   33  C25 UNL     1      19.078  22.277  60.690  1.00  0.00     0.071 A 
HETATM   34 CL3  UNL     1      20.061  21.546  61.960  1.00  0.00    -0.081 Cl
BRANCH  31  35
HETATM   35  O4  UNL     1      19.757  23.283  57.268  1.00  0.00    -0.349 OA
BRANCH  35  36
HETATM   36  C18 UNL     1      19.941  24.315  56.407  1.00  0.00     0.195 C 
BRANCH  36  37
HETATM   37  C19 UNL     1      20.465  25.563  57.073  1.00  0.00     0.148 C 
BRANCH  37  38
HETATM   38  N2  UNL     1      19.548  26.633  57.017  1.00  0.00    -0.392 N 
BRANCH  38  39
HETATM   39  C20 UNL     1      18.357  26.496  56.294  1.00  0.00     0.054 C 
HETATM   40  C21 UNL     1      17.283  27.514  56.564  1.00  0.00     0.054 C 
ENDBRANCH  38  39
BRANCH  38  41
HETATM   41  C22 UNL     1      19.585  27.530  58.092  1.00  0.00     0.117 C 
HETATM   42  C23 UNL     1      19.513  26.765  59.418  1.00  0.00     0.026 C 
ENDBRANCH  38  41
ENDBRANCH  37  38
ENDBRANCH  36  37
ENDBRANCH  35  36
ENDBRANCH  31  35
ENDBRANCH  26  27
ENDBRANCH   8  26
TORSDOF 12
ENDMDL
MODEL 3
REMARK VINA RESULT: -8.240367093      9.375     15.766
REMARK  12 active torsions:
REMARK  status: ('A' for Active; 'I' for Inactive)
REMARK    1  A    between atoms: C2_2  and  O1_3 
REMARK    2  A    between atoms: O1_3  and  C3_4 
REMARK    3  A    between atoms: C5_6  and  N1_7 
REMARK       I    between atoms: N1_7  and  C6_9 
REMARK    4  A    between atoms: C6_9  and  C7_11 
REMARK    5  A    between atoms: C12_18  and  O3_19 
REMARK    6  A    between atoms: O3_19  and  C13_20 
REMARK    7  A    between atoms: C17_24  and  O4_25 
REMARK    8  A    between atoms: O4_25  and  C18_26 
REMARK    9  A    between atoms: C18_26  and  C19_27 
REMARK   10  A    between atoms: C19_27  and  N2_28 
REMARK   11  A    between atoms: N2_28  and  C20_29 
REMARK   12  A    between atoms: N2_28  and  C22_31 
ROOT
HETATM    1  C7  UNL     1      15.087  22.059  62.782  1.00  0.00     0.069 A 
HETATM    2  C8  UNL     1      13.858  21.507  62.371  1.00  0.00     0.044 A 
HETATM    3  C9  UNL     1      12.876  21.252  63.272  1.00  0.00     0.036 A 
HETATM    4 CL1  UNL     1      11.351  20.561  62.704  1.00  0.00    -0.084 Cl
HETATM    5  C10 UNL     1      13.012  21.506  64.607  1.00  0.00     0.050 A 
HETATM    6  C11 UNL     1      14.241  22.052  64.998  1.00  0.00     0.070 A 
HETATM    7 CL2  UNL     1      14.367  22.307  66.743  1.00  0.00    -0.081 Cl
HETATM    8  C12 UNL     1      15.253  22.323  64.115  1.00  0.00     0.113 A 
ENDROOT
BRANCH   1   9
HETATM    9  C6  UNL     1      16.025  22.355  61.715  1.00  0.00     0.259 C 
HETATM   10  N1  UNL     1      16.214  23.574  61.085  1.00  0.00    -0.323 N 
ATOM     11  H1  UNL     1      15.624  24.353  61.381  1.00  0.00     0.169 HD
HETATM   12  O2  UNL     1      16.771  21.397  61.297  1.00  0.00    -0.267 OA
BRANCH  10  13
HETATM   13  C5  UNL     1      17.182  23.832  60.040  1.00  0.00     0.038 A 
HETATM   14  C4  UNL     1      18.246  23.051  59.734  1.00  0.00     0.068 A 
HETATM   15  C3  UNL     1      19.123  23.327  58.694  1.00  0.00     0.097 A 
HETATM   16  C28 UNL     1      18.897  24.451  57.938  1.00  0.00     0.068 A 
HETATM   17  C27 UNL     1      17.832  25.269  58.214  1.00  0.00    -0.025 A 
HETATM   18  N3  UNL     1      19.603  25.008  56.803  1.00  0.00    -0.387 N 
HETATM   19  C26 UNL     1      16.974  24.971  59.255  1.00  0.00     0.039 A 
HETATM   20  C30 UNL     1      17.835  26.419  57.238  1.00  0.00     0.060 C 
HETATM   21  C29 UNL     1      18.668  25.900  56.118  1.00  0.00     0.124 C 
ATOM     22  H3  UNL     1      20.567  24.815  56.533  1.00  0.00     0.159 HD
BRANCH  15  23
HETATM   23  O1  UNL     1      20.195  22.504  58.417  1.00  0.00    -0.349 OA
BRANCH  23  24
HETATM   24  C2  UNL     1      20.377  21.346  59.221  1.00  0.00     0.171 C 
HETATM   25  C1  UNL     1      21.434  20.468  58.614  1.00  0.00     0.034 C 
ENDBRANCH  23  24
ENDBRANCH  15  23
ENDBRANCH  10  13
ENDBRANCH   1   9
BRANCH   8  26
HETATM   26  O3  UNL     1      16.424  22.844  64.590  1.00  0.00    -0.306 OA
BRANCH  26  27
HETATM   27  C13 UNL     1      17.031  24.035  64.478  1.00  0.00     0.104 A 
HETATM   28  C14 UNL     1      18.248  24.218  63.879  1.00  0.00    -0.024 A 
HETATM   29  C15 UNL     1      18.942  23.047  63.340  1.00  0.00     0.051 C 
HETATM   30  C16 UNL     1      18.838  25.492  63.783  1.00  0.00     0.046 A 
HETATM   31  C17 UNL     1      18.214  26.609  64.290  1.00  0.00     0.071 A 
HETATM   32  C24 UNL     1      16.975  26.418  64.897  1.00  0.00     0.063 A 
HETATM   33  C25 UNL     1      16.412  25.171  64.981  1.00  0.00     0.071 A 
HETATM   34 CL3  UNL     1      14.800  25.109  65.694  1.00  0.00    -0.081 Cl
BRANCH  31  35
HETATM   35  O4  UNL     1      18.719  27.876  64.243  1.00  0.00    -0.349 OA
BRANCH  35  36
HETATM   36  C18 UNL     1      19.615  28.519  63.454  1.00  0.00     0.195 C 
BRANCH  36  37
HETATM   37  C19 UNL     1      19.115  28.755  62.051  1.00  0.00     0.148 C 
BRANCH  37  38
HETATM   38  N2  UNL     1      20.148  28.702  61.091  1.00  0.00    -0.392 N 
BRANCH  38  39
HETATM   39  C20 UNL     1      19.852  28.370  59.764  1.00  0.00     0.054 C 
HETATM   40  C21 UNL     1      19.315  29.475  58.895  1.00  0.00     0.054 C 
ENDBRANCH  38  39
BRANCH  38  41
HETATM   41  C22 UNL     1      21.271  29.495  61.354  1.00  0.00     0.117 C 
HETATM   42  C23 UNL     1      22.552  28.704  61.074  1.00  0.00     0.026 C 
ENDBRANCH  38  41
ENDBRANCH  37  38
ENDBRANCH  36  37
ENDBRANCH  35  36
ENDBRANCH  31  35
ENDBRANCH  26  27
ENDBRANCH   8  26
TORSDOF 12
ENDMDL
MODEL 4
REMARK VINA RESULT: -8.168681201      9.421     15.838
REMARK  12 active torsions:
REMARK  status: ('A' for Active; 'I' for Inactive)
REMARK    1  A    between atoms: C2_2  and  O1_3 
REMARK    2  A    between atoms: O1_3  and  C3_4 
REMARK    3  A    between atoms: C5_6  and  N1_7 
REMARK       I    between atoms: N1_7  and  C6_9 
REMARK    4  A    between atoms: C6_9  and  C7_11 
REMARK    5  A    between atoms: C12_18  and  O3_19 
REMARK    6  A    between atoms: O3_19  and  C13_20 
REMARK    7  A    between atoms: C17_24  and  O4_25 
REMARK    8  A    between atoms: O4_25  and  C18_26 
REMARK    9  A    between atoms: C18_26  and  C19_27 
REMARK   10  A    between atoms: C19_27  and  N2_28 
REMARK   11  A    between atoms: N2_28  and  C20_29 
REMARK   12  A    between atoms: N2_28  and  C22_31 
ROOT
HETATM    1  C7  UNL     1      15.149  22.135  62.778  1.00  0.00     0.069 A 
HETATM    2  C8  UNL     1      13.917  21.582  62.377  1.00  0.00     0.044 A 
HETATM    3  C9  UNL     1      12.937  21.340  63.283  1.00  0.00     0.036 A 
HETATM    4 CL1  UNL     1      11.408  20.648  62.727  1.00  0.00    -0.084 Cl
HETATM    5  C10 UNL     1      13.077  21.609  64.615  1.00  0.00     0.050 A 
HETATM    6  C11 UNL     1      14.308  22.156  64.996  1.00  0.00     0.070 A 
HETATM    7 CL2  UNL     1      14.439  22.432  66.738  1.00  0.00    -0.081 Cl
HETATM    8  C12 UNL     1      15.319  22.414  64.108  1.00  0.00     0.113 A 
ENDROOT
BRANCH   1   9
HETATM    9  C6  UNL     1      16.085  22.415  61.705  1.00  0.00     0.259 C 
HETATM   10  N1  UNL     1      16.276  23.626  61.060  1.00  0.00    -0.323 N 
ATOM     11  H1  UNL     1      15.688  24.410  61.348  1.00  0.00     0.169 HD
HETATM   12  O2  UNL     1      16.827  21.450  61.297  1.00  0.00    -0.267 OA
BRANCH  10  13
HETATM   13  C5  UNL     1      17.242  23.868  60.010  1.00  0.00     0.038 A 
HETATM   14  C4  UNL     1      18.300  23.078  59.707  1.00  0.00     0.068 A 
HETATM   15  C3  UNL     1      19.175  23.338  58.662  1.00  0.00     0.097 A 
HETATM   16  C28 UNL     1      18.954  24.458  57.897  1.00  0.00     0.068 A 
HETATM   17  C27 UNL     1      17.896  25.285  58.170  1.00  0.00    -0.025 A 
HETATM   18  N3  UNL     1      19.661  25.001  56.755  1.00  0.00    -0.387 N 
HETATM   19  C26 UNL     1      17.040  25.002  59.216  1.00  0.00     0.039 A 
HETATM   20  C30 UNL     1      17.903  26.427  57.184  1.00  0.00     0.060 C 
HETATM   21  C29 UNL     1      18.729  25.894  56.066  1.00  0.00     0.124 C 
ATOM     22  H3  UNL     1      20.622  24.799  56.483  1.00  0.00     0.159 HD
BRANCH  15  23
HETATM   23  O1  UNL     1      20.240  22.506  58.388  1.00  0.00    -0.349 OA
BRANCH  23  24
HETATM   24  C2  UNL     1      20.390  21.329  59.171  1.00  0.00     0.171 C 
HETATM   25  C1  UNL     1      21.492  20.480  58.604  1.00  0.00     0.034 C 
ENDBRANCH  23  24
ENDBRANCH  15  23
ENDBRANCH  10  13
ENDBRANCH   1   9
BRANCH   8  26
HETATM   26  O3  UNL     1      16.493  22.937  64.573  1.00  0.00    -0.306 OA
BRANCH  26  27
HETATM   27  C13 UNL     1      17.076  24.141  64.494  1.00  0.00     0.104 A 
HETATM   28  C14 UNL     1      16.551  25.281  65.041  1.00  0.00    -0.024 A 
HETATM   29  C15 UNL     1      15.270  25.189  65.746  1.00  0.00     0.051 C 
HETATM   30  C16 UNL     1      17.207  26.521  64.933  1.00  0.00     0.046 A 
HETATM   31  C17 UNL     1      18.406  26.640  64.269  1.00  0.00     0.071 A 
HETATM   32  C24 UNL     1      18.938  25.478  63.714  1.00  0.00     0.063 A 
HETATM   33  C25 UNL     1      18.287  24.277  63.829  1.00  0.00     0.071 A 
HETATM   34 CL3  UNL     1      19.133  22.884  63.155  1.00  0.00    -0.081 Cl
BRANCH  31  35
HETATM   35  O4  UNL     1      19.103  27.804  64.113  1.00  0.00    -0.349 OA
BRANCH  35  36
HETATM   36  C18 UNL     1      19.035  28.850  63.253  1.00  0.00     0.195 C 
BRANCH  36  37
HETATM   37  C19 UNL     1      18.914  28.431  61.809  1.00  0.00     0.148 C 
BRANCH  37  38
HETATM   38  N2  UNL     1      20.001  28.869  61.024  1.00  0.00    -0.392 N 
BRANCH  38  39
HETATM   39  C20 UNL     1      21.138  29.403  61.642  1.00  0.00     0.054 C 
HETATM   40  C21 UNL     1      22.390  28.570  61.589  1.00  0.00     0.054 C 
ENDBRANCH  38  39
BRANCH  38  41
HETATM   41  C22 UNL     1      20.137  28.260  59.770  1.00  0.00     0.117 C 
HETATM   42  C23 UNL     1      19.756  29.247  58.662  1.00  0.00     0.026 C 
ENDBRANCH  38  41
ENDBRANCH  37  38
ENDBRANCH  36  37
ENDBRANCH  35  36
ENDBRANCH  31  35
ENDBRANCH  26  27
ENDBRANCH   8  26
TORSDOF 12
ENDMDL
MODEL 5
REMARK VINA RESULT: -8.167239014      7.968     13.075
REMARK  12 active torsions:
REMARK  status: ('A' for Active; 'I' for Inactive)
REMARK    1  A    between atoms: C2_2  and  O1_3 
REMARK    2  A    between atoms: O1_3  and  C3_4 
REMARK    3  A    between atoms: C5_6  and  N1_7 
REMARK       I    between atoms: N1_7  and  C6_9 
REMARK    4  A    between atoms: C6_9  and  C7_11 
REMARK    5  A    between atoms: C12_18  and  O3_19 
REMARK    6  A    between atoms: O3_19  and  C13_20 
REMARK    7  A    between atoms: C17_24  and  O4_25 
REMARK    8  A    between atoms: O4_25  and  C18_26 
REMARK    9  A    between atoms: C18_26  and  C19_27 
REMARK   10  A    between atoms: C19_27  and  N2_28 
REMARK   11  A    between atoms: N2_28  and  C20_29 
REMARK   12  A    between atoms: N2_28  and  C22_31 
ROOT
HETATM    1  C7  UNL     1      16.211  22.866  64.161  1.00  0.00     0.069 A 
HETATM    2  C8  UNL     1      16.163  23.657  65.326  1.00  0.00     0.044 A 
HETATM    3  C9  UNL     1      17.007  24.706  65.488  1.00  0.00     0.036 A 
HETATM    4 CL1  UNL     1      16.905  25.668  66.968  1.00  0.00    -0.084 Cl
HETATM    5  C10 UNL     1      17.940  25.057  64.554  1.00  0.00     0.050 A 
HETATM    6  C11 UNL     1      17.975  24.259  63.404  1.00  0.00     0.070 A 
HETATM    7 CL2  UNL     1      19.238  24.737  62.262  1.00  0.00    -0.081 Cl
HETATM    8  C12 UNL     1      17.137  23.193  63.207  1.00  0.00     0.113 A 
ENDROOT
BRANCH   1   9
HETATM    9  C6  UNL     1      15.206  21.823  64.075  1.00  0.00     0.259 C 
HETATM   10  N1  UNL     1      13.957  21.914  63.484  1.00  0.00    -0.323 N 
ATOM     11  H1  UNL     1      13.694  22.812  63.077  1.00  0.00     0.169 HD
HETATM   12  O2  UNL     1      15.488  20.683  64.595  1.00  0.00    -0.267 OA
BRANCH  10  13
HETATM   13  C5  UNL     1      12.995  20.836  63.398  1.00  0.00     0.038 A 
HETATM   14  C4  UNL     1      11.894  20.691  64.173  1.00  0.00     0.068 A 
HETATM   15  C3  UNL     1      10.982  19.656  64.021  1.00  0.00     0.097 A 
HETATM   16  C28 UNL     1      11.212  18.730  63.032  1.00  0.00     0.068 A 
HETATM   17  C27 UNL     1      12.315  18.840  62.225  1.00  0.00    -0.025 A 
HETATM   18  N3  UNL     1      10.469  17.560  62.614  1.00  0.00    -0.387 N 
HETATM   19  C26 UNL     1      13.206  19.881  62.397  1.00  0.00     0.039 A 
HETATM   20  C30 UNL     1      12.316  17.695  61.244  1.00  0.00     0.060 C 
HETATM   21  C29 UNL     1      10.894  17.253  61.249  1.00  0.00     0.124 C 
ATOM     22  H3  UNL     1       9.782  17.047  63.167  1.00  0.00     0.159 HD
BRANCH  15  23
HETATM   23  O1  UNL     1       9.873  19.546  64.834  1.00  0.00    -0.349 OA
BRANCH  23  24
HETATM   24  C2  UNL     1       9.828  20.331  66.017  1.00  0.00     0.171 C 
HETATM   25  C1  UNL     1       9.779  19.433  67.221  1.00  0.00     0.034 C 
ENDBRANCH  23  24
ENDBRANCH  15  23
ENDBRANCH  10  13
ENDBRANCH   1   9
BRANCH   8  26
HETATM   26  O3  UNL     1      17.253  22.462  62.058  1.00  0.00    -0.306 OA
BRANCH  26  27
HETATM   27  C13 UNL     1      17.828  22.680  60.867  1.00  0.00     0.104 A 
HETATM   28  C14 UNL     1      17.208  23.311  59.823  1.00  0.00    -0.024 A 
HETATM   29  C15 UNL     1      15.829  23.767  60.005  1.00  0.00     0.051 C 
HETATM   30  C16 UNL     1      17.861  23.519  58.594  1.00  0.00     0.046 A 
HETATM   31  C17 UNL     1      19.154  23.092  58.390  1.00  0.00     0.071 A 
HETATM   32  C24 UNL     1      19.782  22.451  59.455  1.00  0.00     0.063 A 
HETATM   33  C25 UNL     1      19.132  22.257  60.647  1.00  0.00     0.071 A 
HETATM   34 CL3  UNL     1      20.093  21.515  61.926  1.00  0.00    -0.081 Cl
BRANCH  31  35
HETATM   35  O4  UNL     1      19.855  23.248  57.229  1.00  0.00    -0.349 OA
BRANCH  35  36
HETATM   36  C18 UNL     1      20.225  24.310  56.471  1.00  0.00     0.195 C 
BRANCH  36  37
HETATM   37  C19 UNL     1      21.515  24.089  55.721  1.00  0.00     0.148 C 
BRANCH  37  38
HETATM   38  N2  UNL     1      21.741  22.730  55.420  1.00  0.00    -0.392 N 
BRANCH  38  39
HETATM   39  C20 UNL     1      21.147  22.157  54.289  1.00  0.00     0.054 C 
HETATM   40  C21 UNL     1      21.110  23.001  53.044  1.00  0.00     0.054 C 
ENDBRANCH  38  39
BRANCH  38  41
HETATM   41  C22 UNL     1      22.937  22.186  55.903  1.00  0.00     0.117 C 
HETATM   42  C23 UNL     1      22.639  21.040  56.876  1.00  0.00     0.026 C 
ENDBRANCH  38  41
ENDBRANCH  37  38
ENDBRANCH  36  37
ENDBRANCH  35  36
ENDBRANCH  31  35
ENDBRANCH  26  27
ENDBRANCH   8  26
TORSDOF 12
ENDMDL
