MODEL 1
REMARK VINA RESULT: -7.763941331      0.000      0.000
REMARK  14 active torsions:
REMARK  status: ('A' for Active; 'I' for Inactive)
REMARK    1  A    between atoms: C2_2  and  C3_3 
REMARK    2  A    between atoms: C3_3  and  C4_4 
REMARK    3  A    between atoms: C4_4  and  C5_5 
REMARK    4  A    between atoms: C5_5  and  C6_6 
REMARK    5  A    between atoms: C6_6  and  O1_7 
REMARK    6  A    between atoms: O1_7  and  C7_8 
REMARK    7  A    between atoms: C10_12  and  C11_13 
REMARK    8  A    between atoms: C12_14  and  C13_15 
REMARK    9  A    between atoms: C13_15  and  O2_16 
REMARK   10  A    between atoms: C13_15  and  C14_18 
REMARK   11  A    between atoms: C15_19  and  O3_20 
REMARK   12  A    between atoms: C18_23  and  C19_24 
REMARK   13  A    between atoms: C19_24  and  O4_25 
REMARK   14  A    between atoms: C21_30  and  O5_31 
ROOT
HETATM    1  C13 UNL     1      13.061  21.799  63.200  1.00  0.00     0.081 C 
ENDROOT
BRANCH   1   2
HETATM    2  C12 UNL     1      12.532  20.468  62.956  1.00  0.00     0.038 C 
HETATM    3  C11 UNL     1      11.206  20.256  63.007  1.00  0.00     0.014 C 
BRANCH   3   4
HETATM    4  C10 UNL     1      10.634  18.945  62.771  1.00  0.00    -0.033 A 
HETATM    5  C9  UNL     1      10.911  18.176  61.677  1.00  0.00     0.038 A 
HETATM    6  C8  UNL     1      10.325  16.943  61.539  1.00  0.00     0.069 A 
HETATM    7  C7  UNL     1       9.418  16.416  62.506  1.00  0.00     0.107 A 
HETATM    8 CL1  UNL     1      10.673  15.985  60.121  1.00  0.00    -0.081 Cl
HETATM    9  C23 UNL     1       9.156  17.185  63.566  1.00  0.00     0.046 A 
HETATM   10  C22 UNL     1       9.745  18.453  63.735  1.00  0.00     0.033 A 
HETATM   11 BR2  UNL     1       7.870  16.690  64.878  1.00  0.00    -0.048 Br
BRANCH   7  12
HETATM   12  O1  UNL     1       8.922  15.172  62.217  1.00  0.00    -0.348 OA
BRANCH  12  13
HETATM   13  C6  UNL     1       7.681  14.949  61.651  1.00  0.00     0.176 C 
BRANCH  13  14
HETATM   14  C5  UNL     1       6.798  16.023  61.208  1.00  0.00     0.027 C 
BRANCH  14  15
HETATM   15  C4  UNL     1       5.410  15.967  61.762  1.00  0.00     0.002 C 
BRANCH  15  16
HETATM   16  C3  UNL     1       5.065  14.625  62.377  1.00  0.00    -0.000 C 
BRANCH  16  17
HETATM   17  C2  UNL     1       3.575  14.455  62.429  1.00  0.00    -0.005 C 
HETATM   18  C1  UNL     1       2.979  15.150  61.211  1.00  0.00     0.005 C 
ENDBRANCH  16  17
ENDBRANCH  15  16
ENDBRANCH  14  15
ENDBRANCH  13  14
ENDBRANCH  12  13
ENDBRANCH   7  12
ENDBRANCH   3   4
ENDBRANCH   1   2
BRANCH   1  19
HETATM   19  O2  UNL     1      12.151  22.676  63.507  1.00  0.00    -0.360 OA
ATOM     20  H2  UNL     1      12.422  23.576  63.361  1.00  0.00     0.217 HD
ENDBRANCH   1  19
BRANCH   1  21
HETATM   21  C14 UNL     1      14.413  22.246  63.147  1.00  0.00     0.065 A 
HETATM   22  C15 UNL     1      14.983  22.718  64.341  1.00  0.00     0.085 A 
HETATM   23  C17 UNL     1      16.282  23.152  64.331  1.00  0.00     0.054 A 
HETATM   24  C18 UNL     1      17.048  23.141  63.175  1.00  0.00     0.031 A 
HETATM   25  C20 UNL     1      16.464  22.677  62.029  1.00  0.00     0.059 A 
HETATM   26 BR1  UNL     1      17.538  22.666  60.431  1.00  0.00    -0.047 Br
HETATM   27  C21 UNL     1      15.152  22.227  61.997  1.00  0.00     0.099 A 
BRANCH  22  28
HETATM   28  O3  UNL     1      14.249  22.739  65.495  1.00  0.00    -0.355 OA
HETATM   29  C16 UNL     1      14.622  23.587  66.563  1.00  0.00     0.210 C 
ENDBRANCH  22  28
BRANCH  24  30
HETATM   30  C19 UNL     1      18.425  23.606  63.179  1.00  0.00     0.145 C 
HETATM   31  S1  UNL     1      18.770  25.170  62.900  1.00  0.00    -0.052 SA
BRANCH  30  32
HETATM   32  O4  UNL     1      19.439  22.703  63.424  1.00  0.00    -0.350 OA
ATOM     33  H4  UNL     1      20.172  22.656  62.822  1.00  0.00     0.218 HD
ENDBRANCH  30  32
ENDBRANCH  24  30
BRANCH  27  34
HETATM   34  O5  UNL     1      14.678  21.788  60.798  1.00  0.00    -0.358 OA
ATOM     35  H5  UNL     1      15.156  21.202  60.223  1.00  0.00     0.217 HD
ENDBRANCH  27  34
ENDBRANCH   1  21
TORSDOF 14
ENDMDL
MODEL 2
REMARK VINA RESULT: -7.674665349      2.033      2.820
REMARK  14 active torsions:
REMARK  status: ('A' for Active; 'I' for Inactive)
REMARK    1  A    between atoms: C2_2  and  C3_3 
REMARK    2  A    between atoms: C3_3  and  C4_4 
REMARK    3  A    between atoms: C4_4  and  C5_5 
REMARK    4  A    between atoms: C5_5  and  C6_6 
REMARK    5  A    between atoms: C6_6  and  O1_7 
REMARK    6  A    between atoms: O1_7  and  C7_8 
REMARK    7  A    between atoms: C10_12  and  C11_13 
REMARK    8  A    between atoms: C12_14  and  C13_15 
REMARK    9  A    between atoms: C13_15  and  O2_16 
REMARK   10  A    between atoms: C13_15  and  C14_18 
REMARK   11  A    between atoms: C15_19  and  O3_20 
REMARK   12  A    between atoms: C18_23  and  C19_24 
REMARK   13  A    between atoms: C19_24  and  O4_25 
REMARK   14  A    between atoms: C21_30  and  O5_31 
ROOT
HETATM    1  C13 UNL     1      14.304  22.308  65.427  1.00  0.00     0.081 C 
ENDROOT
BRANCH   1   2
HETATM    2  C12 UNL     1      13.163  21.529  64.980  1.00  0.00     0.038 C 
HETATM    3  C11 UNL     1      12.513  20.735  65.849  1.00  0.00     0.014 C 
BRANCH   3   4
HETATM    4  C10 UNL     1      11.370  19.939  65.447  1.00  0.00    -0.033 A 
HETATM    5  C9  UNL     1      11.089  19.603  64.153  1.00  0.00     0.038 A 
HETATM    6  C8  UNL     1       9.984  18.841  63.868  1.00  0.00     0.069 A 
HETATM    7  C7  UNL     1       9.096  18.373  64.881  1.00  0.00     0.107 A 
HETATM    8 CL1  UNL     1       9.629  18.443  62.205  1.00  0.00    -0.081 Cl
HETATM    9  C23 UNL     1       9.386  18.715  66.139  1.00  0.00     0.046 A 
HETATM   10  C22 UNL     1      10.514  19.495  66.462  1.00  0.00     0.033 A 
HETATM   11 BR2  UNL     1       8.234  18.287  67.591  1.00  0.00    -0.048 Br
BRANCH   7  12
HETATM   12  O1  UNL     1       8.043  17.624  64.426  1.00  0.00    -0.348 OA
BRANCH  12  13
HETATM   13  C6  UNL     1       8.078  16.249  64.286  1.00  0.00     0.176 C 
BRANCH  13  14
HETATM   14  C5  UNL     1       6.987  15.475  63.703  1.00  0.00     0.027 C 
BRANCH  14  15
HETATM   15  C4  UNL     1       7.251  14.948  62.329  1.00  0.00     0.002 C 
BRANCH  15  16
HETATM   16  C3  UNL     1       7.041  15.984  61.241  1.00  0.00    -0.000 C 
BRANCH  16  17
HETATM   17  C2  UNL     1       8.063  15.801  60.158  1.00  0.00    -0.005 C 
HETATM   18  C1  UNL     1       9.317  15.210  60.789  1.00  0.00     0.005 C 
ENDBRANCH  16  17
ENDBRANCH  15  16
ENDBRANCH  14  15
ENDBRANCH  13  14
ENDBRANCH  12  13
ENDBRANCH   7  12
ENDBRANCH   3   4
ENDBRANCH   1   2
BRANCH   1  19
HETATM   19  O2  UNL     1      14.261  22.623  66.689  1.00  0.00    -0.360 OA
ATOM     20  H2  UNL     1      13.911  21.935  67.243  1.00  0.00     0.217 HD
ENDBRANCH   1  19
BRANCH   1  21
HETATM   21  C14 UNL     1      15.430  22.755  64.676  1.00  0.00     0.065 A 
HETATM   22  C15 UNL     1      16.227  23.760  65.248  1.00  0.00     0.085 A 
HETATM   23  C17 UNL     1      17.321  24.213  64.558  1.00  0.00     0.054 A 
HETATM   24  C18 UNL     1      17.661  23.707  63.312  1.00  0.00     0.031 A 
HETATM   25  C20 UNL     1      16.863  22.730  62.783  1.00  0.00     0.059 A 
HETATM   26 BR1  UNL     1      17.345  22.037  61.053  1.00  0.00    -0.047 Br
HETATM   27  C21 UNL     1      15.748  22.244  63.449  1.00  0.00     0.099 A 
BRANCH  22  28
HETATM   28  O3  UNL     1      15.915  24.275  66.476  1.00  0.00    -0.355 OA
HETATM   29  C16 UNL     1      16.833  25.108  67.156  1.00  0.00     0.210 C 
ENDBRANCH  22  28
BRANCH  24  30
HETATM   30  C19 UNL     1      18.823  24.198  62.592  1.00  0.00     0.145 C 
HETATM   31  S1  UNL     1      18.779  25.634  61.831  1.00  0.00    -0.052 SA
BRANCH  30  32
HETATM   32  O4  UNL     1      19.968  23.430  62.560  1.00  0.00    -0.350 OA
ATOM     33  H4  UNL     1      20.524  23.458  61.790  1.00  0.00     0.218 HD
ENDBRANCH  30  32
ENDBRANCH  24  30
BRANCH  27  34
HETATM   34  O5  UNL     1      15.030  21.271  62.823  1.00  0.00    -0.358 OA
ATOM     35  H5  UNL     1      15.317  20.825  62.035  1.00  0.00     0.217 HD
ENDBRANCH  27  34
ENDBRANCH   1  21
TORSDOF 14
ENDMDL
MODEL 3
REMARK VINA RESULT: -7.630860178      4.354     11.604
REMARK  14 active torsions:
REMARK  status: ('A' for Active; 'I' for Inactive)
REMARK    1  A    between atoms: C2_2  and  C3_3 
REMARK    2  A    between atoms: C3_3  and  C4_4 
REMARK    3  A    between atoms: C4_4  and  C5_5 
REMARK    4  A    between atoms: C5_5  and  C6_6 
REMARK    5  A    between atoms: C6_6  and  O1_7 
REMARK    6  A    between atoms: O1_7  and  C7_8 
REMARK    7  A    between atoms: C10_12  and  C11_13 
REMARK    8  A    between atoms: C12_14  and  C13_15 
REMARK    9  A    between atoms: C13_15  and  O2_16 
REMARK   10  A    between atoms: C13_15  and  C14_18 
REMARK   11  A    between atoms: C15_19  and  O3_20 
REMARK   12  A    between atoms: C18_23  and  C19_24 
REMARK   13  A    between atoms: C19_24  and  O4_25 
REMARK   14  A    between atoms: C21_30  and  O5_31 
ROOT
HETATM    1  C13 UNL     1      11.270  20.528  63.375  1.00  0.00     0.081 C 
ENDROOT
BRANCH   1   2
HETATM    2  C12 UNL     1      12.544  20.997  63.891  1.00  0.00     0.038 C 
HETATM    3  C11 UNL     1      13.013  22.201  63.521  1.00  0.00     0.014 C 
BRANCH   3   4
HETATM    4  C10 UNL     1      14.279  22.710  64.010  1.00  0.00    -0.033 A 
HETATM    5  C9  UNL     1      14.465  23.219  65.265  1.00  0.00     0.038 A 
HETATM    6  C8  UNL     1      15.702  23.674  65.643  1.00  0.00     0.069 A 
HETATM    7  C7  UNL     1      16.829  23.641  64.769  1.00  0.00     0.107 A 
HETATM    8 CL1  UNL     1      15.913  24.344  67.242  1.00  0.00    -0.081 Cl
HETATM    9  C23 UNL     1      16.626  23.144  63.546  1.00  0.00     0.046 A 
HETATM   10  C22 UNL     1      15.367  22.667  63.131  1.00  0.00     0.033 A 
HETATM   11 BR2  UNL     1      17.987  23.152  62.217  1.00  0.00    -0.048 Br
BRANCH   7  12
HETATM   12  O1  UNL     1      17.990  24.134  65.303  1.00  0.00    -0.348 OA
BRANCH  12  13
HETATM   13  C6  UNL     1      18.362  25.465  65.244  1.00  0.00     0.176 C 
BRANCH  13  14
HETATM   14  C5  UNL     1      17.641  26.464  64.464  1.00  0.00     0.027 C 
BRANCH  14  15
HETATM   15  C4  UNL     1      18.413  27.054  63.327  1.00  0.00     0.002 C 
BRANCH  15  16
HETATM   16  C3  UNL     1      19.676  27.768  63.769  1.00  0.00    -0.000 C 
BRANCH  16  17
HETATM   17  C2  UNL     1      19.466  29.253  63.720  1.00  0.00    -0.005 C 
HETATM   18  C1  UNL     1      19.050  29.624  62.303  1.00  0.00     0.005 C 
ENDBRANCH  16  17
ENDBRANCH  15  16
ENDBRANCH  14  15
ENDBRANCH  13  14
ENDBRANCH  12  13
ENDBRANCH   7  12
ENDBRANCH   3   4
ENDBRANCH   1   2
BRANCH   1  19
HETATM   19  O2  UNL     1      10.841  21.201  62.348  1.00  0.00    -0.360 OA
ATOM     20  H2  UNL     1      10.074  21.732  62.532  1.00  0.00     0.217 HD
ENDBRANCH   1  19
BRANCH   1  21
HETATM   21  C14 UNL     1      10.459  19.452  63.840  1.00  0.00     0.065 A 
HETATM   22  C15 UNL     1      10.216  18.396  62.947  1.00  0.00     0.085 A 
HETATM   23  C17 UNL     1       9.444  17.342  63.360  1.00  0.00     0.054 A 
HETATM   24  C18 UNL     1       8.896  17.290  64.633  1.00  0.00     0.031 A 
HETATM   25  C20 UNL     1       9.151  18.335  65.478  1.00  0.00     0.059 A 
HETATM   26 BR1  UNL     1       8.385  18.252  67.242  1.00  0.00    -0.047 Br
HETATM   27  C21 UNL     1       9.928  19.420  65.099  1.00  0.00     0.099 A 
BRANCH  22  28
HETATM   28  O3  UNL     1      10.745  18.422  61.686  1.00  0.00    -0.355 OA
HETATM   29  C16 UNL     1      10.464  17.379  60.772  1.00  0.00     0.210 C 
ENDBRANCH  22  28
BRANCH  24  30
HETATM   30  C19 UNL     1       8.079  16.166  65.056  1.00  0.00     0.145 C 
HETATM   31  S1  UNL     1       6.466  16.194  64.853  1.00  0.00    -0.052 SA
BRANCH  30  32
HETATM   32  O4  UNL     1       8.688  15.071  65.633  1.00  0.00    -0.350 OA
ATOM     33  H4  UNL     1       8.330  14.206  65.476  1.00  0.00     0.218 HD
ENDBRANCH  30  32
ENDBRANCH  24  30
BRANCH  27  34
HETATM   34  O5  UNL     1      10.113  20.401  66.026  1.00  0.00    -0.358 OA
ATOM     35  H5  UNL     1      10.445  20.245  66.902  1.00  0.00     0.217 HD
ENDBRANCH  27  34
ENDBRANCH   1  21
TORSDOF 14
ENDMDL
MODEL 4
REMARK VINA RESULT: -7.599525400      2.914      3.988
REMARK  14 active torsions:
REMARK  status: ('A' for Active; 'I' for Inactive)
REMARK    1  A    between atoms: C2_2  and  C3_3 
REMARK    2  A    between atoms: C3_3  and  C4_4 
REMARK    3  A    between atoms: C4_4  and  C5_5 
REMARK    4  A    between atoms: C5_5  and  C6_6 
REMARK    5  A    between atoms: C6_6  and  O1_7 
REMARK    6  A    between atoms: O1_7  and  C7_8 
REMARK    7  A    between atoms: C10_12  and  C11_13 
REMARK    8  A    between atoms: C12_14  and  C13_15 
REMARK    9  A    between atoms: C13_15  and  O2_16 
REMARK   10  A    between atoms: C13_15  and  C14_18 
REMARK   11  A    between atoms: C15_19  and  O3_20 
REMARK   12  A    between atoms: C18_23  and  C19_24 
REMARK   13  A    between atoms: C19_24  and  O4_25 
REMARK   14  A    between atoms: C21_30  and  O5_31 
ROOT
HETATM    1  C13 UNL     1      14.456  21.341  62.249  1.00  0.00     0.081 C 
ENDROOT
BRANCH   1   2
HETATM    2  C12 UNL     1      13.599  20.273  62.734  1.00  0.00     0.038 C 
HETATM    3  C11 UNL     1      12.283  20.297  62.466  1.00  0.00     0.014 C 
BRANCH   3   4
HETATM    4  C10 UNL     1      11.390  19.253  62.929  1.00  0.00    -0.033 A 
HETATM    5  C9  UNL     1      11.035  19.076  64.237  1.00  0.00     0.038 A 
HETATM    6  C8  UNL     1      10.178  18.062  64.583  1.00  0.00     0.069 A 
HETATM    7  C7  UNL     1       9.629  17.163  63.621  1.00  0.00     0.107 A 
HETATM    8 CL1  UNL     1       9.756  17.837  66.263  1.00  0.00    -0.081 Cl
HETATM    9  C23 UNL     1       9.992  17.350  62.349  1.00  0.00     0.046 A 
HETATM   10  C22 UNL     1      10.868  18.384  61.964  1.00  0.00     0.033 A 
HETATM   11 BR2  UNL     1       9.457  16.161  60.964  1.00  0.00    -0.048 Br
BRANCH   7  12
HETATM   12  O1  UNL     1       8.791  16.208  64.133  1.00  0.00    -0.348 OA
BRANCH  12  13
HETATM   13  C6  UNL     1       7.412  16.276  64.065  1.00  0.00     0.176 C 
BRANCH  13  14
HETATM   14  C5  UNL     1       6.553  16.301  65.243  1.00  0.00     0.027 C 
BRANCH  14  15
HETATM   15  C4  UNL     1       6.275  17.663  65.793  1.00  0.00     0.002 C 
BRANCH  15  16
HETATM   16  C3  UNL     1       5.713  17.637  67.202  1.00  0.00    -0.000 C 
BRANCH  16  17
HETATM   17  C2  UNL     1       6.751  18.117  68.173  1.00  0.00    -0.005 C 
HETATM   18  C1  UNL     1       7.381  16.897  68.832  1.00  0.00     0.005 C 
ENDBRANCH  16  17
ENDBRANCH  15  16
ENDBRANCH  14  15
ENDBRANCH  13  14
ENDBRANCH  12  13
ENDBRANCH   7  12
ENDBRANCH   3   4
ENDBRANCH   1   2
BRANCH   1  19
HETATM   19  O2  UNL     1      14.489  21.437  60.952  1.00  0.00    -0.360 OA
ATOM     20  H2  UNL     1      15.000  22.174  60.636  1.00  0.00     0.217 HD
ENDBRANCH   1  19
BRANCH   1  21
HETATM   21  C14 UNL     1      15.239  22.267  62.997  1.00  0.00     0.065 A 
HETATM   22  C15 UNL     1      16.572  22.455  62.595  1.00  0.00     0.085 A 
HETATM   23  C17 UNL     1      17.355  23.340  63.287  1.00  0.00     0.054 A 
HETATM   24  C18 UNL     1      16.869  24.055  64.372  1.00  0.00     0.031 A 
HETATM   25  C20 UNL     1      15.567  23.848  64.738  1.00  0.00     0.059 A 
HETATM   26 BR1  UNL     1      14.904  24.845  66.245  1.00  0.00    -0.047 Br
HETATM   27  C21 UNL     1      14.741  22.961  64.064  1.00  0.00     0.099 A 
BRANCH  22  28
HETATM   28  O3  UNL     1      17.076  21.764  61.528  1.00  0.00    -0.355 OA
HETATM   29  C16 UNL     1      18.210  22.247  60.835  1.00  0.00     0.210 C 
ENDBRANCH  22  28
BRANCH  24  30
HETATM   30  C19 UNL     1      17.712  24.990  65.097  1.00  0.00     0.145 C 
HETATM   31  S1  UNL     1      18.182  26.386  64.408  1.00  0.00    -0.052 SA
BRANCH  30  32
HETATM   32  O4  UNL     1      18.111  24.680  66.380  1.00  0.00    -0.350 OA
ATOM     33  H4  UNL     1      19.003  24.389  66.531  1.00  0.00     0.218 HD
ENDBRANCH  30  32
ENDBRANCH  24  30
BRANCH  27  34
HETATM   34  O5  UNL     1      13.463  22.839  64.519  1.00  0.00    -0.358 OA
ATOM     35  H5  UNL     1      13.177  22.158  65.116  1.00  0.00     0.217 HD
ENDBRANCH  27  34
ENDBRANCH   1  21
TORSDOF 14
ENDMDL
MODEL 5
REMARK VINA RESULT: -7.593961830      2.318      3.094
REMARK  14 active torsions:
REMARK  status: ('A' for Active; 'I' for Inactive)
REMARK    1  A    between atoms: C2_2  and  C3_3 
REMARK    2  A    between atoms: C3_3  and  C4_4 
REMARK    3  A    between atoms: C4_4  and  C5_5 
REMARK    4  A    between atoms: C5_5  and  C6_6 
REMARK    5  A    between atoms: C6_6  and  O1_7 
REMARK    6  A    between atoms: O1_7  and  C7_8 
REMARK    7  A    between atoms: C10_12  and  C11_13 
REMARK    8  A    between atoms: C12_14  and  C13_15 
REMARK    9  A    between atoms: C13_15  and  O2_16 
REMARK   10  A    between atoms: C13_15  and  C14_18 
REMARK   11  A    between atoms: C15_19  and  O3_20 
REMARK   12  A    between atoms: C18_23  and  C19_24 
REMARK   13  A    between atoms: C19_24  and  O4_25 
REMARK   14  A    between atoms: C21_30  and  O5_31 
ROOT
HETATM    1  C13 UNL     1      14.232  21.316  62.256  1.00  0.00     0.081 C 
ENDROOT
BRANCH   1   2
HETATM    2  C12 UNL     1      13.393  20.217  62.700  1.00  0.00     0.038 C 
HETATM    3  C11 UNL     1      12.084  20.209  62.396  1.00  0.00     0.014 C 
BRANCH   3   4
HETATM    4  C10 UNL     1      11.208  19.134  62.818  1.00  0.00    -0.033 A 
HETATM    5  C9  UNL     1      10.752  18.976  64.096  1.00  0.00     0.038 A 
HETATM    6  C8  UNL     1       9.921  17.929  64.403  1.00  0.00     0.069 A 
HETATM    7  C7  UNL     1       9.502  16.975  63.428  1.00  0.00     0.107 A 
HETATM    8 CL1  UNL     1       9.369  17.731  66.048  1.00  0.00    -0.081 Cl
HETATM    9  C23 UNL     1       9.961  17.144  62.186  1.00  0.00     0.046 A 
HETATM   10  C22 UNL     1      10.814  18.211  61.842  1.00  0.00     0.033 A 
HETATM   11 BR2  UNL     1       9.607  15.889  60.801  1.00  0.00    -0.048 Br
BRANCH   7  12
HETATM   12  O1  UNL     1       8.672  15.993  63.900  1.00  0.00    -0.348 OA
BRANCH  12  13
HETATM   13  C6  UNL     1       7.297  16.011  63.758  1.00  0.00     0.176 C 
BRANCH  13  14
HETATM   14  C5  UNL     1       6.574  15.121  62.856  1.00  0.00     0.027 C 
BRANCH  14  15
HETATM   15  C4  UNL     1       5.894  15.799  61.711  1.00  0.00     0.002 C 
BRANCH  15  16
HETATM   16  C3  UNL     1       4.432  15.421  61.574  1.00  0.00    -0.000 C 
BRANCH  16  17
HETATM   17  C2  UNL     1       3.603  16.238  62.522  1.00  0.00    -0.005 C 
HETATM   18  C1  UNL     1       2.236  16.455  61.887  1.00  0.00     0.005 C 
ENDBRANCH  16  17
ENDBRANCH  15  16
ENDBRANCH  14  15
ENDBRANCH  13  14
ENDBRANCH  12  13
ENDBRANCH   7  12
ENDBRANCH   3   4
ENDBRANCH   1   2
BRANCH   1  19
HETATM   19  O2  UNL     1      14.236  21.484  60.967  1.00  0.00    -0.360 OA
ATOM     20  H2  UNL     1      13.607  22.129  60.663  1.00  0.00     0.217 HD
ENDBRANCH   1  19
BRANCH   1  21
HETATM   21  C14 UNL     1      15.027  22.205  63.037  1.00  0.00     0.065 A 
HETATM   22  C15 UNL     1      16.365  22.383  62.648  1.00  0.00     0.085 A 
HETATM   23  C17 UNL     1      17.159  23.233  63.372  1.00  0.00     0.054 A 
HETATM   24  C18 UNL     1      16.679  23.921  64.477  1.00  0.00     0.031 A 
HETATM   25  C20 UNL     1      15.373  23.724  64.829  1.00  0.00     0.059 A 
HETATM   26 BR1  UNL     1      14.718  24.684  66.365  1.00  0.00    -0.047 Br
HETATM   27  C21 UNL     1      14.535  22.873  64.123  1.00  0.00     0.099 A 
BRANCH  22  28
HETATM   28  O3  UNL     1      16.863  21.718  61.562  1.00  0.00    -0.355 OA
HETATM   29  C16 UNL     1      18.057  22.154  60.943  1.00  0.00     0.210 C 
ENDBRANCH  22  28
BRANCH  24  30
HETATM   30  C19 UNL     1      17.534  24.818  65.235  1.00  0.00     0.145 C 
HETATM   31  S1  UNL     1      18.046  26.218  64.586  1.00  0.00    -0.052 SA
BRANCH  30  32
HETATM   32  O4  UNL     1      17.907  24.468  66.516  1.00  0.00    -0.350 OA
ATOM     33  H4  UNL     1      17.937  25.138  67.189  1.00  0.00     0.218 HD
ENDBRANCH  30  32
ENDBRANCH  24  30
BRANCH  27  34
HETATM   34  O5  UNL     1      13.253  22.758  64.569  1.00  0.00    -0.358 OA
ATOM     35  H5  UNL     1      12.833  21.929  64.764  1.00  0.00     0.217 HD
ENDBRANCH  27  34
ENDBRANCH   1  21
TORSDOF 14
ENDMDL
