MODEL 1
REMARK VINA RESULT: -9.300034093      0.000      0.000
REMARK  12 active torsions:
REMARK  status: ('A' for Active; 'I' for Inactive)
REMARK    1  A    between atoms: O1_2  and  C2_3 
REMARK    2  A    between atoms: C4_5  and  C5_6 
REMARK    3  A    between atoms: C6_7  and  C7_8 
REMARK    4  A    between atoms: C10_11  and  C11_12 
REMARK    5  A    between atoms: C11_12  and  O2_13 
REMARK    6  A    between atoms: O2_13  and  C12_14 
REMARK    7  A    between atoms: N1_17  and  C15_18 
REMARK    8  A    between atoms: C18_22  and  O3_23 
REMARK    9  A    between atoms: C22_28  and  O4_29 
REMARK   10  A    between atoms: O4_29  and  C23_30 
REMARK   11  A    between atoms: C23_30  and  C24_31 
REMARK   12  A    between atoms: C28_37  and  O5_38 
ROOT
HETATM    1  C2  UNL     1      14.799  22.963  64.510  1.00  0.00     0.102 A 
HETATM    2  C3  UNL     1      13.744  22.180  64.113  1.00  0.00     0.051 A 
HETATM    3  C4  UNL     1      13.839  21.279  63.054  1.00  0.00    -0.033 A 
HETATM    4  C20 UNL     1      15.039  21.205  62.418  1.00  0.00     0.014 A 
HETATM    5  C21 UNL     1      16.129  21.984  62.795  1.00  0.00     0.040 A 
HETATM    6  C22 UNL     1      16.023  22.869  63.840  1.00  0.00     0.102 A 
ENDROOT
BRANCH   3   7
HETATM    7  C5  UNL     1      12.674  20.499  62.715  1.00  0.00     0.012 C 
HETATM    8  C6  UNL     1      12.754  19.220  62.466  1.00  0.00     0.012 C 
BRANCH   8   9
HETATM    9  C7  UNL     1      11.637  18.361  62.118  1.00  0.00    -0.034 A 
HETATM   10  C8  UNL     1      11.719  17.487  61.029  1.00  0.00     0.012 A 
HETATM   11  C9  UNL     1      10.686  16.653  60.664  1.00  0.00     0.013 A 
HETATM   12  C10 UNL     1       9.510  16.654  61.379  1.00  0.00    -0.001 A 
HETATM   13  C18 UNL     1       9.421  17.510  62.450  1.00  0.00     0.074 A 
HETATM   14  C19 UNL     1      10.467  18.357  62.822  1.00  0.00     0.048 A 
BRANCH  12  15
HETATM   15  C11 UNL     1       8.393  15.760  60.999  1.00  0.00     0.211 C 
BRANCH  15  16
HETATM   16  O2  UNL     1       8.145  14.799  61.978  1.00  0.00    -0.364 OA
BRANCH  16  17
HETATM   17  C12 UNL     1       6.788  14.763  62.291  1.00  0.00     0.230 C 
HETATM   18  C13 UNL     1       6.038  15.519  61.213  1.00  0.00     0.066 C 
HETATM   19  C14 UNL     1       4.871  16.088  61.992  1.00  0.00     0.114 C 
HETATM   20  N1  UNL     1       5.216  16.037  63.375  1.00  0.00    -0.228 NA
HETATM   21  N2  UNL     1       6.448  15.446  63.497  1.00  0.00    -0.132 NA
BRANCH  20  22
HETATM   22  C15 UNL     1       4.197  15.450  64.209  1.00  0.00     0.068 C 
HETATM   23  C16 UNL     1       3.212  14.622  63.410  1.00  0.00     0.027 C 
HETATM   24  C17 UNL     1       3.428  16.447  65.004  1.00  0.00     0.027 C 
ENDBRANCH  20  22
ENDBRANCH  16  17
ENDBRANCH  15  16
ENDBRANCH  12  15
BRANCH  13  25
HETATM   25  O3  UNL     1       8.250  17.520  63.173  1.00  0.00    -0.360 OA
ATOM     26  H3  UNL     1       7.596  18.173  62.953  1.00  0.00     0.217 HD
ENDBRANCH  13  25
ENDBRANCH   8   9
ENDBRANCH   3   7
BRANCH   1  27
HETATM   27  O1  UNL     1      14.642  23.837  65.566  1.00  0.00    -0.353 OA
HETATM   28  C1  UNL     1      14.627  23.382  66.885  1.00  0.00     0.210 C 
ENDBRANCH   1  27
BRANCH   6  29
HETATM   29  O4  UNL     1      17.085  23.665  64.250  1.00  0.00    -0.344 OA
BRANCH  29  30
HETATM   30  C23 UNL     1      18.240  23.729  63.470  1.00  0.00     0.216 C 
BRANCH  30  31
HETATM   31  C24 UNL     1      18.446  25.057  62.852  1.00  0.00    -0.008 A 
HETATM   32  C25 UNL     1      18.691  26.208  63.566  1.00  0.00     0.036 A 
HETATM   33  C26 UNL     1      18.880  27.435  62.957  1.00  0.00     0.059 A 
HETATM   34 CL1  UNL     1      19.191  28.900  63.861  1.00  0.00    -0.082 Cl
HETATM   35  C27 UNL     1      18.825  27.526  61.581  1.00  0.00     0.090 A 
HETATM   36 CL2  UNL     1      19.052  29.033  60.721  1.00  0.00    -0.079 Cl
HETATM   37  C28 UNL     1      18.581  26.384  60.844  1.00  0.00     0.114 A 
HETATM   38  C30 UNL     1      18.395  25.171  61.479  1.00  0.00     0.077 A 
HETATM   39 CL3  UNL     1      18.087  23.738  60.525  1.00  0.00    -0.081 Cl
BRANCH  37  40
HETATM   40  O5  UNL     1      18.524  26.469  59.464  1.00  0.00    -0.352 OA
HETATM   41  C29 UNL     1      17.291  26.673  58.793  1.00  0.00     0.210 C 
ENDBRANCH  37  40
ENDBRANCH  30  31
ENDBRANCH  29  30
ENDBRANCH   6  29
TORSDOF 12
ENDMDL
MODEL 2
REMARK VINA RESULT: -9.261457047      0.976      1.856
REMARK  12 active torsions:
REMARK  status: ('A' for Active; 'I' for Inactive)
REMARK    1  A    between atoms: O1_2  and  C2_3 
REMARK    2  A    between atoms: C4_5  and  C5_6 
REMARK    3  A    between atoms: C6_7  and  C7_8 
REMARK    4  A    between atoms: C10_11  and  C11_12 
REMARK    5  A    between atoms: C11_12  and  O2_13 
REMARK    6  A    between atoms: O2_13  and  C12_14 
REMARK    7  A    between atoms: N1_17  and  C15_18 
REMARK    8  A    between atoms: C18_22  and  O3_23 
REMARK    9  A    between atoms: C22_28  and  O4_29 
REMARK   10  A    between atoms: O4_29  and  C23_30 
REMARK   11  A    between atoms: C23_30  and  C24_31 
REMARK   12  A    between atoms: C28_37  and  O5_38 
ROOT
HETATM    1  C2  UNL     1      14.821  22.981  64.334  1.00  0.00     0.102 A 
HETATM    2  C3  UNL     1      13.756  22.183  63.996  1.00  0.00     0.051 A 
HETATM    3  C4  UNL     1      13.842  21.199  63.014  1.00  0.00    -0.033 A 
HETATM    4  C20 UNL     1      15.043  21.057  62.392  1.00  0.00     0.014 A 
HETATM    5  C21 UNL     1      16.142  21.848  62.710  1.00  0.00     0.040 A 
HETATM    6  C22 UNL     1      16.046  22.815  63.680  1.00  0.00     0.102 A 
ENDROOT
BRANCH   3   7
HETATM    7  C5  UNL     1      12.666  20.411  62.733  1.00  0.00     0.012 C 
HETATM    8  C6  UNL     1      12.752  19.178  62.312  1.00  0.00     0.012 C 
BRANCH   8   9
HETATM    9  C7  UNL     1      11.626  18.315  62.006  1.00  0.00    -0.034 A 
HETATM   10  C8  UNL     1      11.686  17.413  60.938  1.00  0.00     0.012 A 
HETATM   11  C9  UNL     1      10.643  16.575  60.612  1.00  0.00     0.013 A 
HETATM   12  C10 UNL     1       9.480  16.598  61.347  1.00  0.00    -0.001 A 
HETATM   13  C18 UNL     1       9.414  17.482  62.397  1.00  0.00     0.074 A 
HETATM   14  C19 UNL     1      10.469  18.333  62.730  1.00  0.00     0.048 A 
BRANCH  12  15
HETATM   15  C11 UNL     1       8.354  15.699  61.010  1.00  0.00     0.211 C 
BRANCH  15  16
HETATM   16  O2  UNL     1       8.101  14.783  62.030  1.00  0.00    -0.364 OA
BRANCH  16  17
HETATM   17  C12 UNL     1       6.743  14.763  62.340  1.00  0.00     0.230 C 
HETATM   18  C13 UNL     1       6.003  15.524  61.259  1.00  0.00     0.066 C 
HETATM   19  C14 UNL     1       4.842  16.108  62.033  1.00  0.00     0.114 C 
HETATM   20  N1  UNL     1       5.183  16.057  63.418  1.00  0.00    -0.228 NA
HETATM   21  N2  UNL     1       6.409  15.454  63.544  1.00  0.00    -0.132 NA
BRANCH  20  22
HETATM   22  C15 UNL     1       4.156  15.485  64.251  1.00  0.00     0.068 C 
HETATM   23  C16 UNL     1       3.183  14.638  63.458  1.00  0.00     0.027 C 
HETATM   24  C17 UNL     1       3.376  16.495  65.017  1.00  0.00     0.027 C 
ENDBRANCH  20  22
ENDBRANCH  16  17
ENDBRANCH  15  16
ENDBRANCH  12  15
BRANCH  13  25
HETATM   25  O3  UNL     1       8.255  17.515  63.141  1.00  0.00    -0.360 OA
ATOM     26  H3  UNL     1       8.329  17.688  64.072  1.00  0.00     0.217 HD
ENDBRANCH  13  25
ENDBRANCH   8   9
ENDBRANCH   3   7
BRANCH   1  27
HETATM   27  O1  UNL     1      14.673  23.939  65.317  1.00  0.00    -0.353 OA
HETATM   28  C1  UNL     1      14.682  23.595  66.668  1.00  0.00     0.210 C 
ENDBRANCH   1  27
BRANCH   6  29
HETATM   29  O4  UNL     1      17.117  23.627  64.030  1.00  0.00    -0.344 OA
BRANCH  29  30
HETATM   30  C23 UNL     1      18.262  23.639  63.232  1.00  0.00     0.216 C 
BRANCH  30  31
HETATM   31  C24 UNL     1      18.235  24.699  62.201  1.00  0.00    -0.008 A 
HETATM   32  C25 UNL     1      17.968  24.471  60.870  1.00  0.00     0.036 A 
HETATM   33  C26 UNL     1      17.948  25.486  59.931  1.00  0.00     0.059 A 
HETATM   34 CL1  UNL     1      17.609  25.200  58.239  1.00  0.00    -0.082 Cl
HETATM   35  C27 UNL     1      18.204  26.783  60.327  1.00  0.00     0.090 A 
HETATM   36 CL2  UNL     1      18.202  28.132  59.213  1.00  0.00    -0.079 Cl
HETATM   37  C28 UNL     1      18.475  27.036  61.657  1.00  0.00     0.114 A 
HETATM   38  C30 UNL     1      18.488  26.002  62.574  1.00  0.00     0.077 A 
HETATM   39 CL3  UNL     1      18.834  26.346  64.254  1.00  0.00    -0.081 Cl
BRANCH  37  40
HETATM   40  O5  UNL     1      18.733  28.334  62.060  1.00  0.00    -0.352 OA
HETATM   41  C29 UNL     1      20.060  28.835  62.110  1.00  0.00     0.210 C 
ENDBRANCH  37  40
ENDBRANCH  30  31
ENDBRANCH  29  30
ENDBRANCH   6  29
TORSDOF 12
ENDMDL
MODEL 3
REMARK VINA RESULT: -8.971481997      6.199     13.604
REMARK  12 active torsions:
REMARK  status: ('A' for Active; 'I' for Inactive)
REMARK    1  A    between atoms: O1_2  and  C2_3 
REMARK    2  A    between atoms: C4_5  and  C5_6 
REMARK    3  A    between atoms: C6_7  and  C7_8 
REMARK    4  A    between atoms: C10_11  and  C11_12 
REMARK    5  A    between atoms: C11_12  and  O2_13 
REMARK    6  A    between atoms: O2_13  and  C12_14 
REMARK    7  A    between atoms: N1_17  and  C15_18 
REMARK    8  A    between atoms: C18_22  and  O3_23 
REMARK    9  A    between atoms: C22_28  and  O4_29 
REMARK   10  A    between atoms: O4_29  and  C23_30 
REMARK   11  A    between atoms: C23_30  and  C24_31 
REMARK   12  A    between atoms: C28_37  and  O5_38 
ROOT
HETATM    1  C2  UNL     1       9.331  17.796  64.992  1.00  0.00     0.102 A 
HETATM    2  C3  UNL     1      10.331  18.671  64.642  1.00  0.00     0.051 A 
HETATM    3  C4  UNL     1      10.632  19.801  65.398  1.00  0.00    -0.033 A 
HETATM    4  C20 UNL     1       9.885  20.009  66.515  1.00  0.00     0.014 A 
HETATM    5  C21 UNL     1       8.865  19.143  66.898  1.00  0.00     0.040 A 
HETATM    6  C22 UNL     1       8.576  18.032  66.145  1.00  0.00     0.102 A 
ENDROOT
BRANCH   3   7
HETATM    7  C5  UNL     1      11.702  20.658  64.948  1.00  0.00     0.012 C 
HETATM    8  C6  UNL     1      12.677  21.011  65.742  1.00  0.00     0.012 C 
BRANCH   8   9
HETATM    9  C7  UNL     1      13.790  21.867  65.375  1.00  0.00    -0.034 A 
HETATM   10  C8  UNL     1      14.485  22.593  66.348  1.00  0.00     0.012 A 
HETATM   11  C9  UNL     1      15.548  23.415  66.045  1.00  0.00     0.013 A 
HETATM   12  C10 UNL     1      15.971  23.549  64.743  1.00  0.00    -0.001 A 
HETATM   13  C18 UNL     1      15.294  22.839  63.782  1.00  0.00     0.074 A 
HETATM   14  C19 UNL     1      14.215  22.005  64.084  1.00  0.00     0.048 A 
BRANCH  12  15
HETATM   15  C11 UNL     1      17.115  24.426  64.406  1.00  0.00     0.211 C 
BRANCH  15  16
HETATM   16  O2  UNL     1      18.294  23.698  64.248  1.00  0.00    -0.364 OA
BRANCH  16  17
HETATM   17  C12 UNL     1      18.875  23.976  63.013  1.00  0.00     0.230 C 
HETATM   18  C13 UNL     1      18.536  25.406  62.645  1.00  0.00     0.066 C 
HETATM   19  C14 UNL     1      18.471  25.329  61.135  1.00  0.00     0.114 C 
HETATM   20  N1  UNL     1      18.324  23.954  60.784  1.00  0.00    -0.228 NA
HETATM   21  N2  UNL     1      18.348  23.205  61.933  1.00  0.00    -0.132 NA
BRANCH  20  22
HETATM   22  C15 UNL     1      19.247  23.509  59.771  1.00  0.00     0.068 C 
HETATM   23  C16 UNL     1      18.714  23.740  58.372  1.00  0.00     0.027 C 
HETATM   24  C17 UNL     1      19.621  22.073  59.893  1.00  0.00     0.027 C 
ENDBRANCH  20  22
ENDBRANCH  16  17
ENDBRANCH  15  16
ENDBRANCH  12  15
BRANCH  13  25
HETATM   25  O3  UNL     1      15.707  22.964  62.474  1.00  0.00    -0.360 OA
ATOM     26  H3  UNL     1      15.043  23.099  61.808  1.00  0.00     0.217 HD
ENDBRANCH  13  25
ENDBRANCH   8   9
ENDBRANCH   3   7
BRANCH   1  27
HETATM   27  O1  UNL     1       9.080  16.694  64.201  1.00  0.00    -0.353 OA
HETATM   28  C1  UNL     1       9.092  16.784  62.809  1.00  0.00     0.210 C 
ENDBRANCH   1  27
BRANCH   6  29
HETATM   29  O4  UNL     1       7.568  17.141  66.490  1.00  0.00    -0.344 OA
BRANCH  29  30
HETATM   30  C23 UNL     1       6.245  17.583  66.540  1.00  0.00     0.216 C 
BRANCH  30  31
HETATM   31  C24 UNL     1       5.455  17.171  65.359  1.00  0.00    -0.008 A 
HETATM   32  C25 UNL     1       5.827  16.162  64.499  1.00  0.00     0.036 A 
HETATM   33  C26 UNL     1       5.064  15.800  63.404  1.00  0.00     0.059 A 
HETATM   34 CL1  UNL     1       5.534  14.519  62.309  1.00  0.00    -0.082 Cl
HETATM   35  C27 UNL     1       3.882  16.465  63.149  1.00  0.00     0.090 A 
HETATM   36 CL2  UNL     1       2.851  16.078  61.790  1.00  0.00    -0.079 Cl
HETATM   37  C28 UNL     1       3.489  17.481  63.999  1.00  0.00     0.114 A 
HETATM   38  C30 UNL     1       4.271  17.821  65.086  1.00  0.00     0.077 A 
HETATM   39 CL3  UNL     1       3.754  19.111  66.147  1.00  0.00    -0.081 Cl
BRANCH  37  40
HETATM   40  O5  UNL     1       2.306  18.152  63.749  1.00  0.00    -0.352 OA
HETATM   41  C29 UNL     1       1.099  17.773  64.392  1.00  0.00     0.210 C 
ENDBRANCH  37  40
ENDBRANCH  30  31
ENDBRANCH  29  30
ENDBRANCH   6  29
TORSDOF 12
ENDMDL
MODEL 4
REMARK VINA RESULT: -8.950581083      1.659      2.553
REMARK  12 active torsions:
REMARK  status: ('A' for Active; 'I' for Inactive)
REMARK    1  A    between atoms: O1_2  and  C2_3 
REMARK    2  A    between atoms: C4_5  and  C5_6 
REMARK    3  A    between atoms: C6_7  and  C7_8 
REMARK    4  A    between atoms: C10_11  and  C11_12 
REMARK    5  A    between atoms: C11_12  and  O2_13 
REMARK    6  A    between atoms: O2_13  and  C12_14 
REMARK    7  A    between atoms: N1_17  and  C15_18 
REMARK    8  A    between atoms: C18_22  and  O3_23 
REMARK    9  A    between atoms: C22_28  and  O4_29 
REMARK   10  A    between atoms: O4_29  and  C23_30 
REMARK   11  A    between atoms: C23_30  and  C24_31 
REMARK   12  A    between atoms: C28_37  and  O5_38 
ROOT
HETATM    1  C2  UNL     1      14.131  22.051  63.371  1.00  0.00     0.102 A 
HETATM    2  C3  UNL     1      13.064  21.191  63.455  1.00  0.00     0.051 A 
HETATM    3  C4  UNL     1      12.936  20.078  62.626  1.00  0.00    -0.033 A 
HETATM    4  C20 UNL     1      13.926  19.874  61.716  1.00  0.00     0.014 A 
HETATM    5  C21 UNL     1      15.020  20.727  61.605  1.00  0.00     0.040 A 
HETATM    6  C22 UNL     1      15.136  21.820  62.427  1.00  0.00     0.102 A 
ENDROOT
BRANCH   3   7
HETATM    7  C5  UNL     1      11.779  19.233  62.793  1.00  0.00     0.012 C 
HETATM    8  C6  UNL     1      11.408  18.388  61.870  1.00  0.00     0.012 C 
BRANCH   8   9
HETATM    9  C7  UNL     1      10.262  17.502  61.954  1.00  0.00    -0.034 A 
HETATM   10  C8  UNL     1      10.063  16.497  61.001  1.00  0.00     0.012 A 
HETATM   11  C9  UNL     1       8.991  15.634  61.042  1.00  0.00     0.013 A 
HETATM   12  C10 UNL     1       8.059  15.734  62.049  1.00  0.00    -0.001 A 
HETATM   13  C18 UNL     1       8.247  16.719  62.988  1.00  0.00     0.074 A 
HETATM   14  C19 UNL     1       9.332  17.596  62.950  1.00  0.00     0.048 A 
BRANCH  12  15
HETATM   15  C11 UNL     1       6.905  14.809  62.106  1.00  0.00     0.211 C 
BRANCH  15  16
HETATM   16  O2  UNL     1       5.841  15.262  61.326  1.00  0.00    -0.364 OA
BRANCH  16  17
HETATM   17  C12 UNL     1       4.708  15.455  62.114  1.00  0.00     0.230 C 
HETATM   18  C13 UNL     1       3.497  15.039  61.303  1.00  0.00     0.066 C 
HETATM   19  C14 UNL     1       2.433  15.973  61.838  1.00  0.00     0.114 C 
HETATM   20  N1  UNL     1       3.101  17.050  62.493  1.00  0.00    -0.228 NA
HETATM   21  N2  UNL     1       4.453  16.820  62.446  1.00  0.00    -0.132 NA
BRANCH  20  22
HETATM   22  C15 UNL     1       2.598  17.331  63.814  1.00  0.00     0.068 C 
HETATM   23  C16 UNL     1       1.086  17.272  63.873  1.00  0.00     0.027 C 
HETATM   24  C17 UNL     1       3.032  18.651  64.350  1.00  0.00     0.027 C 
ENDBRANCH  20  22
ENDBRANCH  16  17
ENDBRANCH  15  16
ENDBRANCH  12  15
BRANCH  13  25
HETATM   25  O3  UNL     1       7.321  16.830  64.001  1.00  0.00    -0.360 OA
ATOM     26  H3  UNL     1       6.529  16.309  63.940  1.00  0.00     0.217 HD
ENDBRANCH  13  25
ENDBRANCH   8   9
ENDBRANCH   3   7
BRANCH   1  27
HETATM   27  O1  UNL     1      14.201  23.137  64.221  1.00  0.00    -0.353 OA
HETATM   28  C1  UNL     1      14.594  22.990  65.551  1.00  0.00     0.210 C 
ENDBRANCH   1  27
BRANCH   6  29
HETATM   29  O4  UNL     1      16.211  22.697  62.351  1.00  0.00    -0.344 OA
BRANCH  29  30
HETATM   30  C23 UNL     1      17.028  22.690  61.220  1.00  0.00     0.216 C 
BRANCH  30  31
HETATM   31  C24 UNL     1      17.387  24.049  60.760  1.00  0.00    -0.008 A 
HETATM   32  C25 UNL     1      16.793  24.681  59.691  1.00  0.00     0.036 A 
HETATM   33  C26 UNL     1      17.151  25.955  59.288  1.00  0.00     0.059 A 
HETATM   34 CL1  UNL     1      16.400  26.761  57.929  1.00  0.00    -0.082 Cl
HETATM   35  C27 UNL     1      18.140  26.632  59.973  1.00  0.00     0.090 A 
HETATM   36 CL2  UNL     1      18.660  28.245  59.538  1.00  0.00    -0.079 Cl
HETATM   37  C28 UNL     1      18.749  26.018  61.049  1.00  0.00     0.114 A 
HETATM   38  C30 UNL     1      18.371  24.744  61.430  1.00  0.00     0.077 A 
HETATM   39 CL3  UNL     1      19.158  23.986  62.796  1.00  0.00    -0.081 Cl
BRANCH  37  40
HETATM   40  O5  UNL     1      19.740  26.691  61.740  1.00  0.00    -0.352 OA
HETATM   41  C29 UNL     1      19.432  27.486  62.874  1.00  0.00     0.210 C 
ENDBRANCH  37  40
ENDBRANCH  30  31
ENDBRANCH  29  30
ENDBRANCH   6  29
TORSDOF 12
ENDMDL
MODEL 5
REMARK VINA RESULT: -8.886116024      2.145      3.181
REMARK  12 active torsions:
REMARK  status: ('A' for Active; 'I' for Inactive)
REMARK    1  A    between atoms: O1_2  and  C2_3 
REMARK    2  A    between atoms: C4_5  and  C5_6 
REMARK    3  A    between atoms: C6_7  and  C7_8 
REMARK    4  A    between atoms: C10_11  and  C11_12 
REMARK    5  A    between atoms: C11_12  and  O2_13 
REMARK    6  A    between atoms: O2_13  and  C12_14 
REMARK    7  A    between atoms: N1_17  and  C15_18 
REMARK    8  A    between atoms: C18_22  and  O3_23 
REMARK    9  A    between atoms: C22_28  and  O4_29 
REMARK   10  A    between atoms: O4_29  and  C23_30 
REMARK   11  A    between atoms: C23_30  and  C24_31 
REMARK   12  A    between atoms: C28_37  and  O5_38 
ROOT
HETATM    1  C2  UNL     1      14.825  22.685  65.592  1.00  0.00     0.102 A 
HETATM    2  C3  UNL     1      13.689  21.913  65.598  1.00  0.00     0.051 A 
HETATM    3  C4  UNL     1      13.419  20.975  64.605  1.00  0.00    -0.033 A 
HETATM    4  C20 UNL     1      14.339  20.851  63.611  1.00  0.00     0.014 A 
HETATM    5  C21 UNL     1      15.500  21.617  63.575  1.00  0.00     0.040 A 
HETATM    6  C22 UNL     1      15.756  22.539  64.560  1.00  0.00     0.102 A 
ENDROOT
BRANCH   3   7
HETATM    7  C5  UNL     1      12.198  20.211  64.701  1.00  0.00     0.012 C 
HETATM    8  C6  UNL     1      11.492  20.184  65.799  1.00  0.00     0.012 C 
BRANCH   8   9
HETATM    9  C7  UNL     1      10.257  19.445  65.984  1.00  0.00    -0.034 A 
HETATM   10  C8  UNL     1       9.055  19.913  65.442  1.00  0.00     0.012 A 
HETATM   11  C9  UNL     1       7.861  19.245  65.591  1.00  0.00     0.013 A 
HETATM   12  C10 UNL     1       7.811  18.064  66.295  1.00  0.00    -0.001 A 
HETATM   13  C18 UNL     1       8.987  17.598  66.831  1.00  0.00     0.074 A 
HETATM   14  C19 UNL     1      10.199  18.273  66.683  1.00  0.00     0.048 A 
BRANCH  12  15
HETATM   15  C11 UNL     1       6.534  17.334  66.459  1.00  0.00     0.211 C 
BRANCH  15  16
HETATM   16  O2  UNL     1       6.574  16.080  65.851  1.00  0.00    -0.364 OA
BRANCH  16  17
HETATM   17  C12 UNL     1       6.876  16.206  64.497  1.00  0.00     0.230 C 
HETATM   18  C13 UNL     1       5.719  15.633  63.703  1.00  0.00     0.066 C 
HETATM   19  C14 UNL     1       6.425  15.095  62.476  1.00  0.00     0.114 C 
HETATM   20  N1  UNL     1       7.809  14.975  62.799  1.00  0.00    -0.228 NA
HETATM   21  N2  UNL     1       8.003  15.437  64.076  1.00  0.00    -0.132 NA
BRANCH  20  22
HETATM   22  C15 UNL     1       8.689  15.563  61.820  1.00  0.00     0.068 C 
HETATM   23  C16 UNL     1       9.436  16.760  62.371  1.00  0.00     0.027 C 
HETATM   24  C17 UNL     1       7.997  15.983  60.570  1.00  0.00     0.027 C 
ENDBRANCH  20  22
ENDBRANCH  16  17
ENDBRANCH  15  16
ENDBRANCH  12  15
BRANCH  13  25
HETATM   25  O3  UNL     1       8.950  16.417  67.539  1.00  0.00    -0.360 OA
ATOM     26  H3  UNL     1       9.771  15.962  67.689  1.00  0.00     0.217 HD
ENDBRANCH  13  25
ENDBRANCH   8   9
ENDBRANCH   3   7
BRANCH   1  27
HETATM   27  O1  UNL     1      15.036  23.598  66.606  1.00  0.00    -0.353 OA
HETATM   28  C1  UNL     1      14.612  24.921  66.487  1.00  0.00     0.210 C 
ENDBRANCH   1  27
BRANCH   6  29
HETATM   29  O4  UNL     1      16.902  23.324  64.564  1.00  0.00    -0.344 OA
BRANCH  29  30
HETATM   30  C23 UNL     1      17.812  23.221  63.510  1.00  0.00     0.216 C 
BRANCH  30  31
HETATM   31  C24 UNL     1      18.083  24.518  62.854  1.00  0.00    -0.008 A 
HETATM   32  C25 UNL     1      18.398  25.673  63.533  1.00  0.00     0.036 A 
HETATM   33  C26 UNL     1      18.648  26.871  62.889  1.00  0.00     0.059 A 
HETATM   34 CL1  UNL     1      19.047  28.341  63.749  1.00  0.00    -0.082 Cl
HETATM   35  C27 UNL     1      18.584  26.928  61.511  1.00  0.00     0.090 A 
HETATM   36 CL2  UNL     1      18.883  28.396  60.608  1.00  0.00    -0.079 Cl
HETATM   37  C28 UNL     1      18.270  25.781  60.808  1.00  0.00     0.114 A 
HETATM   38  C30 UNL     1      18.025  24.598  61.479  1.00  0.00     0.077 A 
HETATM   39 CL3  UNL     1      17.629  23.158  60.567  1.00  0.00    -0.081 Cl
BRANCH  37  40
HETATM   40  O5  UNL     1      18.204  25.831  59.428  1.00  0.00    -0.352 OA
HETATM   41  C29 UNL     1      16.973  26.069  58.762  1.00  0.00     0.210 C 
ENDBRANCH  37  40
ENDBRANCH  30  31
ENDBRANCH  29  30
ENDBRANCH   6  29
TORSDOF 12
ENDMDL
