MODEL 1
REMARK VINA RESULT: -8.383897017      0.000      0.000
REMARK  13 active torsions:
REMARK  status: ('A' for Active; 'I' for Inactive)
REMARK    1  A    between atoms: C2_2  and  O1_3 
REMARK    2  A    between atoms: O1_3  and  C3_4 
REMARK    3  A    between atoms: C6_7  and  N1_8 
REMARK    4  A    between atoms: N1_8  and  C7_10 
REMARK    5  A    between atoms: C10_14  and  O2_15 
REMARK    6  A    between atoms: O2_15  and  C11_16 
REMARK    7  A    between atoms: C11_16  and  C12_17 
REMARK    8  A    between atoms: C14_19  and  C15_20 
REMARK    9  A    between atoms: C24_36  and  O3_37 
REMARK   10  A    between atoms: O3_37  and  C25_38 
REMARK   11  A    between atoms: C25_38  and  C26_39 
REMARK   12  A    between atoms: C26_39  and  C27_40 
REMARK   13  A    between atoms: C27_40  and  N4_41 
ROOT
HETATM    1  C3  UNL     1      12.076  19.988  62.988  1.00  0.00     0.103 A 
HETATM    2  C4  UNL     1      13.159  20.638  62.456  1.00  0.00     0.057 A 
HETATM    3  C5  UNL     1      13.889  21.541  63.181  1.00  0.00     0.038 A 
HETATM    4  C6  UNL     1      14.980  22.205  62.667  1.00  0.00     0.119 A 
HETATM    5  N2  UNL     1      15.632  23.073  63.459  1.00  0.00    -0.332 N 
ATOM      6  H2  UNL     1      16.441  23.566  63.079  1.00  0.00     0.168 HD
HETATM    7  C20 UNL     1      15.266  23.321  64.730  1.00  0.00     0.079 A 
HETATM    8  C21 UNL     1      16.053  24.309  65.545  1.00  0.00     0.089 C 
HETATM    9  N3  UNL     1      14.205  22.682  65.247  1.00  0.00    -0.345 N 
ATOM     10  H3  UNL     1      13.913  22.858  66.208  1.00  0.00     0.167 HD
HETATM   11  C22 UNL     1      13.529  21.804  64.475  1.00  0.00     0.050 A 
HETATM   12  C23 UNL     1      12.427  21.144  65.022  1.00  0.00     0.070 A 
HETATM   13  C24 UNL     1      11.671  20.234  64.327  1.00  0.00     0.104 A 
ENDROOT
BRANCH   4  14
HETATM   14  N1  UNL     1      15.310  21.957  61.462  1.00  0.00    -0.342 N 
ATOM     15  H1  UNL     1      14.737  21.299  60.932  1.00  0.00     0.167 HD
BRANCH  14  16
HETATM   16  C7  UNL     1      16.444  22.553  60.802  1.00  0.00     0.037 A 
HETATM   17  C8  UNL     1      16.335  23.820  60.268  1.00  0.00     0.056 A 
HETATM   18  C9  UNL     1      17.424  24.415  59.626  1.00  0.00     0.071 A 
HETATM   19 CL1  UNL     1      17.162  26.013  58.972  1.00  0.00    -0.081 Cl
HETATM   20  C10 UNL     1      18.626  23.771  59.503  1.00  0.00     0.112 A 
HETATM   21  C18 UNL     1      18.701  22.505  60.048  1.00  0.00     0.071 A 
HETATM   22 CL4  UNL     1      20.201  21.569  59.953  1.00  0.00    -0.081 Cl
HETATM   23  C19 UNL     1      17.640  21.899  60.684  1.00  0.00     0.056 A 
BRANCH  20  24
HETATM   24  O2  UNL     1      19.711  24.297  58.897  1.00  0.00    -0.347 OA
BRANCH  24  25
HETATM   25  C11 UNL     1      19.907  24.786  57.624  1.00  0.00     0.180 C 
BRANCH  25  26
HETATM   26  C12 UNL     1      19.765  23.850  56.479  1.00  0.00     0.011 C 
HETATM   27  C13 UNL     1      20.800  22.714  56.652  1.00  0.00     0.014 C 
HETATM   28  C14 UNL     1      21.747  23.454  55.700  1.00  0.00     0.025 C 
HETATM   29  C17 UNL     1      20.522  24.214  55.224  1.00  0.00     0.014 C 
BRANCH  28  30
HETATM   30  C15 UNL     1      22.335  22.494  54.715  1.00  0.00     0.113 C 
HETATM   31  C16 UNL     1      23.415  23.185  53.899  1.00  0.00     0.051 C 
HETATM   32 CL2  UNL     1      21.099  21.775  53.666  1.00  0.00    -0.102 Cl
HETATM   33 CL3  UNL     1      23.121  21.184  55.626  1.00  0.00    -0.102 Cl
ENDBRANCH  28  30
ENDBRANCH  25  26
ENDBRANCH  24  25
ENDBRANCH  20  24
ENDBRANCH  14  16
ENDBRANCH   4  14
BRANCH   1  34
HETATM   34  O1  UNL     1      11.317  19.075  62.300  1.00  0.00    -0.349 OA
BRANCH  34  35
HETATM   35  C2  UNL     1      11.687  17.783  61.922  1.00  0.00     0.171 C 
HETATM   36  C1  UNL     1      10.908  17.355  60.704  1.00  0.00     0.034 C 
ENDBRANCH  34  35
ENDBRANCH   1  34
BRANCH  13  37
HETATM   37  O3  UNL     1      10.587  19.575  64.825  1.00  0.00    -0.348 OA
BRANCH  37  38
HETATM   38  C25 UNL     1       9.743  19.819  65.880  1.00  0.00     0.177 C 
BRANCH  38  39
HETATM   39  C26 UNL     1       9.408  18.649  66.755  1.00  0.00     0.054 C 
BRANCH  39  40
HETATM   40  C27 UNL     1       8.686  17.550  65.992  1.00  0.00     0.234 C 
BRANCH  40  41
HETATM   41  N4  UNL     1       9.519  16.953  64.986  1.00  0.00    -0.079 N 
HETATM   42  C28 UNL     1       8.734  16.534  63.869  1.00  0.00     0.266 C 
ATOM     43  H42 UNL     1      10.278  17.574  64.704  1.00  0.00     0.276 HD
ATOM     44  H41 UNL     1      10.080  16.189  65.364  1.00  0.00     0.276 HD
ENDBRANCH  40  41
ENDBRANCH  39  40
ENDBRANCH  38  39
ENDBRANCH  37  38
ENDBRANCH  13  37
TORSDOF 13
ENDMDL
MODEL 2
REMARK VINA RESULT: -8.376235671      3.362      5.588
REMARK  13 active torsions:
REMARK  status: ('A' for Active; 'I' for Inactive)
REMARK    1  A    between atoms: C2_2  and  O1_3 
REMARK    2  A    between atoms: O1_3  and  C3_4 
REMARK    3  A    between atoms: C6_7  and  N1_8 
REMARK    4  A    between atoms: N1_8  and  C7_10 
REMARK    5  A    between atoms: C10_14  and  O2_15 
REMARK    6  A    between atoms: O2_15  and  C11_16 
REMARK    7  A    between atoms: C11_16  and  C12_17 
REMARK    8  A    between atoms: C14_19  and  C15_20 
REMARK    9  A    between atoms: C24_36  and  O3_37 
REMARK   10  A    between atoms: O3_37  and  C25_38 
REMARK   11  A    between atoms: C25_38  and  C26_39 
REMARK   12  A    between atoms: C26_39  and  C27_40 
REMARK   13  A    between atoms: C27_40  and  N4_41 
ROOT
HETATM    1  C3  UNL     1       9.411  17.247  61.846  1.00  0.00     0.103 A 
HETATM    2  C4  UNL     1       9.992  18.381  62.349  1.00  0.00     0.057 A 
HETATM    3  C5  UNL     1      10.091  18.606  63.696  1.00  0.00     0.038 A 
HETATM    4  C6  UNL     1      10.671  19.738  64.224  1.00  0.00     0.119 A 
HETATM    5  N2  UNL     1      10.721  19.867  65.561  1.00  0.00    -0.332 N 
ATOM      6  H2  UNL     1      11.150  20.705  65.954  1.00  0.00     0.168 HD
HETATM    7  C20 UNL     1      10.231  18.939  66.404  1.00  0.00     0.079 A 
HETATM    8  C21 UNL     1      10.330  19.165  67.887  1.00  0.00     0.089 C 
HETATM    9  N3  UNL     1       9.664  17.830  65.906  1.00  0.00    -0.345 N 
ATOM     10  H3  UNL     1       9.288  17.116  66.531  1.00  0.00     0.167 HD
HETATM   11  C22 UNL     1       9.598  17.672  64.566  1.00  0.00     0.050 A 
HETATM   12  C23 UNL     1       9.006  16.514  64.058  1.00  0.00     0.070 A 
HETATM   13  C24 UNL     1       8.887  16.254  62.716  1.00  0.00     0.104 A 
ENDROOT
BRANCH   4  14
HETATM   14  N1  UNL     1      11.127  20.604  63.409  1.00  0.00    -0.342 N 
ATOM     15  H1  UNL     1      10.478  21.031  62.748  1.00  0.00     0.167 HD
BRANCH  14  16
HETATM   16  C7  UNL     1      12.507  21.017  63.368  1.00  0.00     0.037 A 
HETATM   17  C8  UNL     1      12.909  22.125  64.085  1.00  0.00     0.056 A 
HETATM   18  C9  UNL     1      14.243  22.540  64.059  1.00  0.00     0.071 A 
HETATM   19 CL1  UNL     1      14.630  23.966  64.990  1.00  0.00    -0.081 Cl
HETATM   20  C10 UNL     1      15.190  21.874  63.329  1.00  0.00     0.112 A 
HETATM   21  C18 UNL     1      14.753  20.771  62.622  1.00  0.00     0.071 A 
HETATM   22 CL4  UNL     1      15.882  19.825  61.638  1.00  0.00    -0.081 Cl
HETATM   23  C19 UNL     1      13.444  20.344  62.633  1.00  0.00     0.056 A 
BRANCH  20  24
HETATM   24  O2  UNL     1      16.491  22.227  63.268  1.00  0.00    -0.347 OA
BRANCH  24  25
HETATM   25  C11 UNL     1      17.149  23.190  62.535  1.00  0.00     0.180 C 
BRANCH  25  26
HETATM   26  C12 UNL     1      17.438  22.914  61.104  1.00  0.00     0.011 C 
HETATM   27  C13 UNL     1      18.585  23.848  60.655  1.00  0.00     0.014 C 
HETATM   28  C14 UNL     1      17.548  24.815  60.073  1.00  0.00     0.025 C 
HETATM   29  C17 UNL     1      16.582  23.644  60.098  1.00  0.00     0.014 C 
BRANCH  28  30
HETATM   30  C15 UNL     1      17.976  25.270  58.714  1.00  0.00     0.113 C 
HETATM   31  C16 UNL     1      16.978  26.277  58.166  1.00  0.00     0.051 C 
HETATM   32 CL2  UNL     1      18.198  23.912  57.597  1.00  0.00    -0.102 Cl
HETATM   33 CL3  UNL     1      19.535  26.112  58.883  1.00  0.00    -0.102 Cl
ENDBRANCH  28  30
ENDBRANCH  25  26
ENDBRANCH  24  25
ENDBRANCH  20  24
ENDBRANCH  14  16
ENDBRANCH   4  14
BRANCH   1  34
HETATM   34  O1  UNL     1       9.290  16.979  60.505  1.00  0.00    -0.349 OA
BRANCH  34  35
HETATM   35  C2  UNL     1      10.280  17.100  59.528  1.00  0.00     0.171 C 
HETATM   36  C1  UNL     1      11.609  16.642  60.075  1.00  0.00     0.034 C 
ENDBRANCH  34  35
ENDBRANCH   1  34
BRANCH  13  37
HETATM   37  O3  UNL     1       8.312  15.139  62.184  1.00  0.00    -0.348 OA
BRANCH  37  38
HETATM   38  C25 UNL     1       7.008  14.754  61.992  1.00  0.00     0.177 C 
BRANCH  38  39
HETATM   39  C26 UNL     1       6.025  15.845  61.693  1.00  0.00     0.054 C 
BRANCH  39  40
HETATM   40  C27 UNL     1       4.999  16.012  62.803  1.00  0.00     0.234 C 
BRANCH  40  41
HETATM   41  N4  UNL     1       5.493  15.549  64.069  1.00  0.00    -0.079 N 
HETATM   42  C28 UNL     1       5.496  16.611  65.025  1.00  0.00     0.266 C 
ATOM     43  H42 UNL     1       4.973  14.738  64.406  1.00  0.00     0.276 HD
ATOM     44  H41 UNL     1       6.412  15.115  63.982  1.00  0.00     0.276 HD
ENDBRANCH  40  41
ENDBRANCH  39  40
ENDBRANCH  38  39
ENDBRANCH  37  38
ENDBRANCH  13  37
TORSDOF 13
ENDMDL
MODEL 3
REMARK VINA RESULT: -8.370672568      3.353      5.675
REMARK  13 active torsions:
REMARK  status: ('A' for Active; 'I' for Inactive)
REMARK    1  A    between atoms: C2_2  and  O1_3 
REMARK    2  A    between atoms: O1_3  and  C3_4 
REMARK    3  A    between atoms: C6_7  and  N1_8 
REMARK    4  A    between atoms: N1_8  and  C7_10 
REMARK    5  A    between atoms: C10_14  and  O2_15 
REMARK    6  A    between atoms: O2_15  and  C11_16 
REMARK    7  A    between atoms: C11_16  and  C12_17 
REMARK    8  A    between atoms: C14_19  and  C15_20 
REMARK    9  A    between atoms: C24_36  and  O3_37 
REMARK   10  A    between atoms: O3_37  and  C25_38 
REMARK   11  A    between atoms: C25_38  and  C26_39 
REMARK   12  A    between atoms: C26_39  and  C27_40 
REMARK   13  A    between atoms: C27_40  and  N4_41 
ROOT
HETATM    1  C3  UNL     1       9.420  17.256  61.838  1.00  0.00     0.103 A 
HETATM    2  C4  UNL     1      10.013  18.388  62.332  1.00  0.00     0.057 A 
HETATM    3  C5  UNL     1      10.118  18.620  63.677  1.00  0.00     0.038 A 
HETATM    4  C6  UNL     1      10.710  19.750  64.197  1.00  0.00     0.119 A 
HETATM    5  N2  UNL     1      10.766  19.886  65.533  1.00  0.00    -0.332 N 
ATOM      6  H2  UNL     1      11.203  20.722  65.920  1.00  0.00     0.168 HD
HETATM    7  C20 UNL     1      10.269  18.968  66.383  1.00  0.00     0.079 A 
HETATM    8  C21 UNL     1      10.375  19.202  67.864  1.00  0.00     0.089 C 
HETATM    9  N3  UNL     1       9.690  17.861  65.894  1.00  0.00    -0.345 N 
ATOM     10  H3  UNL     1       9.309  17.155  66.523  1.00  0.00     0.167 HD
HETATM   11  C22 UNL     1       9.619  17.696  64.554  1.00  0.00     0.050 A 
HETATM   12  C23 UNL     1       9.014  16.541  64.055  1.00  0.00     0.070 A 
HETATM   13  C24 UNL     1       8.889  16.274  62.715  1.00  0.00     0.104 A 
ENDROOT
BRANCH   4  14
HETATM   14  N1  UNL     1      11.172  20.607  63.376  1.00  0.00    -0.342 N 
ATOM     15  H1  UNL     1      10.534  21.004  62.687  1.00  0.00     0.167 HD
BRANCH  14  16
HETATM   16  C7  UNL     1      12.544  21.048  63.365  1.00  0.00     0.037 A 
HETATM   17  C8  UNL     1      13.474  20.365  62.609  1.00  0.00     0.056 A 
HETATM   18  C9  UNL     1      14.809  20.778  62.583  1.00  0.00     0.071 A 
HETATM   19 CL1  UNL     1      15.898  19.824  61.607  1.00  0.00    -0.081 Cl
HETATM   20  C10 UNL     1      15.240  21.862  63.299  1.00  0.00     0.112 A 
HETATM   21  C18 UNL     1      14.284  22.522  64.046  1.00  0.00     0.071 A 
HETATM   22 CL4  UNL     1      14.716  23.939  65.016  1.00  0.00    -0.081 Cl
HETATM   23  C19 UNL     1      12.963  22.132  64.086  1.00  0.00     0.056 A 
BRANCH  20  24
HETATM   24  O2  UNL     1      16.513  22.308  63.311  1.00  0.00    -0.347 OA
BRANCH  24  25
HETATM   25  C11 UNL     1      17.161  23.261  62.557  1.00  0.00     0.180 C 
BRANCH  25  26
HETATM   26  C12 UNL     1      17.452  22.956  61.132  1.00  0.00     0.011 C 
HETATM   27  C13 UNL     1      18.606  23.875  60.668  1.00  0.00     0.014 C 
HETATM   28  C14 UNL     1      17.576  24.838  60.067  1.00  0.00     0.025 C 
HETATM   29  C17 UNL     1      16.602  23.673  60.111  1.00  0.00     0.014 C 
BRANCH  28  30
HETATM   30  C15 UNL     1      18.011  25.265  58.700  1.00  0.00     0.113 C 
HETATM   31  C16 UNL     1      17.043  26.299  58.148  1.00  0.00     0.051 C 
HETATM   32 CL2  UNL     1      18.180  23.889  57.595  1.00  0.00    -0.102 Cl
HETATM   33 CL3  UNL     1      19.597  26.057  58.851  1.00  0.00    -0.102 Cl
ENDBRANCH  28  30
ENDBRANCH  25  26
ENDBRANCH  24  25
ENDBRANCH  20  24
ENDBRANCH  14  16
ENDBRANCH   4  14
BRANCH   1  34
HETATM   34  O1  UNL     1       9.293  16.982  60.499  1.00  0.00    -0.349 OA
BRANCH  34  35
HETATM   35  C2  UNL     1      10.267  17.132  59.510  1.00  0.00     0.171 C 
HETATM   36  C1  UNL     1      11.596  16.623  60.008  1.00  0.00     0.034 C 
ENDBRANCH  34  35
ENDBRANCH   1  34
BRANCH  13  37
HETATM   37  O3  UNL     1       8.302  15.162  62.191  1.00  0.00    -0.348 OA
BRANCH  37  38
HETATM   38  C25 UNL     1       6.994  14.772  62.040  1.00  0.00     0.177 C 
BRANCH  38  39
HETATM   39  C26 UNL     1       6.001  15.856  61.747  1.00  0.00     0.054 C 
BRANCH  39  40
HETATM   40  C27 UNL     1       4.969  16.001  62.854  1.00  0.00     0.234 C 
BRANCH  40  41
HETATM   41  N4  UNL     1       5.484  15.591  64.131  1.00  0.00    -0.079 N 
HETATM   42  C28 UNL     1       5.540  16.701  65.028  1.00  0.00     0.266 C 
ATOM     43  H42 UNL     1       4.951  14.814  64.523  1.00  0.00     0.276 HD
ATOM     44  H41 UNL     1       6.388  15.127  64.043  1.00  0.00     0.276 HD
ENDBRANCH  40  41
ENDBRANCH  39  40
ENDBRANCH  38  39
ENDBRANCH  37  38
ENDBRANCH  13  37
TORSDOF 13
ENDMDL
MODEL 4
REMARK VINA RESULT: -8.325790069      0.469      1.523
REMARK  13 active torsions:
REMARK  status: ('A' for Active; 'I' for Inactive)
REMARK    1  A    between atoms: C2_2  and  O1_3 
REMARK    2  A    between atoms: O1_3  and  C3_4 
REMARK    3  A    between atoms: C6_7  and  N1_8 
REMARK    4  A    between atoms: N1_8  and  C7_10 
REMARK    5  A    between atoms: C10_14  and  O2_15 
REMARK    6  A    between atoms: O2_15  and  C11_16 
REMARK    7  A    between atoms: C11_16  and  C12_17 
REMARK    8  A    between atoms: C14_19  and  C15_20 
REMARK    9  A    between atoms: C24_36  and  O3_37 
REMARK   10  A    between atoms: O3_37  and  C25_38 
REMARK   11  A    between atoms: C25_38  and  C26_39 
REMARK   12  A    between atoms: C26_39  and  C27_40 
REMARK   13  A    between atoms: C27_40  and  N4_41 
ROOT
HETATM    1  C3  UNL     1      12.098  19.930  62.931  1.00  0.00     0.103 A 
HETATM    2  C4  UNL     1      13.160  20.615  62.401  1.00  0.00     0.057 A 
HETATM    3  C5  UNL     1      13.860  21.539  63.129  1.00  0.00     0.038 A 
HETATM    4  C6  UNL     1      14.930  22.238  62.617  1.00  0.00     0.119 A 
HETATM    5  N2  UNL     1      15.554  23.126  63.412  1.00  0.00    -0.332 N 
ATOM      6  H2  UNL     1      16.347  23.645  63.035  1.00  0.00     0.168 HD
HETATM    7  C20 UNL     1      15.178  23.359  64.683  1.00  0.00     0.079 A 
HETATM    8  C21 UNL     1      15.933  24.370  65.501  1.00  0.00     0.089 C 
HETATM    9  N3  UNL     1      14.138  22.686  65.198  1.00  0.00    -0.345 N 
ATOM     10  H3  UNL     1      13.840  22.850  66.159  1.00  0.00     0.167 HD
HETATM   11  C22 UNL     1      13.491  21.788  64.422  1.00  0.00     0.050 A 
HETATM   12  C23 UNL     1      12.409  21.093  64.967  1.00  0.00     0.070 A 
HETATM   13  C24 UNL     1      11.683  20.160  64.269  1.00  0.00     0.104 A 
ENDROOT
BRANCH   4  14
HETATM   14  N1  UNL     1      15.270  22.004  61.412  1.00  0.00    -0.342 N 
ATOM     15  H1  UNL     1      14.701  21.352  60.872  1.00  0.00     0.167 HD
BRANCH  14  16
HETATM   16  C7  UNL     1      16.409  22.607  60.768  1.00  0.00     0.037 A 
HETATM   17  C8  UNL     1      17.602  21.915  60.705  1.00  0.00     0.056 A 
HETATM   18  C9  UNL     1      18.718  22.482  60.084  1.00  0.00     0.071 A 
HETATM   19 CL1  UNL     1      20.176  21.522  60.083  1.00  0.00    -0.081 Cl
HETATM   20  C10 UNL     1      18.672  23.729  59.521  1.00  0.00     0.112 A 
HETATM   21  C18 UNL     1      17.464  24.393  59.602  1.00  0.00     0.071 A 
HETATM   22 CL4  UNL     1      17.277  26.013  58.913  1.00  0.00    -0.081 Cl
HETATM   23  C19 UNL     1      16.351  23.854  60.211  1.00  0.00     0.056 A 
BRANCH  20  24
HETATM   24  O2  UNL     1      19.715  24.324  58.906  1.00  0.00    -0.347 OA
BRANCH  24  25
HETATM   25  C11 UNL     1      19.929  24.677  57.592  1.00  0.00     0.180 C 
BRANCH  25  26
HETATM   26  C12 UNL     1      19.804  23.626  56.550  1.00  0.00     0.011 C 
HETATM   27  C13 UNL     1      20.908  22.571  56.793  1.00  0.00     0.014 C 
HETATM   28  C14 UNL     1      21.778  23.263  55.737  1.00  0.00     0.025 C 
HETATM   29  C17 UNL     1      20.496  23.903  55.237  1.00  0.00     0.014 C 
BRANCH  28  30
HETATM   30  C15 UNL     1      22.388  22.243  54.828  1.00  0.00     0.113 C 
HETATM   31  C16 UNL     1      23.603  22.832  54.129  1.00  0.00     0.051 C 
HETATM   32 CL2  UNL     1      21.217  21.610  53.656  1.00  0.00    -0.102 Cl
HETATM   33 CL3  UNL     1      22.962  20.888  55.828  1.00  0.00    -0.102 Cl
ENDBRANCH  28  30
ENDBRANCH  25  26
ENDBRANCH  24  25
ENDBRANCH  20  24
ENDBRANCH  14  16
ENDBRANCH   4  14
BRANCH   1  34
HETATM   34  O1  UNL     1      11.369  18.995  62.239  1.00  0.00    -0.349 OA
BRANCH  34  35
HETATM   35  C2  UNL     1      11.811  17.754  61.776  1.00  0.00     0.171 C 
HETATM   36  C1  UNL     1      11.038  17.353  60.545  1.00  0.00     0.034 C 
ENDBRANCH  34  35
ENDBRANCH   1  34
BRANCH  13  37
HETATM   37  O3  UNL     1      10.621  19.466  64.765  1.00  0.00    -0.348 OA
BRANCH  37  38
HETATM   38  C25 UNL     1       9.628  19.780  65.660  1.00  0.00     0.177 C 
BRANCH  38  39
HETATM   39  C26 UNL     1       8.402  18.919  65.630  1.00  0.00     0.054 C 
BRANCH  39  40
HETATM   40  C27 UNL     1       8.665  17.569  64.983  1.00  0.00     0.234 C 
BRANCH  40  41
HETATM   41  N4  UNL     1       8.665  17.648  63.549  1.00  0.00    -0.079 N 
HETATM   42  C28 UNL     1       8.529  16.347  62.976  1.00  0.00     0.266 C 
ATOM     43  H42 UNL     1       7.951  18.290  63.204  1.00  0.00     0.276 HD
ATOM     44  H41 UNL     1       9.490  18.134  63.196  1.00  0.00     0.276 HD
ENDBRANCH  40  41
ENDBRANCH  39  40
ENDBRANCH  38  39
ENDBRANCH  37  38
ENDBRANCH  13  37
TORSDOF 13
ENDMDL
MODEL 5
REMARK VINA RESULT: -8.174599189      7.195     14.926
REMARK  13 active torsions:
REMARK  status: ('A' for Active; 'I' for Inactive)
REMARK    1  A    between atoms: C2_2  and  O1_3 
REMARK    2  A    between atoms: O1_3  and  C3_4 
REMARK    3  A    between atoms: C6_7  and  N1_8 
REMARK    4  A    between atoms: N1_8  and  C7_10 
REMARK    5  A    between atoms: C10_14  and  O2_15 
REMARK    6  A    between atoms: O2_15  and  C11_16 
REMARK    7  A    between atoms: C11_16  and  C12_17 
REMARK    8  A    between atoms: C14_19  and  C15_20 
REMARK    9  A    between atoms: C24_36  and  O3_37 
REMARK   10  A    between atoms: O3_37  and  C25_38 
REMARK   11  A    between atoms: C25_38  and  C26_39 
REMARK   12  A    between atoms: C26_39  and  C27_40 
REMARK   13  A    between atoms: C27_40  and  N4_41 
ROOT
HETATM    1  C3  UNL     1      12.691  20.861  63.968  1.00  0.00     0.103 A 
HETATM    2  C4  UNL     1      11.525  20.360  64.484  1.00  0.00     0.057 A 
HETATM    3  C5  UNL     1      10.794  19.406  63.826  1.00  0.00     0.038 A 
HETATM    4  C6  UNL     1       9.621  18.888  64.325  1.00  0.00     0.119 A 
HETATM    5  N2  UNL     1       8.976  17.954  63.604  1.00  0.00    -0.332 N 
ATOM      6  H2  UNL     1       8.106  17.569  63.972  1.00  0.00     0.168 HD
HETATM    7  C20 UNL     1       9.427  17.505  62.418  1.00  0.00     0.079 A 
HETATM    8  C21 UNL     1       8.642  16.458  61.679  1.00  0.00     0.089 C 
HETATM    9  N3  UNL     1      10.570  17.999  61.918  1.00  0.00    -0.345 N 
ATOM     10  H3  UNL     1      10.927  17.670  61.021  1.00  0.00     0.167 HD
HETATM   11  C22 UNL     1      11.240  18.940  62.619  1.00  0.00     0.050 A 
HETATM   12  C23 UNL     1      12.428  19.447  62.090  1.00  0.00     0.070 A 
HETATM   13  C24 UNL     1      13.186  20.403  62.719  1.00  0.00     0.104 A 
ENDROOT
BRANCH   4  14
HETATM   14  N1  UNL     1       9.210  19.326  65.448  1.00  0.00    -0.342 N 
ATOM     15  H1  UNL     1       9.698  20.122  65.861  1.00  0.00     0.167 HD
BRANCH  14  16
HETATM   16  C7  UNL     1       8.096  18.765  66.169  1.00  0.00     0.037 A 
HETATM   17  C8  UNL     1       6.810  18.992  65.723  1.00  0.00     0.056 A 
HETATM   18  C9  UNL     1       5.717  18.455  66.408  1.00  0.00     0.071 A 
HETATM   19 CL1  UNL     1       4.138  18.826  65.761  1.00  0.00    -0.081 Cl
HETATM   20  C10 UNL     1       5.877  17.694  67.534  1.00  0.00     0.112 A 
HETATM   21  C18 UNL     1       7.176  17.487  67.954  1.00  0.00     0.071 A 
HETATM   22 CL4  UNL     1       7.515  16.520  69.398  1.00  0.00    -0.081 Cl
HETATM   23  C19 UNL     1       8.269  18.007  67.294  1.00  0.00     0.056 A 
BRANCH  20  24
HETATM   24  O2  UNL     1       4.860  17.148  68.234  1.00  0.00    -0.347 OA
BRANCH  24  25
HETATM   25  C11 UNL     1       3.732  17.700  68.798  1.00  0.00     0.180 C 
BRANCH  25  26
HETATM   26  C12 UNL     1       3.887  18.538  70.014  1.00  0.00     0.011 C 
HETATM   27  C13 UNL     1       4.749  17.756  71.032  1.00  0.00     0.014 C 
HETATM   28  C14 UNL     1       3.468  17.291  71.734  1.00  0.00     0.025 C 
HETATM   29  C17 UNL     1       2.778  18.447  71.033  1.00  0.00     0.014 C 
BRANCH  28  30
HETATM   30  C15 UNL     1       3.617  17.430  73.216  1.00  0.00     0.113 C 
HETATM   31  C16 UNL     1       2.309  17.072  73.904  1.00  0.00     0.051 C 
HETATM   32 CL2  UNL     1       4.165  19.050  73.682  1.00  0.00    -0.102 Cl
HETATM   33 CL3  UNL     1       4.836  16.253  73.759  1.00  0.00    -0.102 Cl
ENDBRANCH  28  30
ENDBRANCH  25  26
ENDBRANCH  24  25
ENDBRANCH  20  24
ENDBRANCH  14  16
ENDBRANCH   4  14
BRANCH   1  34
HETATM   34  O1  UNL     1      13.455  21.816  64.591  1.00  0.00    -0.349 OA
BRANCH  34  35
HETATM   35  C2  UNL     1      14.242  21.653  65.734  1.00  0.00     0.171 C 
HETATM   36  C1  UNL     1      14.500  22.990  66.382  1.00  0.00     0.034 C 
ENDBRANCH  34  35
ENDBRANCH   1  34
BRANCH  13  37
HETATM   37  O3  UNL     1      14.347  20.925  62.231  1.00  0.00    -0.348 OA
BRANCH  37  38
HETATM   38  C25 UNL     1      15.621  20.430  62.109  1.00  0.00     0.177 C 
BRANCH  38  39
HETATM   39  C26 UNL     1      16.590  21.258  61.319  1.00  0.00     0.054 C 
BRANCH  39  40
HETATM   40  C27 UNL     1      16.407  22.746  61.570  1.00  0.00     0.234 C 
BRANCH  40  41
HETATM   41  N4  UNL     1      16.056  23.026  62.934  1.00  0.00    -0.079 N 
HETATM   42  C28 UNL     1      17.213  23.397  63.684  1.00  0.00     0.266 C 
ATOM     43  H42 UNL     1      15.320  23.730  63.000  1.00  0.00     0.276 HD
ATOM     44  H41 UNL     1      15.558  22.246  63.365  1.00  0.00     0.276 HD
ENDBRANCH  40  41
ENDBRANCH  39  40
ENDBRANCH  38  39
ENDBRANCH  37  38
ENDBRANCH  13  37
TORSDOF 13
ENDMDL
