MODEL 1
REMARK VINA RESULT: -9.810028784      0.000      0.000
REMARK  14 active torsions:
REMARK  status: ('A' for Active; 'I' for Inactive)
REMARK    1  A    between atoms: C8_8  and  C9_9 
REMARK    2  A    between atoms: C9_9  and  C10_10 
REMARK    3  A    between atoms: C10_10  and  C11_11 
REMARK       I    between atoms: C11_11  and  N1_13 
REMARK       I    between atoms: N1_13  and  C12_15 
REMARK    4  A    between atoms: C12_15  and  C13_17 
REMARK       I    between atoms: N2_19  and  C15_20 
REMARK       I    between atoms: C15_20  and  N3_22 
REMARK    5  A    between atoms: N3_22  and  C16_24 
REMARK    6  A    between atoms: C23_31  and  C24_32 
REMARK       I    between atoms: C24_32  and  N4_34 
REMARK    7  A    between atoms: N4_34  and  C25_36 
REMARK    8  A    between atoms: C25_36  and  C26_37 
REMARK    9  A    between atoms: C26_37  and  C27_38 
REMARK   10  A    between atoms: C27_38  and  C28_39 
REMARK   11  A    between atoms: C28_39  and  C29_40 
REMARK   12  A    between atoms: C29_40  and  C30_41 
REMARK   13  A    between atoms: C30_41  and  C31_42 
REMARK   14  A    between atoms: C31_42  and  C32_43 
ROOT
HETATM    1  C13 UNL     1      11.252  20.715  63.330  1.00  0.00     0.111 C 
HETATM    2  C14 UNL     1      12.179  21.701  63.957  1.00  0.00     0.142 C 
HETATM    3  N2  UNL     1      13.380  20.957  64.254  1.00  0.00    -0.333 N 
HETATM    4  C15 UNL     1      14.480  21.461  65.009  1.00  0.00     0.318 C 
HETATM    5  O3  UNL     1      15.447  20.719  65.203  1.00  0.00    -0.247 OA
HETATM    6  N3  UNL     1      14.426  22.790  65.503  1.00  0.00    -0.338 N 
ATOM      7  H3  UNL     1      13.591  23.339  65.299  1.00  0.00     0.164 HD
HETATM    8  C22 UNL     1      13.324  19.637  63.665  1.00  0.00     0.142 C 
HETATM    9  C23 UNL     1      12.148  19.711  62.687  1.00  0.00     0.110 C 
ENDROOT
BRANCH   1  10
HETATM   10  C12 UNL     1      10.254  20.160  64.267  1.00  0.00     0.230 C 
HETATM   11  N1  UNL     1      10.656  19.729  65.540  1.00  0.00    -0.297 N 
HETATM   12  C11 UNL     1       9.833  19.163  66.555  1.00  0.00     0.224 C 
ATOM     13  H1  UNL     1      11.647  19.832  65.763  1.00  0.00     0.171 HD
HETATM   14  O1  UNL     1      10.427  18.803  67.627  1.00  0.00    -0.273 OA
HETATM   15  O2  UNL     1       9.061  20.084  63.909  1.00  0.00    -0.273 OA
BRANCH  12  16
HETATM   16  C10 UNL     1       8.389  18.986  66.430  1.00  0.00     0.108 C 
BRANCH  16  17
HETATM   17  C9  UNL     1       7.516  20.057  66.983  1.00  0.00     0.048 C 
BRANCH  17  18
HETATM   18  C8  UNL     1       6.095  19.672  66.897  1.00  0.00    -0.057 A 
HETATM   19  C7  UNL     1       5.791  18.343  67.252  1.00  0.00     0.007 A 
HETATM   20  C6  UNL     1       4.496  17.910  67.163  1.00  0.00     0.008 A 
HETATM   21  C5  UNL     1       3.448  18.696  66.743  1.00  0.00    -0.051 A 
HETATM   22  C4  UNL     1       1.983  18.441  66.570  1.00  0.00     0.048 C 
HETATM   23  C34 UNL     1       3.741  19.992  66.395  1.00  0.00    -0.051 A 
HETATM   24  C2  UNL     1       1.531  19.590  65.708  1.00  0.00    -0.040 C 
HETATM   25  C1  UNL     1       0.121  19.948  66.151  1.00  0.00     0.015 C 
HETATM   26  C3  UNL     1       1.562  19.188  64.248  1.00  0.00     0.015 C 
HETATM   27  C35 UNL     1       2.511  20.679  65.983  1.00  0.00     0.048 C 
HETATM   28  C33 UNL     1       5.058  20.458  66.477  1.00  0.00     0.014 A 
ENDBRANCH  17  18
ENDBRANCH  16  17
ENDBRANCH  12  16
ENDBRANCH   1  10
BRANCH   9  29
HETATM   29  C24 UNL     1      11.583  18.378  62.447  1.00  0.00     0.224 C 
HETATM   30  O4  UNL     1      11.726  17.489  63.350  1.00  0.00    -0.273 OA
HETATM   31  N4  UNL     1      10.891  18.041  61.262  1.00  0.00    -0.361 N 
ATOM     32  H4  UNL     1      10.800  18.771  60.556  1.00  0.00     0.162 HD
BRANCH  31  33
HETATM   33  C25 UNL     1      10.302  16.759  60.960  1.00  0.00     0.122 C 
BRANCH  33  34
HETATM   34  C26 UNL     1       8.876  16.964  60.551  1.00  0.00     0.020 C 
BRANCH  34  35
HETATM   35  C27 UNL     1       8.329  18.145  61.291  1.00  0.00     0.002 C 
BRANCH  35  36
HETATM   36  C28 UNL     1       6.852  18.263  61.194  1.00  0.00     0.000 C 
BRANCH  36  37
HETATM   37  C29 UNL     1       6.156  17.238  62.044  1.00  0.00     0.001 C 
BRANCH  37  38
HETATM   38  C30 UNL     1       6.529  17.518  63.500  1.00  0.00     0.010 C 
BRANCH  38  39
HETATM   39  C31 UNL     1       6.370  16.216  64.225  1.00  0.00     0.113 C 
BRANCH  39  40
HETATM   40  C32 UNL     1       7.667  15.813  64.800  1.00  0.00     0.172 C 
HETATM   41  O5  UNL     1       8.657  15.648  64.033  1.00  0.00    -0.648 OA
HETATM   42  O6  UNL     1       7.781  15.620  66.178  1.00  0.00    -0.648 OA
ENDBRANCH  39  40
ENDBRANCH  38  39
ENDBRANCH  37  38
ENDBRANCH  36  37
ENDBRANCH  35  36
ENDBRANCH  34  35
ENDBRANCH  33  34
ENDBRANCH  31  33
ENDBRANCH   9  29
BRANCH   6  43
HETATM   43  C16 UNL     1      15.474  23.418  66.275  1.00  0.00     0.086 C 
HETATM   44  C17 UNL     1      15.167  23.473  67.736  1.00  0.00     0.025 C 
HETATM   45  C18 UNL     1      15.952  24.588  68.373  1.00  0.00     0.002 C 
HETATM   46  C19 UNL     1      17.319  24.792  67.743  1.00  0.00     0.000 C 
HETATM   47  C20 UNL     1      17.177  25.157  66.279  1.00  0.00     0.002 C 
HETATM   48  C21 UNL     1      15.772  24.816  65.787  1.00  0.00     0.025 C 
ENDBRANCH   6  43
TORSDOF 14
ENDMDL
MODEL 2
REMARK VINA RESULT: -9.448401947      1.225      1.539
REMARK  14 active torsions:
REMARK  status: ('A' for Active; 'I' for Inactive)
REMARK    1  A    between atoms: C8_8  and  C9_9 
REMARK    2  A    between atoms: C9_9  and  C10_10 
REMARK    3  A    between atoms: C10_10  and  C11_11 
REMARK       I    between atoms: C11_11  and  N1_13 
REMARK       I    between atoms: N1_13  and  C12_15 
REMARK    4  A    between atoms: C12_15  and  C13_17 
REMARK       I    between atoms: N2_19  and  C15_20 
REMARK       I    between atoms: C15_20  and  N3_22 
REMARK    5  A    between atoms: N3_22  and  C16_24 
REMARK    6  A    between atoms: C23_31  and  C24_32 
REMARK       I    between atoms: C24_32  and  N4_34 
REMARK    7  A    between atoms: N4_34  and  C25_36 
REMARK    8  A    between atoms: C25_36  and  C26_37 
REMARK    9  A    between atoms: C26_37  and  C27_38 
REMARK   10  A    between atoms: C27_38  and  C28_39 
REMARK   11  A    between atoms: C28_39  and  C29_40 
REMARK   12  A    between atoms: C29_40  and  C30_41 
REMARK   13  A    between atoms: C30_41  and  C31_42 
REMARK   14  A    between atoms: C31_42  and  C32_43 
ROOT
HETATM    1  C13 UNL     1      11.142  20.747  63.382  1.00  0.00     0.111 C 
HETATM    2  C14 UNL     1      12.076  21.721  64.017  1.00  0.00     0.142 C 
HETATM    3  N2  UNL     1      13.290  20.978  64.261  1.00  0.00    -0.333 N 
HETATM    4  C15 UNL     1      14.405  21.468  65.003  1.00  0.00     0.318 C 
HETATM    5  O3  UNL     1      15.382  20.728  65.151  1.00  0.00    -0.247 OA
HETATM    6  N3  UNL     1      14.353  22.780  65.538  1.00  0.00    -0.338 N 
ATOM      7  H3  UNL     1      13.509  23.329  65.373  1.00  0.00     0.164 HD
HETATM    8  C22 UNL     1      13.229  19.676  63.634  1.00  0.00     0.142 C 
HETATM    9  C23 UNL     1      12.029  19.769  62.687  1.00  0.00     0.110 C 
ENDROOT
BRANCH   1  10
HETATM   10  C12 UNL     1      10.171  20.155  64.327  1.00  0.00     0.230 C 
HETATM   11  N1  UNL     1      10.610  19.681  65.572  1.00  0.00    -0.297 N 
HETATM   12  C11 UNL     1       9.817  19.077  66.589  1.00  0.00     0.224 C 
ATOM     13  H1  UNL     1      11.606  19.780  65.771  1.00  0.00     0.171 HD
HETATM   14  O1  UNL     1      10.441  18.681  67.631  1.00  0.00    -0.273 OA
HETATM   15  O2  UNL     1       8.968  20.087  63.999  1.00  0.00    -0.273 OA
BRANCH  12  16
HETATM   16  C10 UNL     1       8.370  18.898  66.498  1.00  0.00     0.108 C 
BRANCH  16  17
HETATM   17  C9  UNL     1       7.510  19.922  67.152  1.00  0.00     0.048 C 
BRANCH  17  18
HETATM   18  C8  UNL     1       6.084  19.571  67.019  1.00  0.00    -0.057 A 
HETATM   19  C7  UNL     1       5.719  18.286  67.464  1.00  0.00     0.007 A 
HETATM   20  C6  UNL     1       4.417  17.883  67.339  1.00  0.00     0.008 A 
HETATM   21  C5  UNL     1       3.418  18.661  66.799  1.00  0.00    -0.051 A 
HETATM   22  C4  UNL     1       1.957  18.434  66.567  1.00  0.00     0.048 C 
HETATM   23  C34 UNL     1       3.771  19.915  66.363  1.00  0.00    -0.051 A 
HETATM   24  C2  UNL     1       1.589  19.520  65.590  1.00  0.00    -0.040 C 
HETATM   25  C1  UNL     1       0.170  19.953  65.924  1.00  0.00     0.015 C 
HETATM   26  C3  UNL     1       1.683  18.997  64.172  1.00  0.00     0.015 C 
HETATM   27  C35 UNL     1       2.588  20.600  65.830  1.00  0.00     0.048 C 
HETATM   28  C33 UNL     1       5.097  20.348  66.480  1.00  0.00     0.014 A 
ENDBRANCH  17  18
ENDBRANCH  16  17
ENDBRANCH  12  16
ENDBRANCH   1  10
BRANCH   9  29
HETATM   29  C24 UNL     1      11.468  18.440  62.420  1.00  0.00     0.224 C 
HETATM   30  O4  UNL     1      11.658  17.520  63.283  1.00  0.00    -0.273 OA
HETATM   31  N4  UNL     1      10.730  18.140  61.254  1.00  0.00    -0.361 N 
ATOM     32  H4  UNL     1      10.602  18.894  60.580  1.00  0.00     0.162 HD
BRANCH  31  33
HETATM   33  C25 UNL     1      10.142  16.863  60.928  1.00  0.00     0.122 C 
BRANCH  33  34
HETATM   34  C26 UNL     1       8.689  16.891  61.287  1.00  0.00     0.020 C 
BRANCH  34  35
HETATM   35  C27 UNL     1       8.424  15.826  62.305  1.00  0.00     0.002 C 
BRANCH  35  36
HETATM   36  C28 UNL     1       8.416  16.338  63.699  1.00  0.00     0.000 C 
BRANCH  36  37
HETATM   37  C29 UNL     1       7.111  16.055  64.387  1.00  0.00     0.001 C 
BRANCH  37  38
HETATM   38  C30 UNL     1       6.183  17.240  64.118  1.00  0.00     0.010 C 
BRANCH  38  39
HETATM   39  C31 UNL     1       4.842  16.650  63.800  1.00  0.00     0.113 C 
BRANCH  39  40
HETATM   40  C32 UNL     1       4.550  16.839  62.367  1.00  0.00     0.172 C 
HETATM   41  O5  UNL     1       5.314  17.566  61.673  1.00  0.00    -0.648 OA
HETATM   42  O6  UNL     1       3.437  16.213  61.803  1.00  0.00    -0.648 OA
ENDBRANCH  39  40
ENDBRANCH  38  39
ENDBRANCH  37  38
ENDBRANCH  36  37
ENDBRANCH  35  36
ENDBRANCH  34  35
ENDBRANCH  33  34
ENDBRANCH  31  33
ENDBRANCH   9  29
BRANCH   6  43
HETATM   43  C16 UNL     1      15.415  23.394  66.303  1.00  0.00     0.086 C 
HETATM   44  C17 UNL     1      15.113  23.464  67.765  1.00  0.00     0.025 C 
HETATM   45  C18 UNL     1      15.922  24.568  68.392  1.00  0.00     0.002 C 
HETATM   46  C19 UNL     1      17.290  24.742  67.757  1.00  0.00     0.000 C 
HETATM   47  C20 UNL     1      17.151  25.100  66.291  1.00  0.00     0.002 C 
HETATM   48  C21 UNL     1      15.738  24.782  65.805  1.00  0.00     0.025 C 
ENDBRANCH   6  43
TORSDOF 14
ENDMDL
MODEL 3
REMARK VINA RESULT: -9.348943916      1.371      1.959
REMARK  14 active torsions:
REMARK  status: ('A' for Active; 'I' for Inactive)
REMARK    1  A    between atoms: C8_8  and  C9_9 
REMARK    2  A    between atoms: C9_9  and  C10_10 
REMARK    3  A    between atoms: C10_10  and  C11_11 
REMARK       I    between atoms: C11_11  and  N1_13 
REMARK       I    between atoms: N1_13  and  C12_15 
REMARK    4  A    between atoms: C12_15  and  C13_17 
REMARK       I    between atoms: N2_19  and  C15_20 
REMARK       I    between atoms: C15_20  and  N3_22 
REMARK    5  A    between atoms: N3_22  and  C16_24 
REMARK    6  A    between atoms: C23_31  and  C24_32 
REMARK       I    between atoms: C24_32  and  N4_34 
REMARK    7  A    between atoms: N4_34  and  C25_36 
REMARK    8  A    between atoms: C25_36  and  C26_37 
REMARK    9  A    between atoms: C26_37  and  C27_38 
REMARK   10  A    between atoms: C27_38  and  C28_39 
REMARK   11  A    between atoms: C28_39  and  C29_40 
REMARK   12  A    between atoms: C29_40  and  C30_41 
REMARK   13  A    between atoms: C30_41  and  C31_42 
REMARK   14  A    between atoms: C31_42  and  C32_43 
ROOT
HETATM    1  C13 UNL     1      11.023  20.639  63.389  1.00  0.00     0.111 C 
HETATM    2  C14 UNL     1      11.916  21.618  64.074  1.00  0.00     0.142 C 
HETATM    3  N2  UNL     1      13.226  21.012  64.056  1.00  0.00    -0.333 N 
HETATM    4  C15 UNL     1      14.365  21.524  64.745  1.00  0.00     0.318 C 
HETATM    5  O3  UNL     1      15.430  20.904  64.659  1.00  0.00    -0.247 OA
HETATM    6  N3  UNL     1      14.236  22.720  65.497  1.00  0.00    -0.338 N 
ATOM      7  H3  UNL     1      13.322  23.172  65.518  1.00  0.00     0.164 HD
HETATM    8  C22 UNL     1      13.231  19.826  63.229  1.00  0.00     0.142 C 
HETATM    9  C23 UNL     1      11.917  19.906  62.447  1.00  0.00     0.110 C 
ENDROOT
BRANCH   1  10
HETATM   10  C12 UNL     1      10.253  19.787  64.320  1.00  0.00     0.230 C 
HETATM   11  N1  UNL     1      10.698  19.618  65.640  1.00  0.00    -0.297 N 
HETATM   12  C11 UNL     1      10.088  18.830  66.657  1.00  0.00     0.224 C 
ATOM     13  H1  UNL     1      11.551  20.114  65.899  1.00  0.00     0.171 HD
HETATM   14  O1  UNL     1      10.695  18.789  67.780  1.00  0.00    -0.273 OA
HETATM   15  O2  UNL     1       9.213  19.229  63.914  1.00  0.00    -0.273 OA
BRANCH  12  16
HETATM   16  C10 UNL     1       8.840  18.092  66.479  1.00  0.00     0.108 C 
BRANCH  16  17
HETATM   17  C9  UNL     1       7.926  17.998  67.651  1.00  0.00     0.048 C 
BRANCH  17  18
HETATM   18  C8  UNL     1       6.599  18.553  67.326  1.00  0.00    -0.057 A 
HETATM   19  C7  UNL     1       6.586  19.861  66.804  1.00  0.00     0.007 A 
HETATM   20  C6  UNL     1       5.385  20.448  66.512  1.00  0.00     0.008 A 
HETATM   21  C5  UNL     1       4.165  19.840  66.695  1.00  0.00    -0.051 A 
HETATM   22  C4  UNL     1       2.754  20.281  66.452  1.00  0.00     0.048 C 
HETATM   23  C34 UNL     1       4.174  18.565  67.205  1.00  0.00    -0.051 A 
HETATM   24  C2  UNL     1       1.941  19.293  67.246  1.00  0.00    -0.040 C 
HETATM   25  C1  UNL     1       0.655  19.055  66.472  1.00  0.00     0.015 C 
HETATM   26  C3  UNL     1       1.656  19.846  68.627  1.00  0.00     0.015 C 
HETATM   27  C35 UNL     1       2.796  18.074  67.325  1.00  0.00     0.048 C 
HETATM   28  C33 UNL     1       5.389  17.943  67.513  1.00  0.00     0.014 A 
ENDBRANCH  17  18
ENDBRANCH  16  17
ENDBRANCH  12  16
ENDBRANCH   1  10
BRANCH   9  29
HETATM   29  C24 UNL     1      11.478  18.571  62.022  1.00  0.00     0.224 C 
HETATM   30  O4  UNL     1      11.986  17.555  62.602  1.00  0.00    -0.273 OA
HETATM   31  N4  UNL     1      10.522  18.368  61.003  1.00  0.00    -0.361 N 
ATOM     32  H4  UNL     1      10.140  19.199  60.554  1.00  0.00     0.162 HD
BRANCH  31  33
HETATM   33  C25 UNL     1      10.036  17.090  60.539  1.00  0.00     0.122 C 
BRANCH  33  34
HETATM   34  C26 UNL     1       8.640  16.890  61.042  1.00  0.00     0.020 C 
BRANCH  34  35
HETATM   35  C27 UNL     1       8.620  15.695  61.944  1.00  0.00     0.002 C 
BRANCH  35  36
HETATM   36  C28 UNL     1       8.539  16.050  63.383  1.00  0.00     0.000 C 
BRANCH  36  37
HETATM   37  C29 UNL     1       7.183  15.746  63.954  1.00  0.00     0.001 C 
BRANCH  37  38
HETATM   38  C30 UNL     1       6.413  17.064  64.039  1.00  0.00     0.010 C 
BRANCH  38  39
HETATM   39  C31 UNL     1       4.971  16.714  63.826  1.00  0.00     0.113 C 
BRANCH  39  40
HETATM   40  C32 UNL     1       4.642  16.839  62.394  1.00  0.00     0.172 C 
HETATM   41  O5  UNL     1       5.347  17.590  61.663  1.00  0.00    -0.648 OA
HETATM   42  O6  UNL     1       3.560  16.129  61.870  1.00  0.00    -0.648 OA
ENDBRANCH  39  40
ENDBRANCH  38  39
ENDBRANCH  37  38
ENDBRANCH  36  37
ENDBRANCH  35  36
ENDBRANCH  34  35
ENDBRANCH  33  34
ENDBRANCH  31  33
ENDBRANCH   9  29
BRANCH   6  43
HETATM   43  C16 UNL     1      15.313  23.342  66.234  1.00  0.00     0.086 C 
HETATM   44  C17 UNL     1      15.082  23.342  67.710  1.00  0.00     0.025 C 
HETATM   45  C18 UNL     1      15.881  24.450  68.344  1.00  0.00     0.002 C 
HETATM   46  C19 UNL     1      17.209  24.701  67.651  1.00  0.00     0.000 C 
HETATM   47  C20 UNL     1      16.983  25.112  66.209  1.00  0.00     0.002 C 
HETATM   48  C21 UNL     1      15.560  24.761  65.780  1.00  0.00     0.025 C 
ENDBRANCH   6  43
TORSDOF 14
ENDMDL
MODEL 4
REMARK VINA RESULT: -9.162930921      1.699      2.133
REMARK  14 active torsions:
REMARK  status: ('A' for Active; 'I' for Inactive)
REMARK    1  A    between atoms: C8_8  and  C9_9 
REMARK    2  A    between atoms: C9_9  and  C10_10 
REMARK    3  A    between atoms: C10_10  and  C11_11 
REMARK       I    between atoms: C11_11  and  N1_13 
REMARK       I    between atoms: N1_13  and  C12_15 
REMARK    4  A    between atoms: C12_15  and  C13_17 
REMARK       I    between atoms: N2_19  and  C15_20 
REMARK       I    between atoms: C15_20  and  N3_22 
REMARK    5  A    between atoms: N3_22  and  C16_24 
REMARK    6  A    between atoms: C23_31  and  C24_32 
REMARK       I    between atoms: C24_32  and  N4_34 
REMARK    7  A    between atoms: N4_34  and  C25_36 
REMARK    8  A    between atoms: C25_36  and  C26_37 
REMARK    9  A    between atoms: C26_37  and  C27_38 
REMARK   10  A    between atoms: C27_38  and  C28_39 
REMARK   11  A    between atoms: C28_39  and  C29_40 
REMARK   12  A    between atoms: C29_40  and  C30_41 
REMARK   13  A    between atoms: C30_41  and  C31_42 
REMARK   14  A    between atoms: C31_42  and  C32_43 
ROOT
HETATM    1  C13 UNL     1      11.037  20.500  63.087  1.00  0.00     0.111 C 
HETATM    2  C14 UNL     1      11.936  21.480  63.762  1.00  0.00     0.142 C 
HETATM    3  N2  UNL     1      13.158  20.756  64.023  1.00  0.00    -0.333 N 
HETATM    4  C15 UNL     1      14.244  21.253  64.802  1.00  0.00     0.318 C 
HETATM    5  O3  UNL     1      15.232  20.530  64.961  1.00  0.00    -0.247 OA
HETATM    6  N3  UNL     1      14.152  22.554  65.360  1.00  0.00    -0.338 N 
ATOM      7  H3  UNL     1      13.303  23.089  65.183  1.00  0.00     0.164 HD
HETATM    8  C22 UNL     1      13.138  19.465  63.371  1.00  0.00     0.142 C 
HETATM    9  C23 UNL     1      11.961  19.553  62.396  1.00  0.00     0.110 C 
ENDROOT
BRANCH   1  10
HETATM   10  C12 UNL     1      10.055  19.872  63.995  1.00  0.00     0.230 C 
HETATM   11  N1  UNL     1      10.448  19.480  65.283  1.00  0.00    -0.297 N 
HETATM   12  C11 UNL     1       9.639  18.856  66.275  1.00  0.00     0.224 C 
ATOM     13  H1  UNL     1      11.420  19.663  65.537  1.00  0.00     0.171 HD
HETATM   14  O1  UNL     1      10.224  18.549  67.369  1.00  0.00    -0.273 OA
HETATM   15  O2  UNL     1       8.884  19.699  63.598  1.00  0.00    -0.273 OA
BRANCH  12  16
HETATM   16  C10 UNL     1       8.219  18.564  66.105  1.00  0.00     0.108 C 
BRANCH  16  17
HETATM   17  C9  UNL     1       7.334  18.748  67.287  1.00  0.00     0.048 C 
BRANCH  17  18
HETATM   18  C8  UNL     1       5.920  18.830  66.876  1.00  0.00    -0.057 A 
HETATM   19  C7  UNL     1       5.376  20.126  66.789  1.00  0.00     0.007 A 
HETATM   20  C6  UNL     1       4.060  20.273  66.444  1.00  0.00     0.008 A 
HETATM   21  C5  UNL     1       3.213  19.224  66.172  1.00  0.00    -0.051 A 
HETATM   22  C4  UNL     1       1.768  19.149  65.784  1.00  0.00     0.048 C 
HETATM   23  C34 UNL     1       3.739  17.959  66.258  1.00  0.00    -0.051 A 
HETATM   24  C2  UNL     1       1.413  17.709  66.049  1.00  0.00    -0.040 C 
HETATM   25  C1  UNL     1       0.406  17.300  64.986  1.00  0.00     0.015 C 
HETATM   26  C3  UNL     1       0.833  17.565  67.439  1.00  0.00     0.015 C 
HETATM   27  C35 UNL     1       2.704  16.972  65.929  1.00  0.00     0.048 C 
HETATM   28  C33 UNL     1       5.083  17.783  66.609  1.00  0.00     0.014 A 
ENDBRANCH  17  18
ENDBRANCH  16  17
ENDBRANCH  12  16
ENDBRANCH   1  10
BRANCH   9  29
HETATM   29  C24 UNL     1      11.433  18.218  62.091  1.00  0.00     0.224 C 
HETATM   30  O4  UNL     1      11.561  17.302  62.969  1.00  0.00    -0.273 OA
HETATM   31  N4  UNL     1      10.793  17.908  60.870  1.00  0.00    -0.361 N 
ATOM     32  H4  UNL     1      10.712  18.660  60.186  1.00  0.00     0.162 HD
BRANCH  31  33
HETATM   33  C25 UNL     1      10.242  16.625  60.504  1.00  0.00     0.122 C 
BRANCH  33  34
HETATM   34  C26 UNL     1       8.796  16.590  60.889  1.00  0.00     0.020 C 
BRANCH  34  35
HETATM   35  C27 UNL     1       8.224  17.965  60.739  1.00  0.00     0.002 C 
BRANCH  35  36
HETATM   36  C28 UNL     1       6.864  18.100  61.320  1.00  0.00     0.000 C 
BRANCH  36  37
HETATM   37  C29 UNL     1       6.315  16.773  61.761  1.00  0.00     0.001 C 
BRANCH  37  38
HETATM   38  C30 UNL     1       5.365  17.034  62.930  1.00  0.00     0.010 C 
BRANCH  38  39
HETATM   39  C31 UNL     1       4.235  16.061  62.769  1.00  0.00     0.113 C 
BRANCH  39  40
HETATM   40  C32 UNL     1       3.095  16.736  62.122  1.00  0.00     0.172 C 
HETATM   41  O5  UNL     1       2.782  17.904  62.487  1.00  0.00    -0.648 OA
HETATM   42  O6  UNL     1       2.382  16.076  61.119  1.00  0.00    -0.648 OA
ENDBRANCH  39  40
ENDBRANCH  38  39
ENDBRANCH  37  38
ENDBRANCH  36  37
ENDBRANCH  35  36
ENDBRANCH  34  35
ENDBRANCH  33  34
ENDBRANCH  31  33
ENDBRANCH   9  29
BRANCH   6  43
HETATM   43  C16 UNL     1      15.183  23.173  66.163  1.00  0.00     0.086 C 
HETATM   44  C17 UNL     1      14.907  23.089  67.629  1.00  0.00     0.025 C 
HETATM   45  C18 UNL     1      15.646  24.189  68.343  1.00  0.00     0.002 C 
HETATM   46  C19 UNL     1      16.985  24.521  67.707  1.00  0.00     0.000 C 
HETATM   47  C20 UNL     1      16.790  24.998  66.282  1.00  0.00     0.002 C 
HETATM   48  C21 UNL     1      15.394  24.621  65.790  1.00  0.00     0.025 C 
ENDBRANCH   6  43
TORSDOF 14
ENDMDL
MODEL 5
REMARK VINA RESULT: -9.129941278      3.224     11.666
REMARK  14 active torsions:
REMARK  status: ('A' for Active; 'I' for Inactive)
REMARK    1  A    between atoms: C8_8  and  C9_9 
REMARK    2  A    between atoms: C9_9  and  C10_10 
REMARK    3  A    between atoms: C10_10  and  C11_11 
REMARK       I    between atoms: C11_11  and  N1_13 
REMARK       I    between atoms: N1_13  and  C12_15 
REMARK    4  A    between atoms: C12_15  and  C13_17 
REMARK       I    between atoms: N2_19  and  C15_20 
REMARK       I    between atoms: C15_20  and  N3_22 
REMARK    5  A    between atoms: N3_22  and  C16_24 
REMARK    6  A    between atoms: C23_31  and  C24_32 
REMARK       I    between atoms: C24_32  and  N4_34 
REMARK    7  A    between atoms: N4_34  and  C25_36 
REMARK    8  A    between atoms: C25_36  and  C26_37 
REMARK    9  A    between atoms: C26_37  and  C27_38 
REMARK   10  A    between atoms: C27_38  and  C28_39 
REMARK   11  A    between atoms: C28_39  and  C29_40 
REMARK   12  A    between atoms: C29_40  and  C30_41 
REMARK   13  A    between atoms: C30_41  and  C31_42 
REMARK   14  A    between atoms: C31_42  and  C32_43 
ROOT
HETATM    1  C13 UNL     1       9.339  20.375  64.460  1.00  0.00     0.111 C 
HETATM    2  C14 UNL     1       8.068  19.663  64.140  1.00  0.00     0.142 C 
HETATM    3  N2  UNL     1       8.151  18.405  64.844  1.00  0.00    -0.333 N 
HETATM    4  C15 UNL     1       7.223  17.331  64.697  1.00  0.00     0.318 C 
HETATM    5  O3  UNL     1       7.412  16.299  65.349  1.00  0.00    -0.247 OA
HETATM    6  N3  UNL     1       6.123  17.487  63.816  1.00  0.00    -0.338 N 
ATOM      7  H3  UNL     1       6.037  18.370  63.314  1.00  0.00     0.164 HD
HETATM    8  C22 UNL     1       9.292  18.389  65.733  1.00  0.00     0.142 C 
HETATM    9  C23 UNL     1       9.738  19.852  65.799  1.00  0.00     0.110 C 
ENDROOT
BRANCH   1  10
HETATM   10  C12 UNL     1      10.367  20.256  63.405  1.00  0.00     0.230 C 
HETATM   11  N1  UNL     1      10.483  19.064  62.676  1.00  0.00    -0.297 N 
HETATM   12  C11 UNL     1      11.418  18.778  61.641  1.00  0.00     0.224 C 
ATOM     13  H1  UNL     1       9.826  18.320  62.914  1.00  0.00     0.171 HD
HETATM   14  O1  UNL     1      11.367  17.603  61.143  1.00  0.00    -0.273 OA
HETATM   15  O2  UNL     1      11.119  21.226  63.178  1.00  0.00    -0.273 OA
BRANCH  12  16
HETATM   16  C10 UNL     1      12.397  19.738  61.138  1.00  0.00     0.108 C 
BRANCH  16  17
HETATM   17  C9  UNL     1      13.768  19.685  61.716  1.00  0.00     0.048 C 
BRANCH  17  18
HETATM   18  C8  UNL     1      14.579  20.824  61.246  1.00  0.00    -0.057 A 
HETATM   19  C7  UNL     1      14.195  21.392  60.016  1.00  0.00     0.007 A 
HETATM   20  C6  UNL     1      14.924  22.431  59.506  1.00  0.00     0.008 A 
HETATM   21  C5  UNL     1      16.029  22.973  60.122  1.00  0.00    -0.051 A 
HETATM   22  C4  UNL     1      16.961  24.086  59.757  1.00  0.00     0.048 C 
HETATM   23  C34 UNL     1      16.407  22.421  61.322  1.00  0.00    -0.051 A 
HETATM   24  C2  UNL     1      18.144  23.857  60.661  1.00  0.00    -0.040 C 
HETATM   25  C1  UNL     1      18.688  25.227  61.033  1.00  0.00     0.015 C 
HETATM   26  C3  UNL     1      19.190  23.027  59.946  1.00  0.00     0.015 C 
HETATM   27  C35 UNL     1      17.589  23.123  61.834  1.00  0.00     0.048 C 
HETATM   28  C33 UNL     1      15.677  21.357  61.863  1.00  0.00     0.014 A 
ENDBRANCH  17  18
ENDBRANCH  16  17
ENDBRANCH  12  16
ENDBRANCH   1  10
BRANCH   9  29
HETATM   29  C24 UNL     1      11.160  19.950  66.150  1.00  0.00     0.224 C 
HETATM   30  O4  UNL     1      11.706  18.960  66.742  1.00  0.00    -0.273 OA
HETATM   31  N4  UNL     1      11.943  21.089  65.862  1.00  0.00    -0.361 N 
ATOM     32  H4  UNL     1      11.477  21.866  65.395  1.00  0.00     0.162 HD
BRANCH  31  33
HETATM   33  C25 UNL     1      13.344  21.254  66.168  1.00  0.00     0.122 C 
BRANCH  33  34
HETATM   34  C26 UNL     1      14.057  21.725  64.938  1.00  0.00     0.020 C 
BRANCH  34  35
HETATM   35  C27 UNL     1      15.095  22.727  65.338  1.00  0.00     0.002 C 
BRANCH  35  36
HETATM   36  C28 UNL     1      15.024  23.103  66.773  1.00  0.00     0.000 C 
BRANCH  36  37
HETATM   37  C29 UNL     1      15.630  24.455  67.022  1.00  0.00     0.001 C 
BRANCH  37  38
HETATM   38  C30 UNL     1      17.080  24.237  67.457  1.00  0.00     0.010 C 
BRANCH  38  39
HETATM   39  C31 UNL     1      17.869  25.347  66.832  1.00  0.00     0.113 C 
BRANCH  39  40
HETATM   40  C32 UNL     1      18.068  25.062  65.399  1.00  0.00     0.172 C 
HETATM   41  O5  UNL     1      18.511  23.931  65.051  1.00  0.00    -0.648 OA
HETATM   42  O6  UNL     1      17.766  26.043  64.452  1.00  0.00    -0.648 OA
ENDBRANCH  39  40
ENDBRANCH  38  39
ENDBRANCH  37  38
ENDBRANCH  36  37
ENDBRANCH  35  36
ENDBRANCH  34  35
ENDBRANCH  33  34
ENDBRANCH  31  33
ENDBRANCH   9  29
BRANCH   6  43
HETATM   43  C16 UNL     1       5.113  16.478  63.583  1.00  0.00     0.086 C 
HETATM   44  C17 UNL     1       4.721  16.371  62.145  1.00  0.00     0.025 C 
HETATM   45  C18 UNL     1       3.342  15.775  62.044  1.00  0.00     0.002 C 
HETATM   46  C19 UNL     1       3.054  14.747  63.125  1.00  0.00     0.000 C 
HETATM   47  C20 UNL     1       3.141  15.384  64.498  1.00  0.00     0.002 C 
HETATM   48  C21 UNL     1       3.873  16.722  64.409  1.00  0.00     0.025 C 
ENDBRANCH   6  43
TORSDOF 14
ENDMDL
