MODEL 1
REMARK VINA RESULT: -9.476260163      0.000      0.000
REMARK  15 active torsions:
REMARK  status: ('A' for Active; 'I' for Inactive)
REMARK    1  A    between atoms: C9_9  and  N1_10 
REMARK    2  A    between atoms: C20_21  and  C21_22 
REMARK    3  A    between atoms: C21_22  and  C22_23 
REMARK    4  A    between atoms: C22_23  and  C23_24 
REMARK    5  A    between atoms: N2_26  and  C25_28 
REMARK    6  A    between atoms: C25_28  and  C26_29 
REMARK    7  A    between atoms: C26_29  and  C27_30 
REMARK    8  A    between atoms: C27_30  and  C28_31 
REMARK    9  A    between atoms: C28_31  and  N3_32 
REMARK   10  A    between atoms: C28_31  and  C33_42 
REMARK       I    between atoms: N3_32  and  C29_34 
REMARK   11  A    between atoms: C29_34  and  C30_36 
REMARK   12  A    between atoms: C30_36  and  C31_37 
REMARK       I    between atoms: C33_42  and  N5_44 
REMARK   13  A    between atoms: N5_44  and  C34_46 
REMARK   14  A    between atoms: C34_46  and  C35_47 
REMARK   15  A    between atoms: C34_46  and  C37_49 
ROOT
HETATM    1  C23 UNL     1      15.408  23.417  66.001  1.00  0.00    -0.018 C 
HETATM    2  C24 UNL     1      14.377  24.474  65.829  1.00  0.00     0.063 C 
HETATM    3  N2  UNL     1      16.411  23.577  66.690  1.00  0.00    -0.377 N 
ATOM      4  H2  UNL     1      16.994  22.740  66.680  1.00  0.00     0.164 HD
ENDROOT
BRANCH   3   5
HETATM    5  C25 UNL     1      16.981  24.561  67.476  1.00  0.00     0.061 C 
BRANCH   5   6
HETATM    6  C26 UNL     1      17.616  25.727  66.775  1.00  0.00     0.047 C 
BRANCH   6   7
HETATM    7  C27 UNL     1      18.865  25.347  65.990  1.00  0.00     0.040 C 
BRANCH   7   8
HETATM    8  C28 UNL     1      18.615  25.459  64.512  1.00  0.00     0.177 C 
BRANCH   8   9
HETATM    9  N3  UNL     1      19.620  26.242  63.820  1.00  0.00    -0.348 N 
HETATM   10  C29 UNL     1      19.271  27.047  62.680  1.00  0.00     0.220 C 
HETATM   11  O1  UNL     1      18.111  27.080  62.255  1.00  0.00    -0.274 OA
ATOM     12  H3  UNL     1      20.587  26.221  64.146  1.00  0.00     0.163 HD
BRANCH  10  13
HETATM   13  C30 UNL     1      20.330  27.831  62.030  1.00  0.00     0.137 C 
BRANCH  13  14
HETATM   14  C31 UNL     1      20.527  29.204  62.649  1.00  0.00     0.220 A 
HETATM   15  C32 UNL     1      20.217  30.420  61.856  1.00  0.00     0.266 A 
HETATM   16  N4  UNL     1      19.257  29.907  62.819  1.00  0.00    -0.067 N 
ATOM     17  H42 UNL     1      18.277  29.629  62.769  1.00  0.00     0.277 HD
ATOM     18  H41 UNL     1      18.766  30.308  63.618  1.00  0.00     0.277 HD
ENDBRANCH  13  14
ENDBRANCH  10  13
ENDBRANCH   8   9
BRANCH   8  19
HETATM   19  C33 UNL     1      18.403  24.135  63.879  1.00  0.00     0.241 C 
HETATM   20  O2  UNL     1      18.525  23.101  64.553  1.00  0.00    -0.271 OA
HETATM   21  N5  UNL     1      18.069  24.061  62.506  1.00  0.00    -0.346 N 
ATOM     22  H5  UNL     1      17.969  24.934  61.988  1.00  0.00     0.163 HD
BRANCH  21  23
HETATM   23  C34 UNL     1      17.863  22.820  61.795  1.00  0.00     0.173 C 
BRANCH  23  24
HETATM   24  C35 UNL     1      16.767  22.856  60.773  1.00  0.00     0.030 C 
HETATM   25  C36 UNL     1      16.452  21.469  60.229  1.00  0.00     0.007 C 
ENDBRANCH  23  24
BRANCH  23  26
HETATM   26  C37 UNL     1      19.167  22.431  61.125  1.00  0.00     0.254 C 
HETATM   27  N6  UNL     1      19.930  21.358  61.623  1.00  0.00    -0.060 NA
HETATM   28  O3  UNL     1      19.540  23.078  60.132  1.00  0.00    -0.275 OA
ENDBRANCH  23  26
ENDBRANCH  21  23
ENDBRANCH   8  19
ENDBRANCH   7   8
ENDBRANCH   6   7
ENDBRANCH   5   6
ENDBRANCH   3   5
BRANCH   1  29
HETATM   29  C22 UNL     1      15.158  22.138  65.280  1.00  0.00     0.052 C 
BRANCH  29  30
HETATM   30  C21 UNL     1      13.828  22.046  64.595  1.00  0.00     0.015 C 
BRANCH  30  31
HETATM   31  C20 UNL     1      13.493  20.585  64.433  1.00  0.00     0.022 C 
HETATM   32  C2  UNL     1      13.839  20.140  63.067  1.00  0.00    -0.084 C 
HETATM   33  C1  UNL     1      14.888  19.409  62.739  1.00  0.00     0.014 C 
HETATM   34  C3  UNL     1      12.892  20.542  61.972  1.00  0.00     0.034 C 
HETATM   35  C4  UNL     1      11.602  19.788  62.329  1.00  0.00     0.010 C 
HETATM   36  C5  UNL     1      11.113  20.321  63.625  1.00  0.00    -0.001 C 
HETATM   37  C6  UNL     1       9.851  19.626  64.106  1.00  0.00    -0.005 C 
HETATM   38  C18 UNL     1      12.066  20.244  64.780  1.00  0.00    -0.033 C 
HETATM   39  C7  UNL     1       8.826  19.406  63.034  1.00  0.00     0.007 C 
HETATM   40  C15 UNL     1       9.247  20.503  65.164  1.00  0.00    -0.008 C 
HETATM   41  C8  UNL     1       7.795  18.453  63.608  1.00  0.00     0.036 C 
HETATM   42  C9  UNL     1       7.617  18.590  65.086  1.00  0.00     0.223 C 
HETATM   43  C14 UNL     1       7.932  19.958  65.634  1.00  0.00     0.041 C 
HETATM   44  C16 UNL     1      10.161  20.828  66.298  1.00  0.00     0.006 C 
HETATM   45  C17 UNL     1      11.553  21.175  65.844  1.00  0.00     0.010 C 
HETATM   46  C19 UNL     1      12.119  18.847  65.409  1.00  0.00     0.016 C 
BRANCH  42  47
HETATM   47  N1  UNL     1       8.252  17.580  65.877  1.00  0.00     0.093 N 
HETATM   48  C10 UNL     1       7.656  17.589  67.227  1.00  0.00     0.273 C 
HETATM   49  C11 UNL     1       8.464  16.440  67.843  1.00  0.00     0.032 C 
HETATM   50  C12 UNL     1       8.415  15.432  66.706  1.00  0.00     0.032 C 
HETATM   51  C13 UNL     1       7.911  16.221  65.488  1.00  0.00     0.273 C 
ENDBRANCH  42  47
ENDBRANCH  30  31
ENDBRANCH  29  30
ENDBRANCH   1  29
TORSDOF 15
ENDMDL
MODEL 2
REMARK VINA RESULT: -9.103882611      1.204      3.935
REMARK  15 active torsions:
REMARK  status: ('A' for Active; 'I' for Inactive)
REMARK    1  A    between atoms: C9_9  and  N1_10 
REMARK    2  A    between atoms: C20_21  and  C21_22 
REMARK    3  A    between atoms: C21_22  and  C22_23 
REMARK    4  A    between atoms: C22_23  and  C23_24 
REMARK    5  A    between atoms: N2_26  and  C25_28 
REMARK    6  A    between atoms: C25_28  and  C26_29 
REMARK    7  A    between atoms: C26_29  and  C27_30 
REMARK    8  A    between atoms: C27_30  and  C28_31 
REMARK    9  A    between atoms: C28_31  and  N3_32 
REMARK   10  A    between atoms: C28_31  and  C33_42 
REMARK       I    between atoms: N3_32  and  C29_34 
REMARK   11  A    between atoms: C29_34  and  C30_36 
REMARK   12  A    between atoms: C30_36  and  C31_37 
REMARK       I    between atoms: C33_42  and  N5_44 
REMARK   13  A    between atoms: N5_44  and  C34_46 
REMARK   14  A    between atoms: C34_46  and  C35_47 
REMARK   15  A    between atoms: C34_46  and  C37_49 
ROOT
HETATM    1  C23 UNL     1      15.616  23.424  65.975  1.00  0.00    -0.018 C 
HETATM    2  C24 UNL     1      14.565  24.471  65.869  1.00  0.00     0.063 C 
HETATM    3  N2  UNL     1      16.717  23.639  66.472  1.00  0.00    -0.377 N 
ATOM      4  H2  UNL     1      17.294  22.798  66.449  1.00  0.00     0.164 HD
ENDROOT
BRANCH   3   5
HETATM    5  C25 UNL     1      17.403  24.689  67.053  1.00  0.00     0.061 C 
BRANCH   5   6
HETATM    6  C26 UNL     1      18.445  25.380  66.222  1.00  0.00     0.047 C 
BRANCH   6   7
HETATM    7  C27 UNL     1      17.877  26.034  64.970  1.00  0.00     0.040 C 
BRANCH   7   8
HETATM    8  C28 UNL     1      18.627  25.579  63.748  1.00  0.00     0.177 C 
BRANCH   8   9
HETATM    9  N3  UNL     1      17.886  24.627  62.944  1.00  0.00    -0.348 N 
HETATM   10  C29 UNL     1      18.004  23.213  63.181  1.00  0.00     0.220 C 
HETATM   11  O1  UNL     1      18.750  22.775  64.064  1.00  0.00    -0.274 OA
ATOM     12  H3  UNL     1      17.274  24.964  62.201  1.00  0.00     0.163 HD
BRANCH  10  13
HETATM   13  C30 UNL     1      17.217  22.298  62.342  1.00  0.00     0.137 C 
BRANCH  13  14
HETATM   14  C31 UNL     1      16.962  22.836  60.944  1.00  0.00     0.220 A 
HETATM   15  C32 UNL     1      16.221  22.006  59.961  1.00  0.00     0.266 A 
HETATM   16  N4  UNL     1      15.537  23.053  60.701  1.00  0.00    -0.067 N 
ATOM     17  H42 UNL     1      14.709  23.080  61.296  1.00  0.00     0.277 HD
ATOM     18  H41 UNL     1      14.974  23.862  60.437  1.00  0.00     0.277 HD
ENDBRANCH  13  14
ENDBRANCH  10  13
ENDBRANCH   8   9
BRANCH   8  19
HETATM   19  C33 UNL     1      19.131  26.718  62.946  1.00  0.00     0.241 C 
HETATM   20  O2  UNL     1      18.462  27.149  61.994  1.00  0.00    -0.271 OA
HETATM   21  N5  UNL     1      20.380  27.303  63.267  1.00  0.00    -0.346 N 
ATOM     22  H5  UNL     1      20.896  26.926  64.062  1.00  0.00     0.163 HD
BRANCH  21  23
HETATM   23  C34 UNL     1      20.965  28.401  62.533  1.00  0.00     0.173 C 
BRANCH  23  24
HETATM   24  C35 UNL     1      20.605  29.762  63.048  1.00  0.00     0.030 C 
HETATM   25  C36 UNL     1      19.904  30.603  61.988  1.00  0.00     0.007 C 
ENDBRANCH  23  24
BRANCH  23  26
HETATM   26  C37 UNL     1      22.473  28.237  62.550  1.00  0.00     0.254 C 
HETATM   27  N6  UNL     1      23.290  29.236  63.113  1.00  0.00    -0.060 NA
HETATM   28  O3  UNL     1      22.964  27.207  62.059  1.00  0.00    -0.275 OA
ENDBRANCH  23  26
ENDBRANCH  21  23
ENDBRANCH   8  19
ENDBRANCH   7   8
ENDBRANCH   6   7
ENDBRANCH   5   6
ENDBRANCH   3   5
BRANCH   1  29
HETATM   29  C22 UNL     1      15.257  22.083  65.434  1.00  0.00     0.052 C 
BRANCH  29  30
HETATM   30  C21 UNL     1      13.987  22.039  64.639  1.00  0.00     0.015 C 
BRANCH  30  31
HETATM   31  C20 UNL     1      13.620  20.591  64.437  1.00  0.00     0.022 C 
HETATM   32  C2  UNL     1      13.958  20.174  63.061  1.00  0.00    -0.084 C 
HETATM   33  C1  UNL     1      14.991  19.428  62.716  1.00  0.00     0.014 C 
HETATM   34  C3  UNL     1      13.023  20.626  61.976  1.00  0.00     0.034 C 
HETATM   35  C4  UNL     1      11.716  19.892  62.310  1.00  0.00     0.010 C 
HETATM   36  C5  UNL     1      11.236  20.403  63.618  1.00  0.00    -0.001 C 
HETATM   37  C6  UNL     1       9.957  19.724  64.078  1.00  0.00    -0.005 C 
HETATM   38  C18 UNL     1      12.184  20.274  64.773  1.00  0.00    -0.033 C 
HETATM   39  C7  UNL     1       8.930  19.556  63.000  1.00  0.00     0.007 C 
HETATM   40  C15 UNL     1       9.370  20.587  65.158  1.00  0.00    -0.008 C 
HETATM   41  C8  UNL     1       7.876  18.613  63.546  1.00  0.00     0.036 C 
HETATM   42  C9  UNL     1       7.698  18.714  65.026  1.00  0.00     0.223 C 
HETATM   43  C14 UNL     1       8.042  20.060  65.611  1.00  0.00     0.041 C 
HETATM   44  C16 UNL     1      10.289  20.861  66.302  1.00  0.00     0.006 C 
HETATM   45  C17 UNL     1      11.689  21.187  65.860  1.00  0.00     0.010 C 
HETATM   46  C19 UNL     1      12.203  18.859  65.365  1.00  0.00     0.016 C 
BRANCH  42  47
HETATM   47  N1  UNL     1       8.307  17.670  65.792  1.00  0.00     0.093 N 
HETATM   48  C10 UNL     1       7.760  17.703  67.163  1.00  0.00     0.273 C 
HETATM   49  C11 UNL     1       8.530  16.512  67.746  1.00  0.00     0.032 C 
HETATM   50  C12 UNL     1       8.389  15.513  66.609  1.00  0.00     0.032 C 
HETATM   51  C13 UNL     1       7.883  16.332  65.412  1.00  0.00     0.273 C 
ENDBRANCH  42  47
ENDBRANCH  30  31
ENDBRANCH  29  30
ENDBRANCH   1  29
TORSDOF 15
ENDMDL
MODEL 3
REMARK VINA RESULT: -9.039922005      1.405      1.808
REMARK  15 active torsions:
REMARK  status: ('A' for Active; 'I' for Inactive)
REMARK    1  A    between atoms: C9_9  and  N1_10 
REMARK    2  A    between atoms: C20_21  and  C21_22 
REMARK    3  A    between atoms: C21_22  and  C22_23 
REMARK    4  A    between atoms: C22_23  and  C23_24 
REMARK    5  A    between atoms: N2_26  and  C25_28 
REMARK    6  A    between atoms: C25_28  and  C26_29 
REMARK    7  A    between atoms: C26_29  and  C27_30 
REMARK    8  A    between atoms: C27_30  and  C28_31 
REMARK    9  A    between atoms: C28_31  and  N3_32 
REMARK   10  A    between atoms: C28_31  and  C33_42 
REMARK       I    between atoms: N3_32  and  C29_34 
REMARK   11  A    between atoms: C29_34  and  C30_36 
REMARK   12  A    between atoms: C30_36  and  C31_37 
REMARK       I    between atoms: C33_42  and  N5_44 
REMARK   13  A    between atoms: N5_44  and  C34_46 
REMARK   14  A    between atoms: C34_46  and  C35_47 
REMARK   15  A    between atoms: C34_46  and  C37_49 
ROOT
HETATM    1  C23 UNL     1      15.344  23.657  66.213  1.00  0.00    -0.018 C 
HETATM    2  C24 UNL     1      14.492  24.792  65.771  1.00  0.00     0.063 C 
HETATM    3  N2  UNL     1      16.448  23.818  66.724  1.00  0.00    -0.377 N 
ATOM      4  H2  UNL     1      16.873  22.920  66.955  1.00  0.00     0.164 HD
ENDROOT
BRANCH   3   5
HETATM    5  C25 UNL     1      17.283  24.862  67.077  1.00  0.00     0.061 C 
BRANCH   5   6
HETATM    6  C26 UNL     1      18.295  25.313  66.065  1.00  0.00     0.047 C 
BRANCH   6   7
HETATM    7  C27 UNL     1      18.086  24.692  64.690  1.00  0.00     0.040 C 
BRANCH   7   8
HETATM    8  C28 UNL     1      18.491  25.653  63.607  1.00  0.00     0.177 C 
BRANCH   8   9
HETATM    9  N3  UNL     1      19.631  26.473  63.968  1.00  0.00    -0.348 N 
HETATM   10  C29 UNL     1      19.637  27.887  63.699  1.00  0.00     0.220 C 
HETATM   11  O1  UNL     1      18.678  28.433  63.143  1.00  0.00    -0.274 OA
ATOM     12  H3  UNL     1      20.439  26.042  64.417  1.00  0.00     0.163 HD
BRANCH  10  13
HETATM   13  C30 UNL     1      20.816  28.667  64.101  1.00  0.00     0.137 C 
BRANCH  13  14
HETATM   14  C31 UNL     1      22.078  27.829  64.222  1.00  0.00     0.220 A 
HETATM   15  C32 UNL     1      23.250  28.365  64.958  1.00  0.00     0.266 A 
HETATM   16  N4  UNL     1      22.337  27.440  65.607  1.00  0.00    -0.067 N 
ATOM     17  H42 UNL     1      21.791  27.464  66.468  1.00  0.00     0.277 HD
ATOM     18  H41 UNL     1      22.449  26.547  66.088  1.00  0.00     0.277 HD
ENDBRANCH  13  14
ENDBRANCH  10  13
ENDBRANCH   8   9
BRANCH   8  19
HETATM   19  C33 UNL     1      18.676  24.978  62.301  1.00  0.00     0.241 C 
HETATM   20  O2  UNL     1      19.660  25.253  61.597  1.00  0.00    -0.271 OA
HETATM   21  N5  UNL     1      17.723  24.030  61.862  1.00  0.00    -0.346 N 
ATOM     22  H5  UNL     1      16.932  23.825  62.473  1.00  0.00     0.163 HD
BRANCH  21  23
HETATM   23  C34 UNL     1      17.804  23.335  60.598  1.00  0.00     0.173 C 
BRANCH  23  24
HETATM   24  C35 UNL     1      18.012  21.854  60.707  1.00  0.00     0.030 C 
HETATM   25  C36 UNL     1      19.476  21.472  60.534  1.00  0.00     0.007 C 
ENDBRANCH  23  24
BRANCH  23  26
HETATM   26  C37 UNL     1      16.532  23.610  59.818  1.00  0.00     0.254 C 
HETATM   27  N6  UNL     1      15.642  22.561  59.517  1.00  0.00    -0.060 NA
HETATM   28  O3  UNL     1      16.298  24.775  59.456  1.00  0.00    -0.275 OA
ENDBRANCH  23  26
ENDBRANCH  21  23
ENDBRANCH   8  19
ENDBRANCH   7   8
ENDBRANCH   6   7
ENDBRANCH   5   6
ENDBRANCH   3   5
BRANCH   1  29
HETATM   29  C22 UNL     1      14.780  22.295  65.995  1.00  0.00     0.052 C 
BRANCH  29  30
HETATM   30  C21 UNL     1      13.764  22.197  64.897  1.00  0.00     0.015 C 
BRANCH  30  31
HETATM   31  C20 UNL     1      13.471  20.736  64.671  1.00  0.00     0.022 C 
HETATM   32  C2  UNL     1      13.881  20.347  63.305  1.00  0.00    -0.084 C 
HETATM   33  C1  UNL     1      14.959  19.652  62.995  1.00  0.00     0.014 C 
HETATM   34  C3  UNL     1      12.970  20.768  62.188  1.00  0.00     0.034 C 
HETATM   35  C4  UNL     1      11.685  19.973  62.464  1.00  0.00     0.010 C 
HETATM   36  C5  UNL     1      11.132  20.449  63.757  1.00  0.00    -0.001 C 
HETATM   37  C6  UNL     1       9.868  19.709  64.161  1.00  0.00    -0.005 C 
HETATM   38  C18 UNL     1      12.039  20.352  64.947  1.00  0.00    -0.033 C 
HETATM   39  C7  UNL     1       8.892  19.505  63.042  1.00  0.00     0.007 C 
HETATM   40  C15 UNL     1       9.201  20.534  65.224  1.00  0.00    -0.008 C 
HETATM   41  C8  UNL     1       7.862  18.511  63.539  1.00  0.00     0.036 C 
HETATM   42  C9  UNL     1       7.621  18.590  65.012  1.00  0.00     0.223 C 
HETATM   43  C14 UNL     1       7.882  19.944  65.620  1.00  0.00     0.041 C 
HETATM   44  C16 UNL     1      10.061  20.838  66.405  1.00  0.00     0.006 C 
HETATM   45  C17 UNL     1      11.462  21.232  66.021  1.00  0.00     0.010 C 
HETATM   46  C19 UNL     1      12.099  18.934  65.529  1.00  0.00     0.016 C 
BRANCH  42  47
HETATM   47  N1  UNL     1       8.247  17.567  65.793  1.00  0.00     0.093 N 
HETATM   48  C10 UNL     1       7.676  17.590  67.154  1.00  0.00     0.273 C 
HETATM   49  C11 UNL     1       8.469  16.424  67.756  1.00  0.00     0.032 C 
HETATM   50  C12 UNL     1       8.377  15.416  66.621  1.00  0.00     0.032 C 
HETATM   51  C13 UNL     1       7.869  16.216  65.411  1.00  0.00     0.273 C 
ENDBRANCH  42  47
ENDBRANCH  30  31
ENDBRANCH  29  30
ENDBRANCH   1  29
TORSDOF 15
ENDMDL
MODEL 4
REMARK VINA RESULT: -9.001592100      1.160      1.284
REMARK  15 active torsions:
REMARK  status: ('A' for Active; 'I' for Inactive)
REMARK    1  A    between atoms: C9_9  and  N1_10 
REMARK    2  A    between atoms: C20_21  and  C21_22 
REMARK    3  A    between atoms: C21_22  and  C22_23 
REMARK    4  A    between atoms: C22_23  and  C23_24 
REMARK    5  A    between atoms: N2_26  and  C25_28 
REMARK    6  A    between atoms: C25_28  and  C26_29 
REMARK    7  A    between atoms: C26_29  and  C27_30 
REMARK    8  A    between atoms: C27_30  and  C28_31 
REMARK    9  A    between atoms: C28_31  and  N3_32 
REMARK   10  A    between atoms: C28_31  and  C33_42 
REMARK       I    between atoms: N3_32  and  C29_34 
REMARK   11  A    between atoms: C29_34  and  C30_36 
REMARK   12  A    between atoms: C30_36  and  C31_37 
REMARK       I    between atoms: C33_42  and  N5_44 
REMARK   13  A    between atoms: N5_44  and  C34_46 
REMARK   14  A    between atoms: C34_46  and  C35_47 
REMARK   15  A    between atoms: C34_46  and  C37_49 
ROOT
HETATM    1  C23 UNL     1      15.087  23.432  65.809  1.00  0.00    -0.018 C 
HETATM    2  C24 UNL     1      14.193  24.587  65.538  1.00  0.00     0.063 C 
HETATM    3  N2  UNL     1      15.847  23.394  66.772  1.00  0.00    -0.377 N 
ATOM      4  H2  UNL     1      16.375  22.522  66.782  1.00  0.00     0.164 HD
ENDROOT
BRANCH   3   5
HETATM    5  C25 UNL     1      16.196  24.190  67.848  1.00  0.00     0.061 C 
BRANCH   5   6
HETATM    6  C26 UNL     1      17.117  25.345  67.585  1.00  0.00     0.047 C 
BRANCH   6   7
HETATM    7  C27 UNL     1      18.411  24.935  66.895  1.00  0.00     0.040 C 
BRANCH   7   8
HETATM    8  C28 UNL     1      18.486  25.526  65.514  1.00  0.00     0.177 C 
BRANCH   8   9
HETATM    9  N3  UNL     1      19.582  26.460  65.351  1.00  0.00    -0.348 N 
HETATM   10  C29 UNL     1      19.501  27.532  64.394  1.00  0.00     0.220 C 
HETATM   11  O1  UNL     1      18.502  27.673  63.679  1.00  0.00    -0.274 OA
ATOM     12  H3  UNL     1      20.421  26.357  65.922  1.00  0.00     0.163 HD
BRANCH  10  13
HETATM   13  C30 UNL     1      20.638  28.456  64.285  1.00  0.00     0.137 C 
BRANCH  13  14
HETATM   14  C31 UNL     1      20.957  28.848  62.852  1.00  0.00     0.220 A 
HETATM   15  C32 UNL     1      22.253  28.446  62.250  1.00  0.00     0.266 A 
HETATM   16  N4  UNL     1      21.048  27.679  61.980  1.00  0.00    -0.067 N 
ATOM     17  H42 UNL     1      20.793  26.697  62.076  1.00  0.00     0.277 HD
ATOM     18  H41 UNL     1      20.567  27.385  61.130  1.00  0.00     0.277 HD
ENDBRANCH  13  14
ENDBRANCH  10  13
ENDBRANCH   8   9
BRANCH   8  19
HETATM   19  C33 UNL     1      18.476  24.485  64.460  1.00  0.00     0.241 C 
HETATM   20  O2  UNL     1      18.538  23.286  64.773  1.00  0.00    -0.271 OA
HETATM   21  N5  UNL     1      18.403  24.867  63.099  1.00  0.00    -0.346 N 
ATOM     22  H5  UNL     1      18.345  25.862  62.882  1.00  0.00     0.163 HD
BRANCH  21  23
HETATM   23  C34 UNL     1      18.408  23.930  62.000  1.00  0.00     0.173 C 
BRANCH  23  24
HETATM   24  C35 UNL     1      17.163  23.105  61.872  1.00  0.00     0.030 C 
HETATM   25  C36 UNL     1      17.474  21.660  61.504  1.00  0.00     0.007 C 
ENDBRANCH  23  24
BRANCH  23  26
HETATM   26  C37 UNL     1      18.636  24.702  60.714  1.00  0.00     0.254 C 
HETATM   27  N6  UNL     1      17.739  24.570  59.637  1.00  0.00    -0.060 NA
HETATM   28  O3  UNL     1      19.627  25.447  60.637  1.00  0.00    -0.275 OA
ENDBRANCH  23  26
ENDBRANCH  21  23
ENDBRANCH   8  19
ENDBRANCH   7   8
ENDBRANCH   6   7
ENDBRANCH   5   6
ENDBRANCH   3   5
BRANCH   1  29
HETATM   29  C22 UNL     1      15.014  22.307  64.834  1.00  0.00     0.052 C 
BRANCH  29  30
HETATM   30  C21 UNL     1      13.671  22.104  64.200  1.00  0.00     0.015 C 
BRANCH  30  31
HETATM   31  C20 UNL     1      13.400  20.621  64.162  1.00  0.00     0.022 C 
HETATM   32  C2  UNL     1      13.789  20.074  62.845  1.00  0.00    -0.084 C 
HETATM   33  C1  UNL     1      14.873  19.363  62.598  1.00  0.00     0.014 C 
HETATM   34  C3  UNL     1      12.847  20.339  61.706  1.00  0.00     0.034 C 
HETATM   35  C4  UNL     1      11.583  19.565  62.108  1.00  0.00     0.010 C 
HETATM   36  C5  UNL     1      11.049  20.188  63.344  1.00  0.00    -0.001 C 
HETATM   37  C6  UNL     1       9.807  19.484  63.865  1.00  0.00    -0.005 C 
HETATM   38  C18 UNL     1      11.982  20.252  64.516  1.00  0.00    -0.033 C 
HETATM   39  C7  UNL     1       8.812  19.128  62.802  1.00  0.00     0.007 C 
HETATM   40  C15 UNL     1       9.147  20.423  64.833  1.00  0.00    -0.008 C 
HETATM   41  C8  UNL     1       7.810  18.187  63.441  1.00  0.00     0.036 C 
HETATM   42  C9  UNL     1       7.599  18.443  64.899  1.00  0.00     0.223 C 
HETATM   43  C14 UNL     1       7.847  19.866  65.329  1.00  0.00     0.041 C 
HETATM   44  C16 UNL     1      10.026  20.884  65.948  1.00  0.00     0.006 C 
HETATM   45  C17 UNL     1      11.411  21.249  65.486  1.00  0.00     0.010 C 
HETATM   46  C19 UNL     1      12.080  18.918  65.266  1.00  0.00     0.016 C 
BRANCH  42  47
HETATM   47  N1  UNL     1       8.260  17.534  65.784  1.00  0.00     0.093 N 
HETATM   48  C10 UNL     1       7.687  17.686  67.137  1.00  0.00     0.273 C 
HETATM   49  C11 UNL     1       8.520  16.621  67.860  1.00  0.00     0.032 C 
HETATM   50  C12 UNL     1       8.464  15.493  66.843  1.00  0.00     0.032 C 
HETATM   51  C13 UNL     1       7.929  16.137  65.555  1.00  0.00     0.273 C 
ENDBRANCH  42  47
ENDBRANCH  30  31
ENDBRANCH  29  30
ENDBRANCH   1  29
TORSDOF 15
ENDMDL
MODEL 5
REMARK VINA RESULT: -8.984611578      1.272      1.628
REMARK  15 active torsions:
REMARK  status: ('A' for Active; 'I' for Inactive)
REMARK    1  A    between atoms: C9_9  and  N1_10 
REMARK    2  A    between atoms: C20_21  and  C21_22 
REMARK    3  A    between atoms: C21_22  and  C22_23 
REMARK    4  A    between atoms: C22_23  and  C23_24 
REMARK    5  A    between atoms: N2_26  and  C25_28 
REMARK    6  A    between atoms: C25_28  and  C26_29 
REMARK    7  A    between atoms: C26_29  and  C27_30 
REMARK    8  A    between atoms: C27_30  and  C28_31 
REMARK    9  A    between atoms: C28_31  and  N3_32 
REMARK   10  A    between atoms: C28_31  and  C33_42 
REMARK       I    between atoms: N3_32  and  C29_34 
REMARK   11  A    between atoms: C29_34  and  C30_36 
REMARK   12  A    between atoms: C30_36  and  C31_37 
REMARK       I    between atoms: C33_42  and  N5_44 
REMARK   13  A    between atoms: N5_44  and  C34_46 
REMARK   14  A    between atoms: C34_46  and  C35_47 
REMARK   15  A    between atoms: C34_46  and  C37_49 
ROOT
HETATM    1  C23 UNL     1      15.540  23.572  65.812  1.00  0.00    -0.018 C 
HETATM    2  C24 UNL     1      14.437  24.568  65.812  1.00  0.00     0.063 C 
HETATM    3  N2  UNL     1      16.696  23.865  66.100  1.00  0.00    -0.377 N 
ATOM      4  H2  UNL     1      17.302  23.046  66.040  1.00  0.00     0.164 HD
ENDROOT
BRANCH   3   5
HETATM    5  C25 UNL     1      17.418  24.981  66.484  1.00  0.00     0.061 C 
BRANCH   5   6
HETATM    6  C26 UNL     1      18.210  25.691  65.425  1.00  0.00     0.047 C 
BRANCH   6   7
HETATM    7  C27 UNL     1      18.490  24.825  64.204  1.00  0.00     0.040 C 
BRANCH   7   8
HETATM    8  C28 UNL     1      18.727  25.681  62.990  1.00  0.00     0.177 C 
BRANCH   8   9
HETATM    9  N3  UNL     1      19.929  26.485  63.083  1.00  0.00    -0.348 N 
HETATM   10  C29 UNL     1      19.872  27.915  62.935  1.00  0.00     0.220 C 
HETATM   11  O1  UNL     1      18.802  28.490  62.711  1.00  0.00    -0.274 OA
ATOM     12  H3  UNL     1      20.826  26.031  63.256  1.00  0.00     0.163 HD
BRANCH  10  13
HETATM   13  C30 UNL     1      21.123  28.677  63.054  1.00  0.00     0.137 C 
BRANCH  13  14
HETATM   14  C31 UNL     1      20.995  29.907  63.937  1.00  0.00     0.220 A 
HETATM   15  C32 UNL     1      21.764  31.133  63.608  1.00  0.00     0.266 A 
HETATM   16  N4  UNL     1      20.366  31.019  63.226  1.00  0.00    -0.067 N 
ATOM     17  H42 UNL     1      19.859  31.106  62.345  1.00  0.00     0.277 HD
ATOM     18  H41 UNL     1      19.535  31.589  63.386  1.00  0.00     0.277 HD
ENDBRANCH  13  14
ENDBRANCH  10  13
ENDBRANCH   8   9
BRANCH   8  19
HETATM   19  C33 UNL     1      18.673  24.896  61.734  1.00  0.00     0.241 C 
HETATM   20  O2  UNL     1      19.519  25.089  60.848  1.00  0.00    -0.271 OA
HETATM   21  N5  UNL     1      17.648  23.937  61.551  1.00  0.00    -0.346 N 
ATOM     22  H5  UNL     1      16.976  23.802  62.307  1.00  0.00     0.163 HD
BRANCH  21  23
HETATM   23  C34 UNL     1      17.499  23.139  60.356  1.00  0.00     0.173 C 
BRANCH  23  24
HETATM   24  C35 UNL     1      17.659  21.663  60.563  1.00  0.00     0.030 C 
HETATM   25  C36 UNL     1      19.123  21.263  60.698  1.00  0.00     0.007 C 
ENDBRANCH  23  24
BRANCH  23  26
HETATM   26  C37 UNL     1      16.133  23.420  59.761  1.00  0.00     0.254 C 
HETATM   27  N6  UNL     1      15.206  22.375  59.583  1.00  0.00    -0.060 NA
HETATM   28  O3  UNL     1      15.855  24.587  59.437  1.00  0.00    -0.275 OA
ENDBRANCH  23  26
ENDBRANCH  21  23
ENDBRANCH   8  19
ENDBRANCH   7   8
ENDBRANCH   6   7
ENDBRANCH   5   6
ENDBRANCH   3   5
BRANCH   1  29
HETATM   29  C22 UNL     1      15.163  22.181  65.434  1.00  0.00     0.052 C 
BRANCH  29  30
HETATM   30  C21 UNL     1      13.926  22.066  64.594  1.00  0.00     0.015 C 
BRANCH  30  31
HETATM   31  C20 UNL     1      13.604  20.600  64.449  1.00  0.00     0.022 C 
HETATM   32  C2  UNL     1      14.029  20.122  63.117  1.00  0.00    -0.084 C 
HETATM   33  C1  UNL     1      15.095  19.387  62.868  1.00  0.00     0.014 C 
HETATM   34  C3  UNL     1      13.146  20.495  61.960  1.00  0.00     0.034 C 
HETATM   35  C4  UNL     1      11.839  19.746  62.259  1.00  0.00     0.010 C 
HETATM   36  C5  UNL     1      11.275  20.310  63.511  1.00  0.00    -0.001 C 
HETATM   37  C6  UNL     1       9.988  19.623  63.935  1.00  0.00    -0.005 C 
HETATM   38  C18 UNL     1      12.159  20.264  64.721  1.00  0.00    -0.033 C 
HETATM   39  C7  UNL     1       9.027  19.374  62.812  1.00  0.00     0.007 C 
HETATM   40  C15 UNL     1       9.322  20.524  64.935  1.00  0.00    -0.008 C 
HETATM   41  C8  UNL     1       7.966  18.434  63.348  1.00  0.00     0.036 C 
HETATM   42  C9  UNL     1       7.702  18.606  64.809  1.00  0.00     0.223 C 
HETATM   43  C14 UNL     1       7.983  19.988  65.341  1.00  0.00     0.041 C 
HETATM   44  C16 UNL     1      10.168  20.879  66.111  1.00  0.00     0.006 C 
HETATM   45  C17 UNL     1      11.584  21.219  65.730  1.00  0.00     0.010 C 
HETATM   46  C19 UNL     1      12.177  18.882  65.387  1.00  0.00     0.016 C 
BRANCH  42  47
HETATM   47  N1  UNL     1       8.291  17.617  65.660  1.00  0.00     0.093 N 
HETATM   48  C10 UNL     1       7.685  17.722  67.002  1.00  0.00     0.273 C 
HETATM   49  C11 UNL     1       8.444  16.579  67.688  1.00  0.00     0.032 C 
HETATM   50  C12 UNL     1       8.366  15.513  66.607  1.00  0.00     0.032 C 
HETATM   51  C13 UNL     1       7.902  16.253  65.342  1.00  0.00     0.273 C 
ENDBRANCH  42  47
ENDBRANCH  30  31
ENDBRANCH  29  30
ENDBRANCH   1  29
TORSDOF 15
ENDMDL
