MODEL 1
REMARK VINA RESULT: -6.445875959      0.000      0.000
REMARK  16 active torsions:
REMARK  status: ('A' for Active; 'I' for Inactive)
REMARK    1  A    between atoms: C2_2  and  C3_3 
REMARK    2  A    between atoms: C3_3  and  C4_4 
REMARK    3  A    between atoms: C4_4  and  C5_5 
REMARK    4  A    between atoms: C5_5  and  C6_6 
REMARK    5  A    between atoms: C6_6  and  C7_7 
REMARK    6  A    between atoms: C7_7  and  C8_8 
REMARK    7  A    between atoms: C8_8  and  C9_9 
REMARK    8  A    between atoms: C9_9  and  C10_10 
REMARK       I    between atoms: N2_15  and  C12_16 
REMARK       I    between atoms: C12_16  and  N3_18 
REMARK    9  A    between atoms: C19_26  and  C20_27 
REMARK   10  A    between atoms: C20_27  and  C21_28 
REMARK   11  A    between atoms: C25_35  and  C26_36 
REMARK   12  A    between atoms: C26_36  and  C27_37 
REMARK   13  A    between atoms: C27_37  and  C28_38 
REMARK   14  A    between atoms: C28_38  and  C29_39 
REMARK   15  A    between atoms: C29_39  and  N6_40 
REMARK   16  A    between atoms: C30_44  and  O4_45 
ROOT
HETATM    1  C10 UNL     1      10.972  20.728  65.383  1.00  0.00     0.083 C 
HETATM    2  C11 UNL     1      10.821  21.280  63.980  1.00  0.00     0.241 C 
HETATM    3  O1  UNL     1      10.770  22.564  63.915  1.00  0.00    -0.271 OA
HETATM    4  N1  UNL     1      10.725  20.586  62.771  1.00  0.00    -0.259 N 
ATOM      5  H1  UNL     1       9.781  20.599  62.385  1.00  0.00     0.190 HD
HETATM    6  N2  UNL     1      11.627  19.877  61.967  1.00  0.00    -0.202 N 
HETATM    7  C12 UNL     1      11.335  18.493  61.746  1.00  0.00     0.344 C 
HETATM    8  O2  UNL     1      12.154  17.914  60.921  1.00  0.00    -0.245 OA
HETATM    9  N3  UNL     1      10.350  17.659  62.242  1.00  0.00    -0.329 N 
HETATM   10  C13 UNL     1       9.285  17.844  63.159  1.00  0.00     0.155 C 
HETATM   11  C14 UNL     1       7.996  17.682  62.336  1.00  0.00     0.256 C 
HETATM   12  N4  UNL     1       7.898  16.374  61.798  1.00  0.00    -0.072 N 
HETATM   13  C15 UNL     1       6.697  15.747  62.363  1.00  0.00     0.272 C 
HETATM   14  C16 UNL     1       7.643  16.435  60.355  1.00  0.00     0.272 C 
HETATM   15  C17 UNL     1       9.072  15.611  62.082  1.00  0.00     0.256 C 
HETATM   16  C18 UNL     1      10.374  16.257  61.729  1.00  0.00     0.155 C 
HETATM   17  C19 UNL     1      12.821  20.484  61.358  1.00  0.00     0.107 C 
HETATM   18  C24 UNL     1      14.117  20.026  61.915  1.00  0.00     0.266 C 
HETATM   19  O3  UNL     1      14.545  18.951  61.400  1.00  0.00    -0.266 OA
HETATM   20  N5  UNL     1      14.918  20.588  62.896  1.00  0.00    -0.348 N 
ATOM     21  H5  UNL     1      15.030  19.987  63.712  1.00  0.00     0.163 HD
HETATM   22  C25 UNL     1      15.627  21.837  63.014  1.00  0.00     0.117 C 
HETATM   23  C30 UNL     1      15.627  22.489  64.341  1.00  0.00     0.163 C 
HETATM   24  C31 UNL     1      14.400  23.083  64.840  1.00  0.00     0.003 C 
HETATM   25  C32 UNL     1      13.459  22.634  65.623  1.00  0.00    -0.028 C 
HETATM   26  C33 UNL     1      13.306  21.344  66.287  1.00  0.00     0.032 C 
HETATM   27  C34 UNL     1      12.351  20.374  65.746  1.00  0.00    -0.002 C 
HETATM   28  C35 UNL     1      12.464  19.115  66.624  1.00  0.00     0.011 C 
ENDROOT
BRANCH  17  29
HETATM   29  C20 UNL     1      12.834  20.593  59.880  1.00  0.00     0.069 C 
BRANCH  29  30
HETATM   30  C21 UNL     1      13.749  21.517  59.203  1.00  0.00    -0.017 C 
HETATM   31  C22 UNL     1      14.403  22.607  59.978  1.00  0.00     0.010 C 
HETATM   32  C23 UNL     1      14.800  20.782  58.360  1.00  0.00     0.010 C 
ENDBRANCH  29  30
ENDBRANCH  17  29
BRANCH   1  33
HETATM   33  C9  UNL     1      10.147  21.549  66.310  1.00  0.00     0.014 C 
BRANCH  33  34
HETATM   34  C8  UNL     1       8.970  20.894  66.945  1.00  0.00     0.001 C 
BRANCH  34  35
HETATM   35  C7  UNL     1       8.709  19.515  66.360  1.00  0.00     0.000 C 
BRANCH  35  36
HETATM   36  C6  UNL     1       8.997  18.407  67.322  1.00  0.00     0.000 C 
BRANCH  36  37
HETATM   37  C5  UNL     1       7.824  17.478  67.530  1.00  0.00     0.000 C 
BRANCH  37  38
HETATM   38  C4  UNL     1       6.680  17.930  66.684  1.00  0.00     0.004 C 
BRANCH  38  39
HETATM   39  C3  UNL     1       5.400  18.177  67.412  1.00  0.00     0.026 C 
BRANCH  39  40
HETATM   40  C2  UNL     1       5.128  19.656  67.300  1.00  0.00    -0.037 C 
HETATM   41  C1  UNL     1       4.043  20.056  66.667  1.00  0.00     0.007 C 
ENDBRANCH  39  40
ENDBRANCH  38  39
ENDBRANCH  37  38
ENDBRANCH  36  37
ENDBRANCH  35  36
ENDBRANCH  34  35
ENDBRANCH  33  34
ENDBRANCH   1  33
BRANCH  22  42
HETATM   42  C26 UNL     1      17.075  21.519  62.692  1.00  0.00     0.028 C 
BRANCH  42  43
HETATM   43  C27 UNL     1      17.412  21.345  61.261  1.00  0.00     0.004 C 
BRANCH  43  44
HETATM   44  C28 UNL     1      18.888  21.639  61.057  1.00  0.00     0.027 C 
BRANCH  44  45
HETATM   45  C29 UNL     1      19.439  21.962  62.450  1.00  0.00     0.229 C 
BRANCH  45  46
HETATM   46  N6  UNL     1      20.356  20.912  62.823  1.00  0.00    -0.079 N 
ATOM     47  H63 UNL     1      20.105  20.008  62.421  1.00  0.00     0.274 HD
ATOM     48  H62 UNL     1      21.270  21.010  62.381  1.00  0.00     0.274 HD
ATOM     49  H61 UNL     1      20.411  20.888  63.842  1.00  0.00     0.274 HD
ENDBRANCH  45  46
ENDBRANCH  44  45
ENDBRANCH  43  44
ENDBRANCH  42  43
ENDBRANCH  22  42
BRANCH  23  50
HETATM   50  O4  UNL     1      16.327  21.664  65.210  1.00  0.00    -0.390 OA
ATOM     51  H4  UNL     1      16.490  22.159  66.004  1.00  0.00     0.210 HD
ENDBRANCH  23  50
TORSDOF 16
ENDMDL
MODEL 2
REMARK VINA RESULT: -6.345463831      0.572      1.329
REMARK  16 active torsions:
REMARK  status: ('A' for Active; 'I' for Inactive)
REMARK    1  A    between atoms: C2_2  and  C3_3 
REMARK    2  A    between atoms: C3_3  and  C4_4 
REMARK    3  A    between atoms: C4_4  and  C5_5 
REMARK    4  A    between atoms: C5_5  and  C6_6 
REMARK    5  A    between atoms: C6_6  and  C7_7 
REMARK    6  A    between atoms: C7_7  and  C8_8 
REMARK    7  A    between atoms: C8_8  and  C9_9 
REMARK    8  A    between atoms: C9_9  and  C10_10 
REMARK       I    between atoms: N2_15  and  C12_16 
REMARK       I    between atoms: C12_16  and  N3_18 
REMARK    9  A    between atoms: C19_26  and  C20_27 
REMARK   10  A    between atoms: C20_27  and  C21_28 
REMARK   11  A    between atoms: C25_35  and  C26_36 
REMARK   12  A    between atoms: C26_36  and  C27_37 
REMARK   13  A    between atoms: C27_37  and  C28_38 
REMARK   14  A    between atoms: C28_38  and  C29_39 
REMARK   15  A    between atoms: C29_39  and  N6_40 
REMARK   16  A    between atoms: C30_44  and  O4_45 
ROOT
HETATM    1  C10 UNL     1      10.836  20.685  65.370  1.00  0.00     0.083 C 
HETATM    2  C11 UNL     1      10.720  21.242  63.965  1.00  0.00     0.241 C 
HETATM    3  O1  UNL     1      10.645  22.525  63.905  1.00  0.00    -0.271 OA
HETATM    4  N1  UNL     1      10.676  20.553  62.750  1.00  0.00    -0.259 N 
ATOM      5  H1  UNL     1       9.745  20.549  62.334  1.00  0.00     0.190 HD
HETATM    6  N2  UNL     1      11.617  19.865  61.973  1.00  0.00    -0.202 N 
HETATM    7  C12 UNL     1      11.360  18.477  61.736  1.00  0.00     0.344 C 
HETATM    8  O2  UNL     1      12.216  17.919  60.936  1.00  0.00    -0.245 OA
HETATM    9  N3  UNL     1      10.376  17.622  62.196  1.00  0.00    -0.329 N 
HETATM   10  C13 UNL     1       9.279  17.781  63.079  1.00  0.00     0.155 C 
HETATM   11  C14 UNL     1       8.020  17.598  62.213  1.00  0.00     0.256 C 
HETATM   12  N4  UNL     1       7.965  16.291  61.666  1.00  0.00    -0.072 N 
HETATM   13  C15 UNL     1       6.759  15.638  62.189  1.00  0.00     0.272 C 
HETATM   14  C16 UNL     1       7.756  16.355  60.216  1.00  0.00     0.272 C 
HETATM   15  C17 UNL     1       9.144  15.550  61.985  1.00  0.00     0.256 C 
HETATM   16  C18 UNL     1      10.444  16.223  61.678  1.00  0.00     0.155 C 
HETATM   17  C19 UNL     1      12.819  20.499  61.406  1.00  0.00     0.107 C 
HETATM   18  C24 UNL     1      14.104  20.064  62.003  1.00  0.00     0.266 C 
HETATM   19  O3  UNL     1      14.570  19.000  61.497  1.00  0.00    -0.266 OA
HETATM   20  N5  UNL     1      14.862  20.636  63.012  1.00  0.00    -0.348 N 
ATOM     21  H5  UNL     1      14.959  20.033  63.829  1.00  0.00     0.163 HD
HETATM   22  C25 UNL     1      15.542  21.897  63.159  1.00  0.00     0.117 C 
HETATM   23  C30 UNL     1      15.486  22.542  64.488  1.00  0.00     0.163 C 
HETATM   24  C31 UNL     1      14.233  23.110  64.950  1.00  0.00     0.003 C 
HETATM   25  C32 UNL     1      13.276  22.638  65.700  1.00  0.00    -0.028 C 
HETATM   26  C33 UNL     1      13.126  21.342  66.352  1.00  0.00     0.032 C 
HETATM   27  C34 UNL     1      12.209  20.356  65.776  1.00  0.00    -0.002 C 
HETATM   28  C35 UNL     1      12.318  19.095  66.651  1.00  0.00     0.011 C 
ENDROOT
BRANCH  17  29
HETATM   29  C20 UNL     1      12.877  20.616  59.930  1.00  0.00     0.069 C 
BRANCH  29  30
HETATM   30  C21 UNL     1      13.804  21.552  59.287  1.00  0.00    -0.017 C 
HETATM   31  C22 UNL     1      14.477  22.601  60.103  1.00  0.00     0.010 C 
HETATM   32  C23 UNL     1      14.842  20.836  58.412  1.00  0.00     0.010 C 
ENDBRANCH  29  30
ENDBRANCH  17  29
BRANCH   1  33
HETATM   33  C9  UNL     1       9.965  21.486  66.273  1.00  0.00     0.014 C 
BRANCH  33  34
HETATM   34  C8  UNL     1       8.962  20.749  67.091  1.00  0.00     0.001 C 
BRANCH  34  35
HETATM   35  C7  UNL     1       7.554  20.914  66.540  1.00  0.00     0.000 C 
BRANCH  35  36
HETATM   36  C6  UNL     1       6.507  20.304  67.415  1.00  0.00     0.000 C 
BRANCH  36  37
HETATM   37  C5  UNL     1       5.596  19.350  66.678  1.00  0.00     0.000 C 
BRANCH  37  38
HETATM   38  C4  UNL     1       6.010  17.946  66.970  1.00  0.00     0.004 C 
BRANCH  38  39
HETATM   39  C3  UNL     1       6.851  17.293  65.924  1.00  0.00     0.026 C 
BRANCH  39  40
HETATM   40  C2  UNL     1       8.196  17.043  66.558  1.00  0.00    -0.037 C 
HETATM   41  C1  UNL     1       8.299  17.095  67.871  1.00  0.00     0.007 C 
ENDBRANCH  39  40
ENDBRANCH  38  39
ENDBRANCH  37  38
ENDBRANCH  36  37
ENDBRANCH  35  36
ENDBRANCH  34  35
ENDBRANCH  33  34
ENDBRANCH   1  33
BRANCH  22  42
HETATM   42  C26 UNL     1      17.005  21.609  62.882  1.00  0.00     0.028 C 
BRANCH  42  43
HETATM   43  C27 UNL     1      17.699  22.533  61.958  1.00  0.00     0.004 C 
BRANCH  43  44
HETATM   44  C28 UNL     1      19.163  22.630  62.353  1.00  0.00     0.027 C 
BRANCH  44  45
HETATM   45  C29 UNL     1      19.821  21.360  61.803  1.00  0.00     0.229 C 
BRANCH  45  46
HETATM   46  N6  UNL     1      20.445  20.666  62.904  1.00  0.00    -0.079 N 
ATOM     47  H63 UNL     1      20.611  21.271  63.708  1.00  0.00     0.274 HD
ATOM     48  H62 UNL     1      19.817  20.003  63.359  1.00  0.00     0.274 HD
ATOM     49  H61 UNL     1      21.299  20.228  62.558  1.00  0.00     0.274 HD
ENDBRANCH  45  46
ENDBRANCH  44  45
ENDBRANCH  43  44
ENDBRANCH  42  43
ENDBRANCH  22  42
BRANCH  23  50
HETATM   50  O4  UNL     1      16.174  21.726  65.375  1.00  0.00    -0.390 OA
ATOM     51  H4  UNL     1      15.554  21.436  66.035  1.00  0.00     0.210 HD
ENDBRANCH  23  50
TORSDOF 16
ENDMDL
MODEL 3
REMARK VINA RESULT: -6.343244721      3.137      7.355
REMARK  16 active torsions:
REMARK  status: ('A' for Active; 'I' for Inactive)
REMARK    1  A    between atoms: C2_2  and  C3_3 
REMARK    2  A    between atoms: C3_3  and  C4_4 
REMARK    3  A    between atoms: C4_4  and  C5_5 
REMARK    4  A    between atoms: C5_5  and  C6_6 
REMARK    5  A    between atoms: C6_6  and  C7_7 
REMARK    6  A    between atoms: C7_7  and  C8_8 
REMARK    7  A    between atoms: C8_8  and  C9_9 
REMARK    8  A    between atoms: C9_9  and  C10_10 
REMARK       I    between atoms: N2_15  and  C12_16 
REMARK       I    between atoms: C12_16  and  N3_18 
REMARK    9  A    between atoms: C19_26  and  C20_27 
REMARK   10  A    between atoms: C20_27  and  C21_28 
REMARK   11  A    between atoms: C25_35  and  C26_36 
REMARK   12  A    between atoms: C26_36  and  C27_37 
REMARK   13  A    between atoms: C27_37  and  C28_38 
REMARK   14  A    between atoms: C28_38  and  C29_39 
REMARK   15  A    between atoms: C29_39  and  N6_40 
REMARK   16  A    between atoms: C30_44  and  O4_45 
ROOT
HETATM    1  C10 UNL     1       6.303  16.058  63.311  1.00  0.00     0.083 C 
HETATM    2  C11 UNL     1       7.184  16.089  64.544  1.00  0.00     0.241 C 
HETATM    3  O1  UNL     1       8.008  15.105  64.636  1.00  0.00    -0.271 OA
HETATM    4  N1  UNL     1       7.209  17.028  65.578  1.00  0.00    -0.259 N 
ATOM      5  H1  UNL     1       6.798  16.673  66.441  1.00  0.00     0.190 HD
HETATM    6  N2  UNL     1       7.671  18.346  65.702  1.00  0.00    -0.202 N 
HETATM    7  C12 UNL     1       6.694  19.336  66.041  1.00  0.00     0.344 C 
HETATM    8  O2  UNL     1       7.196  20.518  66.231  1.00  0.00    -0.245 OA
HETATM    9  N3  UNL     1       5.323  19.273  66.205  1.00  0.00    -0.329 N 
HETATM   10  C13 UNL     1       4.372  18.229  66.079  1.00  0.00     0.155 C 
HETATM   11  C14 UNL     1       3.825  17.994  67.498  1.00  0.00     0.256 C 
HETATM   12  N4  UNL     1       3.158  19.147  67.983  1.00  0.00    -0.072 N 
HETATM   13  C15 UNL     1       1.754  18.787  68.217  1.00  0.00     0.272 C 
HETATM   14  C16 UNL     1       3.675  19.515  69.305  1.00  0.00     0.272 C 
HETATM   15  C17 UNL     1       3.275  20.234  67.063  1.00  0.00     0.256 C 
HETATM   16  C18 UNL     1       4.661  20.552  66.597  1.00  0.00     0.155 C 
HETATM   17  C19 UNL     1       9.077  18.735  65.507  1.00  0.00     0.107 C 
HETATM   18  C24 UNL     1       9.346  19.548  64.297  1.00  0.00     0.266 C 
HETATM   19  O3  UNL     1       9.148  20.788  64.458  1.00  0.00    -0.266 OA
HETATM   20  N5  UNL     1       9.775  19.163  63.037  1.00  0.00    -0.348 N 
ATOM     21  H5  UNL     1       9.098  19.371  62.304  1.00  0.00     0.163 HD
HETATM   22  C25 UNL     1      10.971  18.532  62.538  1.00  0.00     0.117 C 
HETATM   23  C30 UNL     1      10.806  17.530  61.464  1.00  0.00     0.163 C 
HETATM   24  C31 UNL     1      10.203  16.248  61.776  1.00  0.00     0.003 C 
HETATM   25  C32 UNL     1       8.980  15.804  61.683  1.00  0.00    -0.028 C 
HETATM   26  C33 UNL     1       7.760  16.459  61.223  1.00  0.00     0.032 C 
HETATM   27  C34 UNL     1       6.777  16.909  62.210  1.00  0.00    -0.002 C 
HETATM   28  C35 UNL     1       5.649  17.597  61.422  1.00  0.00     0.011 C 
ENDROOT
BRANCH  17  29
HETATM   29  C20 UNL     1       9.806  19.219  66.703  1.00  0.00     0.069 C 
BRANCH  29  30
HETATM   30  C21 UNL     1      11.271  19.295  66.709  1.00  0.00    -0.017 C 
HETATM   31  C22 UNL     1      11.942  20.611  66.521  1.00  0.00     0.010 C 
HETATM   32  C23 UNL     1      11.886  18.569  67.913  1.00  0.00     0.010 C 
ENDBRANCH  29  30
ENDBRANCH  17  29
BRANCH   1  33
HETATM   33  C9  UNL     1       5.908  14.648  63.043  1.00  0.00     0.014 C 
BRANCH  33  34
HETATM   34  C8  UNL     1       4.456  14.359  62.889  1.00  0.00     0.001 C 
BRANCH  34  35
HETATM   35  C7  UNL     1       3.600  15.329  63.689  1.00  0.00     0.000 C 
BRANCH  35  36
HETATM   36  C6  UNL     1       2.134  15.107  63.504  1.00  0.00     0.000 C 
BRANCH  36  37
HETATM   37  C5  UNL     1       1.644  15.475  62.122  1.00  0.00     0.000 C 
BRANCH  37  38
HETATM   38  C4  UNL     1       2.080  16.866  61.799  1.00  0.00     0.004 C 
BRANCH  38  39
HETATM   39  C3  UNL     1       1.118  17.944  62.173  1.00  0.00     0.026 C 
BRANCH  39  40
HETATM   40  C2  UNL     1       1.721  18.657  63.357  1.00  0.00    -0.037 C 
HETATM   41  C1  UNL     1       1.039  18.707  64.484  1.00  0.00     0.007 C 
ENDBRANCH  39  40
ENDBRANCH  38  39
ENDBRANCH  37  38
ENDBRANCH  36  37
ENDBRANCH  35  36
ENDBRANCH  34  35
ENDBRANCH  33  34
ENDBRANCH   1  33
BRANCH  22  42
HETATM   42  C26 UNL     1      11.813  19.652  61.956  1.00  0.00     0.028 C 
BRANCH  42  43
HETATM   43  C27 UNL     1      12.737  20.338  62.885  1.00  0.00     0.004 C 
BRANCH  43  44
HETATM   44  C28 UNL     1      14.121  19.726  62.757  1.00  0.00     0.027 C 
BRANCH  44  45
HETATM   45  C29 UNL     1      14.602  19.491  64.193  1.00  0.00     0.229 C 
BRANCH  45  46
HETATM   46  N6  UNL     1      14.001  18.270  64.671  1.00  0.00    -0.079 N 
ATOM     47  H63 UNL     1      14.124  17.490  64.026  1.00  0.00     0.274 HD
ATOM     48  H62 UNL     1      14.500  17.870  65.466  1.00  0.00     0.274 HD
ATOM     49  H61 UNL     1      13.020  18.460  64.877  1.00  0.00     0.274 HD
ENDBRANCH  45  46
ENDBRANCH  44  45
ENDBRANCH  43  44
ENDBRANCH  42  43
ENDBRANCH  22  42
BRANCH  23  50
HETATM   50  O4  UNL     1      10.328  18.196  60.343  1.00  0.00    -0.390 OA
ATOM     51  H4  UNL     1      11.004  18.153  59.677  1.00  0.00     0.210 HD
ENDBRANCH  23  50
TORSDOF 16
ENDMDL
MODEL 4
REMARK VINA RESULT: -6.257339025      4.158     10.280
REMARK  16 active torsions:
REMARK  status: ('A' for Active; 'I' for Inactive)
REMARK    1  A    between atoms: C2_2  and  C3_3 
REMARK    2  A    between atoms: C3_3  and  C4_4 
REMARK    3  A    between atoms: C4_4  and  C5_5 
REMARK    4  A    between atoms: C5_5  and  C6_6 
REMARK    5  A    between atoms: C6_6  and  C7_7 
REMARK    6  A    between atoms: C7_7  and  C8_8 
REMARK    7  A    between atoms: C8_8  and  C9_9 
REMARK    8  A    between atoms: C9_9  and  C10_10 
REMARK       I    between atoms: N2_15  and  C12_16 
REMARK       I    between atoms: C12_16  and  N3_18 
REMARK    9  A    between atoms: C19_26  and  C20_27 
REMARK   10  A    between atoms: C20_27  and  C21_28 
REMARK   11  A    between atoms: C25_35  and  C26_36 
REMARK   12  A    between atoms: C26_36  and  C27_37 
REMARK   13  A    between atoms: C27_37  and  C28_38 
REMARK   14  A    between atoms: C28_38  and  C29_39 
REMARK   15  A    between atoms: C29_39  and  N6_40 
REMARK   16  A    between atoms: C30_44  and  O4_45 
ROOT
HETATM    1  C10 UNL     1       7.441  18.295  66.556  1.00  0.00     0.083 C 
HETATM    2  C11 UNL     1       7.125  16.878  66.123  1.00  0.00     0.241 C 
HETATM    3  O1  UNL     1       6.832  16.078  67.087  1.00  0.00    -0.271 OA
HETATM    4  N1  UNL     1       7.119  16.336  64.834  1.00  0.00    -0.259 N 
ATOM      5  H1  UNL     1       7.916  15.724  64.662  1.00  0.00     0.190 HD
HETATM    6  N2  UNL     1       6.269  16.442  63.725  1.00  0.00    -0.202 N 
HETATM    7  C12 UNL     1       6.845  16.970  62.526  1.00  0.00     0.344 C 
HETATM    8  O2  UNL     1       6.036  16.957  61.511  1.00  0.00    -0.245 OA
HETATM    9  N3  UNL     1       8.095  17.488  62.244  1.00  0.00    -0.329 N 
HETATM   10  C13 UNL     1       9.257  17.713  63.025  1.00  0.00     0.155 C 
HETATM   11  C14 UNL     1      10.325  16.757  62.464  1.00  0.00     0.256 C 
HETATM   12  N4  UNL     1      10.628  17.069  61.115  1.00  0.00    -0.072 N 
HETATM   13  C15 UNL     1      12.045  17.449  61.051  1.00  0.00     0.272 C 
HETATM   14  C16 UNL     1      10.525  15.868  60.280  1.00  0.00     0.272 C 
HETATM   15  C17 UNL     1       9.782  18.112  60.625  1.00  0.00     0.256 C 
HETATM   16  C18 UNL     1       8.314  17.913  60.830  1.00  0.00     0.155 C 
HETATM   17  C19 UNL     1       4.854  16.039  63.746  1.00  0.00     0.107 C 
HETATM   18  C24 UNL     1       3.878  17.151  63.657  1.00  0.00     0.266 C 
HETATM   19  O3  UNL     1       3.632  17.524  62.472  1.00  0.00    -0.266 OA
HETATM   20  N5  UNL     1       3.204  17.833  64.657  1.00  0.00    -0.348 N 
ATOM     21  H5  UNL     1       3.436  18.825  64.690  1.00  0.00     0.163 HD
HETATM   22  C25 UNL     1       2.246  17.445  65.662  1.00  0.00     0.117 C 
HETATM   23  C30 UNL     1       2.381  18.066  66.997  1.00  0.00     0.163 C 
HETATM   24  C31 UNL     1       3.496  17.689  67.846  1.00  0.00     0.003 C 
HETATM   25  C32 UNL     1       4.672  18.218  68.041  1.00  0.00    -0.028 C 
HETATM   26  C33 UNL     1       5.294  19.401  67.457  1.00  0.00     0.032 C 
HETATM   27  C34 UNL     1       6.316  19.231  66.422  1.00  0.00    -0.002 C 
HETATM   28  C35 UNL     1       6.729  20.646  65.979  1.00  0.00     0.011 C 
ENDROOT
BRANCH  17  29
HETATM   29  C20 UNL     1       4.480  14.873  62.910  1.00  0.00     0.069 C 
BRANCH  29  30
HETATM   30  C21 UNL     1       3.079  14.462  62.779  1.00  0.00    -0.017 C 
HETATM   31  C22 UNL     1       2.496  14.250  61.425  1.00  0.00     0.010 C 
HETATM   32  C23 UNL     1       2.735  13.269  63.681  1.00  0.00     0.010 C 
ENDBRANCH  29  30
ENDBRANCH  17  29
BRANCH   1  33
HETATM   33  C9  UNL     1       8.218  18.243  67.825  1.00  0.00     0.014 C 
BRANCH  33  34
HETATM   34  C8  UNL     1       9.694  18.418  67.734  1.00  0.00     0.001 C 
BRANCH  34  35
HETATM   35  C7  UNL     1      10.098  19.135  66.455  1.00  0.00     0.000 C 
BRANCH  35  36
HETATM   36  C6  UNL     1      10.301  20.604  66.645  1.00  0.00     0.000 C 
BRANCH  36  37
HETATM   37  C5  UNL     1      10.838  21.296  65.414  1.00  0.00     0.000 C 
BRANCH  37  38
HETATM   38  C4  UNL     1      12.286  20.970  65.256  1.00  0.00     0.004 C 
BRANCH  38  39
HETATM   39  C3  UNL     1      13.202  22.144  65.162  1.00  0.00     0.026 C 
BRANCH  39  40
HETATM   40  C2  UNL     1      14.289  21.916  66.183  1.00  0.00    -0.037 C 
HETATM   41  C1  UNL     1      14.735  22.944  66.877  1.00  0.00     0.007 C 
ENDBRANCH  39  40
ENDBRANCH  38  39
ENDBRANCH  37  38
ENDBRANCH  36  37
ENDBRANCH  35  36
ENDBRANCH  34  35
ENDBRANCH  33  34
ENDBRANCH   1  33
BRANCH  22  42
HETATM   42  C26 UNL     1       0.893  17.870  65.125  1.00  0.00     0.028 C 
BRANCH  42  43
HETATM   43  C27 UNL     1      -0.046  16.785  64.761  1.00  0.00     0.004 C 
BRANCH  43  44
HETATM   44  C28 UNL     1       0.066  16.506  63.272  1.00  0.00     0.027 C 
BRANCH  44  45
HETATM   45  C29 UNL     1       0.107  17.882  62.598  1.00  0.00     0.229 C 
BRANCH  45  46
HETATM   46  N6  UNL     1       0.881  17.764  61.386  1.00  0.00    -0.079 N 
ATOM     47  H63 UNL     1       1.453  18.588  61.201  1.00  0.00     0.274 HD
ATOM     48  H62 UNL     1       1.640  17.086  61.467  1.00  0.00     0.274 HD
ATOM     49  H61 UNL     1       0.240  17.548  60.622  1.00  0.00     0.274 HD
ENDBRANCH  45  46
ENDBRANCH  44  45
ENDBRANCH  43  44
ENDBRANCH  42  43
ENDBRANCH  22  42
BRANCH  23  50
HETATM   50  O4  UNL     1       2.129  19.423  66.851  1.00  0.00    -0.390 OA
ATOM     51  H4  UNL     1       1.209  19.564  67.044  1.00  0.00     0.210 HD
ENDBRANCH  23  50
TORSDOF 16
ENDMDL
MODEL 5
REMARK VINA RESULT: -6.193871723      4.255     10.209
REMARK  16 active torsions:
REMARK  status: ('A' for Active; 'I' for Inactive)
REMARK    1  A    between atoms: C2_2  and  C3_3 
REMARK    2  A    between atoms: C3_3  and  C4_4 
REMARK    3  A    between atoms: C4_4  and  C5_5 
REMARK    4  A    between atoms: C5_5  and  C6_6 
REMARK    5  A    between atoms: C6_6  and  C7_7 
REMARK    6  A    between atoms: C7_7  and  C8_8 
REMARK    7  A    between atoms: C8_8  and  C9_9 
REMARK    8  A    between atoms: C9_9  and  C10_10 
REMARK       I    between atoms: N2_15  and  C12_16 
REMARK       I    between atoms: C12_16  and  N3_18 
REMARK    9  A    between atoms: C19_26  and  C20_27 
REMARK   10  A    between atoms: C20_27  and  C21_28 
REMARK   11  A    between atoms: C25_35  and  C26_36 
REMARK   12  A    between atoms: C26_36  and  C27_37 
REMARK   13  A    between atoms: C27_37  and  C28_38 
REMARK   14  A    between atoms: C28_38  and  C29_39 
REMARK   15  A    between atoms: C29_39  and  N6_40 
REMARK   16  A    between atoms: C30_44  and  O4_45 
ROOT
HETATM    1  C10 UNL     1       7.427  18.281  66.519  1.00  0.00     0.083 C 
HETATM    2  C11 UNL     1       7.105  16.862  66.099  1.00  0.00     0.241 C 
HETATM    3  O1  UNL     1       6.822  16.068  67.072  1.00  0.00    -0.271 OA
HETATM    4  N1  UNL     1       7.084  16.312  64.814  1.00  0.00    -0.259 N 
ATOM      5  H1  UNL     1       7.879  15.697  64.637  1.00  0.00     0.190 HD
HETATM    6  N2  UNL     1       6.222  16.411  63.714  1.00  0.00    -0.202 N 
HETATM    7  C12 UNL     1       6.785  16.930  62.505  1.00  0.00     0.344 C 
HETATM    8  O2  UNL     1       5.965  16.911  61.499  1.00  0.00    -0.245 OA
HETATM    9  N3  UNL     1       8.033  17.445  62.206  1.00  0.00    -0.329 N 
HETATM   10  C13 UNL     1       9.204  17.674  62.972  1.00  0.00     0.155 C 
HETATM   11  C14 UNL     1      10.264  16.713  62.406  1.00  0.00     0.256 C 
HETATM   12  N4  UNL     1      10.552  17.016  61.051  1.00  0.00    -0.072 N 
HETATM   13  C15 UNL     1      11.969  17.394  60.970  1.00  0.00     0.272 C 
HETATM   14  C16 UNL     1      10.440  15.810  60.226  1.00  0.00     0.272 C 
HETATM   15  C17 UNL     1       9.702  18.056  60.564  1.00  0.00     0.256 C 
HETATM   16  C18 UNL     1       8.236  17.861  60.787  1.00  0.00     0.155 C 
HETATM   17  C19 UNL     1       4.807  16.009  63.754  1.00  0.00     0.107 C 
HETATM   18  C24 UNL     1       3.831  17.122  63.668  1.00  0.00     0.266 C 
HETATM   19  O3  UNL     1       3.572  17.487  62.483  1.00  0.00    -0.266 OA
HETATM   20  N5  UNL     1       3.169  17.811  64.671  1.00  0.00    -0.348 N 
ATOM     21  H5  UNL     1       3.402  18.804  64.694  1.00  0.00     0.163 HD
HETATM   22  C25 UNL     1       2.222  17.431  65.689  1.00  0.00     0.117 C 
HETATM   23  C30 UNL     1       2.372  18.061  67.018  1.00  0.00     0.163 C 
HETATM   24  C31 UNL     1       3.496  17.688  67.857  1.00  0.00     0.003 C 
HETATM   25  C32 UNL     1       4.675  18.217  68.035  1.00  0.00    -0.028 C 
HETATM   26  C33 UNL     1       5.292  19.395  67.437  1.00  0.00     0.032 C 
HETATM   27  C34 UNL     1       6.302  19.218  66.392  1.00  0.00    -0.002 C 
HETATM   28  C35 UNL     1       6.711  20.629  65.935  1.00  0.00     0.011 C 
ENDROOT
BRANCH  17  29
HETATM   29  C20 UNL     1       4.423  14.839  62.930  1.00  0.00     0.069 C 
BRANCH  29  30
HETATM   30  C21 UNL     1       3.020  14.427  62.819  1.00  0.00    -0.017 C 
HETATM   31  C22 UNL     1       2.410  14.238  61.473  1.00  0.00     0.010 C 
HETATM   32  C23 UNL     1       2.697  13.216  63.705  1.00  0.00     0.010 C 
ENDBRANCH  29  30
ENDBRANCH  17  29
BRANCH   1  33
HETATM   33  C9  UNL     1       8.218  18.237  67.780  1.00  0.00     0.014 C 
BRANCH  33  34
HETATM   34  C8  UNL     1       9.679  18.508  67.683  1.00  0.00     0.001 C 
BRANCH  34  35
HETATM   35  C7  UNL     1      10.032  19.249  66.403  1.00  0.00     0.000 C 
BRANCH  35  36
HETATM   36  C6  UNL     1      10.201  20.720  66.606  1.00  0.00     0.000 C 
BRANCH  36  37
HETATM   37  C5  UNL     1      10.930  21.399  65.469  1.00  0.00     0.000 C 
BRANCH  37  38
HETATM   38  C4  UNL     1      10.472  20.818  64.173  1.00  0.00     0.004 C 
BRANCH  38  39
HETATM   39  C3  UNL     1      11.553  20.506  63.192  1.00  0.00     0.026 C 
BRANCH  39  40
HETATM   40  C2  UNL     1      12.746  20.066  64.002  1.00  0.00    -0.037 C 
HETATM   41  C1  UNL     1      12.960  18.776  64.171  1.00  0.00     0.007 C 
ENDBRANCH  39  40
ENDBRANCH  38  39
ENDBRANCH  37  38
ENDBRANCH  36  37
ENDBRANCH  35  36
ENDBRANCH  34  35
ENDBRANCH  33  34
ENDBRANCH   1  33
BRANCH  22  42
HETATM   42  C26 UNL     1       0.863  17.854  65.164  1.00  0.00     0.028 C 
BRANCH  42  43
HETATM   43  C27 UNL     1      -0.077  16.768  64.808  1.00  0.00     0.004 C 
BRANCH  43  44
HETATM   44  C28 UNL     1       0.019  16.493  63.317  1.00  0.00     0.027 C 
BRANCH  44  45
HETATM   45  C29 UNL     1       0.081  17.870  62.648  1.00  0.00     0.229 C 
BRANCH  45  46
HETATM   46  N6  UNL     1       0.823  17.738  61.418  1.00  0.00    -0.079 N 
ATOM     47  H63 UNL     1       1.661  18.319  61.398  1.00  0.00     0.274 HD
ATOM     48  H62 UNL     1       1.283  16.831  61.331  1.00  0.00     0.274 HD
ATOM     49  H61 UNL     1       0.189  17.934  60.644  1.00  0.00     0.274 HD
ENDBRANCH  45  46
ENDBRANCH  44  45
ENDBRANCH  43  44
ENDBRANCH  42  43
ENDBRANCH  22  42
BRANCH  23  50
HETATM   50  O4  UNL     1       2.120  19.417  66.866  1.00  0.00    -0.390 OA
ATOM     51  H4  UNL     1       2.646  19.878  67.508  1.00  0.00     0.210 HD
ENDBRANCH  23  50
TORSDOF 16
ENDMDL
