MODEL 1
REMARK VINA RESULT: -8.439229696      0.000      0.000
REMARK  18 active torsions:
REMARK  status: ('A' for Active; 'I' for Inactive)
REMARK    1  A    between atoms: C2_2  and  C3_3 
REMARK    2  A    between atoms: C3_3  and  C4_4 
REMARK    3  A    between atoms: C4_4  and  N1_5 
REMARK       I    between atoms: N1_5  and  C5_7 
REMARK    4  A    between atoms: C5_7  and  C6_9 
REMARK    5  A    between atoms: C9_12  and  C10_13 
REMARK    6  A    between atoms: N2_16  and  C13_17 
REMARK    7  A    between atoms: C13_17  and  O2_18 
REMARK    8  A    between atoms: C13_17  and  C14_20 
REMARK    9  A    between atoms: C14_20  and  C15_21 
REMARK   10  A    between atoms: C14_20  and  N3_25 
REMARK   11  A    between atoms: C15_21  and  C16_22 
REMARK       I    between atoms: N3_25  and  C19_27 
REMARK   12  A    between atoms: C19_27  and  C20_29 
REMARK   13  A    between atoms: C20_29  and  N4_30 
REMARK   14  A    between atoms: C20_29  and  C30_46 
REMARK       I    between atoms: N4_30  and  C21_32 
REMARK   15  A    between atoms: C21_32  and  C22_34 
REMARK   16  A    between atoms: C22_34  and  N5_35 
REMARK   17  A    between atoms: C22_34  and  C23_39 
REMARK   18  A    between atoms: C30_46  and  C32_48 
ROOT
HETATM    1  C14 UNL     1       8.765  16.855  62.910  1.00  0.00     0.159 C 
ENDROOT
BRANCH   1   2
HETATM    2  C13 UNL     1       7.730  16.164  63.673  1.00  0.00     0.138 C 
BRANCH   2   3
HETATM    3  N2  UNL     1       6.816  16.686  64.624  1.00  0.00    -0.344 N 
HETATM    4  C6  UNL     1       5.657  17.504  64.202  1.00  0.00     0.184 C 
HETATM    5  C7  UNL     1       4.903  17.557  65.495  1.00  0.00     0.033 A 
HETATM    6  C8  UNL     1       6.153  17.984  66.319  1.00  0.00     0.024 A 
HETATM    7  C34 UNL     1       4.858  18.421  66.589  1.00  0.00    -0.035 A 
HETATM    8  C9  UNL     1       6.813  16.641  66.075  1.00  0.00     0.095 C 
HETATM    9  C35 UNL     1       4.501  19.890  66.307  1.00  0.00     0.016 C 
HETATM   10  C36 UNL     1       4.194  17.977  67.886  1.00  0.00     0.016 C 
BRANCH   4  11
HETATM   11  C5  UNL     1       4.836  16.847  63.160  1.00  0.00     0.241 C 
HETATM   12  N1  UNL     1       4.286  15.578  63.421  1.00  0.00    -0.359 N 
ATOM     13  H1  UNL     1       4.471  15.155  64.330  1.00  0.00     0.162 HD
HETATM   14  O1  UNL     1       4.629  17.398  62.066  1.00  0.00    -0.271 OA
BRANCH  12  15
HETATM   15  C4  UNL     1       3.482  14.846  62.491  1.00  0.00     0.122 C 
BRANCH  15  16
HETATM   16  C3  UNL     1       2.009  15.101  62.565  1.00  0.00     0.019 C 
BRANCH  16  17
HETATM   17  C2  UNL     1       1.502  15.862  61.356  1.00  0.00    -0.003 C 
HETATM   18  C1  UNL     1       1.147  17.269  61.856  1.00  0.00     0.005 C 
ENDBRANCH  16  17
ENDBRANCH  15  16
ENDBRANCH  12  15
ENDBRANCH   4  11
BRANCH   8  19
HETATM   19  C10 UNL     1       8.181  16.798  66.717  1.00  0.00     0.001 C 
HETATM   20  C11 UNL     1       8.608  15.337  67.028  1.00  0.00     0.011 C 
HETATM   21  C12 UNL     1       8.123  17.471  68.047  1.00  0.00     0.011 C 
ENDBRANCH   8  19
ENDBRANCH   2   3
BRANCH   2  22
HETATM   22  O2  UNL     1       7.630  14.883  63.458  1.00  0.00    -0.348 OA
ATOM     23  H2  UNL     1       7.308  14.376  64.193  1.00  0.00     0.219 HD
ENDBRANCH   2  22
ENDBRANCH   1   2
BRANCH   1  24
HETATM   24  C15 UNL     1       8.232  17.295  61.539  1.00  0.00     0.037 C 
BRANCH  24  25
HETATM   25  C16 UNL     1       9.095  16.833  60.402  1.00  0.00    -0.020 C 
HETATM   26  C17 UNL     1       9.461  15.364  60.562  1.00  0.00     0.009 C 
HETATM   27  C18 UNL     1      10.461  17.556  60.440  1.00  0.00     0.009 C 
ENDBRANCH  24  25
ENDBRANCH   1  24
BRANCH   1  28
HETATM   28  N3  UNL     1       9.213  18.000  63.699  1.00  0.00    -0.347 N 
HETATM   29  C19 UNL     1      10.459  18.413  64.087  1.00  0.00     0.241 C 
HETATM   30  O3  UNL     1      11.501  17.739  63.730  1.00  0.00    -0.271 OA
ATOM     31  H3  UNL     1       8.456  18.605  64.021  1.00  0.00     0.163 HD
BRANCH  29  32
HETATM   32  C20 UNL     1      10.822  19.590  64.914  1.00  0.00     0.180 C 
BRANCH  32  33
HETATM   33  N4  UNL     1      12.195  19.995  64.725  1.00  0.00    -0.346 N 
HETATM   34  C21 UNL     1      12.613  21.177  64.052  1.00  0.00     0.249 C 
HETATM   35  O4  UNL     1      11.789  21.981  63.554  1.00  0.00    -0.271 OA
ATOM     36  H4  UNL     1      12.922  19.388  65.103  1.00  0.00     0.163 HD
BRANCH  34  37
HETATM   37  C22 UNL     1      14.062  21.511  63.908  1.00  0.00     0.278 C 
BRANCH  37  38
HETATM   38  N5  UNL     1      14.896  20.560  64.584  1.00  0.00    -0.066 N 
ATOM     39  H53 UNL     1      14.829  19.637  64.156  1.00  0.00     0.275 HD
ATOM     40  H52 UNL     1      15.885  20.744  64.411  1.00  0.00     0.275 HD
ATOM     41  H51 UNL     1      14.694  20.523  65.583  1.00  0.00     0.275 HD
ENDBRANCH  37  38
BRANCH  37  42
HETATM   42  C23 UNL     1      14.455  21.491  62.424  1.00  0.00     0.025 C 
HETATM   43  C24 UNL     1      13.976  20.266  61.733  1.00  0.00     0.007 C 
HETATM   44  C25 UNL     1      13.273  20.648  60.453  1.00  0.00     0.000 C 
HETATM   45  C26 UNL     1      14.081  21.674  59.712  1.00  0.00     0.000 C 
HETATM   46  C27 UNL     1      15.553  21.438  59.785  1.00  0.00     0.000 C 
HETATM   47  C28 UNL     1      16.224  22.288  60.844  1.00  0.00     0.000 C 
HETATM   48  C29 UNL     1      15.909  21.781  62.236  1.00  0.00     0.007 C 
ENDBRANCH  37  42
ENDBRANCH  34  37
ENDBRANCH  32  33
BRANCH  32  49
HETATM   49  C30 UNL     1      10.469  19.586  66.340  1.00  0.00     0.013 C 
HETATM   50  C31 UNL     1      11.470  18.974  67.280  1.00  0.00     0.012 C 
BRANCH  49  51
HETATM   51  C32 UNL     1       9.962  20.926  66.848  1.00  0.00     0.002 C 
HETATM   52  C33 UNL     1       8.444  20.986  66.728  1.00  0.00     0.005 C 
ENDBRANCH  49  51
ENDBRANCH  32  49
ENDBRANCH  29  32
ENDBRANCH   1  28
TORSDOF 18
ENDMDL
MODEL 2
REMARK VINA RESULT: -8.358805442      2.461      4.858
REMARK  18 active torsions:
REMARK  status: ('A' for Active; 'I' for Inactive)
REMARK    1  A    between atoms: C2_2  and  C3_3 
REMARK    2  A    between atoms: C3_3  and  C4_4 
REMARK    3  A    between atoms: C4_4  and  N1_5 
REMARK       I    between atoms: N1_5  and  C5_7 
REMARK    4  A    between atoms: C5_7  and  C6_9 
REMARK    5  A    between atoms: C9_12  and  C10_13 
REMARK    6  A    between atoms: N2_16  and  C13_17 
REMARK    7  A    between atoms: C13_17  and  O2_18 
REMARK    8  A    between atoms: C13_17  and  C14_20 
REMARK    9  A    between atoms: C14_20  and  C15_21 
REMARK   10  A    between atoms: C14_20  and  N3_25 
REMARK   11  A    between atoms: C15_21  and  C16_22 
REMARK       I    between atoms: N3_25  and  C19_27 
REMARK   12  A    between atoms: C19_27  and  C20_29 
REMARK   13  A    between atoms: C20_29  and  N4_30 
REMARK   14  A    between atoms: C20_29  and  C30_46 
REMARK       I    between atoms: N4_30  and  C21_32 
REMARK   15  A    between atoms: C21_32  and  C22_34 
REMARK   16  A    between atoms: C22_34  and  N5_35 
REMARK   17  A    between atoms: C22_34  and  C23_39 
REMARK   18  A    between atoms: C30_46  and  C32_48 
ROOT
HETATM    1  C14 UNL     1      11.675  18.510  62.543  1.00  0.00     0.159 C 
ENDROOT
BRANCH   1   2
HETATM    2  C13 UNL     1      10.629  19.294  63.194  1.00  0.00     0.138 C 
BRANCH   2   3
HETATM    3  N2  UNL     1       9.823  18.961  64.312  1.00  0.00    -0.344 N 
HETATM    4  C6  UNL     1       8.351  19.110  64.266  1.00  0.00     0.184 C 
HETATM    5  C7  UNL     1       7.987  18.394  65.530  1.00  0.00     0.033 A 
HETATM    6  C8  UNL     1       9.022  19.177  66.388  1.00  0.00     0.024 A 
HETATM    7  C34 UNL     1       7.779  18.760  66.860  1.00  0.00    -0.035 A 
HETATM    8  C9  UNL     1      10.175  18.525  65.651  1.00  0.00     0.095 C 
HETATM    9  C35 UNL     1       6.699  19.819  67.136  1.00  0.00     0.016 C 
HETATM   10  C36 UNL     1       7.734  17.694  67.947  1.00  0.00     0.016 C 
BRANCH   4  11
HETATM   11  C5  UNL     1       7.739  18.432  63.102  1.00  0.00     0.241 C 
HETATM   12  N1  UNL     1       7.290  17.104  63.240  1.00  0.00    -0.359 N 
ATOM     13  H1  UNL     1       7.401  16.655  64.149  1.00  0.00     0.162 HD
HETATM   14  O1  UNL     1       7.617  19.014  62.011  1.00  0.00    -0.271 OA
BRANCH  12  15
HETATM   15  C4  UNL     1       6.688  16.347  62.187  1.00  0.00     0.122 C 
BRANCH  15  16
HETATM   16  C3  UNL     1       5.206  16.493  62.047  1.00  0.00     0.019 C 
BRANCH  16  17
HETATM   17  C2  UNL     1       4.530  16.752  63.379  1.00  0.00    -0.003 C 
HETATM   18  C1  UNL     1       3.101  17.207  63.051  1.00  0.00     0.005 C 
ENDBRANCH  16  17
ENDBRANCH  15  16
ENDBRANCH  12  15
ENDBRANCH   4  11
BRANCH   8  19
HETATM   19  C10 UNL     1      11.400  19.207  66.238  1.00  0.00     0.001 C 
HETATM   20  C11 UNL     1      11.381  18.770  67.729  1.00  0.00     0.011 C 
HETATM   21  C12 UNL     1      11.275  20.693  66.272  1.00  0.00     0.011 C 
ENDBRANCH   8  19
ENDBRANCH   2   3
BRANCH   2  22
HETATM   22  O2  UNL     1      10.397  20.465  62.675  1.00  0.00    -0.348 OA
ATOM     23  H2  UNL     1      10.686  20.572  61.777  1.00  0.00     0.219 HD
ENDBRANCH   2  22
ENDBRANCH   1   2
BRANCH   1  24
HETATM   24  C15 UNL     1      11.324  18.241  61.073  1.00  0.00     0.037 C 
BRANCH  24  25
HETATM   25  C16 UNL     1      10.463  17.025  60.892  1.00  0.00    -0.020 C 
HETATM   26  C17 UNL     1      11.229  15.920  60.178  1.00  0.00     0.009 C 
HETATM   27  C18 UNL     1       9.293  17.339  59.931  1.00  0.00     0.009 C 
ENDBRANCH  24  25
ENDBRANCH   1  24
BRANCH   1  28
HETATM   28  N3  UNL     1      12.929  19.251  62.663  1.00  0.00    -0.347 N 
HETATM   29  C19 UNL     1      13.450  20.289  61.939  1.00  0.00     0.241 C 
HETATM   30  O3  UNL     1      12.782  20.787  60.954  1.00  0.00    -0.271 OA
ATOM     31  H3  UNL     1      13.526  18.936  63.427  1.00  0.00     0.163 HD
BRANCH  29  32
HETATM   32  C20 UNL     1      14.754  20.973  62.121  1.00  0.00     0.180 C 
BRANCH  32  33
HETATM   33  N4  UNL     1      14.679  22.063  63.065  1.00  0.00    -0.346 N 
HETATM   34  C21 UNL     1      14.871  21.942  64.470  1.00  0.00     0.249 C 
HETATM   35  O4  UNL     1      15.127  20.839  65.009  1.00  0.00    -0.271 OA
ATOM     36  H4  UNL     1      14.472  22.991  62.698  1.00  0.00     0.163 HD
BRANCH  34  37
HETATM   37  C22 UNL     1      14.774  23.132  65.367  1.00  0.00     0.278 C 
BRANCH  37  38
HETATM   38  N5  UNL     1      14.405  22.762  66.703  1.00  0.00    -0.066 N 
ATOM     39  H53 UNL     1      13.491  22.310  66.724  1.00  0.00     0.275 HD
ATOM     40  H52 UNL     1      14.974  21.988  67.045  1.00  0.00     0.275 HD
ATOM     41  H51 UNL     1      14.439  23.559  67.339  1.00  0.00     0.275 HD
ENDBRANCH  37  38
BRANCH  37  42
HETATM   42  C23 UNL     1      16.137  23.835  65.448  1.00  0.00     0.025 C 
HETATM   43  C24 UNL     1      17.192  23.101  64.702  1.00  0.00     0.007 C 
HETATM   44  C25 UNL     1      17.937  24.058  63.804  1.00  0.00     0.000 C 
HETATM   45  C26 UNL     1      18.270  25.313  64.558  1.00  0.00     0.000 C 
HETATM   46  C27 UNL     1      18.661  25.067  65.977  1.00  0.00     0.000 C 
HETATM   47  C28 UNL     1      17.515  25.295  66.941  1.00  0.00     0.000 C 
HETATM   48  C29 UNL     1      16.497  24.176  66.857  1.00  0.00     0.007 C 
ENDBRANCH  37  42
ENDBRANCH  34  37
ENDBRANCH  32  33
BRANCH  32  49
HETATM   49  C30 UNL     1      15.517  21.365  60.928  1.00  0.00     0.013 C 
HETATM   50  C31 UNL     1      15.598  22.838  60.634  1.00  0.00     0.012 C 
BRANCH  49  51
HETATM   51  C32 UNL     1      16.876  20.692  60.824  1.00  0.00     0.002 C 
HETATM   52  C33 UNL     1      17.977  21.746  60.809  1.00  0.00     0.005 C 
ENDBRANCH  49  51
ENDBRANCH  32  49
ENDBRANCH  29  32
ENDBRANCH   1  28
TORSDOF 18
ENDMDL
MODEL 3
REMARK VINA RESULT: -8.317874975      0.672      1.089
REMARK  18 active torsions:
REMARK  status: ('A' for Active; 'I' for Inactive)
REMARK    1  A    between atoms: C2_2  and  C3_3 
REMARK    2  A    between atoms: C3_3  and  C4_4 
REMARK    3  A    between atoms: C4_4  and  N1_5 
REMARK       I    between atoms: N1_5  and  C5_7 
REMARK    4  A    between atoms: C5_7  and  C6_9 
REMARK    5  A    between atoms: C9_12  and  C10_13 
REMARK    6  A    between atoms: N2_16  and  C13_17 
REMARK    7  A    between atoms: C13_17  and  O2_18 
REMARK    8  A    between atoms: C13_17  and  C14_20 
REMARK    9  A    between atoms: C14_20  and  C15_21 
REMARK   10  A    between atoms: C14_20  and  N3_25 
REMARK   11  A    between atoms: C15_21  and  C16_22 
REMARK       I    between atoms: N3_25  and  C19_27 
REMARK   12  A    between atoms: C19_27  and  C20_29 
REMARK   13  A    between atoms: C20_29  and  N4_30 
REMARK   14  A    between atoms: C20_29  and  C30_46 
REMARK       I    between atoms: N4_30  and  C21_32 
REMARK   15  A    between atoms: C21_32  and  C22_34 
REMARK   16  A    between atoms: C22_34  and  N5_35 
REMARK   17  A    between atoms: C22_34  and  C23_39 
REMARK   18  A    between atoms: C30_46  and  C32_48 
ROOT
HETATM    1  C14 UNL     1       8.724  16.842  62.891  1.00  0.00     0.159 C 
ENDROOT
BRANCH   1   2
HETATM    2  C13 UNL     1       7.702  16.149  63.670  1.00  0.00     0.138 C 
BRANCH   2   3
HETATM    3  N2  UNL     1       6.789  16.673  64.621  1.00  0.00    -0.344 N 
HETATM    4  C6  UNL     1       5.628  17.488  64.200  1.00  0.00     0.184 C 
HETATM    5  C7  UNL     1       4.878  17.543  65.495  1.00  0.00     0.033 A 
HETATM    6  C8  UNL     1       6.129  17.975  66.314  1.00  0.00     0.024 A 
HETATM    7  C34 UNL     1       4.834  18.411  66.587  1.00  0.00    -0.035 A 
HETATM    8  C9  UNL     1       6.790  16.632  66.073  1.00  0.00     0.095 C 
HETATM    9  C35 UNL     1       4.473  19.879  66.302  1.00  0.00     0.016 C 
HETATM   10  C36 UNL     1       4.175  17.970  67.887  1.00  0.00     0.016 C 
BRANCH   4  11
HETATM   11  C5  UNL     1       4.805  16.827  63.163  1.00  0.00     0.241 C 
HETATM   12  N1  UNL     1       4.330  15.522  63.394  1.00  0.00    -0.359 N 
ATOM     13  H1  UNL     1       4.570  15.076  64.279  1.00  0.00     0.162 HD
HETATM   14  O1  UNL     1       4.531  17.404  62.098  1.00  0.00    -0.271 OA
BRANCH  12  15
HETATM   15  C4  UNL     1       3.533  14.782  62.465  1.00  0.00     0.122 C 
BRANCH  15  16
HETATM   16  C3  UNL     1       2.348  14.075  63.046  1.00  0.00     0.019 C 
BRANCH  16  17
HETATM   17  C2  UNL     1       2.749  12.847  63.838  1.00  0.00    -0.003 C 
HETATM   18  C1  UNL     1       3.544  11.957  62.873  1.00  0.00     0.005 C 
ENDBRANCH  16  17
ENDBRANCH  15  16
ENDBRANCH  12  15
ENDBRANCH   4  11
BRANCH   8  19
HETATM   19  C10 UNL     1       8.160  16.794  66.710  1.00  0.00     0.001 C 
HETATM   20  C11 UNL     1       8.591  15.334  67.023  1.00  0.00     0.011 C 
HETATM   21  C12 UNL     1       8.104  17.469  68.039  1.00  0.00     0.011 C 
ENDBRANCH   8  19
ENDBRANCH   2   3
BRANCH   2  22
HETATM   22  O2  UNL     1       7.612  14.866  63.469  1.00  0.00    -0.348 OA
ATOM     23  H2  UNL     1       7.629  14.334  64.255  1.00  0.00     0.219 HD
ENDBRANCH   2  22
ENDBRANCH   1   2
BRANCH   1  24
HETATM   24  C15 UNL     1       8.175  17.269  61.522  1.00  0.00     0.037 C 
BRANCH  24  25
HETATM   25  C16 UNL     1       9.032  16.807  60.381  1.00  0.00    -0.020 C 
HETATM   26  C17 UNL     1       9.414  15.343  60.547  1.00  0.00     0.009 C 
HETATM   27  C18 UNL     1      10.392  17.543  60.403  1.00  0.00     0.009 C 
ENDBRANCH  24  25
ENDBRANCH   1  24
BRANCH   1  28
HETATM   28  N3  UNL     1       9.171  17.997  63.668  1.00  0.00    -0.347 N 
HETATM   29  C19 UNL     1      10.417  18.418  64.047  1.00  0.00     0.241 C 
HETATM   30  O3  UNL     1      11.460  17.745  63.692  1.00  0.00    -0.271 OA
ATOM     31  H3  UNL     1       8.413  18.602  63.986  1.00  0.00     0.163 HD
BRANCH  29  32
HETATM   32  C20 UNL     1      10.779  19.604  64.861  1.00  0.00     0.180 C 
BRANCH  32  33
HETATM   33  N4  UNL     1      12.161  19.988  64.693  1.00  0.00    -0.346 N 
HETATM   34  C21 UNL     1      12.606  21.179  64.054  1.00  0.00     0.249 C 
HETATM   35  O4  UNL     1      11.802  22.010  63.571  1.00  0.00    -0.271 OA
ATOM     36  H4  UNL     1      12.873  19.357  65.061  1.00  0.00     0.163 HD
BRANCH  34  37
HETATM   37  C22 UNL     1      14.063  21.489  63.930  1.00  0.00     0.278 C 
BRANCH  37  38
HETATM   38  N5  UNL     1      14.873  20.510  64.595  1.00  0.00    -0.066 N 
ATOM     39  H53 UNL     1      15.409  20.925  65.357  1.00  0.00     0.275 HD
ATOM     40  H52 UNL     1      14.302  19.861  65.137  1.00  0.00     0.275 HD
ATOM     41  H51 UNL     1      15.480  20.015  63.941  1.00  0.00     0.275 HD
ENDBRANCH  37  38
BRANCH  37  42
HETATM   42  C23 UNL     1      14.470  21.491  62.450  1.00  0.00     0.025 C 
HETATM   43  C24 UNL     1      13.998  20.276  61.736  1.00  0.00     0.007 C 
HETATM   44  C25 UNL     1      13.307  20.676  60.455  1.00  0.00     0.000 C 
HETATM   45  C26 UNL     1      14.121  21.714  59.738  1.00  0.00     0.000 C 
HETATM   46  C27 UNL     1      15.592  21.477  59.821  1.00  0.00     0.000 C 
HETATM   47  C28 UNL     1      16.253  22.313  60.898  1.00  0.00     0.000 C 
HETATM   48  C29 UNL     1      15.925  21.784  62.280  1.00  0.00     0.007 C 
ENDBRANCH  37  42
ENDBRANCH  34  37
ENDBRANCH  32  33
BRANCH  32  49
HETATM   49  C30 UNL     1      10.396  19.630  66.279  1.00  0.00     0.013 C 
HETATM   50  C31 UNL     1      11.367  19.015  67.249  1.00  0.00     0.012 C 
BRANCH  49  51
HETATM   51  C32 UNL     1       9.904  20.987  66.755  1.00  0.00     0.002 C 
HETATM   52  C33 UNL     1       8.380  21.004  66.785  1.00  0.00     0.005 C 
ENDBRANCH  49  51
ENDBRANCH  32  49
ENDBRANCH  29  32
ENDBRANCH   1  28
TORSDOF 18
ENDMDL
MODEL 4
REMARK VINA RESULT: -8.148884365      4.318     12.842
REMARK  18 active torsions:
REMARK  status: ('A' for Active; 'I' for Inactive)
REMARK    1  A    between atoms: C2_2  and  C3_3 
REMARK    2  A    between atoms: C3_3  and  C4_4 
REMARK    3  A    between atoms: C4_4  and  N1_5 
REMARK       I    between atoms: N1_5  and  C5_7 
REMARK    4  A    between atoms: C5_7  and  C6_9 
REMARK    5  A    between atoms: C9_12  and  C10_13 
REMARK    6  A    between atoms: N2_16  and  C13_17 
REMARK    7  A    between atoms: C13_17  and  O2_18 
REMARK    8  A    between atoms: C13_17  and  C14_20 
REMARK    9  A    between atoms: C14_20  and  C15_21 
REMARK   10  A    between atoms: C14_20  and  N3_25 
REMARK   11  A    between atoms: C15_21  and  C16_22 
REMARK       I    between atoms: N3_25  and  C19_27 
REMARK   12  A    between atoms: C19_27  and  C20_29 
REMARK   13  A    between atoms: C20_29  and  N4_30 
REMARK   14  A    between atoms: C20_29  and  C30_46 
REMARK       I    between atoms: N4_30  and  C21_32 
REMARK   15  A    between atoms: C21_32  and  C22_34 
REMARK   16  A    between atoms: C22_34  and  N5_35 
REMARK   17  A    between atoms: C22_34  and  C23_39 
REMARK   18  A    between atoms: C30_46  and  C32_48 
ROOT
HETATM    1  C14 UNL     1      16.884  23.396  64.662  1.00  0.00     0.159 C 
ENDROOT
BRANCH   1   2
HETATM    2  C13 UNL     1      18.161  23.567  63.974  1.00  0.00     0.138 C 
BRANCH   2   3
HETATM    3  N2  UNL     1      18.422  24.103  62.687  1.00  0.00    -0.344 N 
HETATM    4  C6  UNL     1      18.162  25.529  62.385  1.00  0.00     0.184 C 
HETATM    5  C7  UNL     1      18.838  25.630  61.053  1.00  0.00     0.033 A 
HETATM    6  C8  UNL     1      18.129  24.365  60.487  1.00  0.00     0.024 A 
HETATM    7  C34 UNL     1      18.447  25.485  59.722  1.00  0.00    -0.035 A 
HETATM    8  C9  UNL     1      18.874  23.472  61.460  1.00  0.00     0.095 C 
HETATM    9  C35 UNL     1      17.306  26.388  59.224  1.00  0.00     0.016 C 
HETATM   10  C36 UNL     1      19.498  25.346  58.628  1.00  0.00     0.016 C 
BRANCH   4  11
HETATM   11  C5  UNL     1      18.800  26.450  63.352  1.00  0.00     0.241 C 
HETATM   12  N1  UNL     1      20.123  26.874  63.123  1.00  0.00    -0.359 N 
ATOM     13  H1  UNL     1      20.596  26.531  62.288  1.00  0.00     0.162 HD
HETATM   14  O1  UNL     1      18.188  26.849  64.357  1.00  0.00    -0.271 OA
BRANCH  12  15
HETATM   15  C4  UNL     1      20.843  27.757  63.988  1.00  0.00     0.122 C 
BRANCH  15  16
HETATM   16  C3  UNL     1      20.706  29.216  63.686  1.00  0.00     0.019 C 
BRANCH  16  17
HETATM   17  C2  UNL     1      20.396  29.469  62.224  1.00  0.00    -0.003 C 
HETATM   18  C1  UNL     1      19.946  30.934  62.131  1.00  0.00     0.005 C 
ENDBRANCH  16  17
ENDBRANCH  15  16
ENDBRANCH  12  15
ENDBRANCH   4  11
BRANCH   8  19
HETATM   19  C10 UNL     1      18.283  22.097  61.200  1.00  0.00     0.001 C 
HETATM   20  C11 UNL     1      19.508  21.253  60.752  1.00  0.00     0.011 C 
HETATM   21  C12 UNL     1      17.356  22.076  60.032  1.00  0.00     0.011 C 
ENDBRANCH   8  19
ENDBRANCH   2   3
BRANCH   2  22
HETATM   22  O2  UNL     1      19.213  23.168  64.629  1.00  0.00    -0.348 OA
ATOM     23  H2  UNL     1      19.229  23.408  65.548  1.00  0.00     0.219 HD
ENDBRANCH   2  22
ENDBRANCH   1   2
BRANCH   1  24
HETATM   24  C15 UNL     1      16.360  24.740  65.186  1.00  0.00     0.037 C 
BRANCH  24  25
HETATM   25  C16 UNL     1      16.251  24.781  66.682  1.00  0.00    -0.020 C 
HETATM   26  C17 UNL     1      17.620  24.630  67.330  1.00  0.00     0.009 C 
HETATM   27  C18 UNL     1      15.468  23.549  67.193  1.00  0.00     0.009 C 
ENDBRANCH  24  25
ENDBRANCH   1  24
BRANCH   1  28
HETATM   28  N3  UNL     1      15.946  22.791  63.719  1.00  0.00    -0.347 N 
HETATM   29  C19 UNL     1      15.051  21.764  63.851  1.00  0.00     0.241 C 
HETATM   30  O3  UNL     1      14.928  21.158  64.984  1.00  0.00    -0.271 OA
ATOM     31  H3  UNL     1      15.960  23.213  62.790  1.00  0.00     0.163 HD
BRANCH  29  32
HETATM   32  C20 UNL     1      14.143  21.197  62.823  1.00  0.00     0.180 C 
BRANCH  32  33
HETATM   33  N4  UNL     1      13.246  20.205  63.366  1.00  0.00    -0.346 N 
HETATM   34  C21 UNL     1      11.825  20.283  63.334  1.00  0.00     0.249 C 
HETATM   35  O4  UNL     1      11.229  21.256  62.814  1.00  0.00    -0.271 OA
ATOM     36  H4  UNL     1      13.661  19.384  63.806  1.00  0.00     0.163 HD
BRANCH  34  37
HETATM   37  C22 UNL     1      10.980  19.201  63.923  1.00  0.00     0.278 C 
BRANCH  37  38
HETATM   38  N5  UNL     1      10.043  19.719  64.877  1.00  0.00    -0.066 N 
ATOM     39  H53 UNL     1       9.886  19.061  65.640  1.00  0.00     0.275 HD
ATOM     40  H52 UNL     1      10.444  20.489  65.412  1.00  0.00     0.275 HD
ATOM     41  H51 UNL     1       9.165  19.992  64.435  1.00  0.00     0.275 HD
ENDBRANCH  37  38
BRANCH  37  42
HETATM   42  C23 UNL     1      10.170  18.512  62.815  1.00  0.00     0.025 C 
HETATM   43  C24 UNL     1       9.000  17.772  63.352  1.00  0.00     0.007 C 
HETATM   44  C25 UNL     1       7.763  18.141  62.570  1.00  0.00     0.000 C 
HETATM   45  C26 UNL     1       8.065  18.124  61.099  1.00  0.00     0.000 C 
HETATM   46  C27 UNL     1       8.978  17.016  60.692  1.00  0.00     0.000 C 
HETATM   47  C28 UNL     1      10.416  17.471  60.553  1.00  0.00     0.000 C 
HETATM   48  C29 UNL     1      11.048  17.712  61.909  1.00  0.00     0.007 C 
ENDBRANCH  37  42
ENDBRANCH  34  37
ENDBRANCH  32  33
BRANCH  32  49
HETATM   49  C30 UNL     1      14.717  20.744  61.548  1.00  0.00     0.013 C 
HETATM   50  C31 UNL     1      15.603  19.530  61.603  1.00  0.00     0.012 C 
BRANCH  49  51
HETATM   51  C32 UNL     1      13.702  20.653  60.420  1.00  0.00     0.002 C 
HETATM   52  C33 UNL     1      13.973  21.743  59.390  1.00  0.00     0.005 C 
ENDBRANCH  49  51
ENDBRANCH  32  49
ENDBRANCH  29  32
ENDBRANCH   1  28
TORSDOF 18
ENDMDL
MODEL 5
REMARK VINA RESULT: -8.123673543      2.301      4.639
REMARK  18 active torsions:
REMARK  status: ('A' for Active; 'I' for Inactive)
REMARK    1  A    between atoms: C2_2  and  C3_3 
REMARK    2  A    between atoms: C3_3  and  C4_4 
REMARK    3  A    between atoms: C4_4  and  N1_5 
REMARK       I    between atoms: N1_5  and  C5_7 
REMARK    4  A    between atoms: C5_7  and  C6_9 
REMARK    5  A    between atoms: C9_12  and  C10_13 
REMARK    6  A    between atoms: N2_16  and  C13_17 
REMARK    7  A    between atoms: C13_17  and  O2_18 
REMARK    8  A    between atoms: C13_17  and  C14_20 
REMARK    9  A    between atoms: C14_20  and  C15_21 
REMARK   10  A    between atoms: C14_20  and  N3_25 
REMARK   11  A    between atoms: C15_21  and  C16_22 
REMARK       I    between atoms: N3_25  and  C19_27 
REMARK   12  A    between atoms: C19_27  and  C20_29 
REMARK   13  A    between atoms: C20_29  and  N4_30 
REMARK   14  A    between atoms: C20_29  and  C30_46 
REMARK       I    between atoms: N4_30  and  C21_32 
REMARK   15  A    between atoms: C21_32  and  C22_34 
REMARK   16  A    between atoms: C22_34  and  N5_35 
REMARK   17  A    between atoms: C22_34  and  C23_39 
REMARK   18  A    between atoms: C30_46  and  C32_48 
ROOT
HETATM    1  C14 UNL     1      11.320  18.088  62.464  1.00  0.00     0.159 C 
ENDROOT
BRANCH   1   2
HETATM    2  C13 UNL     1      10.292  18.838  63.180  1.00  0.00     0.138 C 
BRANCH   2   3
HETATM    3  N2  UNL     1       9.633  18.522  64.396  1.00  0.00    -0.344 N 
HETATM    4  C6  UNL     1       8.161  18.388  64.456  1.00  0.00     0.184 C 
HETATM    5  C7  UNL     1       8.018  17.800  65.826  1.00  0.00     0.033 A 
HETATM    6  C8  UNL     1       8.930  18.874  66.488  1.00  0.00     0.024 A 
HETATM    7  C34 UNL     1       7.822  18.304  67.112  1.00  0.00    -0.035 A 
HETATM    8  C9  UNL     1      10.142  18.349  65.744  1.00  0.00     0.095 C 
HETATM    9  C35 UNL     1       6.575  19.173  67.343  1.00  0.00     0.016 C 
HETATM   10  C36 UNL     1       8.049  17.410  68.324  1.00  0.00     0.016 C 
BRANCH   4  11
HETATM   11  C5  UNL     1       7.624  17.453  63.442  1.00  0.00     0.241 C 
HETATM   12  N1  UNL     1       6.515  17.845  62.668  1.00  0.00    -0.359 N 
ATOM     13  H1  UNL     1       6.120  18.770  62.833  1.00  0.00     0.162 HD
HETATM   14  O1  UNL     1       8.135  16.334  63.267  1.00  0.00    -0.271 OA
BRANCH  12  15
HETATM   15  C4  UNL     1       5.908  17.026  61.664  1.00  0.00     0.122 C 
BRANCH  15  16
HETATM   16  C3  UNL     1       4.744  16.201  62.116  1.00  0.00     0.019 C 
BRANCH  16  17
HETATM   17  C2  UNL     1       3.572  17.058  62.551  1.00  0.00    -0.003 C 
HETATM   18  C1  UNL     1       2.362  16.569  61.743  1.00  0.00     0.005 C 
ENDBRANCH  16  17
ENDBRANCH  15  16
ENDBRANCH  12  15
ENDBRANCH   4  11
BRANCH   8  19
HETATM   19  C10 UNL     1      11.244  19.320  66.135  1.00  0.00     0.001 C 
HETATM   20  C11 UNL     1      11.581  18.920  67.598  1.00  0.00     0.011 C 
HETATM   21  C12 UNL     1      10.767  20.731  66.224  1.00  0.00     0.011 C 
ENDBRANCH   8  19
ENDBRANCH   2   3
BRANCH   2  22
HETATM   22  O2  UNL     1       9.921  19.957  62.626  1.00  0.00    -0.348 OA
ATOM     23  H2  UNL     1       9.810  19.921  61.684  1.00  0.00     0.219 HD
ENDBRANCH   2  22
ENDBRANCH   1   2
BRANCH   1  24
HETATM   24  C15 UNL     1      10.947  17.923  60.984  1.00  0.00     0.037 C 
BRANCH  24  25
HETATM   25  C16 UNL     1      10.180  16.663  60.713  1.00  0.00    -0.020 C 
HETATM   26  C17 UNL     1      10.961  15.741  59.787  1.00  0.00     0.009 C 
HETATM   27  C18 UNL     1       8.896  16.982  59.912  1.00  0.00     0.009 C 
ENDBRANCH  24  25
ENDBRANCH   1  24
BRANCH   1  28
HETATM   28  N3  UNL     1      12.584  18.805  62.617  1.00  0.00    -0.347 N 
HETATM   29  C19 UNL     1      13.129  19.856  61.929  1.00  0.00     0.241 C 
HETATM   30  O3  UNL     1      12.477  20.394  60.953  1.00  0.00    -0.271 OA
ATOM     31  H3  UNL     1      13.170  18.459  63.377  1.00  0.00     0.163 HD
BRANCH  29  32
HETATM   32  C20 UNL     1      14.441  20.514  62.142  1.00  0.00     0.180 C 
BRANCH  32  33
HETATM   33  N4  UNL     1      14.387  21.540  63.158  1.00  0.00    -0.346 N 
HETATM   34  C21 UNL     1      14.686  21.343  64.534  1.00  0.00     0.249 C 
HETATM   35  O4  UNL     1      15.030  20.224  64.983  1.00  0.00    -0.271 OA
ATOM     36  H4  UNL     1      14.112  22.477  62.865  1.00  0.00     0.163 HD
BRANCH  34  37
HETATM   37  C22 UNL     1      14.602  22.471  65.511  1.00  0.00     0.278 C 
BRANCH  37  38
HETATM   38  N5  UNL     1      14.403  22.000  66.851  1.00  0.00    -0.066 N 
ATOM     39  H53 UNL     1      13.631  21.334  66.901  1.00  0.00     0.275 HD
ATOM     40  H52 UNL     1      15.162  21.386  67.146  1.00  0.00     0.275 HD
ATOM     41  H51 UNL     1      14.271  22.770  67.506  1.00  0.00     0.275 HD
ENDBRANCH  37  38
BRANCH  37  42
HETATM   42  C23 UNL     1      15.913  23.270  65.497  1.00  0.00     0.025 C 
HETATM   43  C24 UNL     1      15.712  24.685  65.901  1.00  0.00     0.007 C 
HETATM   44  C25 UNL     1      16.726  25.061  66.954  1.00  0.00     0.000 C 
HETATM   45  C26 UNL     1      18.086  24.568  66.552  1.00  0.00     0.000 C 
HETATM   46  C27 UNL     1      18.357  24.695  65.090  1.00  0.00     0.000 C 
HETATM   47  C28 UNL     1      18.131  23.395  64.346  1.00  0.00     0.000 C 
HETATM   48  C29 UNL     1      16.653  23.091  64.211  1.00  0.00     0.007 C 
ENDBRANCH  37  42
ENDBRANCH  34  37
ENDBRANCH  32  33
BRANCH  32  49
HETATM   49  C30 UNL     1      15.197  20.976  60.970  1.00  0.00     0.013 C 
HETATM   50  C31 UNL     1      15.156  22.452  60.682  1.00  0.00     0.012 C 
BRANCH  49  51
HETATM   51  C32 UNL     1      16.612  20.425  60.900  1.00  0.00     0.002 C 
HETATM   52  C33 UNL     1      17.614  21.573  60.874  1.00  0.00     0.005 C 
ENDBRANCH  49  51
ENDBRANCH  32  49
ENDBRANCH  29  32
ENDBRANCH   1  28
TORSDOF 18
ENDMDL
