MODEL 1
REMARK VINA RESULT: -8.956242929      0.000      0.000
REMARK  15 active torsions:
REMARK  status: ('A' for Active; 'I' for Inactive)
REMARK    1  A    between atoms: C2_2  and  C3_3 
REMARK    2  A    between atoms: C3_3  and  C4_4 
REMARK    3  A    between atoms: C4_4  and  N1_5 
REMARK    4  A    between atoms: C4_4  and  C33_45 
REMARK       I    between atoms: N1_5  and  C5_7 
REMARK    5  A    between atoms: C5_7  and  C6_9 
REMARK    6  A    between atoms: C6_9  and  C7_10 
REMARK    7  A    between atoms: C7_10  and  C8_11 
REMARK    8  A    between atoms: C7_10  and  C10_13 
REMARK       I    between atoms: C10_13  and  N2_15 
REMARK    9  A    between atoms: N2_15  and  C11_17 
REMARK   10  A    between atoms: C11_17  and  C12_18 
REMARK   11  A    between atoms: C11_17  and  C18_27 
REMARK   12  A    between atoms: C12_18  and  S1_19 
REMARK   13  A    between atoms: S1_19  and  C13_22 
REMARK       I    between atoms: C18_27  and  N3_29 
REMARK   14  A    between atoms: N3_29  and  C19_31 
REMARK   15  A    between atoms: C28_40  and  C30_42 
ROOT
HETATM    1  C11 UNL     1      14.914  21.590  62.862  1.00  0.00     0.190 C 
ENDROOT
BRANCH   1   2
HETATM    2  N2  UNL     1      14.738  22.705  63.799  1.00  0.00    -0.347 N 
HETATM    3  C10 UNL     1      14.925  22.591  65.170  1.00  0.00     0.223 C 
HETATM    4  O2  UNL     1      15.279  21.401  65.552  1.00  0.00    -0.273 OA
ATOM      5  H2  UNL     1      14.465  23.613  63.423  1.00  0.00     0.163 HD
BRANCH   3   6
HETATM    6  C7  UNL     1      14.793  23.560  66.244  1.00  0.00     0.086 C 
BRANCH   6   7
HETATM    7  C6  UNL     1      15.544  24.829  66.154  1.00  0.00     0.117 C 
BRANCH   7   8
HETATM    8  C5  UNL     1      16.951  24.799  65.750  1.00  0.00     0.219 C 
HETATM    9  N1  UNL     1      17.432  25.811  64.892  1.00  0.00    -0.348 N 
ATOM     10  H1  UNL     1      16.795  26.541  64.569  1.00  0.00     0.163 HD
HETATM   11  O1  UNL     1      17.779  23.936  66.108  1.00  0.00    -0.274 OA
BRANCH   9  12
HETATM   12  C4  UNL     1      18.832  25.829  64.456  1.00  0.00     0.173 C 
BRANCH  12  13
HETATM   13  C3  UNL     1      18.883  25.954  62.974  1.00  0.00     0.034 C 
BRANCH  13  14
HETATM   14  C2  UNL     1      18.475  27.248  62.381  1.00  0.00    -0.002 C 
HETATM   15  C1  UNL     1      19.256  27.511  61.081  1.00  0.00     0.005 C 
ENDBRANCH  13  14
ENDBRANCH  12  13
BRANCH  12  16
HETATM   16  C33 UNL     1      19.527  26.868  65.226  1.00  0.00     0.254 C 
HETATM   17  N4  UNL     1      20.617  27.660  64.771  1.00  0.00    -0.060 NA
HETATM   18  O6  UNL     1      19.159  27.127  66.422  1.00  0.00    -0.275 OA
ENDBRANCH  12  16
ENDBRANCH   9  12
ENDBRANCH   7   8
ENDBRANCH   6   7
BRANCH   6  19
HETATM   19  C8  UNL     1      14.895  22.855  67.588  1.00  0.00     0.010 C 
HETATM   20  C9  UNL     1      15.355  23.797  68.671  1.00  0.00     0.006 C 
ENDBRANCH   6  19
ENDBRANCH   3   6
ENDBRANCH   1   2
BRANCH   1  21
HETATM   21  C12 UNL     1      15.585  22.037  61.597  1.00  0.00     0.175 C 
BRANCH  21  22
HETATM   22  S1  UNL     1      17.280  22.392  61.712  1.00  0.00     0.150 S 
HETATM   23  O3  UNL     1      17.825  22.541  63.070  1.00  0.00    -0.227 OA
HETATM   24  O4  UNL     1      18.124  21.366  60.987  1.00  0.00    -0.227 OA
BRANCH  22  25
HETATM   25  C13 UNL     1      17.594  23.927  60.834  1.00  0.00     0.108 C 
HETATM   26  C14 UNL     1      16.518  24.167  59.793  1.00  0.00     0.020 C 
HETATM   27  C15 UNL     1      17.222  24.680  58.567  1.00  0.00     0.001 C 
HETATM   28  C16 UNL     1      18.696  24.637  58.823  1.00  0.00     0.001 C 
HETATM   29  C17 UNL     1      18.875  23.767  60.051  1.00  0.00     0.020 C 
ENDBRANCH  22  25
ENDBRANCH  21  22
ENDBRANCH   1  21
BRANCH   1  30
HETATM   30  C18 UNL     1      13.648  20.866  62.656  1.00  0.00     0.241 C 
HETATM   31  O5  UNL     1      13.481  20.281  61.559  1.00  0.00    -0.271 OA
HETATM   32  N3  UNL     1      12.586  20.766  63.587  1.00  0.00    -0.354 N 
ATOM     33  H3  UNL     1      12.698  21.237  64.485  1.00  0.00     0.162 HD
BRANCH  32  34
HETATM   34  C19 UNL     1      11.358  20.045  63.358  1.00  0.00     0.093 C 
HETATM   35  C20 UNL     1      10.138  20.802  63.846  1.00  0.00     0.032 C 
HETATM   36  C21 UNL     1       9.306  19.740  64.597  1.00  0.00     0.004 C 
HETATM   37  C22 UNL     1       9.927  19.726  65.964  1.00  0.00    -0.043 C 
HETATM   38  C28 UNL     1       9.702  18.535  63.828  1.00  0.00    -0.028 C 
HETATM   39  C23 UNL     1      10.204  21.141  66.512  1.00  0.00     0.015 C 
HETATM   40  C24 UNL     1       9.156  19.078  67.046  1.00  0.00     0.015 C 
HETATM   41  C25 UNL     1      11.253  19.048  65.603  1.00  0.00     0.021 C 
HETATM   42  C26 UNL     1      11.209  18.750  64.126  1.00  0.00    -0.015 C 
HETATM   43  C27 UNL     1      12.049  17.638  63.676  1.00  0.00     0.018 C 
HETATM   44  C29 UNL     1       9.506  18.789  62.331  1.00  0.00     0.016 C 
BRANCH  38  45
HETATM   45  C30 UNL     1       9.203  17.209  64.013  1.00  0.00    -0.013 C 
HETATM   46  C31 UNL     1       8.156  16.710  64.884  1.00  0.00     0.010 C 
HETATM   47  C32 UNL     1       8.880  16.671  62.591  1.00  0.00     0.010 C 
ENDBRANCH  38  45
ENDBRANCH  32  34
ENDBRANCH   1  30
TORSDOF 15
ENDMDL
MODEL 2
REMARK VINA RESULT: -8.916724437      1.954      5.182
REMARK  15 active torsions:
REMARK  status: ('A' for Active; 'I' for Inactive)
REMARK    1  A    between atoms: C2_2  and  C3_3 
REMARK    2  A    between atoms: C3_3  and  C4_4 
REMARK    3  A    between atoms: C4_4  and  N1_5 
REMARK    4  A    between atoms: C4_4  and  C33_45 
REMARK       I    between atoms: N1_5  and  C5_7 
REMARK    5  A    between atoms: C5_7  and  C6_9 
REMARK    6  A    between atoms: C6_9  and  C7_10 
REMARK    7  A    between atoms: C7_10  and  C8_11 
REMARK    8  A    between atoms: C7_10  and  C10_13 
REMARK       I    between atoms: C10_13  and  N2_15 
REMARK    9  A    between atoms: N2_15  and  C11_17 
REMARK   10  A    between atoms: C11_17  and  C12_18 
REMARK   11  A    between atoms: C11_17  and  C18_27 
REMARK   12  A    between atoms: C12_18  and  S1_19 
REMARK   13  A    between atoms: S1_19  and  C13_22 
REMARK       I    between atoms: C18_27  and  N3_29 
REMARK   14  A    between atoms: N3_29  and  C19_31 
REMARK   15  A    between atoms: C28_40  and  C30_42 
ROOT
HETATM    1  C11 UNL     1      12.482  21.699  64.366  1.00  0.00     0.190 C 
ENDROOT
BRANCH   1   2
HETATM    2  N2  UNL     1      13.679  21.480  63.546  1.00  0.00    -0.347 N 
HETATM    3  C10 UNL     1      13.636  21.053  62.226  1.00  0.00     0.223 C 
HETATM    4  O2  UNL     1      12.433  20.870  61.774  1.00  0.00    -0.273 OA
ATOM      5  H2  UNL     1      14.591  21.651  63.970  1.00  0.00     0.163 HD
BRANCH   3   6
HETATM    6  C7  UNL     1      14.694  20.775  61.270  1.00  0.00     0.086 C 
BRANCH   6   7
HETATM    7  C6  UNL     1      16.032  20.405  61.776  1.00  0.00     0.117 C 
BRANCH   7   8
HETATM    8  C5  UNL     1      17.129  21.367  61.661  1.00  0.00     0.219 C 
HETATM    9  N1  UNL     1      17.072  22.555  62.423  1.00  0.00    -0.348 N 
ATOM     10  H1  UNL     1      16.273  22.721  63.035  1.00  0.00     0.163 HD
HETATM   11  O1  UNL     1      18.133  21.224  60.932  1.00  0.00    -0.274 OA
BRANCH   9  12
HETATM   12  C4  UNL     1      18.145  23.552  62.346  1.00  0.00     0.173 C 
BRANCH  12  13
HETATM   13  C3  UNL     1      17.752  24.621  61.388  1.00  0.00     0.034 C 
BRANCH  13  14
HETATM   14  C2  UNL     1      18.328  24.565  60.025  1.00  0.00    -0.002 C 
HETATM   15  C1  UNL     1      17.225  24.283  58.989  1.00  0.00     0.005 C 
ENDBRANCH  13  14
ENDBRANCH  12  13
BRANCH  12  16
HETATM   16  C33 UNL     1      18.455  23.981  63.715  1.00  0.00     0.254 C 
HETATM   17  N4  UNL     1      18.592  25.324  64.161  1.00  0.00    -0.060 NA
HETATM   18  O6  UNL     1      18.629  23.107  64.632  1.00  0.00    -0.275 OA
ENDBRANCH  12  16
ENDBRANCH   9  12
ENDBRANCH   7   8
ENDBRANCH   6   7
BRANCH   6  19
HETATM   19  C8  UNL     1      14.696  21.838  60.183  1.00  0.00     0.010 C 
HETATM   20  C9  UNL     1      13.863  21.420  58.999  1.00  0.00     0.006 C 
ENDBRANCH   6  19
ENDBRANCH   3   6
ENDBRANCH   1   2
BRANCH   1  21
HETATM   21  C12 UNL     1      12.796  22.508  65.589  1.00  0.00     0.175 C 
BRANCH  21  22
HETATM   22  S1  UNL     1      14.409  22.364  66.212  1.00  0.00     0.150 S 
HETATM   23  O3  UNL     1      14.657  21.240  67.127  1.00  0.00    -0.227 OA
HETATM   24  O4  UNL     1      15.439  22.294  65.105  1.00  0.00    -0.227 OA
BRANCH  22  25
HETATM   25  C13 UNL     1      14.809  23.876  67.095  1.00  0.00     0.108 C 
HETATM   26  C14 UNL     1      16.008  24.553  66.462  1.00  0.00     0.020 C 
HETATM   27  C15 UNL     1      16.866  25.044  67.596  1.00  0.00     0.001 C 
HETATM   28  C16 UNL     1      16.256  24.569  68.879  1.00  0.00     0.001 C 
HETATM   29  C17 UNL     1      15.253  23.504  68.488  1.00  0.00     0.020 C 
ENDBRANCH  22  25
ENDBRANCH  21  22
ENDBRANCH   1  21
BRANCH   1  30
HETATM   30  C18 UNL     1      11.785  20.431  64.637  1.00  0.00     0.241 C 
HETATM   31  O5  UNL     1      12.169  19.751  65.619  1.00  0.00    -0.271 OA
HETATM   32  N3  UNL     1      10.709  19.895  63.886  1.00  0.00    -0.354 N 
ATOM     33  H3  UNL     1      10.383  20.429  63.081  1.00  0.00     0.162 HD
BRANCH  32  34
HETATM   34  C19 UNL     1      10.043  18.650  64.179  1.00  0.00     0.093 C 
HETATM   35  C20 UNL     1      10.782  17.449  63.624  1.00  0.00     0.032 C 
HETATM   36  C21 UNL     1       9.678  16.589  62.972  1.00  0.00     0.004 C 
HETATM   37  C22 UNL     1       9.525  17.207  61.613  1.00  0.00    -0.043 C 
HETATM   38  C28 UNL     1       8.539  16.956  63.847  1.00  0.00    -0.028 C 
HETATM   39  C23 UNL     1      10.877  17.519  60.938  1.00  0.00     0.015 C 
HETATM   40  C24 UNL     1       8.802  16.419  60.593  1.00  0.00     0.015 C 
HETATM   41  C25 UNL     1       8.850  18.517  62.034  1.00  0.00     0.021 C 
HETATM   42  C26 UNL     1       8.688  18.468  63.531  1.00  0.00    -0.015 C 
HETATM   43  C27 UNL     1       7.601  19.281  64.081  1.00  0.00     0.018 C 
HETATM   44  C29 UNL     1       8.931  16.769  65.315  1.00  0.00     0.016 C 
BRANCH  38  45
HETATM   45  C30 UNL     1       7.213  16.424  63.783  1.00  0.00    -0.013 C 
HETATM   46  C31 UNL     1       6.673  15.338  62.988  1.00  0.00     0.010 C 
HETATM   47  C32 UNL     1       6.795  16.140  65.251  1.00  0.00     0.010 C 
ENDBRANCH  38  45
ENDBRANCH  32  34
ENDBRANCH   1  30
TORSDOF 15
ENDMDL
MODEL 3
REMARK VINA RESULT: -8.894284205      2.874      6.009
REMARK  15 active torsions:
REMARK  status: ('A' for Active; 'I' for Inactive)
REMARK    1  A    between atoms: C2_2  and  C3_3 
REMARK    2  A    between atoms: C3_3  and  C4_4 
REMARK    3  A    between atoms: C4_4  and  N1_5 
REMARK    4  A    between atoms: C4_4  and  C33_45 
REMARK       I    between atoms: N1_5  and  C5_7 
REMARK    5  A    between atoms: C5_7  and  C6_9 
REMARK    6  A    between atoms: C6_9  and  C7_10 
REMARK    7  A    between atoms: C7_10  and  C8_11 
REMARK    8  A    between atoms: C7_10  and  C10_13 
REMARK       I    between atoms: C10_13  and  N2_15 
REMARK    9  A    between atoms: N2_15  and  C11_17 
REMARK   10  A    between atoms: C11_17  and  C12_18 
REMARK   11  A    between atoms: C11_17  and  C18_27 
REMARK   12  A    between atoms: C12_18  and  S1_19 
REMARK   13  A    between atoms: S1_19  and  C13_22 
REMARK       I    between atoms: C18_27  and  N3_29 
REMARK   14  A    between atoms: N3_29  and  C19_31 
REMARK   15  A    between atoms: C28_40  and  C30_42 
ROOT
HETATM    1  C11 UNL     1      11.966  19.328  65.931  1.00  0.00     0.190 C 
ENDROOT
BRANCH   1   2
HETATM    2  N2  UNL     1      12.263  20.735  66.220  1.00  0.00    -0.347 N 
HETATM    3  C10 UNL     1      13.529  21.292  66.102  1.00  0.00     0.223 C 
HETATM    4  O2  UNL     1      14.434  20.451  65.701  1.00  0.00    -0.273 OA
ATOM      5  H2  UNL     1      11.497  21.337  66.525  1.00  0.00     0.163 HD
BRANCH   3   6
HETATM    6  C7  UNL     1      14.015  22.639  66.346  1.00  0.00     0.086 C 
BRANCH   6   7
HETATM    7  C6  UNL     1      14.614  23.394  65.226  1.00  0.00     0.117 C 
BRANCH   7   8
HETATM    8  C5  UNL     1      15.760  22.826  64.514  1.00  0.00     0.219 C 
HETATM    9  N1  UNL     1      15.570  22.341  63.202  1.00  0.00    -0.348 N 
ATOM     10  H1  UNL     1      14.644  22.392  62.776  1.00  0.00     0.163 HD
HETATM   11  O1  UNL     1      16.916  22.734  64.979  1.00  0.00    -0.274 OA
BRANCH   9  12
HETATM   12  C4  UNL     1      16.684  21.762  62.444  1.00  0.00     0.173 C 
BRANCH  12  13
HETATM   13  C3  UNL     1      16.173  20.656  61.589  1.00  0.00     0.034 C 
BRANCH  13  14
HETATM   14  C2  UNL     1      14.706  20.456  61.532  1.00  0.00    -0.002 C 
HETATM   15  C1  UNL     1      14.116  21.170  60.303  1.00  0.00     0.005 C 
ENDBRANCH  13  14
ENDBRANCH  12  13
BRANCH  12  16
HETATM   16  C33 UNL     1      17.372  22.859  61.753  1.00  0.00     0.254 C 
HETATM   17  N4  UNL     1      18.681  23.337  62.035  1.00  0.00    -0.060 NA
HETATM   18  O6  UNL     1      16.786  23.479  60.801  1.00  0.00    -0.275 OA
ENDBRANCH  12  16
ENDBRANCH   9  12
ENDBRANCH   7   8
ENDBRANCH   6   7
BRANCH   6  19
HETATM   19  C8  UNL     1      14.822  22.667  67.635  1.00  0.00     0.010 C 
HETATM   20  C9  UNL     1      15.239  24.070  67.995  1.00  0.00     0.006 C 
ENDBRANCH   6  19
ENDBRANCH   3   6
ENDBRANCH   1   2
BRANCH   1  21
HETATM   21  C12 UNL     1      12.042  19.043  64.460  1.00  0.00     0.175 C 
BRANCH  21  22
HETATM   22  S1  UNL     1      11.072  20.050  63.432  1.00  0.00     0.150 S 
HETATM   23  O3  UNL     1       9.760  20.450  63.961  1.00  0.00    -0.227 OA
HETATM   24  O4  UNL     1      11.805  21.308  63.017  1.00  0.00    -0.227 OA
BRANCH  22  25
HETATM   25  C13 UNL     1      10.788  19.173  61.891  1.00  0.00     0.108 C 
HETATM   26  C14 UNL     1       9.385  18.599  61.863  1.00  0.00     0.020 C 
HETATM   27  C15 UNL     1       9.503  17.221  61.272  1.00  0.00     0.001 C 
HETATM   28  C16 UNL     1      10.956  16.928  61.059  1.00  0.00     0.001 C 
HETATM   29  C17 UNL     1      11.707  17.977  61.854  1.00  0.00     0.020 C 
ENDBRANCH  22  25
ENDBRANCH  21  22
ENDBRANCH   1  21
BRANCH   1  30
HETATM   30  C18 UNL     1      10.706  18.909  66.568  1.00  0.00     0.241 C 
HETATM   31  O5  UNL     1      10.508  19.256  67.757  1.00  0.00    -0.271 OA
HETATM   32  N3  UNL     1       9.684  18.139  65.961  1.00  0.00    -0.354 N 
ATOM     33  H3  UNL     1       9.825  17.842  64.996  1.00  0.00     0.162 HD
BRANCH  32  34
HETATM   34  C19 UNL     1       8.457  17.746  66.610  1.00  0.00     0.093 C 
HETATM   35  C20 UNL     1       8.146  16.274  66.428  1.00  0.00     0.032 C 
HETATM   36  C21 UNL     1       6.647  16.243  66.063  1.00  0.00     0.004 C 
HETATM   37  C22 UNL     1       6.652  16.494  64.583  1.00  0.00    -0.043 C 
HETATM   38  C28 UNL     1       6.195  17.448  66.799  1.00  0.00    -0.028 C 
HETATM   39  C23 UNL     1       7.731  15.680  63.839  1.00  0.00     0.015 C 
HETATM   40  C24 UNL     1       5.410  16.183  63.844  1.00  0.00     0.015 C 
HETATM   41  C25 UNL     1       7.052  17.973  64.606  1.00  0.00     0.021 C 
HETATM   42  C26 UNL     1       7.196  18.369  66.053  1.00  0.00    -0.015 C 
HETATM   43  C27 UNL     1       6.999  19.790  66.346  1.00  0.00     0.018 C 
HETATM   44  C29 UNL     1       6.662  17.372  68.254  1.00  0.00     0.016 C 
BRANCH  38  45
HETATM   45  C30 UNL     1       4.851  17.926  66.901  1.00  0.00    -0.013 C 
HETATM   46  C31 UNL     1       3.626  17.420  66.313  1.00  0.00     0.010 C 
HETATM   47  C32 UNL     1       4.571  18.090  68.420  1.00  0.00     0.010 C 
ENDBRANCH  38  45
ENDBRANCH  32  34
ENDBRANCH   1  30
TORSDOF 15
ENDMDL
MODEL 4
REMARK VINA RESULT: -8.765633937      2.820      5.895
REMARK  15 active torsions:
REMARK  status: ('A' for Active; 'I' for Inactive)
REMARK    1  A    between atoms: C2_2  and  C3_3 
REMARK    2  A    between atoms: C3_3  and  C4_4 
REMARK    3  A    between atoms: C4_4  and  N1_5 
REMARK    4  A    between atoms: C4_4  and  C33_45 
REMARK       I    between atoms: N1_5  and  C5_7 
REMARK    5  A    between atoms: C5_7  and  C6_9 
REMARK    6  A    between atoms: C6_9  and  C7_10 
REMARK    7  A    between atoms: C7_10  and  C8_11 
REMARK    8  A    between atoms: C7_10  and  C10_13 
REMARK       I    between atoms: C10_13  and  N2_15 
REMARK    9  A    between atoms: N2_15  and  C11_17 
REMARK   10  A    between atoms: C11_17  and  C12_18 
REMARK   11  A    between atoms: C11_17  and  C18_27 
REMARK   12  A    between atoms: C12_18  and  S1_19 
REMARK   13  A    between atoms: S1_19  and  C13_22 
REMARK       I    between atoms: C18_27  and  N3_29 
REMARK   14  A    between atoms: N3_29  and  C19_31 
REMARK   15  A    between atoms: C28_40  and  C30_42 
ROOT
HETATM    1  C11 UNL     1      12.192  19.050  65.479  1.00  0.00     0.190 C 
ENDROOT
BRANCH   1   2
HETATM    2  N2  UNL     1      12.616  20.452  65.562  1.00  0.00    -0.347 N 
HETATM    3  C10 UNL     1      13.937  20.862  65.445  1.00  0.00     0.223 C 
HETATM    4  O2  UNL     1      14.771  19.886  65.248  1.00  0.00    -0.273 OA
ATOM      5  H2  UNL     1      11.901  21.164  65.713  1.00  0.00     0.163 HD
BRANCH   3   6
HETATM    6  C7  UNL     1      14.546  22.179  65.507  1.00  0.00     0.086 C 
BRANCH   6   7
HETATM    7  C6  UNL     1      15.947  22.337  65.065  1.00  0.00     0.117 C 
BRANCH   7   8
HETATM    8  C5  UNL     1      16.254  22.294  63.635  1.00  0.00     0.219 C 
HETATM    9  N1  UNL     1      17.567  22.595  63.214  1.00  0.00    -0.348 N 
ATOM     10  H1  UNL     1      18.275  22.835  63.909  1.00  0.00     0.163 HD
HETATM   11  O1  UNL     1      15.435  22.008  62.736  1.00  0.00    -0.274 OA
BRANCH   9  12
HETATM   12  C4  UNL     1      17.929  22.566  61.793  1.00  0.00     0.173 C 
BRANCH  12  13
HETATM   13  C3  UNL     1      17.954  23.958  61.266  1.00  0.00     0.034 C 
BRANCH  13  14
HETATM   14  C2  UNL     1      17.470  24.176  59.883  1.00  0.00    -0.002 C 
HETATM   15  C1  UNL     1      16.209  23.334  59.618  1.00  0.00     0.005 C 
ENDBRANCH  13  14
ENDBRANCH  12  13
BRANCH  12  16
HETATM   16  C33 UNL     1      19.171  21.794  61.663  1.00  0.00     0.254 C 
HETATM   17  N4  UNL     1      19.712  21.276  60.455  1.00  0.00    -0.060 NA
HETATM   18  O6  UNL     1      19.870  21.534  62.701  1.00  0.00    -0.275 OA
ENDBRANCH  12  16
ENDBRANCH   9  12
ENDBRANCH   7   8
ENDBRANCH   6   7
BRANCH   6  19
HETATM   19  C8  UNL     1      14.223  22.833  66.842  1.00  0.00     0.010 C 
HETATM   20  C9  UNL     1      15.117  24.016  67.108  1.00  0.00     0.006 C 
ENDBRANCH   6  19
ENDBRANCH   3   6
ENDBRANCH   1   2
BRANCH   1  21
HETATM   21  C12 UNL     1      12.066  18.598  64.055  1.00  0.00     0.175 C 
BRANCH  21  22
HETATM   22  S1  UNL     1      11.200  19.658  62.987  1.00  0.00     0.150 S 
HETATM   23  O3  UNL     1       9.990  20.289  63.536  1.00  0.00    -0.227 OA
HETATM   24  O4  UNL     1      12.085  20.756  62.438  1.00  0.00    -0.227 OA
BRANCH  22  25
HETATM   25  C13 UNL     1      10.708  18.718  61.538  1.00  0.00     0.108 C 
HETATM   26  C14 UNL     1       9.257  18.293  61.655  1.00  0.00     0.020 C 
HETATM   27  C15 UNL     1       9.190  16.875  61.157  1.00  0.00     0.001 C 
HETATM   28  C16 UNL     1      10.584  16.419  60.862  1.00  0.00     0.001 C 
HETATM   29  C17 UNL     1      11.497  17.432  61.521  1.00  0.00     0.020 C 
ENDBRANCH  22  25
ENDBRANCH  21  22
ENDBRANCH   1  21
BRANCH   1  30
HETATM   30  C18 UNL     1      10.996  18.808  66.303  1.00  0.00     0.241 C 
HETATM   31  O5  UNL     1      11.000  19.237  67.481  1.00  0.00    -0.271 OA
HETATM   32  N3  UNL     1       9.825  18.126  65.888  1.00  0.00    -0.354 N 
ATOM     33  H3  UNL     1       9.800  17.765  64.934  1.00  0.00     0.162 HD
BRANCH  32  34
HETATM   34  C19 UNL     1       8.666  17.907  66.717  1.00  0.00     0.093 C 
HETATM   35  C20 UNL     1       8.035  16.547  66.489  1.00  0.00     0.032 C 
HETATM   36  C21 UNL     1       6.522  16.839  66.398  1.00  0.00     0.004 C 
HETATM   37  C22 UNL     1       6.339  17.239  64.963  1.00  0.00    -0.043 C 
HETATM   38  C28 UNL     1       6.451  18.024  67.286  1.00  0.00    -0.028 C 
HETATM   39  C23 UNL     1       7.093  16.318  63.982  1.00  0.00     0.015 C 
HETATM   40  C24 UNL     1       4.957  17.247  64.438  1.00  0.00     0.015 C 
HETATM   41  C25 UNL     1       7.031  18.604  65.018  1.00  0.00     0.021 C 
HETATM   42  C26 UNL     1       7.485  18.812  66.440  1.00  0.00    -0.015 C 
HETATM   43  C27 UNL     1       7.634  20.206  66.864  1.00  0.00     0.018 C 
HETATM   44  C29 UNL     1       7.122  17.709  68.625  1.00  0.00     0.016 C 
BRANCH  38  45
HETATM   45  C30 UNL     1       5.268  18.734  67.662  1.00  0.00    -0.013 C 
HETATM   46  C31 UNL     1       4.500  19.730  66.940  1.00  0.00     0.010 C 
HETATM   47  C32 UNL     1       4.253  17.655  68.130  1.00  0.00     0.010 C 
ENDBRANCH  38  45
ENDBRANCH  32  34
ENDBRANCH   1  30
TORSDOF 15
ENDMDL
MODEL 5
REMARK VINA RESULT: -8.746594180      1.883      3.229
REMARK  15 active torsions:
REMARK  status: ('A' for Active; 'I' for Inactive)
REMARK    1  A    between atoms: C2_2  and  C3_3 
REMARK    2  A    between atoms: C3_3  and  C4_4 
REMARK    3  A    between atoms: C4_4  and  N1_5 
REMARK    4  A    between atoms: C4_4  and  C33_45 
REMARK       I    between atoms: N1_5  and  C5_7 
REMARK    5  A    between atoms: C5_7  and  C6_9 
REMARK    6  A    between atoms: C6_9  and  C7_10 
REMARK    7  A    between atoms: C7_10  and  C8_11 
REMARK    8  A    between atoms: C7_10  and  C10_13 
REMARK       I    between atoms: C10_13  and  N2_15 
REMARK    9  A    between atoms: N2_15  and  C11_17 
REMARK   10  A    between atoms: C11_17  and  C12_18 
REMARK   11  A    between atoms: C11_17  and  C18_27 
REMARK   12  A    between atoms: C12_18  and  S1_19 
REMARK   13  A    between atoms: S1_19  and  C13_22 
REMARK       I    between atoms: C18_27  and  N3_29 
REMARK   14  A    between atoms: N3_29  and  C19_31 
REMARK   15  A    between atoms: C28_40  and  C30_42 
ROOT
HETATM    1  C11 UNL     1      15.417  22.189  64.514  1.00  0.00     0.190 C 
ENDROOT
BRANCH   1   2
HETATM    2  N2  UNL     1      15.715  23.376  65.322  1.00  0.00    -0.347 N 
HETATM    3  C10 UNL     1      17.003  23.782  65.643  1.00  0.00     0.223 C 
HETATM    4  O2  UNL     1      17.930  23.015  65.153  1.00  0.00    -0.273 OA
ATOM      5  H2  UNL     1      14.932  23.933  65.667  1.00  0.00     0.163 HD
BRANCH   3   6
HETATM    6  C7  UNL     1      17.492  24.904  66.425  1.00  0.00     0.086 C 
BRANCH   6   7
HETATM    7  C6  UNL     1      18.779  25.525  66.050  1.00  0.00     0.117 C 
BRANCH   7   8
HETATM    8  C5  UNL     1      18.817  26.473  64.936  1.00  0.00     0.219 C 
HETATM    9  N1  UNL     1      19.988  27.237  64.735  1.00  0.00    -0.348 N 
ATOM     10  H1  UNL     1      20.781  27.116  65.365  1.00  0.00     0.163 HD
HETATM   11  O1  UNL     1      17.882  26.668  64.131  1.00  0.00    -0.274 OA
BRANCH   9  12
HETATM   12  C4  UNL     1      20.079  28.201  63.634  1.00  0.00     0.173 C 
BRANCH  12  13
HETATM   13  C3  UNL     1      20.640  29.480  64.148  1.00  0.00     0.034 C 
BRANCH  13  14
HETATM   14  C2  UNL     1      20.938  30.544  63.161  1.00  0.00    -0.002 C 
HETATM   15  C1  UNL     1      19.645  31.001  62.461  1.00  0.00     0.005 C 
ENDBRANCH  13  14
ENDBRANCH  12  13
BRANCH  12  16
HETATM   16  C33 UNL     1      20.813  27.558  62.536  1.00  0.00     0.254 C 
HETATM   17  N4  UNL     1      20.263  27.138  61.295  1.00  0.00    -0.060 NA
HETATM   18  O6  UNL     1      22.065  27.332  62.655  1.00  0.00    -0.275 OA
ENDBRANCH  12  16
ENDBRANCH   9  12
ENDBRANCH   7   8
ENDBRANCH   6   7
BRANCH   6  19
HETATM   19  C8  UNL     1      17.340  24.602  67.908  1.00  0.00     0.010 C 
HETATM   20  C9  UNL     1      15.923  24.219  68.250  1.00  0.00     0.006 C 
ENDBRANCH   6  19
ENDBRANCH   3   6
ENDBRANCH   1   2
BRANCH   1  21
HETATM   21  C12 UNL     1      15.169  22.550  63.079  1.00  0.00     0.175 C 
BRANCH  21  22
HETATM   22  S1  UNL     1      15.269  21.251  61.932  1.00  0.00     0.150 S 
HETATM   23  O3  UNL     1      15.835  19.987  62.427  1.00  0.00    -0.227 OA
HETATM   24  O4  UNL     1      13.926  20.942  61.307  1.00  0.00    -0.227 OA
BRANCH  22  25
HETATM   25  C13 UNL     1      16.285  21.794  60.555  1.00  0.00     0.108 C 
HETATM   26  C14 UNL     1      17.667  22.183  61.042  1.00  0.00     0.020 C 
HETATM   27  C15 UNL     1      18.042  23.435  60.297  1.00  0.00     0.001 C 
HETATM   28  C16 UNL     1      16.866  23.855  59.471  1.00  0.00     0.001 C 
HETATM   29  C17 UNL     1      15.688  23.064  60.001  1.00  0.00     0.020 C 
ENDBRANCH  22  25
ENDBRANCH  21  22
ENDBRANCH   1  21
BRANCH   1  30
HETATM   30  C18 UNL     1      14.352  21.380  65.130  1.00  0.00     0.241 C 
HETATM   31  O5  UNL     1      14.280  21.364  66.383  1.00  0.00    -0.271 OA
HETATM   32  N3  UNL     1      13.390  20.605  64.438  1.00  0.00    -0.354 N 
ATOM     33  H3  UNL     1      13.432  20.598  63.418  1.00  0.00     0.162 HD
BRANCH  32  34
HETATM   34  C19 UNL     1      12.355  19.824  65.070  1.00  0.00     0.093 C 
HETATM   35  C20 UNL     1      12.230  18.433  64.478  1.00  0.00     0.032 C 
HETATM   36  C21 UNL     1      10.711  18.232  64.296  1.00  0.00     0.004 C 
HETATM   37  C22 UNL     1      10.437  18.891  62.975  1.00  0.00    -0.043 C 
HETATM   38  C28 UNL     1      10.220  19.073  65.414  1.00  0.00    -0.028 C 
HETATM   39  C23 UNL     1      11.483  18.536  61.898  1.00  0.00     0.015 C 
HETATM   40  C24 UNL     1       9.147  18.580  62.323  1.00  0.00     0.015 C 
HETATM   41  C25 UNL     1      10.622  20.349  63.407  1.00  0.00     0.021 C 
HETATM   42  C26 UNL     1      10.944  20.336  64.880  1.00  0.00    -0.015 C 
HETATM   43  C27 UNL     1      10.599  21.553  65.618  1.00  0.00     0.018 C 
HETATM   44  C29 UNL     1      10.926  18.673  66.712  1.00  0.00     0.016 C 
BRANCH  38  45
HETATM   45  C30 UNL     1       8.858  19.245  65.812  1.00  0.00    -0.013 C 
HETATM   46  C31 UNL     1       7.627  18.894  65.130  1.00  0.00     0.010 C 
HETATM   47  C32 UNL     1       8.751  18.647  67.242  1.00  0.00     0.010 C 
ENDBRANCH  38  45
ENDBRANCH  32  34
ENDBRANCH   1  30
TORSDOF 15
ENDMDL
