MODEL 1
REMARK VINA RESULT: -8.196346904      0.000      0.000
REMARK  16 active torsions:
REMARK  status: ('A' for Active; 'I' for Inactive)
REMARK    1  A    between atoms: C2_2  and  C3_3 
REMARK    2  A    between atoms: C3_3  and  C4_4 
REMARK    3  A    between atoms: C4_4  and  C5_5 
REMARK    4  A    between atoms: C5_5  and  C6_6 
REMARK    5  A    between atoms: C6_6  and  C7_7 
REMARK    6  A    between atoms: C11_14  and  C12_15 
REMARK    7  A    between atoms: C12_15  and  N2_16 
REMARK       I    between atoms: N2_16  and  C13_17 
REMARK    8  A    between atoms: N2_16  and  C23_30 
REMARK    9  A    between atoms: C13_17  and  C14_19 
REMARK   10  A    between atoms: C14_19  and  C15_20 
REMARK   11  A    between atoms: C15_20  and  C16_21 
REMARK   12  A    between atoms: C16_21  and  C17_22 
REMARK   13  A    between atoms: C17_22  and  C18_23 
REMARK   14  A    between atoms: C18_23  and  O3_24 
REMARK   15  A    between atoms: C23_30  and  C25_32 
REMARK   16  A    between atoms: C31_42  and  C32_43 
ROOT
HETATM    1  C7  UNL     1       5.140  18.366  67.804  1.00  0.00     0.176 C 
HETATM    2  N1  UNL     1       6.144  17.421  67.419  1.00  0.00    -0.347 N 
ATOM      3  H1  UNL     1       5.777  16.499  67.185  1.00  0.00     0.163 HD
HETATM    4  C8  UNL     1       7.529  17.526  67.302  1.00  0.00     0.226 C 
HETATM    5  O1  UNL     1       8.289  16.703  67.946  1.00  0.00    -0.273 OA
HETATM    6  C9  UNL     1       8.363  18.482  66.515  1.00  0.00     0.112 C 
HETATM    7  C10 UNL     1       9.644  18.771  67.344  1.00  0.00     0.025 C 
HETATM    8  C11 UNL     1       8.760  18.079  65.187  1.00  0.00     0.016 C 
HETATM    9  C27 UNL     1       8.019  16.876  64.656  1.00  0.00     0.159 C 
HETATM   10  O4  UNL     1       8.128  15.853  65.289  1.00  0.00    -0.293 OA
HETATM   11  C28 UNL     1       7.221  16.931  63.458  1.00  0.00     0.103 C 
HETATM   12  C29 UNL     1       5.840  17.537  63.561  1.00  0.00     0.130 C 
HETATM   13  N3  UNL     1       4.829  16.572  63.883  1.00  0.00    -0.359 N 
ATOM     14  H3  UNL     1       4.867  15.702  63.352  1.00  0.00     0.162 HD
HETATM   15  C30 UNL     1       3.791  16.661  64.830  1.00  0.00     0.240 C 
HETATM   16  O5  UNL     1       3.618  15.567  65.502  1.00  0.00    -0.271 OA
HETATM   17  C31 UNL     1       2.907  17.750  65.162  1.00  0.00     0.180 C 
HETATM   18  N4  UNL     1       3.362  18.837  65.959  1.00  0.00    -0.346 N 
ATOM     19  H4  UNL     1       2.693  19.607  65.967  1.00  0.00     0.163 HD
HETATM   20  C35 UNL     1       4.470  19.115  66.721  1.00  0.00     0.241 C 
HETATM   21  O6  UNL     1       5.032  20.248  66.435  1.00  0.00    -0.271 OA
ENDROOT
BRANCH   8  22
HETATM   22  C12 UNL     1       8.953  19.101  64.137  1.00  0.00     0.106 C 
BRANCH  22  23
HETATM   23  N2  UNL     1      10.224  19.614  63.794  1.00  0.00    -0.323 N 
HETATM   24  C13 UNL     1      10.552  20.935  64.357  1.00  0.00     0.224 C 
HETATM   25  O2  UNL     1       9.672  21.449  65.072  1.00  0.00    -0.273 OA
BRANCH  24  26
HETATM   26  C14 UNL     1      11.811  21.620  64.109  1.00  0.00     0.103 C 
BRANCH  26  27
HETATM   27  C15 UNL     1      12.669  21.906  65.300  1.00  0.00     0.009 C 
BRANCH  27  28
HETATM   28  C16 UNL     1      13.673  22.979  65.216  1.00  0.00     0.004 C 
BRANCH  28  29
HETATM   29  C17 UNL     1      14.964  22.580  65.934  1.00  0.00     0.038 C 
BRANCH  29  30
HETATM   30  C18 UNL     1      15.510  23.864  66.503  1.00  0.00     0.058 C 
HETATM   31  C19 UNL     1      15.433  23.798  68.031  1.00  0.00     0.038 C 
HETATM   32  C20 UNL     1      16.448  24.918  68.344  1.00  0.00     0.003 C 
HETATM   33  C21 UNL     1      17.614  24.560  67.456  1.00  0.00     0.003 C 
HETATM   34  C22 UNL     1      16.961  24.000  66.201  1.00  0.00     0.038 C 
BRANCH  30  35
HETATM   35  O3  UNL     1      14.741  24.925  66.012  1.00  0.00    -0.390 OA
ATOM     36  H3  UNL     1      14.805  25.649  66.624  1.00  0.00     0.210 HD
ENDBRANCH  30  35
ENDBRANCH  29  30
ENDBRANCH  28  29
ENDBRANCH  27  28
ENDBRANCH  26  27
ENDBRANCH  24  26
BRANCH  23  37
HETATM   37  C23 UNL     1      11.258  18.988  63.081  1.00  0.00     0.088 C 
HETATM   38  C24 UNL     1      11.054  18.497  61.697  1.00  0.00     0.033 C 
BRANCH  37  39
HETATM   39  C25 UNL     1      11.984  17.850  63.817  1.00  0.00     0.021 C 
HETATM   40  C26 UNL     1      12.892  18.232  64.898  1.00  0.00     0.007 C 
ENDBRANCH  37  39
ENDBRANCH  23  37
ENDBRANCH  22  23
ENDBRANCH   8  22
BRANCH   1  41
HETATM   41  C6  UNL     1       4.076  17.671  68.692  1.00  0.00     0.035 C 
BRANCH  41  42
HETATM   42  C5  UNL     1       3.306  18.640  69.513  1.00  0.00     0.002 C 
BRANCH  42  43
HETATM   43  C4  UNL     1       1.835  18.399  69.362  1.00  0.00     0.000 C 
BRANCH  43  44
HETATM   44  C3  UNL     1       1.159  19.521  68.643  1.00  0.00    -0.000 C 
BRANCH  44  45
HETATM   45  C2  UNL     1       1.941  20.799  68.911  1.00  0.00    -0.005 C 
HETATM   46  C1  UNL     1       1.857  21.686  67.702  1.00  0.00     0.005 C 
ENDBRANCH  44  45
ENDBRANCH  43  44
ENDBRANCH  42  43
ENDBRANCH  41  42
ENDBRANCH   1  41
BRANCH  17  47
HETATM   47  C32 UNL     1       2.277  18.236  63.842  1.00  0.00     0.009 C 
HETATM   48  C33 UNL     1       1.469  19.489  64.019  1.00  0.00     0.012 C 
HETATM   49  C34 UNL     1       1.404  17.178  63.240  1.00  0.00     0.012 C 
ENDBRANCH  17  47
TORSDOF 16
ENDMDL
MODEL 2
REMARK VINA RESULT: -8.058941459      0.893      1.446
REMARK  16 active torsions:
REMARK  status: ('A' for Active; 'I' for Inactive)
REMARK    1  A    between atoms: C2_2  and  C3_3 
REMARK    2  A    between atoms: C3_3  and  C4_4 
REMARK    3  A    between atoms: C4_4  and  C5_5 
REMARK    4  A    between atoms: C5_5  and  C6_6 
REMARK    5  A    between atoms: C6_6  and  C7_7 
REMARK    6  A    between atoms: C11_14  and  C12_15 
REMARK    7  A    between atoms: C12_15  and  N2_16 
REMARK       I    between atoms: N2_16  and  C13_17 
REMARK    8  A    between atoms: N2_16  and  C23_30 
REMARK    9  A    between atoms: C13_17  and  C14_19 
REMARK   10  A    between atoms: C14_19  and  C15_20 
REMARK   11  A    between atoms: C15_20  and  C16_21 
REMARK   12  A    between atoms: C16_21  and  C17_22 
REMARK   13  A    between atoms: C17_22  and  C18_23 
REMARK   14  A    between atoms: C18_23  and  O3_24 
REMARK   15  A    between atoms: C23_30  and  C25_32 
REMARK   16  A    between atoms: C31_42  and  C32_43 
ROOT
HETATM    1  C7  UNL     1       5.100  18.355  67.801  1.00  0.00     0.176 C 
HETATM    2  N1  UNL     1       6.120  17.424  67.425  1.00  0.00    -0.347 N 
ATOM      3  H1  UNL     1       5.767  16.497  67.188  1.00  0.00     0.163 HD
HETATM    4  C8  UNL     1       7.505  17.547  67.322  1.00  0.00     0.226 C 
HETATM    5  O1  UNL     1       8.269  16.733  67.973  1.00  0.00    -0.273 OA
HETATM    6  C9  UNL     1       8.333  18.514  66.542  1.00  0.00     0.112 C 
HETATM    7  C10 UNL     1       9.602  18.820  67.383  1.00  0.00     0.025 C 
HETATM    8  C11 UNL     1       8.747  18.116  65.218  1.00  0.00     0.016 C 
HETATM    9  C27 UNL     1       8.028  16.903  64.680  1.00  0.00     0.159 C 
HETATM   10  O4  UNL     1       8.145  15.882  65.314  1.00  0.00    -0.293 OA
HETATM   11  C28 UNL     1       7.240  16.947  63.474  1.00  0.00     0.103 C 
HETATM   12  C29 UNL     1       5.851  17.536  63.564  1.00  0.00     0.130 C 
HETATM   13  N3  UNL     1       4.850  16.557  63.877  1.00  0.00    -0.359 N 
ATOM     14  H3  UNL     1       4.904  15.688  63.347  1.00  0.00     0.162 HD
HETATM   15  C30 UNL     1       3.802  16.632  64.815  1.00  0.00     0.240 C 
HETATM   16  O5  UNL     1       3.636  15.537  65.485  1.00  0.00    -0.271 OA
HETATM   17  C31 UNL     1       2.900  17.710  65.138  1.00  0.00     0.180 C 
HETATM   18  N4  UNL     1       3.333  18.803  65.939  1.00  0.00    -0.346 N 
ATOM     19  H4  UNL     1       2.654  19.563  65.940  1.00  0.00     0.163 HD
HETATM   20  C35 UNL     1       4.430  19.095  66.711  1.00  0.00     0.241 C 
HETATM   21  O6  UNL     1       4.980  20.235  66.430  1.00  0.00    -0.271 OA
ENDROOT
BRANCH   8  22
HETATM   22  C12 UNL     1       8.938  19.140  64.170  1.00  0.00     0.106 C 
BRANCH  22  23
HETATM   23  N2  UNL     1      10.208  19.650  63.819  1.00  0.00    -0.323 N 
HETATM   24  C13 UNL     1      10.547  20.965  64.389  1.00  0.00     0.224 C 
HETATM   25  O2  UNL     1       9.675  21.478  65.116  1.00  0.00    -0.273 OA
BRANCH  24  26
HETATM   26  C14 UNL     1      11.807  21.646  64.135  1.00  0.00     0.103 C 
BRANCH  26  27
HETATM   27  C15 UNL     1      12.680  21.911  65.319  1.00  0.00     0.009 C 
BRANCH  27  28
HETATM   28  C16 UNL     1      13.673  22.995  65.246  1.00  0.00     0.004 C 
BRANCH  28  29
HETATM   29  C17 UNL     1      14.976  22.595  65.943  1.00  0.00     0.038 C 
BRANCH  29  30
HETATM   30  C18 UNL     1      15.520  23.874  66.523  1.00  0.00     0.058 C 
HETATM   31  C19 UNL     1      15.442  23.794  68.051  1.00  0.00     0.038 C 
HETATM   32  C20 UNL     1      16.456  24.912  68.375  1.00  0.00     0.003 C 
HETATM   33  C21 UNL     1      17.623  24.563  67.484  1.00  0.00     0.003 C 
HETATM   34  C22 UNL     1      16.971  24.015  66.224  1.00  0.00     0.038 C 
BRANCH  30  35
HETATM   35  O3  UNL     1      14.751  24.939  66.042  1.00  0.00    -0.390 OA
ATOM     36  H3  UNL     1      13.834  24.721  66.154  1.00  0.00     0.210 HD
ENDBRANCH  30  35
ENDBRANCH  29  30
ENDBRANCH  28  29
ENDBRANCH  27  28
ENDBRANCH  26  27
ENDBRANCH  24  26
BRANCH  23  37
HETATM   37  C23 UNL     1      11.233  19.025  63.093  1.00  0.00     0.088 C 
HETATM   38  C24 UNL     1      11.013  18.540  61.709  1.00  0.00     0.033 C 
BRANCH  37  39
HETATM   39  C25 UNL     1      11.963  17.881  63.816  1.00  0.00     0.021 C 
HETATM   40  C26 UNL     1      12.867  18.255  64.904  1.00  0.00     0.007 C 
ENDBRANCH  37  39
ENDBRANCH  23  37
ENDBRANCH  22  23
ENDBRANCH   8  22
BRANCH   1  41
HETATM   41  C6  UNL     1       4.036  17.646  68.678  1.00  0.00     0.035 C 
BRANCH  41  42
HETATM   42  C5  UNL     1       3.268  18.602  69.516  1.00  0.00     0.002 C 
BRANCH  42  43
HETATM   43  C4  UNL     1       2.852  17.952  70.800  1.00  0.00     0.000 C 
BRANCH  43  44
HETATM   44  C3  UNL     1       2.643  18.954  71.889  1.00  0.00    -0.000 C 
BRANCH  44  45
HETATM   45  C2  UNL     1       3.364  18.459  73.135  1.00  0.00    -0.005 C 
HETATM   46  C1  UNL     1       3.869  17.066  72.887  1.00  0.00     0.005 C 
ENDBRANCH  44  45
ENDBRANCH  43  44
ENDBRANCH  42  43
ENDBRANCH  41  42
ENDBRANCH   1  41
BRANCH  17  47
HETATM   47  C32 UNL     1       2.277  18.187  63.811  1.00  0.00     0.009 C 
HETATM   48  C33 UNL     1       1.478  19.448  63.975  1.00  0.00     0.012 C 
HETATM   49  C34 UNL     1       1.397  17.130  63.218  1.00  0.00     0.012 C 
ENDBRANCH  17  47
TORSDOF 16
ENDMDL
MODEL 3
REMARK VINA RESULT: -7.961277247      0.709      1.125
REMARK  16 active torsions:
REMARK  status: ('A' for Active; 'I' for Inactive)
REMARK    1  A    between atoms: C2_2  and  C3_3 
REMARK    2  A    between atoms: C3_3  and  C4_4 
REMARK    3  A    between atoms: C4_4  and  C5_5 
REMARK    4  A    between atoms: C5_5  and  C6_6 
REMARK    5  A    between atoms: C6_6  and  C7_7 
REMARK    6  A    between atoms: C11_14  and  C12_15 
REMARK    7  A    between atoms: C12_15  and  N2_16 
REMARK       I    between atoms: N2_16  and  C13_17 
REMARK    8  A    between atoms: N2_16  and  C23_30 
REMARK    9  A    between atoms: C13_17  and  C14_19 
REMARK   10  A    between atoms: C14_19  and  C15_20 
REMARK   11  A    between atoms: C15_20  and  C16_21 
REMARK   12  A    between atoms: C16_21  and  C17_22 
REMARK   13  A    between atoms: C17_22  and  C18_23 
REMARK   14  A    between atoms: C18_23  and  O3_24 
REMARK   15  A    between atoms: C23_30  and  C25_32 
REMARK   16  A    between atoms: C31_42  and  C32_43 
ROOT
HETATM    1  C7  UNL     1       5.020  18.360  67.762  1.00  0.00     0.176 C 
HETATM    2  N1  UNL     1       6.017  17.403  67.387  1.00  0.00    -0.347 N 
ATOM      3  H1  UNL     1       5.643  16.478  67.175  1.00  0.00     0.163 HD
HETATM    4  C8  UNL     1       7.401  17.500  67.257  1.00  0.00     0.226 C 
HETATM    5  O1  UNL     1       8.162  16.686  67.911  1.00  0.00    -0.273 OA
HETATM    6  C9  UNL     1       8.232  18.436  66.444  1.00  0.00     0.112 C 
HETATM    7  C10 UNL     1       9.521  18.736  67.257  1.00  0.00     0.025 C 
HETATM    8  C11 UNL     1       8.616  18.005  65.121  1.00  0.00     0.016 C 
HETATM    9  C27 UNL     1       7.866  16.795  64.621  1.00  0.00     0.159 C 
HETATM   10  O4  UNL     1       7.976  15.784  65.273  1.00  0.00    -0.293 OA
HETATM   11  C28 UNL     1       7.058  16.829  63.428  1.00  0.00     0.103 C 
HETATM   12  C29 UNL     1       5.681  17.444  63.531  1.00  0.00     0.130 C 
HETATM   13  N3  UNL     1       4.669  16.489  63.880  1.00  0.00    -0.359 N 
ATOM     14  H3  UNL     1       4.698  15.609  63.367  1.00  0.00     0.162 HD
HETATM   15  C30 UNL     1       3.639  16.602  64.834  1.00  0.00     0.240 C 
HETATM   16  O5  UNL     1       3.466  15.523  65.529  1.00  0.00    -0.271 OA
HETATM   17  C31 UNL     1       2.762  17.701  65.151  1.00  0.00     0.180 C 
HETATM   18  N4  UNL     1       3.228  18.802  65.923  1.00  0.00    -0.346 N 
ATOM     19  H4  UNL     1       2.563  19.574  65.921  1.00  0.00     0.163 HD
HETATM   20  C35 UNL     1       4.344  19.090  66.669  1.00  0.00     0.241 C 
HETATM   21  O6  UNL     1       4.908  20.214  66.357  1.00  0.00    -0.271 OA
ENDROOT
BRANCH   8  22
HETATM   22  C12 UNL     1       8.805  19.005  64.050  1.00  0.00     0.106 C 
BRANCH  22  23
HETATM   23  N2  UNL     1      10.068  19.549  63.725  1.00  0.00    -0.323 N 
HETATM   24  C13 UNL     1      10.349  20.884  64.281  1.00  0.00     0.224 C 
HETATM   25  O2  UNL     1       9.442  21.380  64.974  1.00  0.00    -0.273 OA
BRANCH  24  26
HETATM   26  C14 UNL     1      11.594  21.600  64.049  1.00  0.00     0.103 C 
BRANCH  26  27
HETATM   27  C15 UNL     1      12.388  21.979  65.258  1.00  0.00     0.009 C 
BRANCH  27  28
HETATM   28  C16 UNL     1      13.810  22.326  65.099  1.00  0.00     0.004 C 
BRANCH  28  29
HETATM   29  C17 UNL     1      14.093  23.736  65.622  1.00  0.00     0.038 C 
BRANCH  29  30
HETATM   30  C18 UNL     1      15.359  23.608  66.428  1.00  0.00     0.058 C 
HETATM   31  C19 UNL     1      16.102  24.947  66.395  1.00  0.00     0.038 C 
HETATM   32  C20 UNL     1      17.013  24.717  67.620  1.00  0.00     0.003 C 
HETATM   33  C21 UNL     1      16.040  24.219  68.661  1.00  0.00     0.003 C 
HETATM   34  C22 UNL     1      15.050  23.381  67.866  1.00  0.00     0.038 C 
BRANCH  30  35
HETATM   35  O3  UNL     1      16.141  22.593  65.865  1.00  0.00    -0.390 OA
ATOM     36  H3  UNL     1      16.496  22.910  65.043  1.00  0.00     0.210 HD
ENDBRANCH  30  35
ENDBRANCH  29  30
ENDBRANCH  28  29
ENDBRANCH  27  28
ENDBRANCH  26  27
ENDBRANCH  24  26
BRANCH  23  37
HETATM   37  C23 UNL     1      11.132  18.945  63.039  1.00  0.00     0.088 C 
HETATM   38  C24 UNL     1      10.967  18.430  61.658  1.00  0.00     0.033 C 
BRANCH  37  39
HETATM   39  C25 UNL     1      11.878  17.838  63.801  1.00  0.00     0.021 C 
HETATM   40  C26 UNL     1      12.889  18.264  64.769  1.00  0.00     0.007 C 
ENDBRANCH  37  39
ENDBRANCH  23  37
ENDBRANCH  22  23
ENDBRANCH   8  22
BRANCH   1  41
HETATM   41  C6  UNL     1       3.960  17.687  68.672  1.00  0.00     0.035 C 
BRANCH  41  42
HETATM   42  C5  UNL     1       3.138  18.680  69.411  1.00  0.00     0.002 C 
BRANCH  42  43
HETATM   43  C4  UNL     1       1.680  18.385  69.233  1.00  0.00     0.000 C 
BRANCH  43  44
HETATM   44  C3  UNL     1       0.945  19.545  68.643  1.00  0.00    -0.000 C 
BRANCH  44  45
HETATM   45  C2  UNL     1       0.064  19.025  67.516  1.00  0.00    -0.005 C 
HETATM   46  C1  UNL     1      -0.047  17.531  67.631  1.00  0.00     0.005 C 
ENDBRANCH  44  45
ENDBRANCH  43  44
ENDBRANCH  42  43
ENDBRANCH  41  42
ENDBRANCH   1  41
BRANCH  17  47
HETATM   47  C32 UNL     1       2.124  18.163  63.827  1.00  0.00     0.009 C 
HETATM   48  C33 UNL     1       1.359  19.447  63.977  1.00  0.00     0.012 C 
HETATM   49  C34 UNL     1       1.206  17.114  63.276  1.00  0.00     0.012 C 
ENDBRANCH  17  47
TORSDOF 16
ENDMDL
MODEL 4
REMARK VINA RESULT: -7.879139454      3.959      7.064
REMARK  16 active torsions:
REMARK  status: ('A' for Active; 'I' for Inactive)
REMARK    1  A    between atoms: C2_2  and  C3_3 
REMARK    2  A    between atoms: C3_3  and  C4_4 
REMARK    3  A    between atoms: C4_4  and  C5_5 
REMARK    4  A    between atoms: C5_5  and  C6_6 
REMARK    5  A    between atoms: C6_6  and  C7_7 
REMARK    6  A    between atoms: C11_14  and  C12_15 
REMARK    7  A    between atoms: C12_15  and  N2_16 
REMARK       I    between atoms: N2_16  and  C13_17 
REMARK    8  A    between atoms: N2_16  and  C23_30 
REMARK    9  A    between atoms: C13_17  and  C14_19 
REMARK   10  A    between atoms: C14_19  and  C15_20 
REMARK   11  A    between atoms: C15_20  and  C16_21 
REMARK   12  A    between atoms: C16_21  and  C17_22 
REMARK   13  A    between atoms: C17_22  and  C18_23 
REMARK   14  A    between atoms: C18_23  and  O3_24 
REMARK   15  A    between atoms: C23_30  and  C25_32 
REMARK   16  A    between atoms: C31_42  and  C32_43 
ROOT
HETATM    1  C7  UNL     1      10.941  21.291  65.681  1.00  0.00     0.176 C 
HETATM    2  N1  UNL     1      12.277  20.781  65.735  1.00  0.00    -0.347 N 
ATOM      3  H1  UNL     1      12.330  19.777  65.909  1.00  0.00     0.163 HD
HETATM    4  C8  UNL     1      13.519  21.398  65.593  1.00  0.00     0.226 C 
HETATM    5  O1  UNL     1      14.403  21.278  66.527  1.00  0.00    -0.273 OA
HETATM    6  C9  UNL     1      14.060  22.234  64.481  1.00  0.00     0.112 C 
HETATM    7  C10 UNL     1      14.968  23.321  65.118  1.00  0.00     0.025 C 
HETATM    8  C11 UNL     1      14.810  21.561  63.448  1.00  0.00     0.016 C 
HETATM    9  C27 UNL     1      14.682  20.057  63.468  1.00  0.00     0.159 C 
HETATM   10  O4  UNL     1      15.051  19.498  64.473  1.00  0.00    -0.293 OA
HETATM   11  C28 UNL     1      14.150  19.315  62.353  1.00  0.00     0.103 C 
HETATM   12  C29 UNL     1      12.649  19.282  62.184  1.00  0.00     0.130 C 
HETATM   13  N3  UNL     1      12.033  18.188  62.877  1.00  0.00    -0.359 N 
ATOM     14  H3  UNL     1      12.488  17.283  62.761  1.00  0.00     0.162 HD
HETATM   15  C30 UNL     1      10.885  18.190  63.693  1.00  0.00     0.240 C 
HETATM   16  O5  UNL     1      11.017  17.471  64.762  1.00  0.00    -0.271 OA
HETATM   17  C31 UNL     1       9.613  18.849  63.531  1.00  0.00     0.180 C 
HETATM   18  N4  UNL     1       9.477  20.240  63.800  1.00  0.00    -0.346 N 
ATOM     19  H4  UNL     1       8.579  20.601  63.479  1.00  0.00     0.163 HD
HETATM   20  C35 UNL     1      10.245  21.220  64.380  1.00  0.00     0.241 C 
HETATM   21  O6  UNL     1      10.383  22.280  63.647  1.00  0.00    -0.271 OA
ENDROOT
BRANCH   8  22
HETATM   22  C12 UNL     1      14.791  22.087  62.067  1.00  0.00     0.106 C 
BRANCH  22  23
HETATM   23  N2  UNL     1      15.964  22.472  61.379  1.00  0.00    -0.323 N 
HETATM   24  C13 UNL     1      15.761  23.354  60.217  1.00  0.00     0.224 C 
HETATM   25  O2  UNL     1      14.578  23.661  59.974  1.00  0.00    -0.273 OA
BRANCH  24  26
HETATM   26  C14 UNL     1      16.849  23.849  59.388  1.00  0.00     0.103 C 
BRANCH  26  27
HETATM   27  C15 UNL     1      17.283  25.261  59.618  1.00  0.00     0.009 C 
BRANCH  27  28
HETATM   28  C16 UNL     1      18.048  25.585  60.833  1.00  0.00     0.004 C 
BRANCH  28  29
HETATM   29  C17 UNL     1      18.453  27.060  60.850  1.00  0.00     0.038 C 
BRANCH  29  30
HETATM   30  C18 UNL     1      19.259  27.231  62.112  1.00  0.00     0.058 C 
HETATM   31  C19 UNL     1      18.962  28.613  62.702  1.00  0.00     0.038 C 
HETATM   32  C20 UNL     1      19.467  28.346  64.136  1.00  0.00     0.003 C 
HETATM   33  C21 UNL     1      18.810  27.030  64.473  1.00  0.00     0.003 C 
HETATM   34  C22 UNL     1      18.815  26.269  63.156  1.00  0.00     0.038 C 
BRANCH  30  35
HETATM   35  O3  UNL     1      20.615  27.111  61.789  1.00  0.00    -0.390 OA
ATOM     36  H3  UNL     1      20.959  26.340  62.225  1.00  0.00     0.210 HD
ENDBRANCH  30  35
ENDBRANCH  29  30
ENDBRANCH  28  29
ENDBRANCH  27  28
ENDBRANCH  26  27
ENDBRANCH  24  26
BRANCH  23  37
HETATM   37  C23 UNL     1      17.302  22.219  61.718  1.00  0.00     0.088 C 
HETATM   38  C24 UNL     1      17.897  20.871  61.554  1.00  0.00     0.033 C 
BRANCH  37  39
HETATM   39  C25 UNL     1      17.740  22.693  63.113  1.00  0.00     0.021 C 
HETATM   40  C26 UNL     1      19.174  22.674  63.400  1.00  0.00     0.007 C 
ENDBRANCH  37  39
ENDBRANCH  23  37
ENDBRANCH  22  23
ENDBRANCH   8  22
BRANCH   1  41
HETATM   41  C6  UNL     1      10.074  20.613  66.773  1.00  0.00     0.035 C 
BRANCH  41  42
HETATM   42  C5  UNL     1       8.875  21.417  67.123  1.00  0.00     0.002 C 
BRANCH  42  43
HETATM   43  C4  UNL     1       7.652  20.553  67.133  1.00  0.00     0.000 C 
BRANCH  43  44
HETATM   44  C3  UNL     1       7.988  19.110  66.937  1.00  0.00    -0.000 C 
BRANCH  44  45
HETATM   45  C2  UNL     1       6.932  18.275  67.648  1.00  0.00    -0.005 C 
HETATM   46  C1  UNL     1       7.616  17.217  68.467  1.00  0.00     0.005 C 
ENDBRANCH  44  45
ENDBRANCH  43  44
ENDBRANCH  42  43
ENDBRANCH  41  42
ENDBRANCH   1  41
BRANCH  17  47
HETATM   47  C32 UNL     1       9.095  18.487  62.125  1.00  0.00     0.009 C 
HETATM   48  C33 UNL     1       7.650  18.849  61.937  1.00  0.00     0.012 C 
HETATM   49  C34 UNL     1       9.269  17.025  61.847  1.00  0.00     0.012 C 
ENDBRANCH  17  47
TORSDOF 16
ENDMDL
MODEL 5
REMARK VINA RESULT: -7.783135942      4.439      7.334
REMARK  16 active torsions:
REMARK  status: ('A' for Active; 'I' for Inactive)
REMARK    1  A    between atoms: C2_2  and  C3_3 
REMARK    2  A    between atoms: C3_3  and  C4_4 
REMARK    3  A    between atoms: C4_4  and  C5_5 
REMARK    4  A    between atoms: C5_5  and  C6_6 
REMARK    5  A    between atoms: C6_6  and  C7_7 
REMARK    6  A    between atoms: C11_14  and  C12_15 
REMARK    7  A    between atoms: C12_15  and  N2_16 
REMARK       I    between atoms: N2_16  and  C13_17 
REMARK    8  A    between atoms: N2_16  and  C23_30 
REMARK    9  A    between atoms: C13_17  and  C14_19 
REMARK   10  A    between atoms: C14_19  and  C15_20 
REMARK   11  A    between atoms: C15_20  and  C16_21 
REMARK   12  A    between atoms: C16_21  and  C17_22 
REMARK   13  A    between atoms: C17_22  and  C18_23 
REMARK   14  A    between atoms: C18_23  and  O3_24 
REMARK   15  A    between atoms: C23_30  and  C25_32 
REMARK   16  A    between atoms: C31_42  and  C32_43 
ROOT
HETATM    1  C7  UNL     1      10.826  21.310  65.821  1.00  0.00     0.176 C 
HETATM    2  N1  UNL     1      12.154  20.789  65.933  1.00  0.00    -0.347 N 
ATOM      3  H1  UNL     1      12.191  19.787  66.119  1.00  0.00     0.163 HD
HETATM    4  C8  UNL     1      13.406  21.395  65.836  1.00  0.00     0.226 C 
HETATM    5  O1  UNL     1      14.250  21.276  66.807  1.00  0.00    -0.273 OA
HETATM    6  C9  UNL     1      13.999  22.215  64.739  1.00  0.00     0.112 C 
HETATM    7  C10 UNL     1      14.890  23.300  65.403  1.00  0.00     0.025 C 
HETATM    8  C11 UNL     1      14.785  21.526  63.744  1.00  0.00     0.016 C 
HETATM    9  C27 UNL     1      14.643  20.024  63.773  1.00  0.00     0.159 C 
HETATM   10  O4  UNL     1      14.966  19.471  64.797  1.00  0.00    -0.293 OA
HETATM   11  C28 UNL     1      14.150  19.275  62.645  1.00  0.00     0.103 C 
HETATM   12  C29 UNL     1      12.657  19.253  62.415  1.00  0.00     0.130 C 
HETATM   13  N3  UNL     1      12.003  18.170  63.092  1.00  0.00    -0.359 N 
ATOM     14  H3  UNL     1      12.455  17.260  63.004  1.00  0.00     0.162 HD
HETATM   15  C30 UNL     1      10.823  18.191  63.861  1.00  0.00     0.240 C 
HETATM   16  O5  UNL     1      10.905  17.480  64.941  1.00  0.00    -0.271 OA
HETATM   17  C31 UNL     1       9.565  18.859  63.641  1.00  0.00     0.180 C 
HETATM   18  N4  UNL     1       9.430  20.253  63.891  1.00  0.00    -0.346 N 
ATOM     19  H4  UNL     1       8.549  20.619  63.531  1.00  0.00     0.163 HD
HETATM   20  C35 UNL     1      10.182  21.232  64.492  1.00  0.00     0.241 C 
HETATM   21  O6  UNL     1      10.360  22.284  63.756  1.00  0.00    -0.271 OA
ENDROOT
BRANCH   8  22
HETATM   22  C12 UNL     1      14.827  22.038  62.359  1.00  0.00     0.106 C 
BRANCH  22  23
HETATM   23  N2  UNL     1      16.029  22.410  61.717  1.00  0.00    -0.323 N 
HETATM   24  C13 UNL     1      15.877  23.062  60.405  1.00  0.00     0.224 C 
HETATM   25  O2  UNL     1      14.705  23.212  60.012  1.00  0.00    -0.273 OA
BRANCH  24  26
HETATM   26  C14 UNL     1      17.002  23.509  59.599  1.00  0.00     0.103 C 
BRANCH  26  27
HETATM   27  C15 UNL     1      16.908  24.882  59.013  1.00  0.00     0.009 C 
BRANCH  27  28
HETATM   28  C16 UNL     1      17.351  26.033  59.817  1.00  0.00     0.004 C 
BRANCH  28  29
HETATM   29  C17 UNL     1      18.464  26.804  59.103  1.00  0.00     0.038 C 
BRANCH  29  30
HETATM   30  C18 UNL     1      19.439  27.180  60.188  1.00  0.00     0.058 C 
HETATM   31  C19 UNL     1      19.793  28.663  60.041  1.00  0.00     0.038 C 
HETATM   32  C20 UNL     1      20.347  28.893  61.463  1.00  0.00     0.003 C 
HETATM   33  C21 UNL     1      19.280  28.274  62.333  1.00  0.00     0.003 C 
HETATM   34  C22 UNL     1      18.803  27.073  61.530  1.00  0.00     0.038 C 
BRANCH  30  35
HETATM   35  O3  UNL     1      20.580  26.382  60.053  1.00  0.00    -0.390 OA
ATOM     36  H3  UNL     1      21.191  26.614  60.741  1.00  0.00     0.210 HD
ENDBRANCH  30  35
ENDBRANCH  29  30
ENDBRANCH  28  29
ENDBRANCH  27  28
ENDBRANCH  26  27
ENDBRANCH  24  26
BRANCH  23  37
HETATM   37  C23 UNL     1      17.342  22.343  62.209  1.00  0.00     0.088 C 
HETATM   38  C24 UNL     1      18.060  23.559  62.659  1.00  0.00     0.033 C 
BRANCH  37  39
HETATM   39  C25 UNL     1      18.345  21.576  61.333  1.00  0.00     0.021 C 
HETATM   40  C26 UNL     1      19.622  21.213  61.948  1.00  0.00     0.007 C 
ENDBRANCH  37  39
ENDBRANCH  23  37
ENDBRANCH  22  23
ENDBRANCH   8  22
BRANCH   1  41
HETATM   41  C6  UNL     1       9.909  20.650  66.882  1.00  0.00     0.035 C 
BRANCH  41  42
HETATM   42  C5  UNL     1       8.677  21.440  67.135  1.00  0.00     0.002 C 
BRANCH  42  43
HETATM   43  C4  UNL     1       7.478  20.543  67.165  1.00  0.00     0.000 C 
BRANCH  43  44
HETATM   44  C3  UNL     1       7.852  19.109  66.976  1.00  0.00    -0.000 C 
BRANCH  44  45
HETATM   45  C2  UNL     1       6.863  18.252  67.755  1.00  0.00    -0.005 C 
HETATM   46  C1  UNL     1       7.614  17.162  68.465  1.00  0.00     0.005 C 
ENDBRANCH  44  45
ENDBRANCH  43  44
ENDBRANCH  42  43
ENDBRANCH  41  42
ENDBRANCH   1  41
BRANCH  17  47
HETATM   47  C32 UNL     1       9.102  18.487  62.219  1.00  0.00     0.009 C 
HETATM   48  C33 UNL     1       7.664  18.844  61.974  1.00  0.00     0.012 C 
HETATM   49  C34 UNL     1       9.290  17.024  61.956  1.00  0.00     0.012 C 
ENDBRANCH  17  47
TORSDOF 16
ENDMDL
