MODEL 1
REMARK VINA RESULT: -7.725281402      0.000      0.000
REMARK  16 active torsions:
REMARK  status: ('A' for Active; 'I' for Inactive)
REMARK    1  A    between atoms: C2_2  and  C3_3 
REMARK    2  A    between atoms: C3_3  and  C5_5 
REMARK    3  A    between atoms: C5_5  and  N1_6 
REMARK    4  A    between atoms: C5_5  and  C31_44 
REMARK       I    between atoms: N1_6  and  C6_8 
REMARK       I    between atoms: C6_8  and  N2_10 
REMARK    5  A    between atoms: N2_10  and  C7_12 
REMARK    6  A    between atoms: C7_12  and  C8_13 
REMARK    7  A    between atoms: C7_12  and  C18_26 
REMARK       I    between atoms: C8_13  and  N3_15 
REMARK    8  A    between atoms: N3_15  and  C9_17 
REMARK    9  A    between atoms: C9_17  and  C10_18 
REMARK   10  A    between atoms: C9_17  and  C14_22 
REMARK   11  A    between atoms: C10_18  and  C11_19 
REMARK   12  A    between atoms: C14_22  and  C15_23 
REMARK       I    between atoms: C18_26  and  N4_28 
REMARK   13  A    between atoms: C19_29  and  C20_30 
REMARK       I    between atoms: C20_30  and  N5_32 
REMARK   14  A    between atoms: N5_32  and  C21_34 
REMARK   15  A    between atoms: C31_44  and  C32_46 
REMARK   16  A    between atoms: C32_46  and  C33_47 
ROOT
HETATM    1  C7  UNL     1       8.216  18.017  66.670  1.00  0.00     0.271 C 
ENDROOT
BRANCH   1   2
HETATM    2  N2  UNL     1       9.230  18.661  65.827  1.00  0.00    -0.322 N 
HETATM    3  C6  UNL     1      10.531  18.971  66.234  1.00  0.00     0.317 C 
HETATM    4  N1  UNL     1      11.422  19.601  65.331  1.00  0.00    -0.331 N 
HETATM    5  O1  UNL     1      10.987  18.720  67.388  1.00  0.00    -0.247 OA
ATOM      6  H1  UNL     1      11.085  19.839  64.398  1.00  0.00     0.165 HD
ATOM      7  H2  UNL     1       8.965  18.901  64.872  1.00  0.00     0.165 HD
BRANCH   4   8
HETATM    8  C5  UNL     1      12.815  19.927  65.680  1.00  0.00     0.159 C 
BRANCH   8   9
HETATM    9  C3  UNL     1      12.920  21.397  65.975  1.00  0.00     0.011 C 
HETATM   10  C4  UNL     1      12.315  22.289  64.938  1.00  0.00     0.012 C 
BRANCH   9  11
HETATM   11  C2  UNL     1      14.428  21.729  65.979  1.00  0.00     0.002 C 
HETATM   12  C1  UNL     1      14.692  22.750  67.072  1.00  0.00     0.005 C 
ENDBRANCH   9  11
ENDBRANCH   8   9
BRANCH   8  13
HETATM   13  C31 UNL     1      13.716  19.411  64.638  1.00  0.00     0.150 C 
HETATM   14  O5  UNL     1      14.796  18.887  64.969  1.00  0.00    -0.296 OA
BRANCH  13  15
HETATM   15  C32 UNL     1      13.454  19.462  63.191  1.00  0.00     0.084 C 
BRANCH  15  16
HETATM   16  C33 UNL     1      14.413  20.430  62.498  1.00  0.00    -0.016 C 
HETATM   17  C34 UNL     1      13.757  21.199  61.385  1.00  0.00     0.010 C 
HETATM   18  C35 UNL     1      15.563  19.647  61.919  1.00  0.00     0.010 C 
ENDBRANCH  15  16
ENDBRANCH  13  15
ENDBRANCH   8  13
ENDBRANCH   4   8
ENDBRANCH   1   2
BRANCH   1  19
HETATM   19  C8  UNL     1       7.224  19.002  67.110  1.00  0.00     0.250 C 
HETATM   20  O2  UNL     1       7.654  20.130  67.535  1.00  0.00    -0.271 OA
HETATM   21  N3  UNL     1       5.835  18.827  67.108  1.00  0.00    -0.354 N 
ATOM     22  H3  UNL     1       5.442  17.946  66.779  1.00  0.00     0.162 HD
BRANCH  21  23
HETATM   23  C9  UNL     1       4.926  19.898  67.575  1.00  0.00     0.085 C 
BRANCH  23  24
HETATM   24  C10 UNL     1       3.923  19.384  68.513  1.00  0.00     0.029 C 
BRANCH  24  25
HETATM   25  C11 UNL     1       3.416  17.992  68.360  1.00  0.00    -0.021 C 
HETATM   26  C12 UNL     1       2.189  18.009  67.401  1.00  0.00     0.009 C 
HETATM   27  C13 UNL     1       2.861  17.357  69.613  1.00  0.00     0.009 C 
ENDBRANCH  24  25
ENDBRANCH  23  24
BRANCH  23  28
HETATM   28  C14 UNL     1       4.474  20.713  66.435  1.00  0.00     0.029 C 
BRANCH  28  29
HETATM   29  C15 UNL     1       3.206  21.444  66.556  1.00  0.00    -0.013 A 
HETATM   30  C16 UNL     1       2.081  21.406  65.625  1.00  0.00     0.005 A 
HETATM   31  C17 UNL     1       2.978  22.635  65.682  1.00  0.00     0.005 A 
ENDBRANCH  28  29
ENDBRANCH  23  28
ENDBRANCH  21  23
ENDBRANCH   1  19
BRANCH   1  32
HETATM   32  C18 UNL     1       7.601  16.880  65.874  1.00  0.00     0.253 C 
HETATM   33  O3  UNL     1       6.714  16.272  66.523  1.00  0.00    -0.270 OA
HETATM   34  N4  UNL     1       8.010  16.581  64.551  1.00  0.00    -0.331 N 
HETATM   35  C19 UNL     1       7.492  15.545  63.735  1.00  0.00     0.180 C 
HETATM   36  C27 UNL     1       9.043  17.318  63.861  1.00  0.00     0.101 A 
HETATM   37  C25 UNL     1       8.409  15.432  62.527  1.00  0.00     0.042 C 
HETATM   38  C26 UNL     1       9.375  16.576  62.621  1.00  0.00     0.021 A 
HETATM   39  C28 UNL     1       8.923  17.973  62.568  1.00  0.00    -0.021 A 
HETATM   40  C29 UNL     1       7.629  18.407  61.968  1.00  0.00     0.017 C 
HETATM   41  C30 UNL     1      10.043  18.982  62.231  1.00  0.00     0.017 C 
BRANCH  35  42
HETATM   42  C20 UNL     1       6.093  15.523  63.383  1.00  0.00     0.241 C 
HETATM   43  O4  UNL     1       5.847  15.530  62.114  1.00  0.00    -0.271 OA
HETATM   44  N5  UNL     1       4.933  15.494  64.171  1.00  0.00    -0.351 N 
ATOM     45  H5  UNL     1       5.061  15.485  65.182  1.00  0.00     0.163 HD
BRANCH  44  46
HETATM   46  C21 UNL     1       3.591  15.476  63.690  1.00  0.00     0.022 C 
HETATM   47  C22 UNL     1       3.249  14.302  62.804  1.00  0.00     0.037 C 
HETATM   48  C23 UNL     1       2.657  15.340  64.905  1.00  0.00     0.037 C 
HETATM   49  C24 UNL     1       3.164  16.736  62.995  1.00  0.00     0.037 C 
ENDBRANCH  44  46
ENDBRANCH  35  42
ENDBRANCH   1  32
TORSDOF 16
ENDMDL
MODEL 2
REMARK VINA RESULT: -7.688411683      2.826      9.569
REMARK  16 active torsions:
REMARK  status: ('A' for Active; 'I' for Inactive)
REMARK    1  A    between atoms: C2_2  and  C3_3 
REMARK    2  A    between atoms: C3_3  and  C5_5 
REMARK    3  A    between atoms: C5_5  and  N1_6 
REMARK    4  A    between atoms: C5_5  and  C31_44 
REMARK       I    between atoms: N1_6  and  C6_8 
REMARK       I    between atoms: C6_8  and  N2_10 
REMARK    5  A    between atoms: N2_10  and  C7_12 
REMARK    6  A    between atoms: C7_12  and  C8_13 
REMARK    7  A    between atoms: C7_12  and  C18_26 
REMARK       I    between atoms: C8_13  and  N3_15 
REMARK    8  A    between atoms: N3_15  and  C9_17 
REMARK    9  A    between atoms: C9_17  and  C10_18 
REMARK   10  A    between atoms: C9_17  and  C14_22 
REMARK   11  A    between atoms: C10_18  and  C11_19 
REMARK   12  A    between atoms: C14_22  and  C15_23 
REMARK       I    between atoms: C18_26  and  N4_28 
REMARK   13  A    between atoms: C19_29  and  C20_30 
REMARK       I    between atoms: C20_30  and  N5_32 
REMARK   14  A    between atoms: N5_32  and  C21_34 
REMARK   15  A    between atoms: C31_44  and  C32_46 
REMARK   16  A    between atoms: C32_46  and  C33_47 
ROOT
HETATM    1  C7  UNL     1       5.408  17.910  66.360  1.00  0.00     0.271 C 
ENDROOT
BRANCH   1   2
HETATM    2  N2  UNL     1       4.693  17.858  65.081  1.00  0.00    -0.322 N 
HETATM    3  C6  UNL     1       3.792  16.856  64.707  1.00  0.00     0.317 C 
HETATM    4  N1  UNL     1       3.164  16.909  63.438  1.00  0.00    -0.331 N 
HETATM    5  O1  UNL     1       3.484  15.875  65.444  1.00  0.00    -0.247 OA
ATOM      6  H1  UNL     1       3.403  17.673  62.806  1.00  0.00     0.165 HD
ATOM      7  H2  UNL     1       4.867  18.609  64.413  1.00  0.00     0.165 HD
BRANCH   4   8
HETATM    8  C5  UNL     1       2.182  15.908  62.991  1.00  0.00     0.159 C 
BRANCH   8   9
HETATM    9  C3  UNL     1       2.585  15.388  61.639  1.00  0.00     0.011 C 
HETATM   10  C4  UNL     1       1.458  14.856  60.812  1.00  0.00     0.012 C 
BRANCH   9  11
HETATM   11  C2  UNL     1       3.513  14.182  61.900  1.00  0.00     0.002 C 
HETATM   12  C1  UNL     1       2.866  13.297  62.951  1.00  0.00     0.005 C 
ENDBRANCH   9  11
ENDBRANCH   8   9
BRANCH   8  13
HETATM   13  C31 UNL     1       0.827  16.473  63.087  1.00  0.00     0.150 C 
HETATM   14  O5  UNL     1      -0.105  15.757  63.499  1.00  0.00    -0.296 OA
BRANCH  13  15
HETATM   15  C32 UNL     1       0.456  17.850  62.726  1.00  0.00     0.084 C 
BRANCH  15  16
HETATM   16  C33 UNL     1       0.156  18.677  63.977  1.00  0.00    -0.016 C 
HETATM   17  C34 UNL     1      -1.102  19.492  63.845  1.00  0.00     0.010 C 
HETATM   18  C35 UNL     1       1.305  19.619  64.227  1.00  0.00     0.010 C 
ENDBRANCH  15  16
ENDBRANCH  13  15
ENDBRANCH   8  13
ENDBRANCH   4   8
ENDBRANCH   1   2
BRANCH   1  19
HETATM   19  C8  UNL     1       6.846  18.076  66.130  1.00  0.00     0.250 C 
HETATM   20  O2  UNL     1       7.649  17.548  66.975  1.00  0.00    -0.271 OA
HETATM   21  N3  UNL     1       7.433  18.765  65.062  1.00  0.00    -0.354 N 
ATOM     22  H3  UNL     1       6.837  19.204  64.361  1.00  0.00     0.162 HD
BRANCH  21  23
HETATM   23  C9  UNL     1       8.904  18.866  64.929  1.00  0.00     0.085 C 
BRANCH  23  24
HETATM   24  C10 UNL     1       9.355  20.261  64.970  1.00  0.00     0.029 C 
BRANCH  24  25
HETATM   25  C11 UNL     1       9.825  20.845  66.257  1.00  0.00    -0.021 C 
HETATM   26  C12 UNL     1      10.416  19.705  67.139  1.00  0.00     0.009 C 
HETATM   27  C13 UNL     1       8.749  21.434  67.139  1.00  0.00     0.009 C 
ENDBRANCH  24  25
ENDBRANCH  23  24
BRANCH  23  28
HETATM   28  C14 UNL     1       9.376  18.004  63.833  1.00  0.00     0.029 C 
BRANCH  28  29
HETATM   29  C15 UNL     1       9.482  18.579  62.486  1.00  0.00    -0.013 A 
HETATM   30  C16 UNL     1       9.601  17.847  61.227  1.00  0.00     0.005 A 
HETATM   31  C17 UNL     1      10.812  18.567  61.803  1.00  0.00     0.005 A 
ENDBRANCH  28  29
ENDBRANCH  23  28
ENDBRANCH  21  23
ENDBRANCH   1  19
BRANCH   1  32
HETATM   32  C18 UNL     1       4.812  19.037  67.184  1.00  0.00     0.253 C 
HETATM   33  O3  UNL     1       5.329  20.149  66.912  1.00  0.00    -0.270 OA
HETATM   34  N4  UNL     1       3.787  18.812  68.135  1.00  0.00    -0.331 N 
HETATM   35  C19 UNL     1       3.172  19.800  68.944  1.00  0.00     0.180 C 
HETATM   36  C27 UNL     1       3.239  17.504  68.407  1.00  0.00     0.101 A 
HETATM   37  C25 UNL     1       2.344  19.065  69.987  1.00  0.00     0.042 C 
HETATM   38  C26 UNL     1       2.388  17.613  69.616  1.00  0.00     0.021 A 
HETATM   39  C28 UNL     1       1.836  17.123  68.346  1.00  0.00    -0.021 A 
HETATM   40  C29 UNL     1       0.806  17.852  67.551  1.00  0.00     0.017 C 
HETATM   41  C30 UNL     1       1.563  15.604  68.325  1.00  0.00     0.017 C 
BRANCH  35  42
HETATM   42  C20 UNL     1       2.466  20.903  68.339  1.00  0.00     0.241 C 
HETATM   43  O4  UNL     1       1.370  21.244  68.933  1.00  0.00    -0.271 OA
HETATM   44  N5  UNL     1       2.749  21.686  67.210  1.00  0.00    -0.351 N 
ATOM     45  H5  UNL     1       3.604  21.467  66.698  1.00  0.00     0.163 HD
BRANCH  44  46
HETATM   46  C21 UNL     1       1.956  22.760  66.712  1.00  0.00     0.022 C 
HETATM   47  C22 UNL     1       1.833  23.944  67.641  1.00  0.00     0.037 C 
HETATM   48  C23 UNL     1       2.649  23.314  65.455  1.00  0.00     0.037 C 
HETATM   49  C24 UNL     1       0.579  22.359  66.267  1.00  0.00     0.037 C 
ENDBRANCH  44  46
ENDBRANCH  35  42
ENDBRANCH   1  32
TORSDOF 16
ENDMDL
MODEL 3
REMARK VINA RESULT: -7.599763586      2.338      6.070
REMARK  16 active torsions:
REMARK  status: ('A' for Active; 'I' for Inactive)
REMARK    1  A    between atoms: C2_2  and  C3_3 
REMARK    2  A    between atoms: C3_3  and  C5_5 
REMARK    3  A    between atoms: C5_5  and  N1_6 
REMARK    4  A    between atoms: C5_5  and  C31_44 
REMARK       I    between atoms: N1_6  and  C6_8 
REMARK       I    between atoms: C6_8  and  N2_10 
REMARK    5  A    between atoms: N2_10  and  C7_12 
REMARK    6  A    between atoms: C7_12  and  C8_13 
REMARK    7  A    between atoms: C7_12  and  C18_26 
REMARK       I    between atoms: C8_13  and  N3_15 
REMARK    8  A    between atoms: N3_15  and  C9_17 
REMARK    9  A    between atoms: C9_17  and  C10_18 
REMARK   10  A    between atoms: C9_17  and  C14_22 
REMARK   11  A    between atoms: C10_18  and  C11_19 
REMARK   12  A    between atoms: C14_22  and  C15_23 
REMARK       I    between atoms: C18_26  and  N4_28 
REMARK   13  A    between atoms: C19_29  and  C20_30 
REMARK       I    between atoms: C20_30  and  N5_32 
REMARK   14  A    between atoms: N5_32  and  C21_34 
REMARK   15  A    between atoms: C31_44  and  C32_46 
REMARK   16  A    between atoms: C32_46  and  C33_47 
ROOT
HETATM    1  C7  UNL     1       9.133  20.474  65.304  1.00  0.00     0.271 C 
ENDROOT
BRANCH   1   2
HETATM    2  N2  UNL     1      10.440  20.621  65.954  1.00  0.00    -0.322 N 
HETATM    3  C6  UNL     1      11.488  21.413  65.475  1.00  0.00     0.317 C 
HETATM    4  N1  UNL     1      12.712  21.472  66.187  1.00  0.00    -0.331 N 
HETATM    5  O1  UNL     1      11.422  22.106  64.418  1.00  0.00    -0.247 OA
ATOM      6  H1  UNL     1      12.812  20.910  67.032  1.00  0.00     0.165 HD
ATOM      7  H2  UNL     1      10.596  20.106  66.820  1.00  0.00     0.165 HD
BRANCH   4   8
HETATM    8  C5  UNL     1      13.845  22.308  65.759  1.00  0.00     0.159 C 
BRANCH   8   9
HETATM    9  C3  UNL     1      14.773  21.488  64.908  1.00  0.00     0.011 C 
HETATM   10  C4  UNL     1      14.738  21.814  63.449  1.00  0.00     0.012 C 
BRANCH   9  11
HETATM   11  C2  UNL     1      14.283  20.028  65.019  1.00  0.00     0.002 C 
HETATM   12  C1  UNL     1      14.347  19.395  63.641  1.00  0.00     0.005 C 
ENDBRANCH   9  11
ENDBRANCH   8   9
BRANCH   8  13
HETATM   13  C31 UNL     1      14.450  22.954  66.935  1.00  0.00     0.150 C 
HETATM   14  O5  UNL     1      14.522  22.325  68.007  1.00  0.00    -0.296 OA
BRANCH  13  15
HETATM   15  C32 UNL     1      14.992  24.321  66.965  1.00  0.00     0.084 C 
BRANCH  15  16
HETATM   16  C33 UNL     1      16.521  24.299  66.983  1.00  0.00    -0.016 C 
HETATM   17  C34 UNL     1      17.097  24.975  68.197  1.00  0.00     0.010 C 
HETATM   18  C35 UNL     1      17.034  25.010  65.758  1.00  0.00     0.010 C 
ENDBRANCH  15  16
ENDBRANCH  13  15
ENDBRANCH   8  13
ENDBRANCH   4   8
ENDBRANCH   1   2
BRANCH   1  19
HETATM   19  C8  UNL     1       9.136  19.306  64.419  1.00  0.00     0.250 C 
HETATM   20  O2  UNL     1      10.095  18.468  64.544  1.00  0.00    -0.271 OA
HETATM   21  N3  UNL     1       8.181  19.015  63.439  1.00  0.00    -0.354 N 
ATOM     22  H3  UNL     1       7.397  19.652  63.298  1.00  0.00     0.162 HD
BRANCH  21  23
HETATM   23  C9  UNL     1       8.286  17.799  62.601  1.00  0.00     0.085 C 
BRANCH  23  24
HETATM   24  C10 UNL     1       9.148  18.018  61.436  1.00  0.00     0.029 C 
BRANCH  24  25
HETATM   25  C11 UNL     1      10.549  17.514  61.452  1.00  0.00    -0.021 C 
HETATM   26  C12 UNL     1      11.519  18.733  61.429  1.00  0.00     0.009 C 
HETATM   27  C13 UNL     1      10.972  16.720  60.239  1.00  0.00     0.009 C 
ENDBRANCH  24  25
ENDBRANCH  23  24
BRANCH  23  28
HETATM   28  C14 UNL     1       6.952  17.210  62.392  1.00  0.00     0.029 C 
BRANCH  28  29
HETATM   29  C15 UNL     1       6.863  15.874  61.790  1.00  0.00    -0.013 A 
HETATM   30  C16 UNL     1       6.513  14.628  62.468  1.00  0.00     0.005 A 
HETATM   31  C17 UNL     1       7.956  14.890  62.059  1.00  0.00     0.005 A 
ENDBRANCH  28  29
ENDBRANCH  23  28
ENDBRANCH  21  23
ENDBRANCH   1  19
BRANCH   1  32
HETATM   32  C18 UNL     1       8.079  20.382  66.392  1.00  0.00     0.253 C 
HETATM   33  O3  UNL     1       7.597  21.505  66.684  1.00  0.00    -0.270 OA
HETATM   34  N4  UNL     1       7.710  19.147  66.979  1.00  0.00    -0.331 N 
HETATM   35  C19 UNL     1       6.738  18.965  67.995  1.00  0.00     0.180 C 
HETATM   36  C27 UNL     1       8.309  17.887  66.603  1.00  0.00     0.101 A 
HETATM   37  C25 UNL     1       6.881  17.535  68.493  1.00  0.00     0.042 C 
HETATM   38  C26 UNL     1       7.870  16.867  67.585  1.00  0.00     0.021 A 
HETATM   39  C28 UNL     1       7.607  16.695  66.151  1.00  0.00    -0.021 A 
HETATM   40  C29 UNL     1       6.243  16.707  65.548  1.00  0.00     0.017 C 
HETATM   41  C30 UNL     1       8.490  15.624  65.475  1.00  0.00     0.017 C 
BRANCH  35  42
HETATM   42  C20 UNL     1       5.366  19.348  67.769  1.00  0.00     0.241 C 
HETATM   43  O4  UNL     1       4.490  18.651  68.414  1.00  0.00    -0.271 OA
HETATM   44  N5  UNL     1       4.796  20.350  66.970  1.00  0.00    -0.351 N 
ATOM     45  H5  UNL     1       5.438  20.936  66.436  1.00  0.00     0.163 HD
BRANCH  44  46
HETATM   46  C21 UNL     1       3.405  20.626  66.833  1.00  0.00     0.022 C 
HETATM   47  C22 UNL     1       2.663  20.813  68.135  1.00  0.00     0.037 C 
HETATM   48  C23 UNL     1       3.261  21.970  66.099  1.00  0.00     0.037 C 
HETATM   49  C24 UNL     1       2.654  19.630  65.997  1.00  0.00     0.037 C 
ENDBRANCH  44  46
ENDBRANCH  35  42
ENDBRANCH   1  32
TORSDOF 16
ENDMDL
MODEL 4
REMARK VINA RESULT: -7.585788967      4.974     12.883
REMARK  16 active torsions:
REMARK  status: ('A' for Active; 'I' for Inactive)
REMARK    1  A    between atoms: C2_2  and  C3_3 
REMARK    2  A    between atoms: C3_3  and  C5_5 
REMARK    3  A    between atoms: C5_5  and  N1_6 
REMARK    4  A    between atoms: C5_5  and  C31_44 
REMARK       I    between atoms: N1_6  and  C6_8 
REMARK       I    between atoms: C6_8  and  N2_10 
REMARK    5  A    between atoms: N2_10  and  C7_12 
REMARK    6  A    between atoms: C7_12  and  C8_13 
REMARK    7  A    between atoms: C7_12  and  C18_26 
REMARK       I    between atoms: C8_13  and  N3_15 
REMARK    8  A    between atoms: N3_15  and  C9_17 
REMARK    9  A    between atoms: C9_17  and  C10_18 
REMARK   10  A    between atoms: C9_17  and  C14_22 
REMARK   11  A    between atoms: C10_18  and  C11_19 
REMARK   12  A    between atoms: C14_22  and  C15_23 
REMARK       I    between atoms: C18_26  and  N4_28 
REMARK   13  A    between atoms: C19_29  and  C20_30 
REMARK       I    between atoms: C20_30  and  N5_32 
REMARK   14  A    between atoms: N5_32  and  C21_34 
REMARK   15  A    between atoms: C31_44  and  C32_46 
REMARK   16  A    between atoms: C32_46  and  C33_47 
ROOT
HETATM    1  C7  UNL     1      17.301  22.158  63.414  1.00  0.00     0.271 C 
ENDROOT
BRANCH   1   2
HETATM    2  N2  UNL     1      15.937  22.382  63.907  1.00  0.00    -0.322 N 
HETATM    3  C6  UNL     1      14.987  21.379  64.117  1.00  0.00     0.317 C 
HETATM    4  N1  UNL     1      13.695  21.717  64.592  1.00  0.00    -0.331 N 
HETATM    5  O1  UNL     1      15.203  20.148  63.911  1.00  0.00    -0.247 OA
ATOM      6  H1  UNL     1      13.476  22.700  64.749  1.00  0.00     0.165 HD
ATOM      7  H2  UNL     1      15.662  23.343  64.111  1.00  0.00     0.165 HD
BRANCH   4   8
HETATM    8  C5  UNL     1      12.657  20.710  64.866  1.00  0.00     0.159 C 
BRANCH   8   9
HETATM    9  C3  UNL     1      12.563  19.764  63.702  1.00  0.00     0.011 C 
HETATM   10  C4  UNL     1      11.438  20.042  62.758  1.00  0.00     0.012 C 
BRANCH   9  11
HETATM   11  C2  UNL     1      12.269  18.372  64.301  1.00  0.00     0.002 C 
HETATM   12  C1  UNL     1      11.261  17.670  63.408  1.00  0.00     0.005 C 
ENDBRANCH   9  11
ENDBRANCH   8   9
BRANCH   8  13
HETATM   13  C31 UNL     1      11.407  21.387  65.250  1.00  0.00     0.150 C 
HETATM   14  O5  UNL     1      10.967  22.307  64.536  1.00  0.00    -0.296 OA
BRANCH  13  15
HETATM   15  C32 UNL     1      10.603  21.068  66.440  1.00  0.00     0.084 C 
BRANCH  15  16
HETATM   16  C33 UNL     1       9.143  20.821  66.060  1.00  0.00    -0.016 C 
HETATM   17  C34 UNL     1       8.182  21.271  67.125  1.00  0.00     0.010 C 
HETATM   18  C35 UNL     1       8.941  19.345  65.832  1.00  0.00     0.010 C 
ENDBRANCH  15  16
ENDBRANCH  13  15
ENDBRANCH   8  13
ENDBRANCH   4   8
ENDBRANCH   1   2
BRANCH   1  19
HETATM   19  C8  UNL     1      17.324  22.207  61.950  1.00  0.00     0.250 C 
HETATM   20  O2  UNL     1      17.830  21.209  61.329  1.00  0.00    -0.271 OA
HETATM   21  N3  UNL     1      16.839  23.252  61.154  1.00  0.00    -0.354 N 
ATOM     22  H3  UNL     1      16.426  24.071  61.600  1.00  0.00     0.162 HD
BRANCH  21  23
HETATM   23  C9  UNL     1      16.913  23.191  59.677  1.00  0.00     0.085 C 
BRANCH  23  24
HETATM   24  C10 UNL     1      17.511  24.406  59.115  1.00  0.00     0.029 C 
BRANCH  24  25
HETATM   25  C11 UNL     1      17.174  25.732  59.704  1.00  0.00    -0.021 C 
HETATM   26  C12 UNL     1      16.001  26.357  58.892  1.00  0.00     0.009 C 
HETATM   27  C13 UNL     1      18.255  26.783  59.607  1.00  0.00     0.009 C 
ENDBRANCH  24  25
ENDBRANCH  23  24
BRANCH  23  28
HETATM   28  C14 UNL     1      15.635  22.712  59.124  1.00  0.00     0.029 C 
BRANCH  28  29
HETATM   29  C15 UNL     1      14.598  22.251  60.055  1.00  0.00    -0.013 A 
HETATM   30  C16 UNL     1      14.432  20.898  60.582  1.00  0.00     0.005 A 
HETATM   31  C17 UNL     1      13.472  21.423  59.524  1.00  0.00     0.005 A 
ENDBRANCH  28  29
ENDBRANCH  23  28
ENDBRANCH  21  23
ENDBRANCH   1  19
BRANCH   1  32
HETATM   32  C18 UNL     1      18.204  23.200  64.050  1.00  0.00     0.253 C 
HETATM   33  O3  UNL     1      19.207  23.456  63.339  1.00  0.00    -0.270 OA
HETATM   34  N4  UNL     1      17.904  23.790  65.302  1.00  0.00    -0.331 N 
HETATM   35  C19 UNL     1      18.685  24.769  65.968  1.00  0.00     0.180 C 
HETATM   36  C27 UNL     1      16.734  23.446  66.075  1.00  0.00     0.101 A 
HETATM   37  C25 UNL     1      18.127  24.896  67.377  1.00  0.00     0.042 C 
HETATM   38  C26 UNL     1      16.882  24.061  67.416  1.00  0.00     0.021 A 
HETATM   39  C28 UNL     1      15.721  24.367  66.569  1.00  0.00    -0.021 A 
HETATM   40  C29 UNL     1      15.453  25.710  65.979  1.00  0.00     0.017 C 
HETATM   41  C30 UNL     1      14.407  23.711  67.044  1.00  0.00     0.017 C 
BRANCH  35  42
HETATM   42  C20 UNL     1      18.941  26.045  65.347  1.00  0.00     0.241 C 
HETATM   43  O4  UNL     1      18.511  27.071  66.005  1.00  0.00    -0.271 OA
HETATM   44  N5  UNL     1      19.579  26.387  64.145  1.00  0.00    -0.351 N 
ATOM     45  H5  UNL     1      19.943  25.620  63.580  1.00  0.00     0.163 HD
BRANCH  44  46
HETATM   46  C21 UNL     1      19.767  27.706  63.639  1.00  0.00     0.022 C 
HETATM   47  C22 UNL     1      20.243  28.715  64.657  1.00  0.00     0.037 C 
HETATM   48  C23 UNL     1      20.885  27.651  62.584  1.00  0.00     0.037 C 
HETATM   49  C24 UNL     1      18.573  28.274  62.929  1.00  0.00     0.037 C 
ENDBRANCH  44  46
ENDBRANCH  35  42
ENDBRANCH   1  32
TORSDOF 16
ENDMDL
MODEL 5
REMARK VINA RESULT: -7.577332367      2.796      9.644
REMARK  16 active torsions:
REMARK  status: ('A' for Active; 'I' for Inactive)
REMARK    1  A    between atoms: C2_2  and  C3_3 
REMARK    2  A    between atoms: C3_3  and  C5_5 
REMARK    3  A    between atoms: C5_5  and  N1_6 
REMARK    4  A    between atoms: C5_5  and  C31_44 
REMARK       I    between atoms: N1_6  and  C6_8 
REMARK       I    between atoms: C6_8  and  N2_10 
REMARK    5  A    between atoms: N2_10  and  C7_12 
REMARK    6  A    between atoms: C7_12  and  C8_13 
REMARK    7  A    between atoms: C7_12  and  C18_26 
REMARK       I    between atoms: C8_13  and  N3_15 
REMARK    8  A    between atoms: N3_15  and  C9_17 
REMARK    9  A    between atoms: C9_17  and  C10_18 
REMARK   10  A    between atoms: C9_17  and  C14_22 
REMARK   11  A    between atoms: C10_18  and  C11_19 
REMARK   12  A    between atoms: C14_22  and  C15_23 
REMARK       I    between atoms: C18_26  and  N4_28 
REMARK   13  A    between atoms: C19_29  and  C20_30 
REMARK       I    between atoms: C20_30  and  N5_32 
REMARK   14  A    between atoms: N5_32  and  C21_34 
REMARK   15  A    between atoms: C31_44  and  C32_46 
REMARK   16  A    between atoms: C32_46  and  C33_47 
ROOT
HETATM    1  C7  UNL     1       5.235  17.695  66.422  1.00  0.00     0.271 C 
ENDROOT
BRANCH   1   2
HETATM    2  N2  UNL     1       4.747  17.814  65.043  1.00  0.00    -0.322 N 
HETATM    3  C6  UNL     1       3.643  17.132  64.523  1.00  0.00     0.317 C 
HETATM    4  N1  UNL     1       3.268  17.322  63.170  1.00  0.00    -0.331 N 
HETATM    5  O1  UNL     1       2.928  16.332  65.195  1.00  0.00    -0.247 OA
ATOM      6  H1  UNL     1       3.832  17.943  62.591  1.00  0.00     0.165 HD
ATOM      7  H2  UNL     1       5.252  18.441  64.418  1.00  0.00     0.165 HD
BRANCH   4   8
HETATM    8  C5  UNL     1       2.099  16.663  62.565  1.00  0.00     0.159 C 
BRANCH   8   9
HETATM    9  C3  UNL     1       2.553  15.811  61.413  1.00  0.00     0.011 C 
HETATM   10  C4  UNL     1       1.496  14.926  60.834  1.00  0.00     0.012 C 
BRANCH   9  11
HETATM   11  C2  UNL     1       3.629  14.860  61.977  1.00  0.00     0.002 C 
HETATM   12  C1  UNL     1       2.931  13.722  62.701  1.00  0.00     0.005 C 
ENDBRANCH   9  11
ENDBRANCH   8   9
BRANCH   8  13
HETATM   13  C31 UNL     1       1.072  17.671  62.258  1.00  0.00     0.150 C 
HETATM   14  O5  UNL     1       1.362  18.635  61.526  1.00  0.00    -0.296 OA
BRANCH  13  15
HETATM   15  C32 UNL     1      -0.313  17.646  62.753  1.00  0.00     0.084 C 
BRANCH  15  16
HETATM   16  C33 UNL     1      -0.344  17.668  64.282  1.00  0.00    -0.016 C 
HETATM   17  C34 UNL     1      -1.012  16.455  64.867  1.00  0.00     0.010 C 
HETATM   18  C35 UNL     1      -1.100  18.890  64.736  1.00  0.00     0.010 C 
ENDBRANCH  15  16
ENDBRANCH  13  15
ENDBRANCH   8  13
ENDBRANCH   4   8
ENDBRANCH   1   2
BRANCH   1  19
HETATM   19  C8  UNL     1       6.699  17.617  66.435  1.00  0.00     0.250 C 
HETATM   20  O2  UNL     1       7.245  16.842  67.295  1.00  0.00    -0.271 OA
HETATM   21  N3  UNL     1       7.567  18.314  65.587  1.00  0.00    -0.354 N 
ATOM     22  H3  UNL     1       7.182  18.945  64.884  1.00  0.00     0.162 HD
BRANCH  21  23
HETATM   23  C9  UNL     1       9.035  18.153  65.691  1.00  0.00     0.085 C 
BRANCH  23  24
HETATM   24  C10 UNL     1       9.652  19.273  66.408  1.00  0.00     0.029 C 
BRANCH  24  25
HETATM   25  C11 UNL     1       9.280  20.671  66.052  1.00  0.00    -0.021 C 
HETATM   26  C12 UNL     1      10.572  21.450  65.665  1.00  0.00     0.009 C 
HETATM   27  C13 UNL     1       8.704  21.501  67.175  1.00  0.00     0.009 C 
ENDBRANCH  24  25
ENDBRANCH  23  24
BRANCH  23  28
HETATM   28  C14 UNL     1       9.595  17.756  64.389  1.00  0.00     0.029 C 
BRANCH  28  29
HETATM   29  C15 UNL     1       9.344  18.616  63.226  1.00  0.00    -0.013 A 
HETATM   30  C16 UNL     1       9.205  18.191  61.835  1.00  0.00     0.005 A 
HETATM   31  C17 UNL     1      10.472  18.903  62.288  1.00  0.00     0.005 A 
ENDBRANCH  28  29
ENDBRANCH  23  28
ENDBRANCH  21  23
ENDBRANCH   1  19
BRANCH   1  32
HETATM   32  C18 UNL     1       4.705  18.879  67.209  1.00  0.00     0.253 C 
HETATM   33  O3  UNL     1       5.230  19.962  66.850  1.00  0.00    -0.270 OA
HETATM   34  N4  UNL     1       3.725  18.730  68.221  1.00  0.00    -0.331 N 
HETATM   35  C19 UNL     1       3.172  19.776  69.003  1.00  0.00     0.180 C 
HETATM   36  C27 UNL     1       3.164  17.452  68.593  1.00  0.00     0.101 A 
HETATM   37  C25 UNL     1       2.383  19.119  70.125  1.00  0.00     0.042 C 
HETATM   38  C26 UNL     1       2.379  17.647  69.834  1.00  0.00     0.021 A 
HETATM   39  C28 UNL     1       1.752  17.102  68.623  1.00  0.00    -0.021 A 
HETATM   40  C29 UNL     1       0.699  17.809  67.841  1.00  0.00     0.017 C 
HETATM   41  C30 UNL     1       1.448  15.590  68.700  1.00  0.00     0.017 C 
BRANCH  35  42
HETATM   42  C20 UNL     1       2.458  20.859  68.373  1.00  0.00     0.241 C 
HETATM   43  O4  UNL     1       1.369  21.218  68.969  1.00  0.00    -0.271 OA
HETATM   44  N5  UNL     1       2.729  21.608  67.218  1.00  0.00    -0.351 N 
ATOM     45  H5  UNL     1       3.577  21.373  66.703  1.00  0.00     0.163 HD
BRANCH  44  46
HETATM   46  C21 UNL     1       1.929  22.666  66.696  1.00  0.00     0.022 C 
HETATM   47  C22 UNL     1       1.693  23.814  67.649  1.00  0.00     0.037 C 
HETATM   48  C23 UNL     1       2.686  23.287  65.510  1.00  0.00     0.037 C 
HETATM   49  C24 UNL     1       0.604  22.228  66.143  1.00  0.00     0.037 C 
ENDBRANCH  44  46
ENDBRANCH  35  42
ENDBRANCH   1  32
TORSDOF 16
ENDMDL
