MODEL 1
REMARK VINA RESULT: -7.773181694      0.000      0.000
REMARK  19 active torsions:
REMARK  status: ('A' for Active; 'I' for Inactive)
REMARK    1  A    between atoms: C2_2  and  C3_3 
REMARK    2  A    between atoms: C3_3  and  C4_4 
REMARK    3  A    between atoms: C4_4  and  O1_5 
REMARK    4  A    between atoms: O1_5  and  C5_6 
REMARK       I    between atoms: C5_6  and  N1_8 
REMARK    5  A    between atoms: C9_12  and  C10_13 
REMARK    6  A    between atoms: C10_13  and  C11_14 
REMARK    7  A    between atoms: C11_14  and  C12_15 
REMARK    8  A    between atoms: C11_14  and  N2_24 
REMARK    9  A    between atoms: C12_15  and  S1_16 
REMARK   10  A    between atoms: S1_16  and  C13_17 
REMARK   11  A    between atoms: C13_17  and  O4_19 
REMARK   12  A    between atoms: O4_19  and  C14_20 
REMARK   13  A    between atoms: C14_20  and  C15_21 
REMARK   14  A    between atoms: N2_24  and  C18_25 
REMARK   15  A    between atoms: C18_25  and  O5_26 
REMARK   16  A    between atoms: C18_25  and  C19_28 
REMARK   17  A    between atoms: C19_28  and  N3_30 
REMARK   18  A    between atoms: C19_28  and  C28_42 
REMARK       I    between atoms: N3_30  and  C21_32 
REMARK       I    between atoms: C21_32  and  N4_34 
REMARK   19  A    between atoms: N5_37  and  C24_38 
ROOT
HETATM    1  C11 UNL     1      14.939  19.872  18.015  1.00  0.00     0.095 C 
ENDROOT
BRANCH   1   2
HETATM    2  C10 UNL     1      14.222  18.867  18.809  1.00  0.00     0.039 C 
BRANCH   2   3
HETATM    3  C9  UNL     1      12.775  18.916  19.019  1.00  0.00     0.115 C 
HETATM    4  N1  UNL     1      11.913  17.905  18.538  1.00  0.00    -0.320 N 
HETATM    5  C5  UNL     1      11.101  17.843  17.402  1.00  0.00     0.363 C 
HETATM    6  C6  UNL     1      11.940  16.778  19.503  1.00  0.00     0.129 C 
HETATM    7  O2  UNL     1      10.391  16.824  17.125  1.00  0.00    -0.238 OA
HETATM    8  C7  UNL     1      12.610  17.307  20.740  1.00  0.00     0.022 C 
HETATM    9  C8  UNL     1      12.550  18.798  20.547  1.00  0.00     0.031 C 
BRANCH   5  10
HETATM   10  O1  UNL     1      11.046  18.908  16.530  1.00  0.00    -0.304 OA
BRANCH  10  11
HETATM   11  C4  UNL     1      10.353  18.984  15.328  1.00  0.00     0.180 C 
BRANCH  11  12
HETATM   12  C3  UNL     1       9.618  20.285  15.101  1.00  0.00     0.026 C 
BRANCH  12  13
HETATM   13  C2  UNL     1       9.956  20.939  13.792  1.00  0.00    -0.002 C 
HETATM   14  C1  UNL     1       8.696  21.673  13.342  1.00  0.00     0.005 C 
ENDBRANCH  12  13
ENDBRANCH  11  12
ENDBRANCH  10  11
ENDBRANCH   5  10
ENDBRANCH   2   3
ENDBRANCH   1   2
BRANCH   1  15
HETATM   15  C12 UNL     1      16.375  20.176  18.249  1.00  0.00     0.157 C 
BRANCH  15  16
HETATM   16  S1  UNL     1      16.706  21.625  19.230  1.00  0.00    -0.054 SA
BRANCH  16  17
HETATM   17  C13 UNL     1      18.429  21.919  19.568  1.00  0.00     0.322 C 
HETATM   18  O3  UNL     1      19.137  20.909  19.779  1.00  0.00    -0.252 OA
BRANCH  17  19
HETATM   19  O4  UNL     1      19.021  23.134  19.609  1.00  0.00    -0.312 OA
BRANCH  19  20
HETATM   20  C14 UNL     1      20.314  23.565  19.437  1.00  0.00     0.184 C 
BRANCH  20  21
HETATM   21  C15 UNL     1      21.253  23.644  20.570  1.00  0.00     0.010 A 
HETATM   22  C16 UNL     1      22.154  24.710  20.969  1.00  0.00     0.007 A 
HETATM   23  C17 UNL     1      22.748  23.533  20.178  1.00  0.00     0.007 A 
ENDBRANCH  20  21
ENDBRANCH  19  20
ENDBRANCH  17  19
ENDBRANCH  16  17
ENDBRANCH  15  16
ENDBRANCH   1  15
BRANCH   1  24
HETATM   24  N2  UNL     1      14.389  20.526  17.118  1.00  0.00    -0.386 NA
BRANCH  24  25
HETATM   25  C18 UNL     1      13.822  21.211  16.196  1.00  0.00     0.227 C 
BRANCH  25  26
HETATM   26  O5  UNL     1      12.521  21.454  16.222  1.00  0.00    -0.337 OA
ATOM     27  H5  UNL     1      12.077  21.840  15.477  1.00  0.00     0.220 HD
ENDBRANCH  25  26
BRANCH  25  28
HETATM   28  C19 UNL     1      14.483  21.834  14.984  1.00  0.00     0.188 C 
HETATM   29  C20 UNL     1      13.725  23.045  14.519  1.00  0.00     0.059 C 
BRANCH  28  30
HETATM   30  N3  UNL     1      15.854  22.176  15.286  1.00  0.00    -0.318 N 
HETATM   31  C21 UNL     1      16.096  23.361  16.052  1.00  0.00     0.319 C 
HETATM   32  O6  UNL     1      15.124  24.076  16.447  1.00  0.00    -0.247 OA
HETATM   33  N4  UNL     1      17.393  23.785  16.402  1.00  0.00    -0.331 N 
HETATM   34  C22 UNL     1      18.540  23.021  15.990  1.00  0.00     0.158 C 
HETATM   35  C27 UNL     1      17.579  24.979  17.177  1.00  0.00     0.158 C 
HETATM   36  C23 UNL     1      19.766  23.918  15.832  1.00  0.00     0.292 C 
HETATM   37  N5  UNL     1      19.300  25.255  15.550  1.00  0.00     0.091 N 
HETATM   38  C26 UNL     1      18.766  25.806  16.779  1.00  0.00     0.292 C 
ATOM     39  H3  UNL     1      16.625  21.590  14.964  1.00  0.00     0.166 HD
BRANCH  37  40
HETATM   40  C24 UNL     1      20.333  26.092  14.983  1.00  0.00     0.268 C 
HETATM   41  C25 UNL     1      19.818  27.469  14.633  1.00  0.00     0.037 C 
ENDBRANCH  37  40
ENDBRANCH  28  30
BRANCH  28  42
HETATM   42  C28 UNL     1      14.521  20.824  13.909  1.00  0.00     0.268 C 
HETATM   43  N6  UNL     1      13.496  19.870  13.768  1.00  0.00    -0.059 NA
HETATM   44  O7  UNL     1      15.469  20.757  13.057  1.00  0.00    -0.273 OA
ENDBRANCH  28  42
ENDBRANCH  25  28
ENDBRANCH  24  25
ENDBRANCH   1  24
TORSDOF 19
ENDMDL
MODEL 2
REMARK VINA RESULT: -7.695392139      2.074      5.654
REMARK  19 active torsions:
REMARK  status: ('A' for Active; 'I' for Inactive)
REMARK    1  A    between atoms: C2_2  and  C3_3 
REMARK    2  A    between atoms: C3_3  and  C4_4 
REMARK    3  A    between atoms: C4_4  and  O1_5 
REMARK    4  A    between atoms: O1_5  and  C5_6 
REMARK       I    between atoms: C5_6  and  N1_8 
REMARK    5  A    between atoms: C9_12  and  C10_13 
REMARK    6  A    between atoms: C10_13  and  C11_14 
REMARK    7  A    between atoms: C11_14  and  C12_15 
REMARK    8  A    between atoms: C11_14  and  N2_24 
REMARK    9  A    between atoms: C12_15  and  S1_16 
REMARK   10  A    between atoms: S1_16  and  C13_17 
REMARK   11  A    between atoms: C13_17  and  O4_19 
REMARK   12  A    between atoms: O4_19  and  C14_20 
REMARK   13  A    between atoms: C14_20  and  C15_21 
REMARK   14  A    between atoms: N2_24  and  C18_25 
REMARK   15  A    between atoms: C18_25  and  O5_26 
REMARK   16  A    between atoms: C18_25  and  C19_28 
REMARK   17  A    between atoms: C19_28  and  N3_30 
REMARK   18  A    between atoms: C19_28  and  C28_42 
REMARK       I    between atoms: N3_30  and  C21_32 
REMARK       I    between atoms: C21_32  and  N4_34 
REMARK   19  A    between atoms: N5_37  and  C24_38 
ROOT
HETATM    1  C11 UNL     1      14.587  21.427  17.520  1.00  0.00     0.095 C 
ENDROOT
BRANCH   1   2
HETATM    2  C10 UNL     1      14.354  20.116  18.138  1.00  0.00     0.039 C 
BRANCH   2   3
HETATM    3  C9  UNL     1      13.018  19.646  18.507  1.00  0.00     0.115 C 
HETATM    4  N1  UNL     1      12.372  18.602  17.807  1.00  0.00    -0.320 N 
HETATM    5  C5  UNL     1      11.392  18.623  16.812  1.00  0.00     0.363 C 
HETATM    6  C6  UNL     1      12.889  17.311  18.324  1.00  0.00     0.129 C 
HETATM    7  O2  UNL     1      10.932  17.560  16.283  1.00  0.00    -0.238 OA
HETATM    8  C7  UNL     1      13.634  17.638  19.588  1.00  0.00     0.022 C 
HETATM    9  C8  UNL     1      13.148  19.024  19.919  1.00  0.00     0.031 C 
BRANCH   5  10
HETATM   10  O1  UNL     1      10.884  19.822  16.363  1.00  0.00    -0.304 OA
BRANCH  10  11
HETATM   11  C4  UNL     1       9.707  20.033  15.654  1.00  0.00     0.180 C 
BRANCH  11  12
HETATM   12  C3  UNL     1       9.715  21.251  14.761  1.00  0.00     0.026 C 
BRANCH  12  13
HETATM   13  C2  UNL     1       9.104  21.004  13.412  1.00  0.00    -0.002 C 
HETATM   14  C1  UNL     1       8.237  22.222  13.103  1.00  0.00     0.005 C 
ENDBRANCH  12  13
ENDBRANCH  11  12
ENDBRANCH  10  11
ENDBRANCH   5  10
ENDBRANCH   2   3
ENDBRANCH   1   2
BRANCH   1  15
HETATM   15  C12 UNL     1      13.726  21.938  16.420  1.00  0.00     0.157 C 
BRANCH  15  16
HETATM   16  S1  UNL     1      14.587  22.482  14.959  1.00  0.00    -0.054 SA
BRANCH  16  17
HETATM   17  C13 UNL     1      14.960  21.191  13.791  1.00  0.00     0.322 C 
HETATM   18  O3  UNL     1      15.907  21.408  13.002  1.00  0.00    -0.252 OA
BRANCH  17  19
HETATM   19  O4  UNL     1      14.308  20.011  13.696  1.00  0.00    -0.312 OA
BRANCH  19  20
HETATM   20  C14 UNL     1      12.984  19.667  13.566  1.00  0.00     0.184 C 
BRANCH  20  21
HETATM   21  C15 UNL     1      12.531  18.745  12.510  1.00  0.00     0.010 A 
HETATM   22  C16 UNL     1      11.485  18.901  11.514  1.00  0.00     0.007 A 
HETATM   23  C17 UNL     1      11.154  18.086  12.775  1.00  0.00     0.007 A 
ENDBRANCH  20  21
ENDBRANCH  19  20
ENDBRANCH  17  19
ENDBRANCH  16  17
ENDBRANCH  15  16
ENDBRANCH   1  15
BRANCH   1  24
HETATM   24  N2  UNL     1      15.511  22.173  17.871  1.00  0.00    -0.386 NA
BRANCH  24  25
HETATM   25  C18 UNL     1      16.460  22.950  18.241  1.00  0.00     0.227 C 
BRANCH  25  26
HETATM   26  O5  UNL     1      16.209  24.095  18.856  1.00  0.00    -0.337 OA
ATOM     27  H5  UNL     1      16.835  24.809  18.842  1.00  0.00     0.220 HD
ENDBRANCH  25  26
BRANCH  25  28
HETATM   28  C19 UNL     1      17.947  22.726  18.059  1.00  0.00     0.188 C 
HETATM   29  C20 UNL     1      18.214  21.791  16.913  1.00  0.00     0.059 C 
BRANCH  28  30
HETATM   30  N3  UNL     1      18.617  23.989  17.853  1.00  0.00    -0.318 N 
HETATM   31  C21 UNL     1      18.538  24.587  16.555  1.00  0.00     0.319 C 
HETATM   32  O6  UNL     1      17.891  24.012  15.625  1.00  0.00    -0.247 OA
HETATM   33  N4  UNL     1      19.154  25.815  16.246  1.00  0.00    -0.331 N 
HETATM   34  C22 UNL     1      19.901  26.522  17.253  1.00  0.00     0.158 C 
HETATM   35  C27 UNL     1      19.037  26.373  14.929  1.00  0.00     0.158 C 
HETATM   36  C23 UNL     1      21.003  27.369  16.621  1.00  0.00     0.292 C 
HETATM   37  N5  UNL     1      21.350  26.767  15.355  1.00  0.00     0.091 N 
HETATM   38  C26 UNL     1      20.278  27.048  14.422  1.00  0.00     0.292 C 
ATOM     39  H3  UNL     1      19.132  24.440  18.609  1.00  0.00     0.166 HD
BRANCH  37  40
HETATM   40  C24 UNL     1      22.632  27.218  14.861  1.00  0.00     0.268 C 
HETATM   41  C25 UNL     1      23.255  28.255  15.767  1.00  0.00     0.037 C 
ENDBRANCH  37  40
ENDBRANCH  28  30
BRANCH  28  42
HETATM   42  C28 UNL     1      18.485  22.155  19.308  1.00  0.00     0.268 C 
HETATM   43  N6  UNL     1      18.779  22.972  20.416  1.00  0.00    -0.059 NA
HETATM   44  O7  UNL     1      18.711  20.908  19.457  1.00  0.00    -0.273 OA
ENDBRANCH  28  42
ENDBRANCH  25  28
ENDBRANCH  24  25
ENDBRANCH   1  24
TORSDOF 19
ENDMDL
MODEL 3
REMARK VINA RESULT: -7.616948527      2.681      8.935
REMARK  19 active torsions:
REMARK  status: ('A' for Active; 'I' for Inactive)
REMARK    1  A    between atoms: C2_2  and  C3_3 
REMARK    2  A    between atoms: C3_3  and  C4_4 
REMARK    3  A    between atoms: C4_4  and  O1_5 
REMARK    4  A    between atoms: O1_5  and  C5_6 
REMARK       I    between atoms: C5_6  and  N1_8 
REMARK    5  A    between atoms: C9_12  and  C10_13 
REMARK    6  A    between atoms: C10_13  and  C11_14 
REMARK    7  A    between atoms: C11_14  and  C12_15 
REMARK    8  A    between atoms: C11_14  and  N2_24 
REMARK    9  A    between atoms: C12_15  and  S1_16 
REMARK   10  A    between atoms: S1_16  and  C13_17 
REMARK   11  A    between atoms: C13_17  and  O4_19 
REMARK   12  A    between atoms: O4_19  and  C14_20 
REMARK   13  A    between atoms: C14_20  and  C15_21 
REMARK   14  A    between atoms: N2_24  and  C18_25 
REMARK   15  A    between atoms: C18_25  and  O5_26 
REMARK   16  A    between atoms: C18_25  and  C19_28 
REMARK   17  A    between atoms: C19_28  and  N3_30 
REMARK   18  A    between atoms: C19_28  and  C28_42 
REMARK       I    between atoms: N3_30  and  C21_32 
REMARK       I    between atoms: C21_32  and  N4_34 
REMARK   19  A    between atoms: N5_37  and  C24_38 
ROOT
HETATM    1  C11 UNL     1      17.029  24.300  18.249  1.00  0.00     0.095 C 
ENDROOT
BRANCH   1   2
HETATM    2  C10 UNL     1      18.015  23.983  19.289  1.00  0.00     0.039 C 
BRANCH   2   3
HETATM    3  C9  UNL     1      19.281  23.311  18.995  1.00  0.00     0.115 C 
HETATM    4  N1  UNL     1      20.327  23.238  19.942  1.00  0.00    -0.320 N 
HETATM    5  C5  UNL     1      21.496  23.988  20.090  1.00  0.00     0.363 C 
HETATM    6  C6  UNL     1      20.032  22.117  20.869  1.00  0.00     0.129 C 
HETATM    7  O2  UNL     1      22.328  23.777  21.031  1.00  0.00    -0.238 OA
HETATM    8  C7  UNL     1      18.925  21.328  20.228  1.00  0.00     0.022 C 
HETATM    9  C8  UNL     1      18.945  21.812  18.803  1.00  0.00     0.031 C 
BRANCH   5  10
HETATM   10  O1  UNL     1      21.788  25.001  19.204  1.00  0.00    -0.304 OA
BRANCH  10  11
HETATM   11  C4  UNL     1      21.295  26.300  19.208  1.00  0.00     0.180 C 
BRANCH  11  12
HETATM   12  C3  UNL     1      22.054  27.263  20.090  1.00  0.00     0.026 C 
BRANCH  12  13
HETATM   13  C2  UNL     1      21.298  27.658  21.327  1.00  0.00    -0.002 C 
HETATM   14  C1  UNL     1      22.014  26.990  22.498  1.00  0.00     0.005 C 
ENDBRANCH  12  13
ENDBRANCH  11  12
ENDBRANCH  10  11
ENDBRANCH   5  10
ENDBRANCH   2   3
ENDBRANCH   1   2
BRANCH   1  15
HETATM   15  C12 UNL     1      17.210  25.447  17.321  1.00  0.00     0.157 C 
BRANCH  15  16
HETATM   16  S1  UNL     1      17.666  25.023  15.652  1.00  0.00    -0.054 SA
BRANCH  16  17
HETATM   17  C13 UNL     1      19.368  25.345  15.241  1.00  0.00     0.322 C 
HETATM   18  O3  UNL     1      20.226  24.652  15.831  1.00  0.00    -0.252 OA
BRANCH  17  19
HETATM   19  O4  UNL     1      19.795  26.267  14.349  1.00  0.00    -0.312 OA
BRANCH  19  20
HETATM   20  C14 UNL     1      20.325  27.529  14.470  1.00  0.00     0.184 C 
BRANCH  20  21
HETATM   21  C15 UNL     1      21.780  27.742  14.576  1.00  0.00     0.010 A 
HETATM   22  C16 UNL     1      22.784  27.009  15.326  1.00  0.00     0.007 A 
HETATM   23  C17 UNL     1      22.251  28.316  15.936  1.00  0.00     0.007 A 
ENDBRANCH  20  21
ENDBRANCH  19  20
ENDBRANCH  17  19
ENDBRANCH  16  17
ENDBRANCH  15  16
ENDBRANCH   1  15
BRANCH   1  24
HETATM   24  N2  UNL     1      15.993  23.638  18.092  1.00  0.00    -0.386 NA
BRANCH  24  25
HETATM   25  C18 UNL     1      14.929  22.946  17.923  1.00  0.00     0.227 C 
BRANCH  25  26
HETATM   26  O5  UNL     1      13.868  23.118  18.695  1.00  0.00    -0.337 OA
ATOM     27  H5  UNL     1      13.394  22.378  19.055  1.00  0.00     0.220 HD
ENDBRANCH  25  26
BRANCH  25  28
HETATM   28  C19 UNL     1      14.695  21.870  16.883  1.00  0.00     0.188 C 
HETATM   29  C20 UNL     1      15.919  21.015  16.708  1.00  0.00     0.059 C 
BRANCH  28  30
HETATM   30  N3  UNL     1      13.557  21.061  17.252  1.00  0.00    -0.318 N 
HETATM   31  C21 UNL     1      13.692  20.185  18.375  1.00  0.00     0.319 C 
HETATM   32  O6  UNL     1      14.787  20.135  19.018  1.00  0.00    -0.247 OA
HETATM   33  N4  UNL     1      12.646  19.354  18.820  1.00  0.00    -0.331 N 
HETATM   34  C22 UNL     1      11.378  19.361  18.140  1.00  0.00     0.158 C 
HETATM   35  C27 UNL     1      12.834  18.498  19.957  1.00  0.00     0.158 C 
HETATM   36  C23 UNL     1      10.678  18.011  18.274  1.00  0.00     0.292 C 
HETATM   37  N5  UNL     1      11.694  17.008  18.486  1.00  0.00     0.091 N 
HETATM   38  C26 UNL     1      12.183  17.151  19.842  1.00  0.00     0.292 C 
ATOM     39  H3  UNL     1      12.683  21.113  16.728  1.00  0.00     0.166 HD
BRANCH  37  40
HETATM   40  C24 UNL     1      11.214  15.670  18.221  1.00  0.00     0.268 C 
HETATM   41  C25 UNL     1      11.019  15.421  16.743  1.00  0.00     0.037 C 
ENDBRANCH  37  40
ENDBRANCH  28  30
BRANCH  28  42
HETATM   42  C28 UNL     1      14.357  22.528  15.606  1.00  0.00     0.268 C 
HETATM   43  N6  UNL     1      15.043  22.211  14.419  1.00  0.00    -0.059 NA
HETATM   44  O7  UNL     1      13.437  23.407  15.503  1.00  0.00    -0.273 OA
ENDBRANCH  28  42
ENDBRANCH  25  28
ENDBRANCH  24  25
ENDBRANCH   1  24
TORSDOF 19
ENDMDL
MODEL 4
REMARK VINA RESULT: -7.541776154      2.569     10.348
REMARK  19 active torsions:
REMARK  status: ('A' for Active; 'I' for Inactive)
REMARK    1  A    between atoms: C2_2  and  C3_3 
REMARK    2  A    between atoms: C3_3  and  C4_4 
REMARK    3  A    between atoms: C4_4  and  O1_5 
REMARK    4  A    between atoms: O1_5  and  C5_6 
REMARK       I    between atoms: C5_6  and  N1_8 
REMARK    5  A    between atoms: C9_12  and  C10_13 
REMARK    6  A    between atoms: C10_13  and  C11_14 
REMARK    7  A    between atoms: C11_14  and  C12_15 
REMARK    8  A    between atoms: C11_14  and  N2_24 
REMARK    9  A    between atoms: C12_15  and  S1_16 
REMARK   10  A    between atoms: S1_16  and  C13_17 
REMARK   11  A    between atoms: C13_17  and  O4_19 
REMARK   12  A    between atoms: O4_19  and  C14_20 
REMARK   13  A    between atoms: C14_20  and  C15_21 
REMARK   14  A    between atoms: N2_24  and  C18_25 
REMARK   15  A    between atoms: C18_25  and  O5_26 
REMARK   16  A    between atoms: C18_25  and  C19_28 
REMARK   17  A    between atoms: C19_28  and  N3_30 
REMARK   18  A    between atoms: C19_28  and  C28_42 
REMARK       I    between atoms: N3_30  and  C21_32 
REMARK       I    between atoms: C21_32  and  N4_34 
REMARK   19  A    between atoms: N5_37  and  C24_38 
ROOT
HETATM    1  C11 UNL     1      18.957  24.812  16.300  1.00  0.00     0.095 C 
ENDROOT
BRANCH   1   2
HETATM    2  C10 UNL     1      19.686  25.766  15.455  1.00  0.00     0.039 C 
BRANCH   2   3
HETATM    3  C9  UNL     1      20.205  27.034  15.968  1.00  0.00     0.115 C 
HETATM    4  N1  UNL     1      21.548  27.180  16.384  1.00  0.00    -0.320 N 
HETATM    5  C5  UNL     1      22.132  27.163  17.653  1.00  0.00     0.363 C 
HETATM    6  C6  UNL     1      22.381  27.412  15.178  1.00  0.00     0.129 C 
HETATM    7  O2  UNL     1      23.385  27.303  17.831  1.00  0.00    -0.238 OA
HETATM    8  C7  UNL     1      21.421  27.718  14.062  1.00  0.00     0.022 C 
HETATM    9  C8  UNL     1      20.145  28.039  14.792  1.00  0.00     0.031 C 
BRANCH   5  10
HETATM   10  O1  UNL     1      21.351  26.990  18.774  1.00  0.00    -0.304 OA
BRANCH  10  11
HETATM   11  C4  UNL     1      21.583  27.479  20.054  1.00  0.00     0.180 C 
BRANCH  11  12
HETATM   12  C3  UNL     1      21.179  26.546  21.172  1.00  0.00     0.026 C 
BRANCH  12  13
HETATM   13  C2  UNL     1      21.962  26.759  22.436  1.00  0.00    -0.002 C 
HETATM   14  C1  UNL     1      23.061  25.700  22.442  1.00  0.00     0.005 C 
ENDBRANCH  12  13
ENDBRANCH  11  12
ENDBRANCH  10  11
ENDBRANCH   5  10
ENDBRANCH   2   3
ENDBRANCH   1   2
BRANCH   1  15
HETATM   15  C12 UNL     1      17.583  24.356  15.961  1.00  0.00     0.157 C 
BRANCH  15  16
HETATM   16  S1  UNL     1      17.465  22.723  15.261  1.00  0.00    -0.054 SA
BRANCH  16  17
HETATM   17  C13 UNL     1      15.842  22.275  14.684  1.00  0.00     0.322 C 
HETATM   18  O3  UNL     1      15.791  21.463  13.734  1.00  0.00    -0.252 OA
BRANCH  17  19
HETATM   19  O4  UNL     1      14.677  22.739  15.190  1.00  0.00    -0.312 OA
BRANCH  19  20
HETATM   20  C14 UNL     1      13.358  22.559  14.852  1.00  0.00     0.184 C 
BRANCH  20  21
HETATM   21  C15 UNL     1      12.674  21.274  15.086  1.00  0.00     0.010 A 
HETATM   22  C16 UNL     1      12.417  20.170  14.180  1.00  0.00     0.007 A 
HETATM   23  C17 UNL     1      11.271  21.162  14.439  1.00  0.00     0.007 A 
ENDBRANCH  20  21
ENDBRANCH  19  20
ENDBRANCH  17  19
ENDBRANCH  16  17
ENDBRANCH  15  16
ENDBRANCH   1  15
BRANCH   1  24
HETATM   24  N2  UNL     1      19.439  24.343  17.341  1.00  0.00    -0.386 NA
BRANCH  24  25
HETATM   25  C18 UNL     1      19.925  23.856  18.421  1.00  0.00     0.227 C 
BRANCH  25  26
HETATM   26  O5  UNL     1      21.216  23.952  18.697  1.00  0.00    -0.337 OA
ATOM     27  H5  UNL     1      21.561  24.686  19.190  1.00  0.00     0.220 HD
ENDBRANCH  25  26
BRANCH  25  28
HETATM   28  C19 UNL     1      19.172  23.126  19.514  1.00  0.00     0.188 C 
HETATM   29  C20 UNL     1      18.407  24.091  20.377  1.00  0.00     0.059 C 
BRANCH  28  30
HETATM   30  N3  UNL     1      18.283  22.146  18.935  1.00  0.00    -0.318 N 
HETATM   31  C21 UNL     1      16.881  22.434  18.926  1.00  0.00     0.319 C 
HETATM   32  O6  UNL     1      16.449  23.524  19.414  1.00  0.00    -0.247 OA
HETATM   33  N4  UNL     1      15.928  21.547  18.386  1.00  0.00    -0.331 N 
HETATM   34  C22 UNL     1      16.348  20.296  17.814  1.00  0.00     0.158 C 
HETATM   35  C27 UNL     1      14.534  21.889  18.397  1.00  0.00     0.158 C 
HETATM   36  C23 UNL     1      15.248  19.244  17.936  1.00  0.00     0.292 C 
HETATM   37  N5  UNL     1      14.418  19.602  19.062  1.00  0.00     0.091 N 
HETATM   38  C26 UNL     1      13.610  20.740  18.673  1.00  0.00     0.292 C 
ATOM     39  H3  UNL     1      18.644  21.275  18.545  1.00  0.00     0.166 HD
BRANCH  37  40
HETATM   40  C24 UNL     1      13.612  18.497  19.529  1.00  0.00     0.268 C 
HETATM   41  C25 UNL     1      13.826  17.250  18.701  1.00  0.00     0.037 C 
ENDBRANCH  37  40
ENDBRANCH  28  30
BRANCH  28  42
HETATM   42  C28 UNL     1      20.149  22.387  20.334  1.00  0.00     0.268 C 
HETATM   43  N6  UNL     1      20.055  20.992  20.499  1.00  0.00    -0.059 NA
HETATM   44  O7  UNL     1      21.121  22.956  20.933  1.00  0.00    -0.273 OA
ENDBRANCH  28  42
ENDBRANCH  25  28
ENDBRANCH  24  25
ENDBRANCH   1  24
TORSDOF 19
ENDMDL
MODEL 5
REMARK VINA RESULT: -7.422097560      2.417      9.641
REMARK  19 active torsions:
REMARK  status: ('A' for Active; 'I' for Inactive)
REMARK    1  A    between atoms: C2_2  and  C3_3 
REMARK    2  A    between atoms: C3_3  and  C4_4 
REMARK    3  A    between atoms: C4_4  and  O1_5 
REMARK    4  A    between atoms: O1_5  and  C5_6 
REMARK       I    between atoms: C5_6  and  N1_8 
REMARK    5  A    between atoms: C9_12  and  C10_13 
REMARK    6  A    between atoms: C10_13  and  C11_14 
REMARK    7  A    between atoms: C11_14  and  C12_15 
REMARK    8  A    between atoms: C11_14  and  N2_24 
REMARK    9  A    between atoms: C12_15  and  S1_16 
REMARK   10  A    between atoms: S1_16  and  C13_17 
REMARK   11  A    between atoms: C13_17  and  O4_19 
REMARK   12  A    between atoms: O4_19  and  C14_20 
REMARK   13  A    between atoms: C14_20  and  C15_21 
REMARK   14  A    between atoms: N2_24  and  C18_25 
REMARK   15  A    between atoms: C18_25  and  O5_26 
REMARK   16  A    between atoms: C18_25  and  C19_28 
REMARK   17  A    between atoms: C19_28  and  N3_30 
REMARK   18  A    between atoms: C19_28  and  C28_42 
REMARK       I    between atoms: N3_30  and  C21_32 
REMARK       I    between atoms: C21_32  and  N4_34 
REMARK   19  A    between atoms: N5_37  and  C24_38 
ROOT
HETATM    1  C11 UNL     1      16.961  24.236  17.497  1.00  0.00     0.095 C 
ENDROOT
BRANCH   1   2
HETATM    2  C10 UNL     1      18.000  24.846  18.336  1.00  0.00     0.039 C 
BRANCH   2   3
HETATM    3  C9  UNL     1      19.413  24.851  17.958  1.00  0.00     0.115 C 
HETATM    4  N1  UNL     1      20.362  25.664  18.619  1.00  0.00    -0.320 N 
HETATM    5  C5  UNL     1      20.926  26.895  18.275  1.00  0.00     0.363 C 
HETATM    6  C6  UNL     1      20.774  24.971  19.865  1.00  0.00     0.129 C 
HETATM    7  O2  UNL     1      21.772  27.489  19.017  1.00  0.00    -0.238 OA
HETATM    8  C7  UNL     1      20.264  23.562  19.746  1.00  0.00     0.022 C 
HETATM    9  C8  UNL     1      19.956  23.436  18.277  1.00  0.00     0.031 C 
BRANCH   5  10
HETATM   10  O1  UNL     1      20.573  27.515  17.097  1.00  0.00    -0.304 OA
BRANCH  10  11
HETATM   11  C4  UNL     1      21.342  27.655  15.948  1.00  0.00     0.180 C 
BRANCH  11  12
HETATM   12  C3  UNL     1      20.579  27.506  14.653  1.00  0.00     0.026 C 
BRANCH  12  13
HETATM   13  C2  UNL     1      19.890  26.178  14.518  1.00  0.00    -0.002 C 
HETATM   14  C1  UNL     1      20.966  25.114  14.717  1.00  0.00     0.005 C 
ENDBRANCH  12  13
ENDBRANCH  11  12
ENDBRANCH  10  11
ENDBRANCH   5  10
ENDBRANCH   2   3
ENDBRANCH   1   2
BRANCH   1  15
HETATM   15  C12 UNL     1      16.961  24.384  16.018  1.00  0.00     0.157 C 
BRANCH  15  16
HETATM   16  S1  UNL     1      17.156  22.875  15.093  1.00  0.00    -0.054 SA
BRANCH  16  17
HETATM   17  C13 UNL     1      15.634  22.151  14.519  1.00  0.00     0.322 C 
HETATM   18  O3  UNL     1      15.730  21.286  13.621  1.00  0.00    -0.252 OA
BRANCH  17  19
HETATM   19  O4  UNL     1      14.400  22.461  14.978  1.00  0.00    -0.312 OA
BRANCH  19  20
HETATM   20  C14 UNL     1      13.314  21.710  15.359  1.00  0.00     0.184 C 
BRANCH  20  21
HETATM   21  C15 UNL     1      12.136  21.567  14.486  1.00  0.00     0.010 A 
HETATM   22  C16 UNL     1      10.811  21.050  14.776  1.00  0.00     0.007 A 
HETATM   23  C17 UNL     1      11.807  20.107  14.081  1.00  0.00     0.007 A 
ENDBRANCH  20  21
ENDBRANCH  19  20
ENDBRANCH  17  19
ENDBRANCH  16  17
ENDBRANCH  15  16
ENDBRANCH   1  15
BRANCH   1  24
HETATM   24  N2  UNL     1      16.027  23.575  17.972  1.00  0.00    -0.386 NA
BRANCH  24  25
HETATM   25  C18 UNL     1      15.067  22.890  18.474  1.00  0.00     0.227 C 
BRANCH  25  26
HETATM   26  O5  UNL     1      13.866  23.418  18.651  1.00  0.00    -0.337 OA
ATOM     27  H5  UNL     1      13.699  24.039  19.349  1.00  0.00     0.220 HD
ENDBRANCH  25  26
BRANCH  25  28
HETATM   28  C19 UNL     1      15.117  21.447  18.930  1.00  0.00     0.188 C 
HETATM   29  C20 UNL     1      15.337  21.359  20.415  1.00  0.00     0.059 C 
BRANCH  28  30
HETATM   30  N3  UNL     1      13.901  20.765  18.554  1.00  0.00    -0.318 N 
HETATM   31  C21 UNL     1      13.466  19.670  19.367  1.00  0.00     0.319 C 
HETATM   32  O6  UNL     1      14.140  19.325  20.387  1.00  0.00    -0.247 OA
HETATM   33  N4  UNL     1      12.295  18.937  19.091  1.00  0.00    -0.331 N 
HETATM   34  C22 UNL     1      11.482  19.276  17.953  1.00  0.00     0.158 C 
HETATM   35  C27 UNL     1      11.902  17.852  19.944  1.00  0.00     0.158 C 
HETATM   36  C23 UNL     1      10.739  18.050  17.429  1.00  0.00     0.292 C 
HETATM   37  N5  UNL     1      11.497  16.881  17.805  1.00  0.00     0.091 N 
HETATM   38  C26 UNL     1      11.315  16.673  19.226  1.00  0.00     0.292 C 
ATOM     39  H3  UNL     1      13.369  21.054  17.733  1.00  0.00     0.166 HD
BRANCH  37  40
HETATM   40  C24 UNL     1      11.132  15.714  17.033  1.00  0.00     0.268 C 
HETATM   41  C25 UNL     1      10.419  14.679  17.874  1.00  0.00     0.037 C 
ENDBRANCH  37  40
ENDBRANCH  28  30
BRANCH  28  42
HETATM   42  C28 UNL     1      16.222  20.775  18.220  1.00  0.00     0.268 C 
HETATM   43  N6  UNL     1      17.540  20.823  18.712  1.00  0.00    -0.059 NA
HETATM   44  O7  UNL     1      16.052  20.122  17.137  1.00  0.00    -0.273 OA
ENDBRANCH  28  42
ENDBRANCH  25  28
ENDBRANCH  24  25
ENDBRANCH   1  24
TORSDOF 19
ENDMDL
