MODEL 1
REMARK VINA RESULT: -8.798828917      0.000      0.000
REMARK  15 active torsions:
REMARK  status: ('A' for Active; 'I' for Inactive)
REMARK    1  A    between atoms: N1_2  and  C3_4 
REMARK    2  A    between atoms: C3_4  and  C4_5 
REMARK    3  A    between atoms: C4_5  and  C5_6 
REMARK    4  A    between atoms: C5_6  and  N2_7 
REMARK       I    between atoms: N2_7  and  C6_9 
REMARK    5  A    between atoms: C6_9  and  C7_11 
REMARK    6  A    between atoms: C11_17  and  N4_18 
REMARK    7  A    between atoms: N4_18  and  C12_20 
REMARK    8  A    between atoms: C12_20  and  C13_21 
REMARK    9  A    between atoms: C13_21  and  C14_22 
REMARK   10  A    between atoms: C14_22  and  N5_23 
REMARK   11  A    between atoms: C19_29  and  N6_30 
REMARK   12  A    between atoms: C20_32  and  C21_33 
REMARK   13  A    between atoms: C22_34  and  C23_35 
REMARK   14  A    between atoms: C23_35  and  O4_37 
REMARK   15  A    between atoms: O4_37  and  C24_38 
ROOT
HETATM    1  C7  UNL     1      16.701  22.349  18.837  1.00  0.00     0.034 A 
HETATM    2  C8  UNL     1      17.528  21.278  19.153  1.00  0.00     0.019 A 
HETATM    3  C9  UNL     1      18.854  21.488  19.445  1.00  0.00     0.033 A 
HETATM    4  C10 UNL     1      19.433  22.739  19.442  1.00  0.00     0.060 A 
HETATM    5  N3  UNL     1      20.743  22.915  19.720  1.00  0.00    -0.338 N 
ATOM      6  H3  UNL     1      21.331  22.114  19.950  1.00  0.00     0.167 HD
HETATM    7  C11 UNL     1      21.264  24.147  19.690  1.00  0.00     0.146 A 
HETATM    8  C19 UNL     1      20.479  25.286  19.374  1.00  0.00     0.150 A 
HETATM    9  N8  UNL     1      19.166  25.021  19.108  1.00  0.00    -0.338 N 
ATOM     10  H8  UNL     1      18.561  25.808  18.876  1.00  0.00     0.167 HD
HETATM   11  C31 UNL     1      18.621  23.803  19.130  1.00  0.00     0.061 A 
HETATM   12  C32 UNL     1      17.268  23.602  18.832  1.00  0.00     0.049 A 
ENDROOT
BRANCH   8  13
HETATM   13  N6  UNL     1      21.076  26.482  19.361  1.00  0.00    -0.347 N 
HETATM   14  C20 UNL     1      21.803  27.299  18.831  1.00  0.00     0.119 C 
ATOM     15  H6  UNL     1      20.771  26.931  20.225  1.00  0.00     0.167 HD
BRANCH  14  16
HETATM   16  C21 UNL     1      22.560  27.302  17.590  1.00  0.00     0.058 C 
HETATM   17  C22 UNL     1      22.015  27.435  16.391  1.00  0.00     0.046 C 
HETATM   18  C28 UNL     1      23.140  27.360  15.382  1.00  0.00     0.067 C 
HETATM   19  C29 UNL     1      24.147  26.505  16.146  1.00  0.00     0.127 C 
HETATM   20  N7  UNL     1      23.987  27.188  17.450  1.00  0.00    -0.383 N 
HETATM   21  C30 UNL     1      25.044  27.629  18.292  1.00  0.00     0.149 C 
BRANCH  17  22
HETATM   22  C23 UNL     1      20.635  27.605  15.964  1.00  0.00     0.292 C 
HETATM   23  O3  UNL     1      20.212  28.552  15.290  1.00  0.00    -0.259 OA
BRANCH  22  24
HETATM   24  O4  UNL     1      19.686  26.650  16.319  1.00  0.00    -0.307 OA
BRANCH  24  25
HETATM   25  C24 UNL     1      19.244  25.626  15.459  1.00  0.00     0.060 C 
HETATM   26  C25 UNL     1      19.375  25.957  13.995  1.00  0.00     0.046 C 
HETATM   27  C26 UNL     1      17.753  25.447  15.779  1.00  0.00     0.046 C 
HETATM   28  C27 UNL     1      19.908  24.306  15.714  1.00  0.00     0.046 C 
ENDBRANCH  24  25
ENDBRANCH  22  24
ENDBRANCH  17  22
ENDBRANCH  14  16
ENDBRANCH   8  13
BRANCH   7  29
HETATM   29  N4  UNL     1      22.499  24.379  19.942  1.00  0.00    -0.373 N 
ATOM     30  H4  UNL     1      22.994  24.924  19.238  1.00  0.00     0.161 HD
BRANCH  29  31
HETATM   31  C12 UNL     1      23.271  23.985  21.057  1.00  0.00     0.123 C 
BRANCH  31  32
HETATM   32  C13 UNL     1      24.500  24.897  21.094  1.00  0.00     0.050 C 
BRANCH  32  33
HETATM   33  C14 UNL     1      24.064  26.174  21.740  1.00  0.00     0.274 C 
BRANCH  33  34
HETATM   34  N5  UNL     1      23.276  26.010  22.927  1.00  0.00     0.092 N 
HETATM   35  C15 UNL     1      23.994  25.768  24.127  1.00  0.00     0.298 C 
HETATM   36  C16 UNL     1      24.119  26.913  25.071  1.00  0.00     0.198 C 
HETATM   37  O2  UNL     1      22.976  27.667  25.242  1.00  0.00    -0.388 OA
HETATM   38  C17 UNL     1      21.911  27.222  24.472  1.00  0.00     0.198 C 
HETATM   39  C18 UNL     1      22.303  27.049  23.020  1.00  0.00     0.298 C 
ENDBRANCH  33  34
ENDBRANCH  32  33
ENDBRANCH  31  32
ENDBRANCH  29  31
ENDBRANCH   7  29
BRANCH   1  40
HETATM   40  C6  UNL     1      15.299  22.115  18.502  1.00  0.00     0.251 C 
HETATM   41  N2  UNL     1      14.745  20.826  18.286  1.00  0.00    -0.357 N 
ATOM     42  H2  UNL     1      15.332  19.995  18.354  1.00  0.00     0.162 HD
HETATM   43  O1  UNL     1      14.518  23.120  18.394  1.00  0.00    -0.268 OA
BRANCH  41  44
HETATM   44  C5  UNL     1      13.354  20.704  17.971  1.00  0.00     0.124 C 
BRANCH  44  45
HETATM   45  C4  UNL     1      12.704  19.527  18.651  1.00  0.00     0.050 C 
BRANCH  45  46
HETATM   46  C3  UNL     1      13.559  19.136  19.858  1.00  0.00     0.273 C 
BRANCH  46  47
HETATM   47  N1  UNL     1      13.568  17.690  19.913  1.00  0.00     0.080 N 
HETATM   48  C1  UNL     1      13.990  17.148  18.634  1.00  0.00     0.309 C 
HETATM   49  C2  UNL     1      12.329  17.139  20.386  1.00  0.00     0.309 C 
ENDBRANCH  46  47
ENDBRANCH  45  46
ENDBRANCH  44  45
ENDBRANCH  41  44
ENDBRANCH   1  40
TORSDOF 15
ENDMDL
MODEL 2
REMARK VINA RESULT: -8.731024671      4.480     12.863
REMARK  15 active torsions:
REMARK  status: ('A' for Active; 'I' for Inactive)
REMARK    1  A    between atoms: N1_2  and  C3_4 
REMARK    2  A    between atoms: C3_4  and  C4_5 
REMARK    3  A    between atoms: C4_5  and  C5_6 
REMARK    4  A    between atoms: C5_6  and  N2_7 
REMARK       I    between atoms: N2_7  and  C6_9 
REMARK    5  A    between atoms: C6_9  and  C7_11 
REMARK    6  A    between atoms: C11_17  and  N4_18 
REMARK    7  A    between atoms: N4_18  and  C12_20 
REMARK    8  A    between atoms: C12_20  and  C13_21 
REMARK    9  A    between atoms: C13_21  and  C14_22 
REMARK   10  A    between atoms: C14_22  and  N5_23 
REMARK   11  A    between atoms: C19_29  and  N6_30 
REMARK   12  A    between atoms: C20_32  and  C21_33 
REMARK   13  A    between atoms: C22_34  and  C23_35 
REMARK   14  A    between atoms: C23_35  and  O4_37 
REMARK   15  A    between atoms: O4_37  and  C24_38 
ROOT
HETATM    1  C7  UNL     1      16.265  23.254  16.140  1.00  0.00     0.034 A 
HETATM    2  C8  UNL     1      16.761  22.712  14.960  1.00  0.00     0.019 A 
HETATM    3  C9  UNL     1      16.027  21.786  14.258  1.00  0.00     0.033 A 
HETATM    4  C10 UNL     1      14.786  21.347  14.670  1.00  0.00     0.060 A 
HETATM    5  N3  UNL     1      14.092  20.425  13.969  1.00  0.00    -0.338 N 
ATOM      6  H3  UNL     1      14.475  20.042  13.104  1.00  0.00     0.167 HD
HETATM    7  C11 UNL     1      12.898  20.018  14.414  1.00  0.00     0.146 A 
HETATM    8  C19 UNL     1      12.331  20.527  15.611  1.00  0.00     0.150 A 
HETATM    9  N8  UNL     1      13.097  21.454  16.258  1.00  0.00    -0.338 N 
ATOM     10  H8  UNL     1      12.732  21.851  17.124  1.00  0.00     0.167 HD
HETATM   11  C31 UNL     1      14.290  21.878  15.837  1.00  0.00     0.061 A 
HETATM   12  C32 UNL     1      15.029  22.823  16.559  1.00  0.00     0.049 A 
ENDROOT
BRANCH   8  13
HETATM   13  N6  UNL     1      11.136  20.065  15.991  1.00  0.00    -0.347 N 
HETATM   14  C20 UNL     1      10.443  19.202  16.494  1.00  0.00     0.119 C 
ATOM     15  H6  UNL     1      10.481  20.802  15.729  1.00  0.00     0.167 HD
BRANCH  14  16
HETATM   16  C21 UNL     1      10.735  17.902  17.073  1.00  0.00     0.058 C 
HETATM   17  C22 UNL     1      11.286  17.730  18.265  1.00  0.00     0.046 C 
HETATM   18  C28 UNL     1      11.438  16.239  18.471  1.00  0.00     0.067 C 
HETATM   19  C29 UNL     1      11.551  15.764  17.026  1.00  0.00     0.127 C 
HETATM   20  N7  UNL     1      10.466  16.617  16.488  1.00  0.00    -0.383 N 
HETATM   21  C30 UNL     1       9.420  16.185  15.628  1.00  0.00     0.149 C 
BRANCH  17  22
HETATM   22  C23 UNL     1      11.731  18.676  19.276  1.00  0.00     0.292 C 
HETATM   23  O3  UNL     1      11.334  18.701  20.448  1.00  0.00    -0.259 OA
BRANCH  22  24
HETATM   24  O4  UNL     1      12.675  19.643  18.942  1.00  0.00    -0.307 OA
BRANCH  24  25
HETATM   25  C24 UNL     1      14.027  19.587  19.332  1.00  0.00     0.060 C 
HETATM   26  C25 UNL     1      14.648  20.936  19.585  1.00  0.00     0.046 C 
HETATM   27  C26 UNL     1      14.761  18.935  18.153  1.00  0.00     0.046 C 
HETATM   28  C27 UNL     1      14.265  18.717  20.531  1.00  0.00     0.046 C 
ENDBRANCH  24  25
ENDBRANCH  22  24
ENDBRANCH  17  22
ENDBRANCH  14  16
ENDBRANCH   8  13
BRANCH   7  29
HETATM   29  N4  UNL     1      12.192  19.146  13.795  1.00  0.00    -0.373 N 
ATOM     30  H4  UNL     1      11.661  18.511  14.390  1.00  0.00     0.161 HD
BRANCH  29  31
HETATM   31  C12 UNL     1      12.045  18.941  12.406  1.00  0.00     0.123 C 
BRANCH  31  32
HETATM   32  C13 UNL     1      10.763  18.128  12.207  1.00  0.00     0.050 C 
BRANCH  32  33
HETATM   33  C14 UNL     1       9.663  18.900  12.866  1.00  0.00     0.274 C 
BRANCH  33  34
HETATM   34  N5  UNL     1       9.432  20.205  12.319  1.00  0.00     0.092 N 
HETATM   35  C15 UNL     1       8.801  20.248  11.048  1.00  0.00     0.298 C 
HETATM   36  C16 UNL     1       7.360  20.625  11.032  1.00  0.00     0.198 C 
HETATM   37  O2  UNL     1       7.010  21.664  11.870  1.00  0.00    -0.388 OA
HETATM   38  C17 UNL     1       8.081  22.159  12.599  1.00  0.00     0.198 C 
HETATM   39  C18 UNL     1       8.840  21.053  13.302  1.00  0.00     0.298 C 
ENDBRANCH  33  34
ENDBRANCH  32  33
ENDBRANCH  31  32
ENDBRANCH  29  31
ENDBRANCH   7  29
BRANCH   1  40
HETATM   40  C6  UNL     1      17.064  24.217  16.893  1.00  0.00     0.251 C 
HETATM   41  N2  UNL     1      18.419  24.520  16.597  1.00  0.00    -0.357 N 
ATOM     42  H2  UNL     1      18.895  24.052  15.826  1.00  0.00     0.162 HD
HETATM   43  O1  UNL     1      16.522  24.827  17.875  1.00  0.00    -0.268 OA
BRANCH  41  44
HETATM   44  C5  UNL     1      19.110  25.489  17.392  1.00  0.00     0.124 C 
BRANCH  44  45
HETATM   45  C4  UNL     1      20.321  24.919  18.082  1.00  0.00     0.050 C 
BRANCH  45  46
HETATM   46  C3  UNL     1      20.052  24.902  19.589  1.00  0.00     0.273 C 
BRANCH  46  47
HETATM   47  N1  UNL     1      19.325  23.683  19.870  1.00  0.00     0.080 N 
HETATM   48  C1  UNL     1      18.274  23.945  20.837  1.00  0.00     0.309 C 
HETATM   49  C2  UNL     1      20.183  22.591  20.241  1.00  0.00     0.309 C 
ENDBRANCH  46  47
ENDBRANCH  45  46
ENDBRANCH  44  45
ENDBRANCH  41  44
ENDBRANCH   1  40
TORSDOF 15
ENDMDL
MODEL 3
REMARK VINA RESULT: -8.639344476      4.529     12.887
REMARK  15 active torsions:
REMARK  status: ('A' for Active; 'I' for Inactive)
REMARK    1  A    between atoms: N1_2  and  C3_4 
REMARK    2  A    between atoms: C3_4  and  C4_5 
REMARK    3  A    between atoms: C4_5  and  C5_6 
REMARK    4  A    between atoms: C5_6  and  N2_7 
REMARK       I    between atoms: N2_7  and  C6_9 
REMARK    5  A    between atoms: C6_9  and  C7_11 
REMARK    6  A    between atoms: C11_17  and  N4_18 
REMARK    7  A    between atoms: N4_18  and  C12_20 
REMARK    8  A    between atoms: C12_20  and  C13_21 
REMARK    9  A    between atoms: C13_21  and  C14_22 
REMARK   10  A    between atoms: C14_22  and  N5_23 
REMARK   11  A    between atoms: C19_29  and  N6_30 
REMARK   12  A    between atoms: C20_32  and  C21_33 
REMARK   13  A    between atoms: C22_34  and  C23_35 
REMARK   14  A    between atoms: C23_35  and  O4_37 
REMARK   15  A    between atoms: O4_37  and  C24_38 
ROOT
HETATM    1  C7  UNL     1      16.235  23.297  16.166  1.00  0.00     0.034 A 
HETATM    2  C8  UNL     1      16.729  22.731  14.998  1.00  0.00     0.019 A 
HETATM    3  C9  UNL     1      15.999  21.781  14.323  1.00  0.00     0.033 A 
HETATM    4  C10 UNL     1      14.764  21.342  14.753  1.00  0.00     0.060 A 
HETATM    5  N3  UNL     1      14.074  20.398  14.078  1.00  0.00    -0.338 N 
ATOM      6  H3  UNL     1      14.456  19.996  13.221  1.00  0.00     0.167 HD
HETATM    7  C11 UNL     1      12.886  19.991  14.540  1.00  0.00     0.146 A 
HETATM    8  C19 UNL     1      12.321  20.525  15.727  1.00  0.00     0.150 A 
HETATM    9  N8  UNL     1      13.082  21.475  16.347  1.00  0.00    -0.338 N 
ATOM     10  H8  UNL     1      12.718  21.889  17.204  1.00  0.00     0.167 HD
HETATM   11  C31 UNL     1      14.269  21.898  15.908  1.00  0.00     0.061 A 
HETATM   12  C32 UNL     1      15.004  22.867  16.603  1.00  0.00     0.049 A 
ENDROOT
BRANCH   8  13
HETATM   13  N6  UNL     1      11.132  20.063  16.125  1.00  0.00    -0.347 N 
HETATM   14  C20 UNL     1      10.447  19.199  16.637  1.00  0.00     0.119 C 
ATOM     15  H6  UNL     1      10.473  20.800  15.874  1.00  0.00     0.167 HD
BRANCH  14  16
HETATM   16  C21 UNL     1      10.747  17.898  17.209  1.00  0.00     0.058 C 
HETATM   17  C22 UNL     1      11.299  17.723  18.400  1.00  0.00     0.046 C 
HETATM   18  C28 UNL     1      11.461  16.232  18.598  1.00  0.00     0.067 C 
HETATM   19  C29 UNL     1      11.578  15.766  17.149  1.00  0.00     0.127 C 
HETATM   20  N7  UNL     1      10.488  16.614  16.616  1.00  0.00    -0.383 N 
HETATM   21  C30 UNL     1       9.445  16.180  15.753  1.00  0.00     0.149 C 
BRANCH  17  22
HETATM   22  C23 UNL     1      11.736  18.666  19.416  1.00  0.00     0.292 C 
HETATM   23  O3  UNL     1      11.337  18.684  20.588  1.00  0.00    -0.259 OA
BRANCH  22  24
HETATM   24  O4  UNL     1      12.676  19.640  19.089  1.00  0.00    -0.307 OA
BRANCH  24  25
HETATM   25  C24 UNL     1      14.065  19.477  19.256  1.00  0.00     0.060 C 
HETATM   26  C25 UNL     1      14.753  18.843  18.076  1.00  0.00     0.046 C 
HETATM   27  C26 UNL     1      14.219  18.541  20.462  1.00  0.00     0.046 C 
HETATM   28  C27 UNL     1      14.776  20.752  19.597  1.00  0.00     0.046 C 
ENDBRANCH  24  25
ENDBRANCH  22  24
ENDBRANCH  17  22
ENDBRANCH  14  16
ENDBRANCH   8  13
BRANCH   7  29
HETATM   29  N4  UNL     1      12.184  19.099  13.947  1.00  0.00    -0.373 N 
ATOM     30  H4  UNL     1      12.185  18.178  14.386  1.00  0.00     0.161 HD
BRANCH  29  31
HETATM   31  C12 UNL     1      11.411  19.208  12.771  1.00  0.00     0.123 C 
BRANCH  31  32
HETATM   32  C13 UNL     1      11.796  18.031  11.871  1.00  0.00     0.050 C 
BRANCH  32  33
HETATM   33  C14 UNL     1      11.676  16.797  12.708  1.00  0.00     0.274 C 
BRANCH  33  34
HETATM   34  N5  UNL     1      12.553  15.726  12.331  1.00  0.00     0.092 N 
HETATM   35  C15 UNL     1      12.014  14.760  11.442  1.00  0.00     0.298 C 
HETATM   36  C16 UNL     1      12.454  14.842  10.022  1.00  0.00     0.198 C 
HETATM   37  O2  UNL     1      13.797  15.094   9.832  1.00  0.00    -0.388 OA
HETATM   38  C17 UNL     1      14.495  15.247  11.021  1.00  0.00     0.198 C 
HETATM   39  C18 UNL     1      13.823  16.245  11.941  1.00  0.00     0.298 C 
ENDBRANCH  33  34
ENDBRANCH  32  33
ENDBRANCH  31  32
ENDBRANCH  29  31
ENDBRANCH   7  29
BRANCH   1  40
HETATM   40  C6  UNL     1      17.029  24.286  16.891  1.00  0.00     0.251 C 
HETATM   41  N2  UNL     1      18.348  24.659  16.524  1.00  0.00    -0.357 N 
ATOM     42  H2  UNL     1      18.800  24.228  15.718  1.00  0.00     0.162 HD
HETATM   43  O1  UNL     1      16.517  24.852  17.915  1.00  0.00    -0.268 OA
BRANCH  41  44
HETATM   44  C5  UNL     1      19.038  25.648  17.296  1.00  0.00     0.124 C 
BRANCH  44  45
HETATM   45  C4  UNL     1      20.377  25.170  17.792  1.00  0.00     0.050 C 
BRANCH  45  46
HETATM   46  C3  UNL     1      20.143  24.039  18.796  1.00  0.00     0.273 C 
BRANCH  46  47
HETATM   47  N1  UNL     1      19.544  24.639  19.969  1.00  0.00     0.080 N 
HETATM   48  C1  UNL     1      20.579  25.175  20.835  1.00  0.00     0.309 C 
HETATM   49  C2  UNL     1      18.633  23.758  20.646  1.00  0.00     0.309 C 
ENDBRANCH  46  47
ENDBRANCH  45  46
ENDBRANCH  44  45
ENDBRANCH  41  44
ENDBRANCH   1  40
TORSDOF 15
ENDMDL
MODEL 4
REMARK VINA RESULT: -8.636492604      4.543     13.076
REMARK  15 active torsions:
REMARK  status: ('A' for Active; 'I' for Inactive)
REMARK    1  A    between atoms: N1_2  and  C3_4 
REMARK    2  A    between atoms: C3_4  and  C4_5 
REMARK    3  A    between atoms: C4_5  and  C5_6 
REMARK    4  A    between atoms: C5_6  and  N2_7 
REMARK       I    between atoms: N2_7  and  C6_9 
REMARK    5  A    between atoms: C6_9  and  C7_11 
REMARK    6  A    between atoms: C11_17  and  N4_18 
REMARK    7  A    between atoms: N4_18  and  C12_20 
REMARK    8  A    between atoms: C12_20  and  C13_21 
REMARK    9  A    between atoms: C13_21  and  C14_22 
REMARK   10  A    between atoms: C14_22  and  N5_23 
REMARK   11  A    between atoms: C19_29  and  N6_30 
REMARK   12  A    between atoms: C20_32  and  C21_33 
REMARK   13  A    between atoms: C22_34  and  C23_35 
REMARK   14  A    between atoms: C23_35  and  O4_37 
REMARK   15  A    between atoms: O4_37  and  C24_38 
ROOT
HETATM    1  C7  UNL     1      16.305  23.192  16.249  1.00  0.00     0.034 A 
HETATM    2  C8  UNL     1      16.753  22.712  15.025  1.00  0.00     0.019 A 
HETATM    3  C9  UNL     1      15.981  21.840  14.296  1.00  0.00     0.033 A 
HETATM    4  C10 UNL     1      14.746  21.397  14.723  1.00  0.00     0.060 A 
HETATM    5  N3  UNL     1      14.014  20.528  13.993  1.00  0.00    -0.338 N 
ATOM      6  H3  UNL     1      14.362  20.189  13.096  1.00  0.00     0.167 HD
HETATM    7  C11 UNL     1      12.828  20.114  14.454  1.00  0.00     0.146 A 
HETATM    8  C19 UNL     1      12.309  20.562  15.696  1.00  0.00     0.150 A 
HETATM    9  N8  UNL     1      13.111  21.438  16.369  1.00  0.00    -0.338 N 
ATOM     10  H8  UNL     1      12.781  21.789  17.268  1.00  0.00     0.167 HD
HETATM   11  C31 UNL     1      14.297  21.867  15.933  1.00  0.00     0.061 A 
HETATM   12  C32 UNL     1      15.075  22.757  16.684  1.00  0.00     0.049 A 
ENDROOT
BRANCH   8  13
HETATM   13  N6  UNL     1      11.119  20.097  16.088  1.00  0.00    -0.347 N 
HETATM   14  C20 UNL     1      10.431  19.228  16.588  1.00  0.00     0.119 C 
ATOM     15  H6  UNL     1      10.461  20.840  15.849  1.00  0.00     0.167 HD
BRANCH  14  16
HETATM   16  C21 UNL     1      10.729  17.918  17.141  1.00  0.00     0.058 C 
HETATM   17  C22 UNL     1      11.283  17.724  18.329  1.00  0.00     0.046 C 
HETATM   18  C28 UNL     1      11.440  16.230  18.505  1.00  0.00     0.067 C 
HETATM   19  C29 UNL     1      11.552  15.784  17.050  1.00  0.00     0.127 C 
HETATM   20  N7  UNL     1      10.464  16.643  16.531  1.00  0.00    -0.383 N 
HETATM   21  C30 UNL     1       9.417  16.225  15.664  1.00  0.00     0.149 C 
BRANCH  17  22
HETATM   22  C23 UNL     1      11.726  18.652  19.357  1.00  0.00     0.292 C 
HETATM   23  O3  UNL     1      11.303  18.676  20.520  1.00  0.00    -0.259 OA
BRANCH  22  24
HETATM   24  O4  UNL     1      12.698  19.600  19.052  1.00  0.00    -0.307 OA
BRANCH  24  25
HETATM   25  C24 UNL     1      14.061  19.460  19.381  1.00  0.00     0.060 C 
HETATM   26  C25 UNL     1      14.748  20.760  19.707  1.00  0.00     0.046 C 
HETATM   27  C26 UNL     1      14.720  18.870  18.127  1.00  0.00     0.046 C 
HETATM   28  C27 UNL     1      14.306  18.493  20.501  1.00  0.00     0.046 C 
ENDBRANCH  24  25
ENDBRANCH  22  24
ENDBRANCH  17  22
ENDBRANCH  14  16
ENDBRANCH   8  13
BRANCH   7  29
HETATM   29  N4  UNL     1      12.088  19.290  13.810  1.00  0.00    -0.373 N 
ATOM     30  H4  UNL     1      11.976  18.373  14.240  1.00  0.00     0.161 HD
BRANCH  29  31
HETATM   31  C12 UNL     1      11.405  19.473  12.587  1.00  0.00     0.123 C 
BRANCH  31  32
HETATM   32  C13 UNL     1      11.620  18.201  11.761  1.00  0.00     0.050 C 
BRANCH  32  33
HETATM   33  C14 UNL     1      11.430  17.049  12.696  1.00  0.00     0.274 C 
BRANCH  33  34
HETATM   34  N5  UNL     1      12.350  15.965  12.509  1.00  0.00     0.092 N 
HETATM   35  C15 UNL     1      11.850  14.831  11.816  1.00  0.00     0.298 C 
HETATM   36  C16 UNL     1      12.280  14.672  10.399  1.00  0.00     0.198 C 
HETATM   37  O2  UNL     1      13.610  14.941  10.151  1.00  0.00    -0.388 OA
HETATM   38  C17 UNL     1      14.306  15.336  11.283  1.00  0.00     0.198 C 
HETATM   39  C18 UNL     1      13.596  16.456  12.015  1.00  0.00     0.298 C 
ENDBRANCH  33  34
ENDBRANCH  32  33
ENDBRANCH  31  32
ENDBRANCH  29  31
ENDBRANCH   7  29
BRANCH   1  40
HETATM   40  C6  UNL     1      17.143  24.098  17.030  1.00  0.00     0.251 C 
HETATM   41  N2  UNL     1      18.560  24.014  17.080  1.00  0.00    -0.357 N 
ATOM     42  H2  UNL     1      19.051  23.287  16.560  1.00  0.00     0.162 HD
HETATM   43  O1  UNL     1      16.581  25.023  17.708  1.00  0.00    -0.268 OA
BRANCH  41  44
HETATM   44  C5  UNL     1      19.291  24.958  17.869  1.00  0.00     0.124 C 
BRANCH  44  45
HETATM   45  C4  UNL     1      19.831  26.103  17.054  1.00  0.00     0.050 C 
BRANCH  45  46
HETATM   46  C3  UNL     1      20.387  25.541  15.744  1.00  0.00     0.273 C 
BRANCH  46  47
HETATM   47  N1  UNL     1      19.998  26.460  14.696  1.00  0.00     0.080 N 
HETATM   48  C1  UNL     1      20.410  27.809  15.042  1.00  0.00     0.309 C 
HETATM   49  C2  UNL     1      18.607  26.360  14.349  1.00  0.00     0.309 C 
ENDBRANCH  46  47
ENDBRANCH  45  46
ENDBRANCH  44  45
ENDBRANCH  41  44
ENDBRANCH   1  40
TORSDOF 15
ENDMDL
MODEL 5
REMARK VINA RESULT: -8.622011567      4.522     13.046
REMARK  15 active torsions:
REMARK  status: ('A' for Active; 'I' for Inactive)
REMARK    1  A    between atoms: N1_2  and  C3_4 
REMARK    2  A    between atoms: C3_4  and  C4_5 
REMARK    3  A    between atoms: C4_5  and  C5_6 
REMARK    4  A    between atoms: C5_6  and  N2_7 
REMARK       I    between atoms: N2_7  and  C6_9 
REMARK    5  A    between atoms: C6_9  and  C7_11 
REMARK    6  A    between atoms: C11_17  and  N4_18 
REMARK    7  A    between atoms: N4_18  and  C12_20 
REMARK    8  A    between atoms: C12_20  and  C13_21 
REMARK    9  A    between atoms: C13_21  and  C14_22 
REMARK   10  A    between atoms: C14_22  and  N5_23 
REMARK   11  A    between atoms: C19_29  and  N6_30 
REMARK   12  A    between atoms: C20_32  and  C21_33 
REMARK   13  A    between atoms: C22_34  and  C23_35 
REMARK   14  A    between atoms: C23_35  and  O4_37 
REMARK   15  A    between atoms: O4_37  and  C24_38 
ROOT
HETATM    1  C7  UNL     1      16.014  22.999  17.206  1.00  0.00     0.034 A 
HETATM    2  C8  UNL     1      16.721  22.598  16.080  1.00  0.00     0.019 A 
HETATM    3  C9  UNL     1      16.149  21.743  15.168  1.00  0.00     0.033 A 
HETATM    4  C10 UNL     1      14.872  21.242  15.311  1.00  0.00     0.060 A 
HETATM    5  N3  UNL     1      14.339  20.392  14.407  1.00  0.00    -0.338 N 
ATOM      6  H3  UNL     1      14.876  20.112  13.586  1.00  0.00     0.167 HD
HETATM    7  C11 UNL     1      13.101  19.920  14.594  1.00  0.00     0.146 A 
HETATM    8  C19 UNL     1      12.322  20.286  15.722  1.00  0.00     0.150 A 
HETATM    9  N8  UNL     1      12.935  21.148  16.586  1.00  0.00    -0.338 N 
ATOM     10  H8  UNL     1      12.414  21.441  17.412  1.00  0.00     0.167 HD
HETATM   11  C31 UNL     1      14.167  21.634  16.423  1.00  0.00     0.061 A 
HETATM   12  C32 UNL     1      14.739  22.505  17.358  1.00  0.00     0.049 A 
ENDROOT
BRANCH   8  13
HETATM   13  N6  UNL     1      11.096  19.767  15.839  1.00  0.00    -0.347 N 
HETATM   14  C20 UNL     1      10.356  18.855  16.154  1.00  0.00     0.119 C 
ATOM     15  H6  UNL     1      10.474  20.496  15.492  1.00  0.00     0.167 HD
BRANCH  14  16
HETATM   16  C21 UNL     1      10.584  17.534  16.714  1.00  0.00     0.058 C 
HETATM   17  C22 UNL     1      11.009  17.317  17.949  1.00  0.00     0.046 C 
HETATM   18  C28 UNL     1      11.136  15.818  18.117  1.00  0.00     0.067 C 
HETATM   19  C29 UNL     1      11.397  15.395  16.674  1.00  0.00     0.127 C 
HETATM   20  N7  UNL     1      10.376  16.272  16.058  1.00  0.00    -0.383 N 
HETATM   21  C30 UNL     1       9.424  15.876  15.079  1.00  0.00     0.149 C 
BRANCH  17  22
HETATM   22  C23 UNL     1      11.347  18.224  19.034  1.00  0.00     0.292 C 
HETATM   23  O3  UNL     1      10.759  18.281  20.121  1.00  0.00    -0.259 OA
BRANCH  22  24
HETATM   24  O4  UNL     1      12.408  19.112  18.879  1.00  0.00    -0.307 OA
BRANCH  24  25
HETATM   25  C24 UNL     1      13.712  18.867  19.353  1.00  0.00     0.060 C 
HETATM   26  C25 UNL     1      14.417  20.095  19.867  1.00  0.00     0.046 C 
HETATM   27  C26 UNL     1      14.490  18.340  18.139  1.00  0.00     0.046 C 
HETATM   28  C27 UNL     1      13.771  17.803  20.407  1.00  0.00     0.046 C 
ENDBRANCH  24  25
ENDBRANCH  22  24
ENDBRANCH  17  22
ENDBRANCH  14  16
ENDBRANCH   8  13
BRANCH   7  29
HETATM   29  N4  UNL     1      12.541  19.111  13.774  1.00  0.00    -0.373 N 
ATOM     30  H4  UNL     1      12.250  18.217  14.171  1.00  0.00     0.161 HD
BRANCH  29  31
HETATM   31  C12 UNL     1      12.270  19.280  12.399  1.00  0.00     0.123 C 
BRANCH  31  32
HETATM   32  C13 UNL     1      11.213  18.238  12.020  1.00  0.00     0.050 C 
BRANCH  32  33
HETATM   33  C14 UNL     1       9.903  18.758  12.523  1.00  0.00     0.274 C 
BRANCH  33  34
HETATM   34  N5  UNL     1       9.554  20.066  12.052  1.00  0.00     0.092 N 
HETATM   35  C15 UNL     1       8.900  20.125  10.793  1.00  0.00     0.298 C 
HETATM   36  C16 UNL     1       7.433  20.378  10.816  1.00  0.00     0.198 C 
HETATM   37  O2  UNL     1       7.011  21.337  11.714  1.00  0.00    -0.388 OA
HETATM   38  C17 UNL     1       8.049  21.881  12.456  1.00  0.00     0.198 C 
HETATM   39  C18 UNL     1       8.910  20.806  13.088  1.00  0.00     0.298 C 
ENDBRANCH  33  34
ENDBRANCH  32  33
ENDBRANCH  31  32
ENDBRANCH  29  31
ENDBRANCH   7  29
BRANCH   1  40
HETATM   40  C6  UNL     1      16.639  23.886  18.183  1.00  0.00     0.251 C 
HETATM   41  N2  UNL     1      17.211  23.437  19.403  1.00  0.00    -0.357 N 
ATOM     42  H2  UNL     1      17.196  22.447  19.645  1.00  0.00     0.162 HD
HETATM   43  O1  UNL     1      16.680  25.138  17.937  1.00  0.00    -0.268 OA
BRANCH  41  44
HETATM   44  C5  UNL     1      17.810  24.389  20.289  1.00  0.00     0.124 C 
BRANCH  44  45
HETATM   45  C4  UNL     1      19.212  24.012  20.688  1.00  0.00     0.050 C 
BRANCH  45  46
HETATM   46  C3  UNL     1      20.009  23.707  19.417  1.00  0.00     0.273 C 
BRANCH  46  47
HETATM   47  N1  UNL     1      20.256  24.975  18.764  1.00  0.00     0.080 N 
HETATM   48  C1  UNL     1      20.143  24.821  17.325  1.00  0.00     0.309 C 
HETATM   49  C2  UNL     1      21.487  25.588  19.178  1.00  0.00     0.309 C 
ENDBRANCH  46  47
ENDBRANCH  45  46
ENDBRANCH  44  45
ENDBRANCH  41  44
ENDBRANCH   1  40
TORSDOF 15
ENDMDL
