MODEL 1
REMARK VINA RESULT: -8.789770172      0.000      0.000
REMARK  19 active torsions:
REMARK  status: ('A' for Active; 'I' for Inactive)
REMARK    1  A    between atoms: C2_2  and  C3_3 
REMARK    2  A    between atoms: C3_3  and  C4_4 
REMARK    3  A    between atoms: C4_4  and  C5_5 
REMARK    4  A    between atoms: C5_5  and  C6_6 
REMARK    5  A    between atoms: C5_5  and  C20_30 
REMARK    6  A    between atoms: C6_6  and  C7_7 
REMARK    7  A    between atoms: C7_7  and  O1_8 
REMARK    8  A    between atoms: N1_10  and  C8_12 
REMARK    9  A    between atoms: C8_12  and  C17_27 
REMARK   10  A    between atoms: C9_13  and  O2_14 
REMARK   11  A    between atoms: C9_13  and  N2_16 
REMARK       I    between atoms: N3_19  and  C12_20 
REMARK   12  A    between atoms: C12_20  and  O4_22 
REMARK   13  A    between atoms: O4_22  and  C13_23 
REMARK   14  A    between atoms: C20_30  and  N6_36 
REMARK   15  A    between atoms: N4_31  and  C21_33 
REMARK   16  A    between atoms: N6_36  and  C23_38 
REMARK   17  A    between atoms: C24_43  and  C25_44 
REMARK   18  A    between atoms: C25_44  and  C28_47 
REMARK   19  A    between atoms: C28_47  and  O5_48 
ROOT
HETATM    1  C21 UNL     1      17.819  21.171  19.088  1.00  0.00     0.245 C 
HETATM    2  C22 UNL     1      19.065  21.395  19.819  1.00  0.00     0.078 C 
HETATM    3  N5  UNL     1      20.054  21.569  20.399  1.00  0.00    -0.196 NA
ENDROOT
BRANCH   1   4
HETATM    4  N4  UNL     1      17.545  22.128  18.072  1.00  0.00    -0.367 N 
HETATM    5  C20 UNL     1      16.479  22.738  17.845  1.00  0.00     0.084 C 
ATOM      6  H4  UNL     1      18.320  22.345  17.447  1.00  0.00     0.161 HD
BRANCH   5   7
HETATM    7  C5  UNL     1      16.414  23.729  16.691  1.00  0.00     0.060 C 
BRANCH   7   8
HETATM    8  C4  UNL     1      15.618  23.253  15.538  1.00  0.00     0.013 C 
BRANCH   8   9
HETATM    9  C3  UNL     1      16.459  22.407  14.618  1.00  0.00     0.000 C 
BRANCH   9  10
HETATM   10  C2  UNL     1      15.629  21.723  13.534  1.00  0.00    -0.005 C 
HETATM   11  C1  UNL     1      14.584  20.882  14.263  1.00  0.00     0.005 C 
ENDBRANCH   9  10
ENDBRANCH   8   9
ENDBRANCH   7   8
BRANCH   7  12
HETATM   12  C6  UNL     1      17.844  24.084  16.389  1.00  0.00     0.096 C 
BRANCH  12  13
HETATM   13  C7  UNL     1      18.492  25.171  17.081  1.00  0.00     0.116 C 
HETATM   14  N1  UNL     1      19.356  26.167  16.828  1.00  0.00    -0.340 N 
ATOM     15  H1  UNL     1      18.877  26.786  16.174  1.00  0.00     0.167 HD
BRANCH  13  16
HETATM   16  O1  UNL     1      18.122  25.217  18.404  1.00  0.00    -0.349 OA
ATOM     17  H1  UNL     1      18.754  25.699  18.925  1.00  0.00     0.219 HD
ENDBRANCH  13  16
BRANCH  14  18
HETATM   18  C8  UNL     1      20.452  26.674  17.020  1.00  0.00     0.065 C 
HETATM   19  C9  UNL     1      21.281  26.910  18.162  1.00  0.00     0.161 C 
BRANCH  19  20
HETATM   20  O2  UNL     1      22.341  27.660  17.927  1.00  0.00    -0.345 OA
ATOM     21  H2  UNL     1      23.144  27.175  17.782  1.00  0.00     0.219 HD
ENDBRANCH  19  20
BRANCH  19  22
HETATM   22  N2  UNL     1      21.196  26.504  19.501  1.00  0.00    -0.357 N 
HETATM   23  C10 UNL     1      20.723  25.285  20.066  1.00  0.00     0.145 C 
HETATM   24  C11 UNL     1      21.942  24.632  20.829  1.00  0.00     0.148 C 
HETATM   25  N3  UNL     1      22.820  25.679  21.224  1.00  0.00    -0.325 N 
HETATM   26  C12 UNL     1      24.204  25.775  21.177  1.00  0.00     0.362 C 
HETATM   27  C15 UNL     1      22.100  26.894  21.728  1.00  0.00     0.148 C 
HETATM   28  O3  UNL     1      24.792  26.817  21.614  1.00  0.00    -0.238 OA
HETATM   29  C16 UNL     1      21.560  27.568  20.493  1.00  0.00     0.145 C 
BRANCH  26  30
HETATM   30  O4  UNL     1      25.077  24.802  20.668  1.00  0.00    -0.304 OA
BRANCH  30  31
HETATM   31  C13 UNL     1      25.385  24.790  19.271  1.00  0.00     0.176 C 
HETATM   32  C14 UNL     1      26.021  23.499  18.830  1.00  0.00     0.034 C 
ENDBRANCH  30  31
ENDBRANCH  26  30
ENDBRANCH  19  22
BRANCH  18  33
HETATM   33  C17 UNL     1      21.095  27.229  15.713  1.00  0.00     0.032 C 
HETATM   34  C18 UNL     1      19.997  27.861  14.897  1.00  0.00     0.016 C 
HETATM   35  C19 UNL     1      21.726  26.128  14.922  1.00  0.00     0.016 C 
ENDBRANCH  18  33
ENDBRANCH  14  18
ENDBRANCH  12  13
ENDBRANCH   7  12
ENDBRANCH   5   7
BRANCH   5  36
HETATM   36  N6  UNL     1      15.255  22.644  18.627  1.00  0.00    -0.325 N 
ATOM     37  H6  UNL     1      15.005  23.414  19.248  1.00  0.00     0.169 HD
BRANCH  36  38
HETATM   38  C23 UNL     1      14.470  21.610  18.558  1.00  0.00     0.166 A 
HETATM   39  N7  UNL     1      13.407  21.415  17.754  1.00  0.00    -0.279 N 
HETATM   40  N8  UNL     1      12.751  20.330  17.912  1.00  0.00    -0.295 N 
ATOM     41  H7  UNL     1      13.137  22.102  17.050  1.00  0.00     0.189 HD
HETATM   42  C24 UNL     1      13.084  19.444  18.802  1.00  0.00     0.079 A 
ATOM     43  H8  UNL     1      11.939  20.153  17.320  1.00  0.00     0.187 HD
HETATM   44  S1  UNL     1      14.448  20.180  19.499  1.00  0.00    -0.037 SA
BRANCH  42  45
HETATM   45  C25 UNL     1      12.369  18.152  19.065  1.00  0.00     0.024 C 
HETATM   46  C26 UNL     1      11.004  18.170  18.437  1.00  0.00     0.024 C 
HETATM   47  C27 UNL     1      12.159  18.130  20.574  1.00  0.00     0.024 C 
BRANCH  45  48
HETATM   48  C28 UNL     1      13.121  16.966  18.595  1.00  0.00     0.179 C 
BRANCH  48  49
HETATM   49  O5  UNL     1      12.525  16.457  17.452  1.00  0.00    -0.400 OA
ATOM     50  H5  UNL     1      11.602  16.299  17.615  1.00  0.00     0.209 HD
ENDBRANCH  48  49
ENDBRANCH  45  48
ENDBRANCH  42  45
ENDBRANCH  36  38
ENDBRANCH   5  36
ENDBRANCH   1   4
TORSDOF 19
ENDMDL
MODEL 2
REMARK VINA RESULT: -8.789720178      1.210      1.408
REMARK  19 active torsions:
REMARK  status: ('A' for Active; 'I' for Inactive)
REMARK    1  A    between atoms: C2_2  and  C3_3 
REMARK    2  A    between atoms: C3_3  and  C4_4 
REMARK    3  A    between atoms: C4_4  and  C5_5 
REMARK    4  A    between atoms: C5_5  and  C6_6 
REMARK    5  A    between atoms: C5_5  and  C20_30 
REMARK    6  A    between atoms: C6_6  and  C7_7 
REMARK    7  A    between atoms: C7_7  and  O1_8 
REMARK    8  A    between atoms: N1_10  and  C8_12 
REMARK    9  A    between atoms: C8_12  and  C17_27 
REMARK   10  A    between atoms: C9_13  and  O2_14 
REMARK   11  A    between atoms: C9_13  and  N2_16 
REMARK       I    between atoms: N3_19  and  C12_20 
REMARK   12  A    between atoms: C12_20  and  O4_22 
REMARK   13  A    between atoms: O4_22  and  C13_23 
REMARK   14  A    between atoms: C20_30  and  N6_36 
REMARK   15  A    between atoms: N4_31  and  C21_33 
REMARK   16  A    between atoms: N6_36  and  C23_38 
REMARK   17  A    between atoms: C24_43  and  C25_44 
REMARK   18  A    between atoms: C25_44  and  C28_47 
REMARK   19  A    between atoms: C28_47  and  O5_48 
ROOT
HETATM    1  C21 UNL     1      17.940  22.887  19.919  1.00  0.00     0.245 C 
HETATM    2  C22 UNL     1      18.945  21.836  20.071  1.00  0.00     0.078 C 
HETATM    3  N5  UNL     1      19.740  21.001  20.194  1.00  0.00    -0.196 NA
ENDROOT
BRANCH   1   4
HETATM    4  N4  UNL     1      17.717  23.308  18.578  1.00  0.00    -0.367 N 
HETATM    5  C20 UNL     1      16.631  23.463  17.982  1.00  0.00     0.084 C 
ATOM      6  H4  UNL     1      18.554  23.511  18.033  1.00  0.00     0.161 HD
BRANCH   5   7
HETATM    7  C5  UNL     1      16.632  23.927  16.532  1.00  0.00     0.060 C 
BRANCH   7   8
HETATM    8  C4  UNL     1      17.308  22.994  15.605  1.00  0.00     0.013 C 
BRANCH   8   9
HETATM    9  C3  UNL     1      16.461  21.772  15.363  1.00  0.00     0.000 C 
BRANCH   9  10
HETATM   10  C2  UNL     1      15.643  21.875  14.077  1.00  0.00    -0.005 C 
HETATM   11  C1  UNL     1      14.533  20.834  14.193  1.00  0.00     0.005 C 
ENDBRANCH   9  10
ENDBRANCH   8   9
ENDBRANCH   7   8
BRANCH   7  12
HETATM   12  C6  UNL     1      17.184  25.326  16.562  1.00  0.00     0.096 C 
BRANCH  12  13
HETATM   13  C7  UNL     1      18.474  25.618  15.985  1.00  0.00     0.116 C 
HETATM   14  N1  UNL     1      19.776  25.445  16.263  1.00  0.00    -0.340 N 
ATOM     15  H1  UNL     1      19.928  24.436  16.249  1.00  0.00     0.167 HD
BRANCH  13  16
HETATM   16  O1  UNL     1      18.350  26.271  14.782  1.00  0.00    -0.349 OA
ATOM     17  H1  UNL     1      17.455  26.551  14.628  1.00  0.00     0.219 HD
ENDBRANCH  13  16
BRANCH  14  18
HETATM   18  C8  UNL     1      20.863  25.940  16.526  1.00  0.00     0.065 C 
HETATM   19  C9  UNL     1      21.514  26.398  17.715  1.00  0.00     0.161 C 
BRANCH  19  20
HETATM   20  O2  UNL     1      22.653  27.033  17.507  1.00  0.00    -0.345 OA
ATOM     21  H2  UNL     1      22.679  27.919  17.848  1.00  0.00     0.219 HD
ENDBRANCH  19  20
BRANCH  19  22
HETATM   22  N2  UNL     1      21.186  26.314  19.075  1.00  0.00    -0.357 N 
HETATM   23  C10 UNL     1      20.495  25.297  19.794  1.00  0.00     0.145 C 
HETATM   24  C11 UNL     1      21.501  24.735  20.872  1.00  0.00     0.148 C 
HETATM   25  N3  UNL     1      22.429  25.768  21.182  1.00  0.00    -0.325 N 
HETATM   26  C12 UNL     1      23.806  25.736  21.351  1.00  0.00     0.362 C 
HETATM   27  C15 UNL     1      21.791  27.120  21.291  1.00  0.00     0.148 C 
HETATM   28  O3  UNL     1      24.443  26.797  21.654  1.00  0.00    -0.238 OA
HETATM   29  C16 UNL     1      21.522  27.541  19.868  1.00  0.00     0.145 C 
BRANCH  26  30
HETATM   30  O4  UNL     1      24.624  24.604  21.214  1.00  0.00    -0.304 OA
BRANCH  30  31
HETATM   31  C13 UNL     1      25.405  24.436  20.026  1.00  0.00     0.176 C 
HETATM   32  C14 UNL     1      25.375  23.023  19.509  1.00  0.00     0.034 C 
ENDBRANCH  30  31
ENDBRANCH  26  30
ENDBRANCH  19  22
BRANCH  18  33
HETATM   33  C17 UNL     1      21.747  26.155  15.260  1.00  0.00     0.032 C 
HETATM   34  C18 UNL     1      21.275  27.415  14.583  1.00  0.00     0.016 C 
HETATM   35  C19 UNL     1      21.609  25.005  14.314  1.00  0.00     0.016 C 
ENDBRANCH  18  33
ENDBRANCH  14  18
ENDBRANCH  12  13
ENDBRANCH   7  12
ENDBRANCH   5   7
BRANCH   5  36
HETATM   36  N6  UNL     1      15.305  23.294  18.559  1.00  0.00    -0.325 N 
ATOM     37  H6  UNL     1      14.851  24.095  18.997  1.00  0.00     0.169 HD
BRANCH  36  38
HETATM   38  C23 UNL     1      14.681  22.154  18.531  1.00  0.00     0.166 A 
HETATM   39  N7  UNL     1      13.670  21.769  17.729  1.00  0.00    -0.279 N 
HETATM   40  N8  UNL     1      13.177  20.608  17.931  1.00  0.00    -0.295 N 
ATOM     41  H7  UNL     1      13.313  22.377  16.992  1.00  0.00     0.189 HD
HETATM   42  C24 UNL     1      13.624  19.821  18.864  1.00  0.00     0.079 A 
ATOM     43  H8  UNL     1      12.409  20.288  17.342  1.00  0.00     0.187 HD
HETATM   44  S1  UNL     1      14.855  20.780  19.537  1.00  0.00    -0.037 SA
BRANCH  42  45
HETATM   45  C25 UNL     1      13.101  18.451  19.181  1.00  0.00     0.024 C 
HETATM   46  C26 UNL     1      14.046  17.398  18.673  1.00  0.00     0.024 C 
HETATM   47  C27 UNL     1      11.823  18.329  18.363  1.00  0.00     0.024 C 
BRANCH  45  48
HETATM   48  C28 UNL     1      12.853  18.245  20.627  1.00  0.00     0.179 C 
BRANCH  48  49
HETATM   49  O5  UNL     1      11.605  18.745  20.963  1.00  0.00    -0.400 OA
ATOM     50  H5  UNL     1      11.619  19.069  21.856  1.00  0.00     0.209 HD
ENDBRANCH  48  49
ENDBRANCH  45  48
ENDBRANCH  42  45
ENDBRANCH  36  38
ENDBRANCH   5  36
ENDBRANCH   1   4
TORSDOF 19
ENDMDL
MODEL 3
REMARK VINA RESULT: -8.610901770      3.317     11.295
REMARK  19 active torsions:
REMARK  status: ('A' for Active; 'I' for Inactive)
REMARK    1  A    between atoms: C2_2  and  C3_3 
REMARK    2  A    between atoms: C3_3  and  C4_4 
REMARK    3  A    between atoms: C4_4  and  C5_5 
REMARK    4  A    between atoms: C5_5  and  C6_6 
REMARK    5  A    between atoms: C5_5  and  C20_30 
REMARK    6  A    between atoms: C6_6  and  C7_7 
REMARK    7  A    between atoms: C7_7  and  O1_8 
REMARK    8  A    between atoms: N1_10  and  C8_12 
REMARK    9  A    between atoms: C8_12  and  C17_27 
REMARK   10  A    between atoms: C9_13  and  O2_14 
REMARK   11  A    between atoms: C9_13  and  N2_16 
REMARK       I    between atoms: N3_19  and  C12_20 
REMARK   12  A    between atoms: C12_20  and  O4_22 
REMARK   13  A    between atoms: O4_22  and  C13_23 
REMARK   14  A    between atoms: C20_30  and  N6_36 
REMARK   15  A    between atoms: N4_31  and  C21_33 
REMARK   16  A    between atoms: N6_36  and  C23_38 
REMARK   17  A    between atoms: C24_43  and  C25_44 
REMARK   18  A    between atoms: C25_44  and  C28_47 
REMARK   19  A    between atoms: C28_47  and  O5_48 
ROOT
HETATM    1  C21 UNL     1      15.210  22.868  15.128  1.00  0.00     0.245 C 
HETATM    2  C22 UNL     1      15.374  21.881  14.062  1.00  0.00     0.078 C 
HETATM    3  N5  UNL     1      15.507  21.100  13.215  1.00  0.00    -0.196 NA
ENDROOT
BRANCH   1   4
HETATM    4  N4  UNL     1      15.454  22.375  16.440  1.00  0.00    -0.367 N 
HETATM    5  C20 UNL     1      15.845  23.002  17.447  1.00  0.00     0.084 C 
ATOM      6  H4  UNL     1      15.288  21.378  16.577  1.00  0.00     0.161 HD
BRANCH   5   7
HETATM    7  C5  UNL     1      16.038  22.261  18.763  1.00  0.00     0.060 C 
BRANCH   7   8
HETATM    8  C4  UNL     1      17.053  21.186  18.699  1.00  0.00     0.013 C 
BRANCH   8   9
HETATM    9  C3  UNL     1      18.441  21.749  18.856  1.00  0.00     0.000 C 
BRANCH   9  10
HETATM   10  C2  UNL     1      19.129  21.262  20.130  1.00  0.00    -0.005 C 
HETATM   11  C1  UNL     1      20.135  22.343  20.511  1.00  0.00     0.005 C 
ENDBRANCH   9  10
ENDBRANCH   8   9
ENDBRANCH   7   8
BRANCH   7  12
HETATM   12  C6  UNL     1      14.661  21.829  19.183  1.00  0.00     0.096 C 
BRANCH  12  13
HETATM   13  C7  UNL     1      14.302  20.431  19.196  1.00  0.00     0.116 C 
HETATM   14  N1  UNL     1      13.925  19.471  18.337  1.00  0.00    -0.340 N 
ATOM     15  H1  UNL     1      14.725  19.323  17.721  1.00  0.00     0.167 HD
BRANCH  13  16
HETATM   16  O1  UNL     1      14.357  19.909  20.465  1.00  0.00    -0.349 OA
ATOM     17  H1  UNL     1      13.615  19.342  20.641  1.00  0.00     0.219 HD
ENDBRANCH  13  16
BRANCH  14  18
HETATM   18  C8  UNL     1      13.065  18.690  17.953  1.00  0.00     0.065 C 
HETATM   19  C9  UNL     1      11.935  18.767  17.079  1.00  0.00     0.161 C 
BRANCH  19  20
HETATM   20  O2  UNL     1      11.161  17.697  17.085  1.00  0.00    -0.345 OA
ATOM     21  H2  UNL     1      10.234  17.880  17.176  1.00  0.00     0.219 HD
ENDBRANCH  19  20
BRANCH  19  22
HETATM   22  N2  UNL     1      11.470  19.761  16.207  1.00  0.00    -0.357 N 
HETATM   23  C10 UNL     1      12.189  20.728  15.446  1.00  0.00     0.145 C 
HETATM   24  C11 UNL     1      11.877  20.438  13.926  1.00  0.00     0.148 C 
HETATM   25  N3  UNL     1      10.602  19.810  13.855  1.00  0.00    -0.325 N 
HETATM   26  C12 UNL     1      10.159  18.727  13.109  1.00  0.00     0.362 C 
HETATM   27  C15 UNL     1       9.597  20.409  14.793  1.00  0.00     0.148 C 
HETATM   28  O3  UNL     1       8.947  18.343  13.188  1.00  0.00    -0.238 OA
HETATM   29  C16 UNL     1       9.978  19.890  16.157  1.00  0.00     0.145 C 
BRANCH  26  30
HETATM   30  O4  UNL     1      10.941  17.960  12.232  1.00  0.00    -0.304 OA
BRANCH  30  31
HETATM   31  C13 UNL     1      11.670  16.836  12.735  1.00  0.00     0.176 C 
HETATM   32  C14 UNL     1      12.955  16.600  11.988  1.00  0.00     0.034 C 
ENDBRANCH  30  31
ENDBRANCH  26  30
ENDBRANCH  19  22
BRANCH  18  33
HETATM   33  C17 UNL     1      13.210  17.275  18.591  1.00  0.00     0.032 C 
HETATM   34  C18 UNL     1      12.643  17.342  19.985  1.00  0.00     0.016 C 
HETATM   35  C19 UNL     1      14.647  16.869  18.661  1.00  0.00     0.016 C 
ENDBRANCH  18  33
ENDBRANCH  14  18
ENDBRANCH  12  13
ENDBRANCH   7  12
ENDBRANCH   5   7
BRANCH   5  36
HETATM   36  N6  UNL     1      16.093  24.434  17.521  1.00  0.00    -0.325 N 
ATOM     37  H6  UNL     1      15.334  25.054  17.802  1.00  0.00     0.169 HD
BRANCH  36  38
HETATM   38  C23 UNL     1      17.255  24.947  17.242  1.00  0.00     0.166 A 
HETATM   39  N7  UNL     1      18.276  25.219  18.078  1.00  0.00    -0.279 N 
HETATM   40  N8  UNL     1      19.306  25.781  17.573  1.00  0.00    -0.295 N 
ATOM     41  H7  UNL     1      18.230  24.985  19.070  1.00  0.00     0.189 HD
HETATM   42  C24 UNL     1      19.381  26.082  16.311  1.00  0.00     0.079 A 
ATOM     43  H8  UNL     1      20.095  26.002  18.180  1.00  0.00     0.187 HD
HETATM   44  S1  UNL     1      17.871  25.532  15.755  1.00  0.00    -0.037 SA
BRANCH  42  45
HETATM   45  C25 UNL     1      20.540  26.751  15.635  1.00  0.00     0.024 C 
HETATM   46  C26 UNL     1      21.315  27.581  16.620  1.00  0.00     0.024 C 
HETATM   47  C27 UNL     1      19.903  27.719  14.648  1.00  0.00     0.024 C 
BRANCH  45  48
HETATM   48  C28 UNL     1      21.450  25.796  14.961  1.00  0.00     0.179 C 
BRANCH  48  49
HETATM   49  O5  UNL     1      20.989  24.502  15.147  1.00  0.00    -0.400 OA
ATOM     50  H5  UNL     1      20.207  24.363  14.625  1.00  0.00     0.209 HD
ENDBRANCH  48  49
ENDBRANCH  45  48
ENDBRANCH  42  45
ENDBRANCH  36  38
ENDBRANCH   5  36
ENDBRANCH   1   4
TORSDOF 19
ENDMDL
MODEL 4
REMARK VINA RESULT: -8.601057803      3.588     11.813
REMARK  19 active torsions:
REMARK  status: ('A' for Active; 'I' for Inactive)
REMARK    1  A    between atoms: C2_2  and  C3_3 
REMARK    2  A    between atoms: C3_3  and  C4_4 
REMARK    3  A    between atoms: C4_4  and  C5_5 
REMARK    4  A    between atoms: C5_5  and  C6_6 
REMARK    5  A    between atoms: C5_5  and  C20_30 
REMARK    6  A    between atoms: C6_6  and  C7_7 
REMARK    7  A    between atoms: C7_7  and  O1_8 
REMARK    8  A    between atoms: N1_10  and  C8_12 
REMARK    9  A    between atoms: C8_12  and  C17_27 
REMARK   10  A    between atoms: C9_13  and  O2_14 
REMARK   11  A    between atoms: C9_13  and  N2_16 
REMARK       I    between atoms: N3_19  and  C12_20 
REMARK   12  A    between atoms: C12_20  and  O4_22 
REMARK   13  A    between atoms: O4_22  and  C13_23 
REMARK   14  A    between atoms: C20_30  and  N6_36 
REMARK   15  A    between atoms: N4_31  and  C21_33 
REMARK   16  A    between atoms: N6_36  and  C23_38 
REMARK   17  A    between atoms: C24_43  and  C25_44 
REMARK   18  A    between atoms: C25_44  and  C28_47 
REMARK   19  A    between atoms: C28_47  and  O5_48 
ROOT
HETATM    1  C21 UNL     1      14.291  21.629  14.681  1.00  0.00     0.245 C 
HETATM    2  C22 UNL     1      15.252  21.698  13.581  1.00  0.00     0.078 C 
HETATM    3  N5  UNL     1      16.013  21.757  12.708  1.00  0.00    -0.196 NA
ENDROOT
BRANCH   1   4
HETATM    4  N4  UNL     1      14.770  20.973  15.850  1.00  0.00    -0.367 N 
HETATM    5  C20 UNL     1      15.112  21.478  16.939  1.00  0.00     0.084 C 
ATOM      6  H4  UNL     1      14.842  19.958  15.790  1.00  0.00     0.161 HD
BRANCH   5   7
HETATM    7  C5  UNL     1      15.597  20.573  18.064  1.00  0.00     0.060 C 
BRANCH   7   8
HETATM    8  C4  UNL     1      17.063  20.594  18.259  1.00  0.00     0.013 C 
BRANCH   8   9
HETATM    9  C3  UNL     1      17.429  21.376  19.493  1.00  0.00     0.000 C 
BRANCH   9  10
HETATM   10  C2  UNL     1      18.671  22.241  19.290  1.00  0.00    -0.005 C 
HETATM   11  C1  UNL     1      18.544  23.406  20.268  1.00  0.00     0.005 C 
ENDBRANCH   9  10
ENDBRANCH   8   9
ENDBRANCH   7   8
BRANCH   7  12
HETATM   12  C6  UNL     1      15.001  19.223  17.775  1.00  0.00     0.096 C 
BRANCH  12  13
HETATM   13  C7  UNL     1      13.617  18.952  18.078  1.00  0.00     0.116 C 
HETATM   14  N1  UNL     1      12.641  18.106  17.709  1.00  0.00    -0.340 N 
ATOM     15  H1  UNL     1      12.952  17.181  18.007  1.00  0.00     0.167 HD
BRANCH  13  16
HETATM   16  O1  UNL     1      13.133  19.812  19.035  1.00  0.00    -0.349 OA
ATOM     17  H1  UNL     1      13.142  19.414  19.897  1.00  0.00     0.219 HD
ENDBRANCH  13  16
BRANCH  14  18
HETATM   18  C8  UNL     1      11.552  17.934  17.180  1.00  0.00     0.065 C 
HETATM   19  C9  UNL     1      10.873  18.473  16.042  1.00  0.00     0.161 C 
BRANCH  19  20
HETATM   20  O2  UNL     1       9.608  18.113  15.935  1.00  0.00    -0.345 OA
ATOM     21  H2  UNL     1       9.408  17.598  15.162  1.00  0.00     0.219 HD
ENDBRANCH  19  20
BRANCH  19  22
HETATM   22  N2  UNL     1      11.281  19.320  15.003  1.00  0.00    -0.357 N 
HETATM   23  C10 UNL     1      12.153  19.075  13.903  1.00  0.00     0.145 C 
HETATM   24  C11 UNL     1      11.299  19.272  12.590  1.00  0.00     0.148 C 
HETATM   25  N3  UNL     1      10.245  20.180  12.888  1.00  0.00    -0.325 N 
HETATM   26  C12 UNL     1       8.898  20.156  12.551  1.00  0.00     0.362 C 
HETATM   27  C15 UNL     1      10.678  21.323  13.756  1.00  0.00     0.148 C 
HETATM   28  O3  UNL     1       8.127  21.103  12.913  1.00  0.00    -0.238 OA
HETATM   29  C16 UNL     1      10.807  20.736  15.139  1.00  0.00     0.145 C 
BRANCH  26  30
HETATM   30  O4  UNL     1       8.253  19.146  11.822  1.00  0.00    -0.304 OA
BRANCH  30  31
HETATM   31  C13 UNL     1       7.804  19.414  10.489  1.00  0.00     0.176 C 
HETATM   32  C14 UNL     1       8.930  19.796   9.566  1.00  0.00     0.034 C 
ENDBRANCH  30  31
ENDBRANCH  26  30
ENDBRANCH  19  22
BRANCH  18  33
HETATM   33  C17 UNL     1      10.670  16.900  17.945  1.00  0.00     0.032 C 
HETATM   34  C18 UNL     1      10.734  17.242  19.411  1.00  0.00     0.016 C 
HETATM   35  C19 UNL     1      11.182  15.511  17.740  1.00  0.00     0.016 C 
ENDBRANCH  18  33
ENDBRANCH  14  18
ENDBRANCH  12  13
ENDBRANCH   7  12
ENDBRANCH   5   7
BRANCH   5  36
HETATM   36  N6  UNL     1      15.045  22.889  17.289  1.00  0.00    -0.325 N 
ATOM     37  H6  UNL     1      14.180  23.260  17.684  1.00  0.00     0.169 HD
BRANCH  36  38
HETATM   38  C23 UNL     1      16.053  23.691  17.115  1.00  0.00     0.166 A 
HETATM   39  N7  UNL     1      16.318  24.855  17.741  1.00  0.00    -0.279 N 
HETATM   40  N8  UNL     1      17.350  25.500  17.353  1.00  0.00    -0.295 N 
ATOM     41  H7  UNL     1      15.722  25.205  18.490  1.00  0.00     0.189 HD
HETATM   42  C24 UNL     1      18.121  25.065  16.402  1.00  0.00     0.079 A 
ATOM     43  H8  UNL     1      17.577  26.385  17.805  1.00  0.00     0.187 HD
HETATM   44  S1  UNL     1      17.343  23.609  15.993  1.00  0.00    -0.037 SA
BRANCH  42  45
HETATM   45  C25 UNL     1      19.342  25.758  15.874  1.00  0.00     0.024 C 
HETATM   46  C26 UNL     1      19.003  26.559  14.648  1.00  0.00     0.024 C 
HETATM   47  C27 UNL     1      20.260  24.629  15.424  1.00  0.00     0.024 C 
BRANCH  45  48
HETATM   48  C28 UNL     1      19.992  26.631  16.879  1.00  0.00     0.179 C 
BRANCH  48  49
HETATM   49  O5  UNL     1      20.000  25.999  18.112  1.00  0.00    -0.400 OA
ATOM     50  H5  UNL     1      19.712  26.605  18.785  1.00  0.00     0.209 HD
ENDBRANCH  48  49
ENDBRANCH  45  48
ENDBRANCH  42  45
ENDBRANCH  36  38
ENDBRANCH   5  36
ENDBRANCH   1   4
TORSDOF 19
ENDMDL
MODEL 5
REMARK VINA RESULT: -8.438146289      3.179     11.137
REMARK  19 active torsions:
REMARK  status: ('A' for Active; 'I' for Inactive)
REMARK    1  A    between atoms: C2_2  and  C3_3 
REMARK    2  A    between atoms: C3_3  and  C4_4 
REMARK    3  A    between atoms: C4_4  and  C5_5 
REMARK    4  A    between atoms: C5_5  and  C6_6 
REMARK    5  A    between atoms: C5_5  and  C20_30 
REMARK    6  A    between atoms: C6_6  and  C7_7 
REMARK    7  A    between atoms: C7_7  and  O1_8 
REMARK    8  A    between atoms: N1_10  and  C8_12 
REMARK    9  A    between atoms: C8_12  and  C17_27 
REMARK   10  A    between atoms: C9_13  and  O2_14 
REMARK   11  A    between atoms: C9_13  and  N2_16 
REMARK       I    between atoms: N3_19  and  C12_20 
REMARK   12  A    between atoms: C12_20  and  O4_22 
REMARK   13  A    between atoms: O4_22  and  C13_23 
REMARK   14  A    between atoms: C20_30  and  N6_36 
REMARK   15  A    between atoms: N4_31  and  C21_33 
REMARK   16  A    between atoms: N6_36  and  C23_38 
REMARK   17  A    between atoms: C24_43  and  C25_44 
REMARK   18  A    between atoms: C25_44  and  C28_47 
REMARK   19  A    between atoms: C28_47  and  O5_48 
ROOT
HETATM    1  C21 UNL     1      16.680  22.921  14.578  1.00  0.00     0.245 C 
HETATM    2  C22 UNL     1      15.859  21.785  14.160  1.00  0.00     0.078 C 
HETATM    3  N5  UNL     1      15.211  20.883  13.828  1.00  0.00    -0.196 NA
ENDROOT
BRANCH   1   4
HETATM    4  N4  UNL     1      16.485  23.334  15.925  1.00  0.00    -0.367 N 
HETATM    5  C20 UNL     1      17.319  23.381  16.853  1.00  0.00     0.084 C 
ATOM      6  H4  UNL     1      15.539  23.630  16.166  1.00  0.00     0.161 HD
BRANCH   5   7
HETATM    7  C5  UNL     1      16.882  23.862  18.230  1.00  0.00     0.060 C 
BRANCH   7   8
HETATM    8  C4  UNL     1      17.206  22.918  19.323  1.00  0.00     0.013 C 
BRANCH   8   9
HETATM    9  C3  UNL     1      18.010  23.600  20.399  1.00  0.00     0.000 C 
BRANCH   9  10
HETATM   10  C2  UNL     1      19.367  22.936  20.621  1.00  0.00    -0.005 C 
HETATM   11  C1  UNL     1      19.259  21.534  20.030  1.00  0.00     0.005 C 
ENDBRANCH   9  10
ENDBRANCH   8   9
ENDBRANCH   7   8
BRANCH   7  12
HETATM   12  C6  UNL     1      15.427  24.214  18.086  1.00  0.00     0.096 C 
BRANCH  12  13
HETATM   13  C7  UNL     1      14.462  23.208  17.715  1.00  0.00     0.116 C 
HETATM   14  N1  UNL     1      14.041  22.001  18.126  1.00  0.00    -0.340 N 
ATOM     15  H1  UNL     1      13.620  22.155  19.043  1.00  0.00     0.167 HD
BRANCH  13  16
HETATM   16  O1  UNL     1      13.747  23.583  16.603  1.00  0.00    -0.349 OA
ATOM     17  H1  UNL     1      13.674  22.870  15.979  1.00  0.00     0.219 HD
ENDBRANCH  13  16
BRANCH  14  18
HETATM   18  C8  UNL     1      13.929  20.803  17.908  1.00  0.00     0.065 C 
HETATM   19  C9  UNL     1      13.036  19.984  17.147  1.00  0.00     0.161 C 
BRANCH  19  20
HETATM   20  O2  UNL     1      13.185  18.685  17.336  1.00  0.00    -0.345 OA
ATOM     21  H2  UNL     1      13.991  18.325  16.985  1.00  0.00     0.219 HD
ENDBRANCH  19  20
BRANCH  19  22
HETATM   22  N2  UNL     1      12.019  20.280  16.229  1.00  0.00    -0.357 N 
HETATM   23  C10 UNL     1      12.086  20.901  14.949  1.00  0.00     0.145 C 
HETATM   24  C11 UNL     1      11.561  19.845  13.900  1.00  0.00     0.148 C 
HETATM   25  N3  UNL     1      10.667  18.967  14.576  1.00  0.00    -0.325 N 
HETATM   26  C12 UNL     1      10.530  17.587  14.522  1.00  0.00     0.362 C 
HETATM   27  C15 UNL     1       9.764  19.674  15.541  1.00  0.00     0.148 C 
HETATM   28  O3  UNL     1       9.629  17.003  15.208  1.00  0.00    -0.238 OA
HETATM   29  C16 UNL     1      10.635  19.994  16.729  1.00  0.00     0.145 C 
BRANCH  26  30
HETATM   30  O4  UNL     1      11.318  16.713  13.758  1.00  0.00    -0.304 OA
BRANCH  30  31
HETATM   31  C13 UNL     1      11.042  16.548  12.364  1.00  0.00     0.176 C 
HETATM   32  C14 UNL     1      12.289  16.559  11.522  1.00  0.00     0.034 C 
ENDBRANCH  30  31
ENDBRANCH  26  30
ENDBRANCH  19  22
BRANCH  18  33
HETATM   33  C17 UNL     1      14.992  19.952  18.667  1.00  0.00     0.032 C 
HETATM   34  C18 UNL     1      15.047  20.451  20.087  1.00  0.00     0.016 C 
HETATM   35  C19 UNL     1      16.340  20.104  18.038  1.00  0.00     0.016 C 
ENDBRANCH  18  33
ENDBRANCH  14  18
ENDBRANCH  12  13
ENDBRANCH   7  12
ENDBRANCH   5   7
BRANCH   5  36
HETATM   36  N6  UNL     1      18.737  23.068  16.747  1.00  0.00    -0.325 N 
ATOM     37  H6  UNL     1      19.029  22.091  16.746  1.00  0.00     0.169 HD
BRANCH  36  38
HETATM   38  C23 UNL     1      19.643  23.996  16.653  1.00  0.00     0.166 A 
HETATM   39  N7  UNL     1      20.439  24.494  17.619  1.00  0.00    -0.279 N 
HETATM   40  N8  UNL     1      21.218  25.452  17.293  1.00  0.00    -0.295 N 
ATOM     41  H7  UNL     1      20.421  24.122  18.569  1.00  0.00     0.189 HD
HETATM   42  C24 UNL     1      21.254  25.934  16.087  1.00  0.00     0.079 A 
ATOM     43  H8  UNL     1      21.831  25.852  18.003  1.00  0.00     0.187 HD
HETATM   44  S1  UNL     1      20.090  24.965  15.315  1.00  0.00    -0.037 SA
BRANCH  42  45
HETATM   45  C25 UNL     1      22.124  27.062  15.618  1.00  0.00     0.024 C 
HETATM   46  C26 UNL     1      22.180  28.148  16.655  1.00  0.00     0.024 C 
HETATM   47  C27 UNL     1      21.391  27.638  14.415  1.00  0.00     0.024 C 
BRANCH  45  48
HETATM   48  C28 UNL     1      23.498  26.629  15.272  1.00  0.00     0.179 C 
BRANCH  48  49
HETATM   49  O5  UNL     1      24.092  26.034  16.373  1.00  0.00    -0.400 OA
ATOM     50  H5  UNL     1      24.883  26.507  16.606  1.00  0.00     0.209 HD
ENDBRANCH  48  49
ENDBRANCH  45  48
ENDBRANCH  42  45
ENDBRANCH  36  38
ENDBRANCH   5  36
ENDBRANCH   1   4
TORSDOF 19
ENDMDL
