MODEL 1
REMARK VINA RESULT: -8.502439023      0.000      0.000
REMARK  16 active torsions:
REMARK  status: ('A' for Active; 'I' for Inactive)
REMARK    1  A    between atoms: N1_2  and  C3_4 
REMARK    2  A    between atoms: C3_4  and  C4_5 
REMARK    3  A    between atoms: C4_5  and  N2_6 
REMARK    4  A    between atoms: N2_6  and  C6_8 
REMARK    5  A    between atoms: C6_8  and  C7_9 
REMARK    6  A    between atoms: C7_9  and  N3_10 
REMARK       I    between atoms: N3_10  and  C8_12 
REMARK       I    between atoms: C8_12  and  N4_14 
REMARK    7  A    between atoms: N4_14  and  C9_16 
REMARK    8  A    between atoms: C10_21  and  C11_22 
REMARK    9  A    between atoms: C11_22  and  C12_23 
REMARK   10  A    between atoms: C12_23  and  C13_24 
REMARK   11  A    between atoms: C13_24  and  C14_25 
REMARK   12  A    between atoms: C14_25  and  C15_26 
REMARK   13  A    between atoms: C17_30  and  N8_31 
REMARK       I    between atoms: N8_31  and  C18_33 
REMARK   14  A    between atoms: C18_33  and  O3_35 
REMARK   15  A    between atoms: O3_35  and  C19_36 
REMARK   16  A    between atoms: N9_41  and  C23_42 
ROOT
HETATM    1  C9  UNL     1      12.098  18.609  18.526  1.00  0.00     0.705 A 
HETATM    2  N5  UNL     1      13.284  17.991  18.656  1.00  0.00    -0.130 N 
ATOM      3  H5  UNL     1      13.406  17.005  18.886  1.00  0.00     0.205 HD
HETATM    4  N6  UNL     1      14.267  18.847  18.442  1.00  0.00    -0.274 N 
ATOM      5  H6  UNL     1      15.265  18.639  18.478  1.00  0.00     0.189 HD
HETATM    6  C10 UNL     1      13.708  20.060  18.162  1.00  0.00     0.116 A 
HETATM    7  N9  UNL     1      12.394  19.903  18.216  1.00  0.00    -0.156 N 
ENDROOT
BRANCH   6   8
HETATM    8  C11 UNL     1      14.434  21.323  17.848  1.00  0.00     0.079 C 
BRANCH   8   9
HETATM    9  C12 UNL     1      14.964  21.881  19.161  1.00  0.00     0.008 C 
BRANCH   9  10
HETATM   10  C13 UNL     1      13.986  22.735  19.886  1.00  0.00     0.006 C 
BRANCH  10  11
HETATM   11  C14 UNL     1      14.697  23.752  20.712  1.00  0.00     0.048 C 
BRANCH  11  12
HETATM   12  C15 UNL     1      15.630  24.599  19.888  1.00  0.00     0.001 A 
HETATM   13  C16 UNL     1      15.306  25.393  18.818  1.00  0.00     0.104 A 
HETATM   14  N7  UNL     1      16.275  26.059  18.240  1.00  0.00    -0.345 N 
HETATM   15  C17 UNL     1      17.509  25.928  18.721  1.00  0.00     0.153 A 
ATOM     16  H7  UNL     1      16.089  26.663  17.440  1.00  0.00     0.167 HD
HETATM   17  S1  UNL     1      17.311  24.842  20.019  1.00  0.00    -0.057 SA
BRANCH  15  18
HETATM   18  N8  UNL     1      18.619  26.495  18.301  1.00  0.00    -0.282 N 
HETATM   19  C18 UNL     1      18.533  27.752  17.701  1.00  0.00     0.367 C 
HETATM   20  O2  UNL     1      19.150  28.716  18.223  1.00  0.00    -0.238 OA
ATOM     21  H8  UNL     1      19.519  26.027  18.411  1.00  0.00     0.173 HD
BRANCH  19  22
HETATM   22  O3  UNL     1      17.801  28.018  16.546  1.00  0.00    -0.294 OA
BRANCH  22  23
HETATM   23  C19 UNL     1      18.448  28.312  15.322  1.00  0.00     0.061 C 
HETATM   24  C20 UNL     1      19.867  27.802  15.358  1.00  0.00     0.046 C 
HETATM   25  C21 UNL     1      18.545  29.837  15.212  1.00  0.00     0.046 C 
HETATM   26  C22 UNL     1      17.649  27.761  14.185  1.00  0.00     0.046 C 
ENDBRANCH  22  23
ENDBRANCH  19  22
ENDBRANCH  15  18
ENDBRANCH  11  12
ENDBRANCH  10  11
ENDBRANCH   9  10
ENDBRANCH   8   9
ENDBRANCH   6   8
BRANCH   7  27
HETATM   27  C23 UNL     1      11.396  20.935  17.984  1.00  0.00     0.263 C 
HETATM   28 CL1  UNL     1      10.676  21.523  19.497  1.00  0.00    -0.108 Cl
ENDBRANCH   7  27
BRANCH   1  29
HETATM   29  N4  UNL     1      10.898  18.173  18.637  1.00  0.00    -0.140 N 
HETATM   30  C8  UNL     1      10.129  17.498  17.697  1.00  0.00     0.334 C 
HETATM   31  N3  UNL     1       8.999  16.731  18.067  1.00  0.00    -0.341 N 
HETATM   32  O1  UNL     1      10.441  17.566  16.485  1.00  0.00    -0.247 OA
ATOM     33  H3  UNL     1       8.763  16.690  19.059  1.00  0.00     0.164 HD
ATOM     34  H4  UNL     1      10.446  18.345  19.536  1.00  0.00     0.189 HD
BRANCH  31  35
HETATM   35  C7  UNL     1       8.164  16.010  17.161  1.00  0.00     0.154 C 
BRANCH  35  36
HETATM   36  C6  UNL     1       6.755  15.986  17.632  1.00  0.00     0.291 C 
BRANCH  36  37
HETATM   37  N2  UNL     1       5.950  17.023  17.002  1.00  0.00     0.087 N 
HETATM   38  C5  UNL     1       5.116  16.352  16.006  1.00  0.00     0.310 C 
BRANCH  37  39
HETATM   39  C4  UNL     1       5.045  17.639  17.944  1.00  0.00     0.302 C 
BRANCH  39  40
HETATM   40  C3  UNL     1       5.770  17.699  19.293  1.00  0.00     0.301 C 
BRANCH  40  41
HETATM   41  N1  UNL     1       5.857  19.106  19.712  1.00  0.00     0.081 N 
HETATM   42  C1  UNL     1       4.790  19.883  19.079  1.00  0.00     0.309 C 
HETATM   43  C2  UNL     1       7.112  19.653  19.212  1.00  0.00     0.309 C 
ENDBRANCH  40  41
ENDBRANCH  39  40
ENDBRANCH  37  39
ENDBRANCH  36  37
ENDBRANCH  35  36
ENDBRANCH  31  35
ENDBRANCH   1  29
TORSDOF 16
ENDMDL
MODEL 2
REMARK VINA RESULT: -8.493258781      3.455     11.147
REMARK  16 active torsions:
REMARK  status: ('A' for Active; 'I' for Inactive)
REMARK    1  A    between atoms: N1_2  and  C3_4 
REMARK    2  A    between atoms: C3_4  and  C4_5 
REMARK    3  A    between atoms: C4_5  and  N2_6 
REMARK    4  A    between atoms: N2_6  and  C6_8 
REMARK    5  A    between atoms: C6_8  and  C7_9 
REMARK    6  A    between atoms: C7_9  and  N3_10 
REMARK       I    between atoms: N3_10  and  C8_12 
REMARK       I    between atoms: C8_12  and  N4_14 
REMARK    7  A    between atoms: N4_14  and  C9_16 
REMARK    8  A    between atoms: C10_21  and  C11_22 
REMARK    9  A    between atoms: C11_22  and  C12_23 
REMARK   10  A    between atoms: C12_23  and  C13_24 
REMARK   11  A    between atoms: C13_24  and  C14_25 
REMARK   12  A    between atoms: C14_25  and  C15_26 
REMARK   13  A    between atoms: C17_30  and  N8_31 
REMARK       I    between atoms: N8_31  and  C18_33 
REMARK   14  A    between atoms: C18_33  and  O3_35 
REMARK   15  A    between atoms: O3_35  and  C19_36 
REMARK   16  A    between atoms: N9_41  and  C23_42 
ROOT
HETATM    1  C9  UNL     1      12.510  19.564  18.572  1.00  0.00     0.705 A 
HETATM    2  N5  UNL     1      12.983  18.311  18.466  1.00  0.00    -0.130 N 
ATOM      3  H5  UNL     1      13.616  17.868  19.131  1.00  0.00     0.205 HD
HETATM    4  N6  UNL     1      12.508  17.739  17.374  1.00  0.00    -0.274 N 
ATOM      5  H6  UNL     1      12.709  16.791  17.056  1.00  0.00     0.189 HD
HETATM    6  C10 UNL     1      11.700  18.643  16.749  1.00  0.00     0.116 A 
HETATM    7  N9  UNL     1      11.708  19.745  17.484  1.00  0.00    -0.156 N 
ENDROOT
BRANCH   6   8
HETATM    8  C11 UNL     1      10.942  18.433  15.482  1.00  0.00     0.079 C 
BRANCH   8   9
HETATM    9  C12 UNL     1      11.093  16.968  15.101  1.00  0.00     0.008 C 
BRANCH   9  10
HETATM   10  C13 UNL     1       9.992  16.457  14.240  1.00  0.00     0.006 C 
BRANCH  10  11
HETATM   11  C14 UNL     1       9.155  15.481  14.995  1.00  0.00     0.048 C 
BRANCH  11  12
HETATM   12  C15 UNL     1       8.160  16.164  15.896  1.00  0.00     0.001 A 
HETATM   13  C16 UNL     1       6.857  16.482  15.606  1.00  0.00     0.104 A 
HETATM   14  N7  UNL     1       6.155  17.073  16.541  1.00  0.00    -0.345 N 
HETATM   15  C17 UNL     1       6.740  17.329  17.708  1.00  0.00     0.153 A 
ATOM     16  H7  UNL     1       5.182  17.332  16.377  1.00  0.00     0.167 HD
HETATM   17  S1  UNL     1       8.320  16.727  17.495  1.00  0.00    -0.057 SA
BRANCH  15  18
HETATM   18  N8  UNL     1       6.231  17.909  18.773  1.00  0.00    -0.282 N 
HETATM   19  C18 UNL     1       6.459  19.273  18.956  1.00  0.00     0.367 C 
HETATM   20  O2  UNL     1       5.472  20.051  19.011  1.00  0.00    -0.238 OA
ATOM     21  H8  UNL     1       5.683  17.374  19.447  1.00  0.00     0.173 HD
BRANCH  19  22
HETATM   22  O3  UNL     1       7.724  19.842  19.086  1.00  0.00    -0.294 OA
BRANCH  22  23
HETATM   23  C19 UNL     1       8.434  19.775  20.309  1.00  0.00     0.061 C 
HETATM   24  C20 UNL     1       7.466  19.615  21.454  1.00  0.00     0.046 C 
HETATM   25  C21 UNL     1       9.119  21.130  20.515  1.00  0.00     0.046 C 
HETATM   26  C22 UNL     1       9.455  18.685  20.239  1.00  0.00     0.046 C 
ENDBRANCH  22  23
ENDBRANCH  19  22
ENDBRANCH  15  18
ENDBRANCH  11  12
ENDBRANCH  10  11
ENDBRANCH   9  10
ENDBRANCH   8   9
ENDBRANCH   6   8
BRANCH   7  27
HETATM   27  C23 UNL     1      10.983  20.972  17.200  1.00  0.00     0.263 C 
HETATM   28 CL1  UNL     1      12.055  22.264  16.623  1.00  0.00    -0.108 Cl
ENDBRANCH   7  27
BRANCH   1  29
HETATM   29  N4  UNL     1      12.697  20.469  19.461  1.00  0.00    -0.140 N 
HETATM   30  C8  UNL     1      13.783  21.320  19.617  1.00  0.00     0.334 C 
HETATM   31  N3  UNL     1      13.693  22.517  20.367  1.00  0.00    -0.341 N 
HETATM   32  O1  UNL     1      14.877  21.026  19.082  1.00  0.00    -0.247 OA
ATOM     33  H3  UNL     1      12.793  22.738  20.795  1.00  0.00     0.164 HD
ATOM     34  H4  UNL     1      11.947  20.579  20.144  1.00  0.00     0.189 HD
BRANCH  31  35
HETATM   35  C7  UNL     1      14.762  23.441  20.570  1.00  0.00     0.154 C 
BRANCH  35  36
HETATM   36  C6  UNL     1      14.731  24.531  19.561  1.00  0.00     0.291 C 
BRANCH  36  37
HETATM   37  N2  UNL     1      15.733  25.553  19.830  1.00  0.00     0.087 N 
HETATM   38  C5  UNL     1      16.620  25.004  20.854  1.00  0.00     0.310 C 
BRANCH  37  39
HETATM   39  C4  UNL     1      16.556  25.808  18.671  1.00  0.00     0.302 C 
BRANCH  39  40
HETATM   40  C3  UNL     1      17.747  24.846  18.744  1.00  0.00     0.301 C 
BRANCH  40  41
HETATM   41  N1  UNL     1      18.132  24.479  17.372  1.00  0.00     0.081 N 
HETATM   42  C1  UNL     1      18.097  25.662  16.510  1.00  0.00     0.309 C 
HETATM   43  C2  UNL     1      17.128  23.562  16.848  1.00  0.00     0.309 C 
ENDBRANCH  40  41
ENDBRANCH  39  40
ENDBRANCH  37  39
ENDBRANCH  36  37
ENDBRANCH  35  36
ENDBRANCH  31  35
ENDBRANCH   1  29
TORSDOF 16
ENDMDL
MODEL 3
REMARK VINA RESULT: -8.438324504      3.771     10.999
REMARK  16 active torsions:
REMARK  status: ('A' for Active; 'I' for Inactive)
REMARK    1  A    between atoms: N1_2  and  C3_4 
REMARK    2  A    between atoms: C3_4  and  C4_5 
REMARK    3  A    between atoms: C4_5  and  N2_6 
REMARK    4  A    between atoms: N2_6  and  C6_8 
REMARK    5  A    between atoms: C6_8  and  C7_9 
REMARK    6  A    between atoms: C7_9  and  N3_10 
REMARK       I    between atoms: N3_10  and  C8_12 
REMARK       I    between atoms: C8_12  and  N4_14 
REMARK    7  A    between atoms: N4_14  and  C9_16 
REMARK    8  A    between atoms: C10_21  and  C11_22 
REMARK    9  A    between atoms: C11_22  and  C12_23 
REMARK   10  A    between atoms: C12_23  and  C13_24 
REMARK   11  A    between atoms: C13_24  and  C14_25 
REMARK   12  A    between atoms: C14_25  and  C15_26 
REMARK   13  A    between atoms: C17_30  and  N8_31 
REMARK       I    between atoms: N8_31  and  C18_33 
REMARK   14  A    between atoms: C18_33  and  O3_35 
REMARK   15  A    between atoms: O3_35  and  C19_36 
REMARK   16  A    between atoms: N9_41  and  C23_42 
ROOT
HETATM    1  C9  UNL     1      12.369  19.464  18.549  1.00  0.00     0.705 A 
HETATM    2  N5  UNL     1      12.780  18.185  18.506  1.00  0.00    -0.130 N 
ATOM      3  H5  UNL     1      13.386  17.743  19.197  1.00  0.00     0.205 HD
HETATM    4  N6  UNL     1      12.283  17.586  17.438  1.00  0.00    -0.274 N 
ATOM      5  H6  UNL     1      12.439  16.615  17.167  1.00  0.00     0.189 HD
HETATM    6  C10 UNL     1      11.525  18.497  16.764  1.00  0.00     0.116 A 
HETATM    7  N9  UNL     1      11.584  19.631  17.446  1.00  0.00    -0.156 N 
ENDROOT
BRANCH   6   8
HETATM    8  C11 UNL     1      10.766  18.265  15.502  1.00  0.00     0.079 C 
BRANCH   8   9
HETATM    9  C12 UNL     1      10.999  16.819  15.092  1.00  0.00     0.008 C 
BRANCH   9  10
HETATM   10  C13 UNL     1       9.912  16.254  14.248  1.00  0.00     0.006 C 
BRANCH  10  11
HETATM   11  C14 UNL     1       9.070  15.317  15.046  1.00  0.00     0.048 C 
BRANCH  11  12
HETATM   12  C15 UNL     1       8.086  16.044  15.923  1.00  0.00     0.001 A 
HETATM   13  C16 UNL     1       6.811  16.432  15.598  1.00  0.00     0.104 A 
HETATM   14  N7  UNL     1       6.113  17.053  16.517  1.00  0.00    -0.345 N 
HETATM   15  C17 UNL     1       6.677  17.270  17.703  1.00  0.00     0.153 A 
ATOM     16  H7  UNL     1       5.160  17.364  16.327  1.00  0.00     0.167 HD
HETATM   17  S1  UNL     1       8.228  16.587  17.531  1.00  0.00    -0.057 SA
BRANCH  15  18
HETATM   18  N8  UNL     1       6.167  17.868  18.757  1.00  0.00    -0.282 N 
HETATM   19  C18 UNL     1       6.420  19.229  18.932  1.00  0.00     0.367 C 
HETATM   20  O2  UNL     1       5.448  20.026  18.969  1.00  0.00    -0.238 OA
ATOM     21  H8  UNL     1       5.602  17.350  19.430  1.00  0.00     0.173 HD
BRANCH  19  22
HETATM   22  O3  UNL     1       7.694  19.775  19.071  1.00  0.00    -0.294 OA
BRANCH  22  23
HETATM   23  C19 UNL     1       8.390  19.701  20.301  1.00  0.00     0.061 C 
HETATM   24  C20 UNL     1       7.409  19.550  21.436  1.00  0.00     0.046 C 
HETATM   25  C21 UNL     1       9.086  21.050  20.515  1.00  0.00     0.046 C 
HETATM   26  C22 UNL     1       9.402  18.602  20.242  1.00  0.00     0.046 C 
ENDBRANCH  22  23
ENDBRANCH  19  22
ENDBRANCH  15  18
ENDBRANCH  11  12
ENDBRANCH  10  11
ENDBRANCH   9  10
ENDBRANCH   8   9
ENDBRANCH   6   8
BRANCH   7  27
HETATM   27  C23 UNL     1      10.922  20.878  17.098  1.00  0.00     0.263 C 
HETATM   28 CL1  UNL     1      12.065  22.094  16.489  1.00  0.00    -0.108 Cl
ENDBRANCH   7  27
BRANCH   1  29
HETATM   29  N4  UNL     1      12.595  20.399  19.395  1.00  0.00    -0.140 N 
HETATM   30  C8  UNL     1      13.722  21.201  19.522  1.00  0.00     0.334 C 
HETATM   31  N3  UNL     1      13.687  22.436  20.213  1.00  0.00    -0.341 N 
HETATM   32  O1  UNL     1      14.804  20.825  19.013  1.00  0.00    -0.247 OA
ATOM     33  H3  UNL     1      12.797  22.722  20.620  1.00  0.00     0.164 HD
ATOM     34  H4  UNL     1      11.846  20.580  20.065  1.00  0.00     0.189 HD
BRANCH  31  35
HETATM   35  C7  UNL     1      14.801  23.312  20.383  1.00  0.00     0.154 C 
BRANCH  35  36
HETATM   36  C6  UNL     1      14.835  24.352  19.323  1.00  0.00     0.291 C 
BRANCH  36  37
HETATM   37  N2  UNL     1      16.185  24.588  18.832  1.00  0.00     0.087 N 
HETATM   38  C5  UNL     1      17.033  24.744  20.011  1.00  0.00     0.310 C 
BRANCH  37  39
HETATM   39  C4  UNL     1      16.695  23.446  18.110  1.00  0.00     0.302 C 
BRANCH  39  40
HETATM   40  C3  UNL     1      17.427  23.982  16.875  1.00  0.00     0.301 C 
BRANCH  40  41
HETATM   41  N1  UNL     1      16.905  23.288  15.687  1.00  0.00     0.081 N 
HETATM   42  C1  UNL     1      15.689  22.550  16.034  1.00  0.00     0.309 C 
HETATM   43  C2  UNL     1      17.885  22.291  15.276  1.00  0.00     0.309 C 
ENDBRANCH  40  41
ENDBRANCH  39  40
ENDBRANCH  37  39
ENDBRANCH  36  37
ENDBRANCH  35  36
ENDBRANCH  31  35
ENDBRANCH   1  29
TORSDOF 16
ENDMDL
MODEL 4
REMARK VINA RESULT: -8.333216271      2.548      4.342
REMARK  16 active torsions:
REMARK  status: ('A' for Active; 'I' for Inactive)
REMARK    1  A    between atoms: N1_2  and  C3_4 
REMARK    2  A    between atoms: C3_4  and  C4_5 
REMARK    3  A    between atoms: C4_5  and  N2_6 
REMARK    4  A    between atoms: N2_6  and  C6_8 
REMARK    5  A    between atoms: C6_8  and  C7_9 
REMARK    6  A    between atoms: C7_9  and  N3_10 
REMARK       I    between atoms: N3_10  and  C8_12 
REMARK       I    between atoms: C8_12  and  N4_14 
REMARK    7  A    between atoms: N4_14  and  C9_16 
REMARK    8  A    between atoms: C10_21  and  C11_22 
REMARK    9  A    between atoms: C11_22  and  C12_23 
REMARK   10  A    between atoms: C12_23  and  C13_24 
REMARK   11  A    between atoms: C13_24  and  C14_25 
REMARK   12  A    between atoms: C14_25  and  C15_26 
REMARK   13  A    between atoms: C17_30  and  N8_31 
REMARK       I    between atoms: N8_31  and  C18_33 
REMARK   14  A    between atoms: C18_33  and  O3_35 
REMARK   15  A    between atoms: O3_35  and  C19_36 
REMARK   16  A    between atoms: N9_41  and  C23_42 
ROOT
HETATM    1  C9  UNL     1      13.074  19.880  18.568  1.00  0.00     0.705 A 
HETATM    2  N5  UNL     1      14.184  19.128  18.479  1.00  0.00    -0.130 N 
ATOM      3  H5  UNL     1      14.501  18.468  19.189  1.00  0.00     0.205 HD
HETATM    4  N6  UNL     1      14.803  19.369  17.337  1.00  0.00    -0.274 N 
ATOM      5  H6  UNL     1      15.670  18.934  17.019  1.00  0.00     0.189 HD
HETATM    6  C10 UNL     1      14.077  20.304  16.660  1.00  0.00     0.116 A 
HETATM    7  N9  UNL     1      13.032  20.606  17.415  1.00  0.00    -0.156 N 
ENDROOT
BRANCH   6   8
HETATM    8  C11 UNL     1      14.392  20.876  15.319  1.00  0.00     0.079 C 
BRANCH   8   9
HETATM    9  C12 UNL     1      15.703  20.257  14.858  1.00  0.00     0.008 C 
BRANCH   9  10
HETATM   10  C13 UNL     1      16.424  21.071  13.842  1.00  0.00     0.006 C 
BRANCH  10  11
HETATM   11  C14 UNL     1      17.799  21.395  14.318  1.00  0.00     0.048 C 
BRANCH  11  12
HETATM   12  C15 UNL     1      17.816  22.592  15.233  1.00  0.00     0.001 A 
HETATM   13  C16 UNL     1      17.296  23.836  14.983  1.00  0.00     0.104 A 
HETATM   14  N7  UNL     1      17.413  24.742  15.923  1.00  0.00    -0.345 N 
HETATM   15  C17 UNL     1      18.023  24.405  17.056  1.00  0.00     0.153 A 
ATOM     16  H7  UNL     1      17.044  25.683  15.788  1.00  0.00     0.167 HD
HETATM   17  S1  UNL     1      18.449  22.775  16.803  1.00  0.00    -0.057 SA
BRANCH  15  18
HETATM   18  N8  UNL     1      18.250  25.146  18.119  1.00  0.00    -0.282 N 
HETATM   19  C18 UNL     1      17.411  24.991  19.223  1.00  0.00     0.367 C 
HETATM   20  O2  UNL     1      17.912  24.632  20.319  1.00  0.00    -0.238 OA
ATOM     21  H8  UNL     1      19.018  25.817  18.135  1.00  0.00     0.173 HD
BRANCH  19  22
HETATM   22  O3  UNL     1      16.035  25.211  19.196  1.00  0.00    -0.294 OA
BRANCH  22  23
HETATM   23  C19 UNL     1      15.122  24.146  19.386  1.00  0.00     0.061 C 
HETATM   24  C20 UNL     1      15.702  22.869  18.835  1.00  0.00     0.046 C 
HETATM   25  C21 UNL     1      13.881  24.452  18.539  1.00  0.00     0.046 C 
HETATM   26  C22 UNL     1      14.750  24.054  20.831  1.00  0.00     0.046 C 
ENDBRANCH  22  23
ENDBRANCH  19  22
ENDBRANCH  15  18
ENDBRANCH  11  12
ENDBRANCH  10  11
ENDBRANCH   9  10
ENDBRANCH   8   9
ENDBRANCH   6   8
BRANCH   7  27
HETATM   27  C23 UNL     1      11.984  21.560  17.090  1.00  0.00     0.263 C 
HETATM   28 CL1  UNL     1      10.777  20.874  15.982  1.00  0.00    -0.108 Cl
ENDBRANCH   7  27
BRANCH   1  29
HETATM   29  N4  UNL     1      12.180  19.966  19.482  1.00  0.00    -0.140 N 
HETATM   30  C8  UNL     1      11.010  19.231  19.624  1.00  0.00     0.334 C 
HETATM   31  N3  UNL     1      10.330  19.141  20.862  1.00  0.00    -0.341 N 
HETATM   32  O1  UNL     1      10.539  18.628  18.632  1.00  0.00    -0.247 OA
ATOM     33  H3  UNL     1      10.730  19.639  21.657  1.00  0.00     0.164 HD
ATOM     34  H4  UNL     1      12.350  20.669  20.202  1.00  0.00     0.189 HD
BRANCH  31  35
HETATM   35  C7  UNL     1       9.127  18.405  21.085  1.00  0.00     0.154 C 
BRANCH  35  36
HETATM   36  C6  UNL     1       7.939  19.298  21.069  1.00  0.00     0.291 C 
BRANCH  36  37
HETATM   37  N2  UNL     1       6.820  18.705  20.350  1.00  0.00     0.087 N 
HETATM   38  C5  UNL     1       6.281  19.754  19.486  1.00  0.00     0.310 C 
BRANCH  37  39
HETATM   39  C4  UNL     1       7.253  17.639  19.477  1.00  0.00     0.302 C 
BRANCH  39  40
HETATM   40  C3  UNL     1       7.077  18.135  18.037  1.00  0.00     0.301 C 
BRANCH  40  41
HETATM   41  N1  UNL     1       7.502  17.065  17.122  1.00  0.00     0.081 N 
HETATM   42  C1  UNL     1       6.336  16.488  16.452  1.00  0.00     0.309 C 
HETATM   43  C2  UNL     1       8.088  15.994  17.916  1.00  0.00     0.309 C 
ENDBRANCH  40  41
ENDBRANCH  39  40
ENDBRANCH  37  39
ENDBRANCH  36  37
ENDBRANCH  35  36
ENDBRANCH  31  35
ENDBRANCH   1  29
TORSDOF 16
ENDMDL
MODEL 5
REMARK VINA RESULT: -8.315727440      2.945      4.736
REMARK  16 active torsions:
REMARK  status: ('A' for Active; 'I' for Inactive)
REMARK    1  A    between atoms: N1_2  and  C3_4 
REMARK    2  A    between atoms: C3_4  and  C4_5 
REMARK    3  A    between atoms: C4_5  and  N2_6 
REMARK    4  A    between atoms: N2_6  and  C6_8 
REMARK    5  A    between atoms: C6_8  and  C7_9 
REMARK    6  A    between atoms: C7_9  and  N3_10 
REMARK       I    between atoms: N3_10  and  C8_12 
REMARK       I    between atoms: C8_12  and  N4_14 
REMARK    7  A    between atoms: N4_14  and  C9_16 
REMARK    8  A    between atoms: C10_21  and  C11_22 
REMARK    9  A    between atoms: C11_22  and  C12_23 
REMARK   10  A    between atoms: C12_23  and  C13_24 
REMARK   11  A    between atoms: C13_24  and  C14_25 
REMARK   12  A    between atoms: C14_25  and  C15_26 
REMARK   13  A    between atoms: C17_30  and  N8_31 
REMARK       I    between atoms: N8_31  and  C18_33 
REMARK   14  A    between atoms: C18_33  and  O3_35 
REMARK   15  A    between atoms: O3_35  and  C19_36 
REMARK   16  A    between atoms: N9_41  and  C23_42 
ROOT
HETATM    1  C9  UNL     1      13.046  18.830  18.260  1.00  0.00     0.705 A 
HETATM    2  N5  UNL     1      14.364  18.952  18.492  1.00  0.00    -0.130 N 
ATOM      3  H5  UNL     1      14.841  18.636  19.335  1.00  0.00     0.205 HD
HETATM    4  N6  UNL     1      14.951  19.543  17.465  1.00  0.00    -0.274 N 
ATOM      5  H6  UNL     1      15.944  19.758  17.383  1.00  0.00     0.189 HD
HETATM    6  C10 UNL     1      13.989  19.813  16.536  1.00  0.00     0.116 A 
HETATM    7  N9  UNL     1      12.840  19.376  17.029  1.00  0.00    -0.156 N 
ENDROOT
BRANCH   6   8
HETATM    8  C11 UNL     1      14.190  20.468  15.212  1.00  0.00     0.079 C 
BRANCH   8   9
HETATM    9  C12 UNL     1      15.555  20.038  14.695  1.00  0.00     0.008 C 
BRANCH   9  10
HETATM   10  C13 UNL     1      16.121  20.954  13.668  1.00  0.00     0.006 C 
BRANCH  10  11
HETATM   11  C14 UNL     1      17.550  21.251  13.970  1.00  0.00     0.048 C 
BRANCH  11  12
HETATM   12  C15 UNL     1      17.705  22.103  15.202  1.00  0.00     0.001 A 
HETATM   13  C16 UNL     1      18.734  22.074  16.108  1.00  0.00     0.104 A 
HETATM   14  N7  UNL     1      18.679  22.910  17.116  1.00  0.00    -0.345 N 
HETATM   15  C17 UNL     1      17.635  23.732  17.201  1.00  0.00     0.153 A 
ATOM     16  H7  UNL     1      19.418  22.930  17.818  1.00  0.00     0.167 HD
HETATM   17  S1  UNL     1      16.703  23.325  15.835  1.00  0.00    -0.057 SA
BRANCH  15  18
HETATM   18  N8  UNL     1      17.378  24.640  18.117  1.00  0.00    -0.282 N 
HETATM   19  C18 UNL     1      17.108  24.209  19.417  1.00  0.00     0.367 C 
HETATM   20  O2  UNL     1      17.857  24.594  20.351  1.00  0.00    -0.238 OA
ATOM     21  H8  UNL     1      17.375  25.632  17.884  1.00  0.00     0.173 HD
BRANCH  19  22
HETATM   22  O3  UNL     1      16.049  23.370  19.758  1.00  0.00    -0.294 OA
BRANCH  22  23
HETATM   23  C19 UNL     1      14.765  23.894  20.043  1.00  0.00     0.061 C 
HETATM   24  C20 UNL     1      14.500  23.820  21.526  1.00  0.00     0.046 C 
HETATM   25  C21 UNL     1      13.737  22.971  19.379  1.00  0.00     0.046 C 
HETATM   26  C22 UNL     1      14.651  25.278  19.489  1.00  0.00     0.046 C 
ENDBRANCH  22  23
ENDBRANCH  19  22
ENDBRANCH  15  18
ENDBRANCH  11  12
ENDBRANCH  10  11
ENDBRANCH   9  10
ENDBRANCH   8   9
ENDBRANCH   6   8
BRANCH   7  27
HETATM   27  C23 UNL     1      11.542  19.453  16.377  1.00  0.00     0.263 C 
HETATM   28 CL1  UNL     1      10.867  21.094  16.423  1.00  0.00    -0.108 Cl
ENDBRANCH   7  27
BRANCH   1  29
HETATM   29  N4  UNL     1      12.105  18.321  18.966  1.00  0.00    -0.140 N 
HETATM   30  C8  UNL     1      11.156  18.970  19.745  1.00  0.00     0.334 C 
HETATM   31  N3  UNL     1       9.952  18.337  20.138  1.00  0.00    -0.341 N 
HETATM   32  O1  UNL     1      11.365  20.150  20.113  1.00  0.00    -0.247 OA
ATOM     33  H3  UNL     1       9.803  17.377  19.829  1.00  0.00     0.164 HD
ATOM     34  H4  UNL     1      12.046  17.302  18.954  1.00  0.00     0.189 HD
BRANCH  31  35
HETATM   35  C7  UNL     1       8.932  18.939  20.935  1.00  0.00     0.154 C 
BRANCH  35  36
HETATM   36  C6  UNL     1       7.919  17.938  21.357  1.00  0.00     0.291 C 
BRANCH  36  37
HETATM   37  N2  UNL     1       7.820  16.831  20.417  1.00  0.00     0.087 N 
HETATM   38  C5  UNL     1       7.730  15.613  21.219  1.00  0.00     0.310 C 
BRANCH  37  39
HETATM   39  C4  UNL     1       6.604  16.899  19.641  1.00  0.00     0.302 C 
BRANCH  39  40
HETATM   40  C3  UNL     1       7.005  17.244  18.202  1.00  0.00     0.301 C 
BRANCH  40  41
HETATM   41  N1  UNL     1       7.878  16.174  17.694  1.00  0.00     0.081 N 
HETATM   42  C1  UNL     1       8.977  16.752  16.919  1.00  0.00     0.309 C 
HETATM   43  C2  UNL     1       7.105  15.361  16.764  1.00  0.00     0.309 C 
ENDBRANCH  40  41
ENDBRANCH  39  40
ENDBRANCH  37  39
ENDBRANCH  36  37
ENDBRANCH  35  36
ENDBRANCH  31  35
ENDBRANCH   1  29
TORSDOF 16
ENDMDL
