MODEL 1
REMARK VINA RESULT: -8.674021825      0.000      0.000
REMARK  9 active torsions:
REMARK  status: ('A' for Active; 'I' for Inactive)
REMARK    1  A    between atoms: C3_3  and  C4_4 
REMARK    2  A    between atoms: C6_6  and  O1_7 
REMARK    3  A    between atoms: C10_13  and  O3_14 
REMARK    4  A    between atoms: C12_17  and  C13_18 
REMARK    5  A    between atoms: C13_18  and  O4_19 
REMARK    6  A    between atoms: O4_19  and  C14_20 
REMARK    7  A    between atoms: C14_20  and  C15_22 
REMARK    8  A    between atoms: C15_22  and  C16_23 
REMARK    9  A    between atoms: C16_23  and  C17_24 
ROOT
HETATM    1  C4  UNL     1     -31.183  25.716   5.533  1.00  0.00     0.008 C 
HETATM    2  C5  UNL     1     -30.512  24.619   5.284  1.00  0.00    -0.013 C 
HETATM    3  C6  UNL     1     -30.386  23.451   6.169  1.00  0.00     0.288 C 
HETATM    4  O2  UNL     1     -30.102  22.360   5.369  1.00  0.00    -0.351 OA
HETATM    5  C7  UNL     1     -29.609  22.804   4.169  1.00  0.00     0.146 C 
HETATM    6  C8  UNL     1     -28.276  22.196   3.889  1.00  0.00     0.055 C 
HETATM    7  C9  UNL     1     -28.293  21.413   2.591  1.00  0.00     0.042 C 
HETATM    8  C10 UNL     1     -27.072  21.829   1.804  1.00  0.00     0.121 C 
HETATM    9  C11 UNL     1     -26.591  23.119   2.423  1.00  0.00     0.072 C 
HETATM   10  C12 UNL     1     -27.117  23.119   3.847  1.00  0.00     0.091 C 
HETATM   11  O6  UNL     1     -27.301  24.370   4.356  1.00  0.00    -0.376 OA
HETATM   12  C20 UNL     1     -28.437  25.036   4.034  1.00  0.00     0.185 C 
HETATM   13  C21 UNL     1     -29.715  24.272   4.077  1.00  0.00     0.032 C 
HETATM   14  C22 UNL     1     -30.521  24.721   2.846  1.00  0.00     0.025 C 
ENDROOT
BRANCH  10  15
HETATM   15  C13 UNL     1     -25.976  22.497   4.677  1.00  0.00     0.217 C 
BRANCH  15  16
HETATM   16  O4  UNL     1     -24.867  22.293   3.824  1.00  0.00    -0.318 OA
BRANCH  16  17
HETATM   17  C14 UNL     1     -24.126  21.141   3.800  1.00  0.00     0.258 C 
HETATM   18  O5  UNL     1     -23.126  21.041   3.059  1.00  0.00    -0.265 OA
BRANCH  17  19
HETATM   19  C15 UNL     1     -24.509  19.997   4.659  1.00  0.00     0.111 C 
BRANCH  19  20
HETATM   20  C16 UNL     1     -23.754  19.984   5.954  1.00  0.00     0.013 C 
BRANCH  20  21
HETATM   21  C17 UNL     1     -22.873  18.765   6.092  1.00  0.00    -0.022 C 
HETATM   22  C18 UNL     1     -22.781  18.232   7.479  1.00  0.00     0.009 C 
HETATM   23  C19 UNL     1     -23.343  17.656   5.154  1.00  0.00     0.009 C 
ENDBRANCH  20  21
ENDBRANCH  19  20
ENDBRANCH  17  19
ENDBRANCH  16  17
ENDBRANCH  15  16
ENDBRANCH  10  15
BRANCH   8  24
HETATM   24  O3  UNL     1     -27.514  22.044   0.477  1.00  0.00    -0.395 OA
ATOM     25  H3  UNL     1     -27.707  21.185   0.121  1.00  0.00     0.210 HD
ENDBRANCH   8  24
BRANCH   3  26
HETATM   26  O1  UNL     1     -29.312  23.580   7.062  1.00  0.00    -0.367 OA
ATOM     27  H1  UNL     1     -29.550  23.326   7.946  1.00  0.00     0.213 HD
ENDBRANCH   3  26
BRANCH   1  28
HETATM   28  C3  UNL     1     -31.896  25.865   6.782  1.00  0.00    -0.004 C 
HETATM   29  C2  UNL     1     -33.091  26.373   6.940  1.00  0.00    -0.031 C 
HETATM   30  C1  UNL     1     -33.889  26.873   5.813  1.00  0.00     0.036 C 
ENDBRANCH   1  28
TORSDOF 9
ENDMDL
MODEL 2
REMARK VINA RESULT: -8.648202236      3.283      5.697
REMARK  9 active torsions:
REMARK  status: ('A' for Active; 'I' for Inactive)
REMARK    1  A    between atoms: C3_3  and  C4_4 
REMARK    2  A    between atoms: C6_6  and  O1_7 
REMARK    3  A    between atoms: C10_13  and  O3_14 
REMARK    4  A    between atoms: C12_17  and  C13_18 
REMARK    5  A    between atoms: C13_18  and  O4_19 
REMARK    6  A    between atoms: O4_19  and  C14_20 
REMARK    7  A    between atoms: C14_20  and  C15_22 
REMARK    8  A    between atoms: C15_22  and  C16_23 
REMARK    9  A    between atoms: C16_23  and  C17_24 
ROOT
HETATM    1  C4  UNL     1     -27.429  22.114  -0.807  1.00  0.00     0.008 C 
HETATM    2  C5  UNL     1     -26.647  22.475   0.179  1.00  0.00    -0.013 C 
HETATM    3  C6  UNL     1     -25.177  22.471   0.176  1.00  0.00     0.288 C 
HETATM    4  O2  UNL     1     -24.762  23.394   1.117  1.00  0.00    -0.351 OA
HETATM    5  C7  UNL     1     -25.792  23.633   1.990  1.00  0.00     0.146 C 
HETATM    6  C8  UNL     1     -25.362  23.379   3.396  1.00  0.00     0.055 C 
HETATM    7  C9  UNL     1     -25.516  24.621   4.250  1.00  0.00     0.042 C 
HETATM    8  C10 UNL     1     -26.214  24.202   5.523  1.00  0.00     0.121 C 
HETATM    9  C11 UNL     1     -26.829  22.853   5.242  1.00  0.00     0.072 C 
HETATM   10  C12 UNL     1     -26.022  22.256   4.104  1.00  0.00     0.091 C 
HETATM   11  O6  UNL     1     -26.730  21.373   3.344  1.00  0.00    -0.376 OA
HETATM   12  C20 UNL     1     -27.550  21.864   2.383  1.00  0.00     0.185 C 
HETATM   13  C21 UNL     1     -27.025  22.968   1.531  1.00  0.00     0.032 C 
HETATM   14  C22 UNL     1     -28.189  23.958   1.353  1.00  0.00     0.025 C 
ENDROOT
BRANCH  10  15
HETATM   15  C13 UNL     1     -24.932  21.420   4.804  1.00  0.00     0.217 C 
BRANCH  15  16
HETATM   16  O4  UNL     1     -24.583  20.345   3.954  1.00  0.00    -0.318 OA
BRANCH  16  17
HETATM   17  C14 UNL     1     -23.314  20.126   3.487  1.00  0.00     0.258 C 
HETATM   18  O5  UNL     1     -22.817  20.873   2.618  1.00  0.00    -0.265 OA
BRANCH  17  19
HETATM   19  C15 UNL     1     -22.516  18.993   4.011  1.00  0.00     0.111 C 
BRANCH  19  20
HETATM   20  C16 UNL     1     -21.888  19.309   5.335  1.00  0.00     0.013 C 
BRANCH  20  21
HETATM   21  C17 UNL     1     -22.739  18.849   6.496  1.00  0.00    -0.022 C 
HETATM   22  C18 UNL     1     -23.044  17.392   6.489  1.00  0.00     0.009 C 
HETATM   23  C19 UNL     1     -22.080  19.221   7.822  1.00  0.00     0.009 C 
ENDBRANCH  20  21
ENDBRANCH  19  20
ENDBRANCH  17  19
ENDBRANCH  16  17
ENDBRANCH  15  16
ENDBRANCH  10  15
BRANCH   8  24
HETATM   24  O3  UNL     1     -27.217  25.172   5.758  1.00  0.00    -0.395 OA
ATOM     25  H3  UNL     1     -27.073  25.492   6.641  1.00  0.00     0.210 HD
ENDBRANCH   8  24
BRANCH   3  26
HETATM   26  O1  UNL     1     -24.653  21.233   0.576  1.00  0.00    -0.367 OA
ATOM     27  H1  UNL     1     -24.725  20.577  -0.107  1.00  0.00     0.213 HD
ENDBRANCH   3  26
BRANCH   1  28
HETATM   28  C3  UNL     1     -26.862  21.653  -2.055  1.00  0.00    -0.004 C 
HETATM   29  C2  UNL     1     -26.700  22.360  -3.143  1.00  0.00    -0.031 C 
HETATM   30  C1  UNL     1     -27.092  23.772  -3.231  1.00  0.00     0.036 C 
ENDBRANCH   1  28
TORSDOF 9
ENDMDL
MODEL 3
REMARK VINA RESULT: -8.584048065      2.433      5.298
REMARK  9 active torsions:
REMARK  status: ('A' for Active; 'I' for Inactive)
REMARK    1  A    between atoms: C3_3  and  C4_4 
REMARK    2  A    between atoms: C6_6  and  O1_7 
REMARK    3  A    between atoms: C10_13  and  O3_14 
REMARK    4  A    between atoms: C12_17  and  C13_18 
REMARK    5  A    between atoms: C13_18  and  O4_19 
REMARK    6  A    between atoms: O4_19  and  C14_20 
REMARK    7  A    between atoms: C14_20  and  C15_22 
REMARK    8  A    between atoms: C15_22  and  C16_23 
REMARK    9  A    between atoms: C16_23  and  C17_24 
ROOT
HETATM    1  C4  UNL     1     -27.887  22.017  -0.690  1.00  0.00     0.008 C 
HETATM    2  C5  UNL     1     -27.353  22.668   0.313  1.00  0.00    -0.013 C 
HETATM    3  C6  UNL     1     -25.987  23.210   0.375  1.00  0.00     0.288 C 
HETATM    4  O2  UNL     1     -25.998  24.245   1.291  1.00  0.00    -0.351 OA
HETATM    5  C7  UNL     1     -27.092  24.106   2.106  1.00  0.00     0.146 C 
HETATM    6  C8  UNL     1     -26.680  24.065   3.540  1.00  0.00     0.055 C 
HETATM    7  C9  UNL     1     -27.332  25.182   4.330  1.00  0.00     0.042 C 
HETATM    8  C10 UNL     1     -27.898  24.566   5.588  1.00  0.00     0.121 C 
HETATM    9  C11 UNL     1     -27.953  23.078   5.341  1.00  0.00     0.072 C 
HETATM   10  C12 UNL     1     -26.918  22.796   4.267  1.00  0.00     0.091 C 
HETATM   11  O6  UNL     1     -27.203  21.693   3.517  1.00  0.00    -0.376 OA
HETATM   12  C20 UNL     1     -28.090  21.820   2.499  1.00  0.00     0.185 C 
HETATM   13  C21 UNL     1     -27.963  23.019   1.623  1.00  0.00     0.032 C 
HETATM   14  C22 UNL     1     -29.399  23.500   1.350  1.00  0.00     0.025 C 
ENDROOT
BRANCH  10  15
HETATM   15  C13 UNL     1     -25.638  22.442   5.052  1.00  0.00     0.217 C 
BRANCH  15  16
HETATM   16  O4  UNL     1     -24.594  22.225   4.123  1.00  0.00    -0.318 OA
BRANCH  16  17
HETATM   17  C14 UNL     1     -24.043  20.997   3.872  1.00  0.00     0.258 C 
HETATM   18  O5  UNL     1     -23.274  20.829   2.901  1.00  0.00    -0.265 OA
BRANCH  17  19
HETATM   19  C15 UNL     1     -24.357  19.849   4.754  1.00  0.00     0.111 C 
BRANCH  19  20
HETATM   20  C16 UNL     1     -23.441  19.779   5.938  1.00  0.00     0.013 C 
BRANCH  20  21
HETATM   21  C17 UNL     1     -22.737  18.445   6.040  1.00  0.00    -0.022 C 
HETATM   22  C18 UNL     1     -22.796  17.826   7.392  1.00  0.00     0.009 C 
HETATM   23  C19 UNL     1     -23.293  17.466   5.010  1.00  0.00     0.009 C 
ENDBRANCH  20  21
ENDBRANCH  19  20
ENDBRANCH  17  19
ENDBRANCH  16  17
ENDBRANCH  15  16
ENDBRANCH  10  15
BRANCH   8  24
HETATM   24  O3  UNL     1     -29.201  25.099   5.735  1.00  0.00    -0.395 OA
ATOM     25  H3  UNL     1     -29.720  24.722   5.034  1.00  0.00     0.210 HD
ENDBRANCH   8  24
BRANCH   3  26
HETATM   26  O1  UNL     1     -25.066  22.266   0.853  1.00  0.00    -0.367 OA
ATOM     27  H1  UNL     1     -25.378  21.827   1.636  1.00  0.00     0.213 HD
ENDBRANCH   3  26
BRANCH   1  28
HETATM   28  C3  UNL     1     -27.118  21.769  -1.889  1.00  0.00    -0.004 C 
HETATM   29  C2  UNL     1     -27.105  22.504  -2.971  1.00  0.00    -0.031 C 
HETATM   30  C1  UNL     1     -27.906  23.728  -3.100  1.00  0.00     0.036 C 
ENDBRANCH   1  28
TORSDOF 9
ENDMDL
MODEL 4
REMARK VINA RESULT: -8.517015301      3.073      5.722
REMARK  9 active torsions:
REMARK  status: ('A' for Active; 'I' for Inactive)
REMARK    1  A    between atoms: C3_3  and  C4_4 
REMARK    2  A    between atoms: C6_6  and  O1_7 
REMARK    3  A    between atoms: C10_13  and  O3_14 
REMARK    4  A    between atoms: C12_17  and  C13_18 
REMARK    5  A    between atoms: C13_18  and  O4_19 
REMARK    6  A    between atoms: O4_19  and  C14_20 
REMARK    7  A    between atoms: C14_20  and  C15_22 
REMARK    8  A    between atoms: C15_22  and  C16_23 
REMARK    9  A    between atoms: C16_23  and  C17_24 
ROOT
HETATM    1  C4  UNL     1     -27.358  23.890  -2.630  1.00  0.00     0.008 C 
HETATM    2  C5  UNL     1     -27.195  24.061  -1.342  1.00  0.00    -0.013 C 
HETATM    3  C6  UNL     1     -26.316  25.048  -0.697  1.00  0.00     0.288 C 
HETATM    4  O2  UNL     1     -26.822  25.281   0.569  1.00  0.00    -0.351 OA
HETATM    5  C7  UNL     1     -27.636  24.236   0.922  1.00  0.00     0.146 C 
HETATM    6  C8  UNL     1     -27.191  23.634   2.212  1.00  0.00     0.055 C 
HETATM    7  C9  UNL     1     -28.291  23.693   3.253  1.00  0.00     0.042 C 
HETATM    8  C10 UNL     1     -28.385  22.322   3.881  1.00  0.00     0.121 C 
HETATM    9  C11 UNL     1     -27.663  21.381   2.947  1.00  0.00     0.072 C 
HETATM   10  C12 UNL     1     -26.690  22.240   2.160  1.00  0.00     0.091 C 
HETATM   11  O6  UNL     1     -26.393  21.732   0.930  1.00  0.00    -0.376 OA
HETATM   12  C20 UNL     1     -27.265  21.951  -0.084  1.00  0.00     0.185 C 
HETATM   13  C21 UNL     1     -27.830  23.323  -0.219  1.00  0.00     0.032 C 
HETATM   14  C22 UNL     1     -29.317  23.137  -0.570  1.00  0.00     0.025 C 
ENDROOT
BRANCH  10  15
HETATM   15  C13 UNL     1     -25.378  22.169   2.966  1.00  0.00     0.217 C 
BRANCH  15  16
HETATM   16  O4  UNL     1     -24.660  21.024   2.547  1.00  0.00    -0.318 OA
BRANCH  16  17
HETATM   17  C14 UNL     1     -23.859  20.283   3.374  1.00  0.00     0.258 C 
HETATM   18  O5  UNL     1     -22.654  20.103   3.099  1.00  0.00    -0.265 OA
BRANCH  17  19
HETATM   19  C15 UNL     1     -24.418  19.686   4.609  1.00  0.00     0.111 C 
BRANCH  19  20
HETATM   20  C16 UNL     1     -23.603  20.024   5.820  1.00  0.00     0.013 C 
BRANCH  20  21
HETATM   21  C17 UNL     1     -23.316  18.811   6.674  1.00  0.00    -0.022 C 
HETATM   22  C18 UNL     1     -23.007  17.578   5.899  1.00  0.00     0.009 C 
HETATM   23  C19 UNL     1     -22.174  19.098   7.645  1.00  0.00     0.009 C 
ENDBRANCH  20  21
ENDBRANCH  19  20
ENDBRANCH  17  19
ENDBRANCH  16  17
ENDBRANCH  15  16
ENDBRANCH  10  15
BRANCH   8  24
HETATM   24  O3  UNL     1     -29.764  22.010   3.941  1.00  0.00    -0.395 OA
ATOM     25  H3  UNL     1     -30.182  22.535   3.269  1.00  0.00     0.210 HD
ENDBRANCH   8  24
BRANCH   3  26
HETATM   26  O1  UNL     1     -25.014  24.558  -0.519  1.00  0.00    -0.367 OA
ATOM     27  H1  UNL     1     -24.441  25.201  -0.119  1.00  0.00     0.213 HD
ENDBRANCH   3  26
BRANCH   1  28
HETATM   28  C3  UNL     1     -26.636  24.716  -3.572  1.00  0.00    -0.004 C 
HETATM   29  C2  UNL     1     -27.104  25.756  -4.213  1.00  0.00    -0.031 C 
HETATM   30  C1  UNL     1     -28.482  26.231  -4.042  1.00  0.00     0.036 C 
ENDBRANCH   1  28
TORSDOF 9
ENDMDL
MODEL 5
REMARK VINA RESULT: -8.497957521      3.227      6.496
REMARK  9 active torsions:
REMARK  status: ('A' for Active; 'I' for Inactive)
REMARK    1  A    between atoms: C3_3  and  C4_4 
REMARK    2  A    between atoms: C6_6  and  O1_7 
REMARK    3  A    between atoms: C10_13  and  O3_14 
REMARK    4  A    between atoms: C12_17  and  C13_18 
REMARK    5  A    between atoms: C13_18  and  O4_19 
REMARK    6  A    between atoms: O4_19  and  C14_20 
REMARK    7  A    between atoms: C14_20  and  C15_22 
REMARK    8  A    between atoms: C15_22  and  C16_23 
REMARK    9  A    between atoms: C16_23  and  C17_24 
ROOT
HETATM    1  C4  UNL     1     -23.553  24.029  -1.424  1.00  0.00     0.008 C 
HETATM    2  C5  UNL     1     -24.249  24.061  -0.314  1.00  0.00    -0.013 C 
HETATM    3  C6  UNL     1     -23.790  24.561   0.991  1.00  0.00     0.288 C 
HETATM    4  O2  UNL     1     -24.914  24.930   1.706  1.00  0.00    -0.351 OA
HETATM    5  C7  UNL     1     -26.010  24.307   1.166  1.00  0.00     0.146 C 
HETATM    6  C8  UNL     1     -26.734  23.519   2.205  1.00  0.00     0.055 C 
HETATM    7  C9  UNL     1     -28.168  23.988   2.348  1.00  0.00     0.042 C 
HETATM    8  C10 UNL     1     -29.043  22.756   2.339  1.00  0.00     0.121 C 
HETATM    9  C11 UNL     1     -28.194  21.641   1.780  1.00  0.00     0.072 C 
HETATM   10  C12 UNL     1     -26.753  22.047   2.033  1.00  0.00     0.091 C 
HETATM   11  O6  UNL     1     -25.875  21.514   1.137  1.00  0.00    -0.376 OA
HETATM   12  C20 UNL     1     -25.738  22.121  -0.068  1.00  0.00     0.185 C 
HETATM   13  C21 UNL     1     -25.646  23.608  -0.081  1.00  0.00     0.032 C 
HETATM   14  C22 UNL     1     -26.490  24.077  -1.279  1.00  0.00     0.025 C 
ENDROOT
BRANCH  10  15
HETATM   15  C13 UNL     1     -26.405  21.400   3.389  1.00  0.00     0.217 C 
BRANCH  15  16
HETATM   16  O4  UNL     1     -25.045  21.665   3.671  1.00  0.00    -0.318 OA
BRANCH  16  17
HETATM   17  C14 UNL     1     -24.061  20.713   3.637  1.00  0.00     0.258 C 
HETATM   18  O5  UNL     1     -23.123  20.795   2.817  1.00  0.00    -0.265 OA
BRANCH  17  19
HETATM   19  C15 UNL     1     -24.102  19.570   4.578  1.00  0.00     0.111 C 
BRANCH  19  20
HETATM   20  C16 UNL     1     -23.681  19.961   5.962  1.00  0.00     0.013 C 
BRANCH  20  21
HETATM   21  C17 UNL     1     -23.289  18.766   6.801  1.00  0.00    -0.022 C 
HETATM   22  C18 UNL     1     -22.945  17.553   6.010  1.00  0.00     0.009 C 
HETATM   23  C19 UNL     1     -22.123  19.118   7.721  1.00  0.00     0.009 C 
ENDBRANCH  20  21
ENDBRANCH  19  20
ENDBRANCH  17  19
ENDBRANCH  16  17
ENDBRANCH  15  16
ENDBRANCH  10  15
BRANCH   8  24
HETATM   24  O3  UNL     1     -30.123  23.047   1.472  1.00  0.00    -0.395 OA
ATOM     25  H3  UNL     1     -30.764  23.513   1.996  1.00  0.00     0.210 HD
ENDBRANCH   8  24
BRANCH   3  26
HETATM   26  O1  UNL     1     -23.151  23.564   1.742  1.00  0.00    -0.367 OA
ATOM     27  H1  UNL     1     -23.758  23.094   2.302  1.00  0.00     0.213 HD
ENDBRANCH   3  26
BRANCH   1  28
HETATM   28  C3  UNL     1     -22.192  24.517  -1.444  1.00  0.00    -0.004 C 
HETATM   29  C2  UNL     1     -21.106  23.793  -1.370  1.00  0.00    -0.031 C 
HETATM   30  C1  UNL     1     -21.140  22.330  -1.255  1.00  0.00     0.036 C 
ENDBRANCH   1  28
TORSDOF 9
ENDMDL
