MODEL 1
REMARK VINA RESULT: -8.089552248      0.000      0.000
REMARK  7 active torsions:
REMARK  status: ('A' for Active; 'I' for Inactive)
REMARK    1  A    between atoms: C2_2  and  N1_3 
REMARK    2  A    between atoms: N1_3  and  C3_4 
REMARK    3  A    between atoms: N1_3  and  C5_6 
REMARK    4  A    between atoms: C5_6  and  C6_7 
REMARK    5  A    between atoms: C6_7  and  C7_8 
REMARK    6  A    between atoms: C7_8  and  N2_9 
REMARK    7  A    between atoms: C8_10  and  O1_11 
ROOT
HETATM    1  N2  UNL     1     -25.898  22.400   3.135  1.00  0.00    -0.326 N 
HETATM    2  C8  UNL     1     -26.165  21.969   1.834  1.00  0.00     0.152 A 
HETATM    3  C9  UNL     1     -27.329  22.193   1.192  1.00  0.00     0.040 A 
HETATM    4  C10 UNL     1     -27.484  21.681  -0.198  1.00  0.00     0.057 C 
HETATM    5  C11 UNL     1     -28.342  22.897   1.853  1.00  0.00     0.195 A 
HETATM    6  O2  UNL     1     -29.338  23.031   1.159  1.00  0.00    -0.287 OA
HETATM    7  C12 UNL     1     -28.117  23.325   3.115  1.00  0.00     0.060 A 
HETATM    8  C13 UNL     1     -29.119  23.996   3.775  1.00  0.00     0.076 A 
HETATM    9  C14 UNL     1     -30.304  24.255   3.163  1.00  0.00     0.260 A 
HETATM   10  O3  UNL     1     -30.643  23.958   2.029  1.00  0.00    -0.267 OA
HETATM   11  N3  UNL     1     -31.264  24.940   3.887  1.00  0.00    -0.312 N 
ATOM     12  H3  UNL     1     -32.158  25.142   3.441  1.00  0.00     0.170 HD
HETATM   13  C15 UNL     1     -31.077  25.342   5.124  1.00  0.00     0.080 A 
HETATM   14  C16 UNL     1     -32.144  26.084   5.885  1.00  0.00     0.089 C 
HETATM   15  N4  UNL     1     -29.884  25.076   5.725  1.00  0.00    -0.345 N 
ATOM     16  H4  UNL     1     -29.735  25.387   6.686  1.00  0.00     0.167 HD
HETATM   17  C17 UNL     1     -28.899  24.418   5.097  1.00  0.00     0.057 A 
HETATM   18  C18 UNL     1     -27.702  24.158   5.709  1.00  0.00    -0.026 A 
HETATM   19  C19 UNL     1     -27.437  24.576   7.103  1.00  0.00     0.051 C 
HETATM   20  C20 UNL     1     -26.647  23.476   5.073  1.00  0.00    -0.026 A 
HETATM   21  C21 UNL     1     -25.427  23.158   5.788  1.00  0.00     0.051 C 
HETATM   22  C22 UNL     1     -26.862  23.069   3.778  1.00  0.00     0.058 A 
ENDROOT
BRANCH   1  23
HETATM   23  C7  UNL     1     -24.609  22.116   3.646  1.00  0.00     0.136 C 
BRANCH  23  24
HETATM   24  C6  UNL     1     -24.435  20.690   4.152  1.00  0.00     0.065 C 
BRANCH  24  25
HETATM   25  C5  UNL     1     -23.084  20.093   3.921  1.00  0.00     0.069 C 
BRANCH  25  26
HETATM   26  N1  UNL     1     -22.455  19.353   4.902  1.00  0.00    -0.355 N 
BRANCH  26  27
HETATM   27  C2  UNL     1     -21.990  18.056   4.734  1.00  0.00     0.064 C 
HETATM   28  C1  UNL     1     -22.681  17.136   3.794  1.00  0.00     0.055 C 
ENDBRANCH  26  27
BRANCH  26  29
HETATM   29  C3  UNL     1     -22.713  19.711   6.241  1.00  0.00     0.064 C 
HETATM   30  C4  UNL     1     -23.048  18.608   7.189  1.00  0.00     0.055 C 
ENDBRANCH  26  29
ENDBRANCH  25  26
ENDBRANCH  24  25
ENDBRANCH  23  24
ENDBRANCH   1  23
BRANCH   2  31
HETATM   31  O1  UNL     1     -25.155  21.259   1.155  1.00  0.00    -0.345 OA
ATOM     32  H1  UNL     1     -25.412  20.713   0.422  1.00  0.00     0.219 HD
ENDBRANCH   2  31
TORSDOF 7
ENDMDL
MODEL 2
REMARK VINA RESULT: -8.068218747      2.995      6.522
REMARK  7 active torsions:
REMARK  status: ('A' for Active; 'I' for Inactive)
REMARK    1  A    between atoms: C2_2  and  N1_3 
REMARK    2  A    between atoms: N1_3  and  C3_4 
REMARK    3  A    between atoms: N1_3  and  C5_6 
REMARK    4  A    between atoms: C5_6  and  C6_7 
REMARK    5  A    between atoms: C6_7  and  C7_8 
REMARK    6  A    between atoms: C7_8  and  N2_9 
REMARK    7  A    between atoms: C8_10  and  O1_11 
ROOT
HETATM    1  N2  UNL     1     -25.309  24.183   1.598  1.00  0.00    -0.326 N 
HETATM    2  C8  UNL     1     -24.633  23.916   0.405  1.00  0.00     0.152 A 
HETATM    3  C9  UNL     1     -23.795  22.874   0.234  1.00  0.00     0.040 A 
HETATM    4  C10 UNL     1     -23.138  22.701  -1.091  1.00  0.00     0.057 C 
HETATM    5  C11 UNL     1     -23.576  21.998   1.304  1.00  0.00     0.195 A 
HETATM    6  O2  UNL     1     -22.800  21.101   1.012  1.00  0.00    -0.287 OA
HETATM    7  C12 UNL     1     -24.214  22.230   2.473  1.00  0.00     0.060 A 
HETATM    8  C13 UNL     1     -23.981  21.384   3.531  1.00  0.00     0.076 A 
HETATM    9  C14 UNL     1     -23.155  20.314   3.401  1.00  0.00     0.260 A 
HETATM   10  O3  UNL     1     -22.534  19.963   2.411  1.00  0.00    -0.267 OA
HETATM   11  N3  UNL     1     -22.974  19.504   4.508  1.00  0.00    -0.312 N 
ATOM     12  H3  UNL     1     -22.356  18.697   4.424  1.00  0.00     0.170 HD
HETATM   13  C15 UNL     1     -23.561  19.726   5.661  1.00  0.00     0.080 A 
HETATM   14  C16 UNL     1     -23.343  18.824   6.848  1.00  0.00     0.089 C 
HETATM   15  N4  UNL     1     -24.389  20.802   5.779  1.00  0.00    -0.345 N 
ATOM     16  H4  UNL     1     -24.848  20.976   6.673  1.00  0.00     0.167 HD
HETATM   17  C17 UNL     1     -24.620  21.639   4.757  1.00  0.00     0.057 A 
HETATM   18  C18 UNL     1     -25.456  22.716   4.884  1.00  0.00    -0.026 A 
HETATM   19  C19 UNL     1     -26.137  23.022   6.160  1.00  0.00     0.051 C 
HETATM   20  C20 UNL     1     -25.724  23.608   3.827  1.00  0.00    -0.026 A 
HETATM   21  C21 UNL     1     -26.557  24.776   4.032  1.00  0.00     0.051 C 
HETATM   22  C22 UNL     1     -25.103  23.354   2.628  1.00  0.00     0.058 A 
ENDROOT
BRANCH   1  23
HETATM   23  C7  UNL     1     -26.184  25.295   1.596  1.00  0.00     0.136 C 
BRANCH  23  24
HETATM   24  C6  UNL     1     -27.410  25.127   0.709  1.00  0.00     0.065 C 
BRANCH  24  25
HETATM   25  C5  UNL     1     -28.403  24.113   1.179  1.00  0.00     0.069 C 
BRANCH  25  26
HETATM   26  N1  UNL     1     -28.411  22.832   0.666  1.00  0.00    -0.355 N 
BRANCH  26  27
HETATM   27  C2  UNL     1     -27.932  21.713   1.335  1.00  0.00     0.064 C 
HETATM   28  C1  UNL     1     -28.363  21.443   2.732  1.00  0.00     0.055 C 
ENDBRANCH  26  27
BRANCH  26  29
HETATM   29  C3  UNL     1     -28.447  22.701  -0.737  1.00  0.00     0.064 C 
HETATM   30  C4  UNL     1     -27.288  22.023  -1.388  1.00  0.00     0.055 C 
ENDBRANCH  26  29
ENDBRANCH  25  26
ENDBRANCH  24  25
ENDBRANCH  23  24
ENDBRANCH   1  23
BRANCH   2  31
HETATM   31  O1  UNL     1     -24.843  24.788  -0.681  1.00  0.00    -0.345 OA
ATOM     32  H1  UNL     1     -25.735  24.926  -0.974  1.00  0.00     0.219 HD
ENDBRANCH   2  31
TORSDOF 7
ENDMDL
MODEL 3
REMARK VINA RESULT: -8.061696593      2.966      6.448
REMARK  7 active torsions:
REMARK  status: ('A' for Active; 'I' for Inactive)
REMARK    1  A    between atoms: C2_2  and  N1_3 
REMARK    2  A    between atoms: N1_3  and  C3_4 
REMARK    3  A    between atoms: N1_3  and  C5_6 
REMARK    4  A    between atoms: C5_6  and  C6_7 
REMARK    5  A    between atoms: C6_7  and  C7_8 
REMARK    6  A    between atoms: C7_8  and  N2_9 
REMARK    7  A    between atoms: C8_10  and  O1_11 
ROOT
HETATM    1  N2  UNL     1     -25.437  24.084   1.601  1.00  0.00    -0.326 N 
HETATM    2  C8  UNL     1     -24.774  23.809   0.403  1.00  0.00     0.152 A 
HETATM    3  C9  UNL     1     -23.919  22.781   0.236  1.00  0.00     0.040 A 
HETATM    4  C10 UNL     1     -23.279  22.598  -1.096  1.00  0.00     0.057 C 
HETATM    5  C11 UNL     1     -23.666  21.928   1.317  1.00  0.00     0.195 A 
HETATM    6  O2  UNL     1     -22.877  21.041   1.028  1.00  0.00    -0.287 OA
HETATM    7  C12 UNL     1     -24.290  22.168   2.491  1.00  0.00     0.060 A 
HETATM    8  C13 UNL     1     -24.025  21.345   3.560  1.00  0.00     0.076 A 
HETATM    9  C14 UNL     1     -23.179  20.289   3.435  1.00  0.00     0.260 A 
HETATM   10  O3  UNL     1     -22.568  19.933   2.441  1.00  0.00    -0.267 OA
HETATM   11  N3  UNL     1     -22.966  19.502   4.553  1.00  0.00    -0.312 N 
ATOM     12  H3  UNL     1     -22.334  18.706   4.473  1.00  0.00     0.170 HD
HETATM   13  C15 UNL     1     -23.540  19.732   5.711  1.00  0.00     0.080 A 
HETATM   14  C16 UNL     1     -23.285  18.855   6.909  1.00  0.00     0.089 C 
HETATM   15  N4  UNL     1     -24.386  20.793   5.824  1.00  0.00    -0.345 N 
ATOM     16  H4  UNL     1     -24.834  20.974   6.722  1.00  0.00     0.167 HD
HETATM   17  C17 UNL     1     -24.650  21.608   4.792  1.00  0.00     0.057 A 
HETATM   18  C18 UNL     1     -25.504  22.671   4.913  1.00  0.00    -0.026 A 
HETATM   19  C19 UNL     1     -26.171  22.986   6.195  1.00  0.00     0.051 C 
HETATM   20  C20 UNL     1     -25.806  23.539   3.847  1.00  0.00    -0.026 A 
HETATM   21  C21 UNL     1     -26.658  24.695   4.045  1.00  0.00     0.051 C 
HETATM   22  C22 UNL     1     -25.199  23.277   2.642  1.00  0.00     0.058 A 
ENDROOT
BRANCH   1  23
HETATM   23  C7  UNL     1     -26.333  25.179   1.595  1.00  0.00     0.136 C 
BRANCH  23  24
HETATM   24  C6  UNL     1     -27.592  24.953   0.767  1.00  0.00     0.065 C 
BRANCH  24  25
HETATM   25  C5  UNL     1     -28.486  23.858   1.252  1.00  0.00     0.069 C 
BRANCH  25  26
HETATM   26  N1  UNL     1     -28.507  22.627   0.628  1.00  0.00    -0.355 N 
BRANCH  26  27
HETATM   27  C2  UNL     1     -28.503  22.441  -0.747  1.00  0.00     0.064 C 
HETATM   28  C1  UNL     1     -27.315  21.846  -1.412  1.00  0.00     0.055 C 
ENDBRANCH  26  27
BRANCH  26  29
HETATM   29  C3  UNL     1     -29.034  21.544   1.361  1.00  0.00     0.064 C 
HETATM   30  C4  UNL     1     -28.567  21.382   2.769  1.00  0.00     0.055 C 
ENDBRANCH  26  29
ENDBRANCH  25  26
ENDBRANCH  24  25
ENDBRANCH  23  24
ENDBRANCH   1  23
BRANCH   2  31
HETATM   31  O1  UNL     1     -25.018  24.659  -0.694  1.00  0.00    -0.345 OA
ATOM     32  H1  UNL     1     -25.576  24.336  -1.391  1.00  0.00     0.219 HD
ENDBRANCH   2  31
TORSDOF 7
ENDMDL
MODEL 4
REMARK VINA RESULT: -8.027783268      0.543      1.292
REMARK  7 active torsions:
REMARK  status: ('A' for Active; 'I' for Inactive)
REMARK    1  A    between atoms: C2_2  and  N1_3 
REMARK    2  A    between atoms: N1_3  and  C3_4 
REMARK    3  A    between atoms: N1_3  and  C5_6 
REMARK    4  A    between atoms: C5_6  and  C6_7 
REMARK    5  A    between atoms: C6_7  and  C7_8 
REMARK    6  A    between atoms: C7_8  and  N2_9 
REMARK    7  A    between atoms: C8_10  and  O1_11 
ROOT
HETATM    1  N2  UNL     1     -25.821  22.421   3.128  1.00  0.00    -0.326 N 
HETATM    2  C8  UNL     1     -26.067  21.984   1.825  1.00  0.00     0.152 A 
HETATM    3  C9  UNL     1     -27.224  22.197   1.167  1.00  0.00     0.040 A 
HETATM    4  C10 UNL     1     -27.357  21.678  -0.223  1.00  0.00     0.057 C 
HETATM    5  C11 UNL     1     -28.252  22.894   1.813  1.00  0.00     0.195 A 
HETATM    6  O2  UNL     1     -29.239  23.017   1.104  1.00  0.00    -0.287 OA
HETATM    7  C12 UNL     1     -28.047  23.328   3.076  1.00  0.00     0.060 A 
HETATM    8  C13 UNL     1     -29.064  23.992   3.720  1.00  0.00     0.076 A 
HETATM    9  C14 UNL     1     -30.243  24.240   3.092  1.00  0.00     0.260 A 
HETATM   10  O3  UNL     1     -30.564  23.936   1.954  1.00  0.00    -0.267 OA
HETATM   11  N3  UNL     1     -31.217  24.919   3.801  1.00  0.00    -0.312 N 
ATOM     12  H3  UNL     1     -32.107  25.112   3.341  1.00  0.00     0.170 HD
HETATM   13  C15 UNL     1     -31.051  25.327   5.038  1.00  0.00     0.080 A 
HETATM   14  C16 UNL     1     -32.133  26.063   5.782  1.00  0.00     0.089 C 
HETATM   15  N4  UNL     1     -29.863  25.072   5.656  1.00  0.00    -0.345 N 
ATOM     16  H4  UNL     1     -29.730  25.389   6.617  1.00  0.00     0.167 HD
HETATM   17  C17 UNL     1     -28.864  24.421   5.044  1.00  0.00     0.057 A 
HETATM   18  C18 UNL     1     -27.674  24.173   5.672  1.00  0.00    -0.026 A 
HETATM   19  C19 UNL     1     -27.431  24.598   7.068  1.00  0.00     0.051 C 
HETATM   20  C20 UNL     1     -26.605  23.498   5.052  1.00  0.00    -0.026 A 
HETATM   21  C21 UNL     1     -25.392  23.193   5.785  1.00  0.00     0.051 C 
HETATM   22  C22 UNL     1     -26.799  23.084   3.757  1.00  0.00     0.058 A 
ENDROOT
BRANCH   1  23
HETATM   23  C7  UNL     1     -24.537  22.151   3.658  1.00  0.00     0.136 C 
BRANCH  23  24
HETATM   24  C6  UNL     1     -24.170  20.673   3.686  1.00  0.00     0.065 C 
BRANCH  24  25
HETATM   25  C5  UNL     1     -24.074  20.067   5.050  1.00  0.00     0.069 C 
BRANCH  25  26
HETATM   26  N1  UNL     1     -23.785  18.727   5.215  1.00  0.00    -0.355 N 
BRANCH  26  27
HETATM   27  C2  UNL     1     -23.058  18.204   6.275  1.00  0.00     0.064 C 
HETATM   28  C1  UNL     1     -22.597  19.095   7.371  1.00  0.00     0.055 C 
ENDBRANCH  26  27
BRANCH  26  29
HETATM   29  C3  UNL     1     -23.793  17.920   4.059  1.00  0.00     0.064 C 
HETATM   30  C4  UNL     1     -22.563  17.126   3.774  1.00  0.00     0.055 C 
ENDBRANCH  26  29
ENDBRANCH  25  26
ENDBRANCH  24  25
ENDBRANCH  23  24
ENDBRANCH   1  23
BRANCH   2  31
HETATM   31  O1  UNL     1     -25.042  21.281   1.162  1.00  0.00    -0.345 OA
ATOM     32  H1  UNL     1     -24.240  21.748   0.962  1.00  0.00     0.219 HD
ENDBRANCH   2  31
TORSDOF 7
ENDMDL
MODEL 5
REMARK VINA RESULT: -7.702778083      2.632      7.218
REMARK  7 active torsions:
REMARK  status: ('A' for Active; 'I' for Inactive)
REMARK    1  A    between atoms: C2_2  and  N1_3 
REMARK    2  A    between atoms: N1_3  and  C3_4 
REMARK    3  A    between atoms: N1_3  and  C5_6 
REMARK    4  A    between atoms: C5_6  and  C6_7 
REMARK    5  A    between atoms: C6_7  and  C7_8 
REMARK    6  A    between atoms: C7_8  and  N2_9 
REMARK    7  A    between atoms: C8_10  and  O1_11 
ROOT
HETATM    1  N2  UNL     1     -25.964  24.417   2.788  1.00  0.00    -0.326 N 
HETATM    2  C8  UNL     1     -26.736  24.663   3.926  1.00  0.00     0.152 A 
HETATM    3  C9  UNL     1     -26.675  23.921   5.050  1.00  0.00     0.040 A 
HETATM    4  C10 UNL     1     -27.551  24.293   6.195  1.00  0.00     0.057 C 
HETATM    5  C11 UNL     1     -25.794  22.835   5.097  1.00  0.00     0.195 A 
HETATM    6  O2  UNL     1     -25.838  22.253   6.170  1.00  0.00    -0.287 OA
HETATM    7  C12 UNL     1     -25.035  22.568   4.011  1.00  0.00     0.060 A 
HETATM    8  C13 UNL     1     -24.186  21.487   4.047  1.00  0.00     0.076 A 
HETATM    9  C14 UNL     1     -24.083  20.718   5.162  1.00  0.00     0.260 A 
HETATM   10  O3  UNL     1     -24.678  20.848   6.220  1.00  0.00    -0.267 OA
HETATM   11  N3  UNL     1     -23.203  19.651   5.127  1.00  0.00    -0.312 N 
ATOM     12  H3  UNL     1     -23.116  19.065   5.957  1.00  0.00     0.170 HD
HETATM   13  C15 UNL     1     -22.476  19.356   4.074  1.00  0.00     0.080 A 
HETATM   14  C16 UNL     1     -21.529  18.186   4.068  1.00  0.00     0.089 C 
HETATM   15  N4  UNL     1     -22.589  20.135   2.962  1.00  0.00    -0.345 N 
ATOM     16  H4  UNL     1     -22.025  19.910   2.142  1.00  0.00     0.167 HD
HETATM   17  C17 UNL     1     -23.416  21.189   2.909  1.00  0.00     0.057 A 
HETATM   18  C18 UNL     1     -23.520  21.968   1.789  1.00  0.00    -0.026 A 
HETATM   19  C19 UNL     1     -22.735  21.680   0.569  1.00  0.00     0.051 C 
HETATM   20  C20 UNL     1     -24.374  23.085   1.706  1.00  0.00    -0.026 A 
HETATM   21  C21 UNL     1     -24.505  23.833   0.472  1.00  0.00     0.051 C 
HETATM   22  C22 UNL     1     -25.122  23.378   2.821  1.00  0.00     0.058 A 
ENDROOT
BRANCH   1  23
HETATM   23  C7  UNL     1     -26.121  25.318   1.708  1.00  0.00     0.136 C 
BRANCH  23  24
HETATM   24  C6  UNL     1     -27.525  25.352   1.119  1.00  0.00     0.065 C 
BRANCH  24  25
HETATM   25  C5  UNL     1     -27.804  24.316   0.078  1.00  0.00     0.069 C 
BRANCH  25  26
HETATM   26  N1  UNL     1     -28.507  23.168   0.386  1.00  0.00    -0.355 N 
BRANCH  26  27
HETATM   27  C2  UNL     1     -28.946  22.832   1.659  1.00  0.00     0.064 C 
HETATM   28  C1  UNL     1     -28.396  21.631   2.341  1.00  0.00     0.055 C 
ENDBRANCH  26  27
BRANCH  26  29
HETATM   29  C3  UNL     1     -28.364  22.073  -0.490  1.00  0.00     0.064 C 
HETATM   30  C4  UNL     1     -27.189  22.083  -1.409  1.00  0.00     0.055 C 
ENDBRANCH  26  29
ENDBRANCH  25  26
ENDBRANCH  24  25
ENDBRANCH  23  24
ENDBRANCH   1  23
BRANCH   2  31
HETATM   31  O1  UNL     1     -27.628  25.753   3.894  1.00  0.00    -0.345 OA
ATOM     32  H1  UNL     1     -27.397  26.531   4.389  1.00  0.00     0.219 HD
ENDBRANCH   2  31
TORSDOF 7
ENDMDL
