MODEL 1
REMARK VINA RESULT: -7.923027113      0.000      0.000
REMARK  9 active torsions:
REMARK  status: ('A' for Active; 'I' for Inactive)
REMARK    1  A    between atoms: C2_2  and  C3_3 
REMARK    2  A    between atoms: C3_3  and  O1_4 
REMARK    3  A    between atoms: O1_4  and  C4_5 
REMARK    4  A    between atoms: C4_5  and  C5_7 
REMARK    5  A    between atoms: C5_7  and  C6_8 
REMARK    6  A    between atoms: C6_8  and  O3_10 
REMARK    7  A    between atoms: C6_8  and  C8_12 
REMARK    8  A    between atoms: C15_20  and  C16_21 
REMARK    9  A    between atoms: C16_21  and  O5_24 
ROOT
HETATM    1  C8  UNL     1     -20.313  20.253   1.333  1.00  0.00     0.093 C 
HETATM    2  C9  UNL     1     -19.169  19.733   0.564  1.00  0.00     0.044 C 
HETATM    3  C10 UNL     1     -18.212  20.919   0.590  1.00  0.00     0.035 C 
HETATM    4  C11 UNL     1     -18.928  22.020   1.376  1.00  0.00     0.129 C 
HETATM    5  O4  UNL     1     -19.590  21.072   2.239  1.00  0.00    -0.371 OA
HETATM    6  C12 UNL     1     -19.936  22.782   0.767  1.00  0.00     0.050 C 
HETATM    7  C13 UNL     1     -20.150  24.213   0.496  1.00  0.00     0.129 C 
HETATM    8  C14 UNL     1     -21.639  24.297   0.069  1.00  0.00     0.040 C 
HETATM    9  C15 UNL     1     -22.350  23.033  -0.230  1.00  0.00     0.026 C 
HETATM   10  C19 UNL     1     -21.571  21.753  -0.416  1.00  0.00     0.002 C 
HETATM   11  C20 UNL     1     -21.488  20.797   0.689  1.00  0.00     0.047 C 
HETATM   12  C21 UNL     1     -20.197  22.349  -0.635  1.00  0.00     0.023 C 
HETATM   13  C22 UNL     1     -20.118  23.553  -1.531  1.00  0.00     0.173 C 
HETATM   14  O6  UNL     1     -19.475  24.505  -0.704  1.00  0.00    -0.385 OA
ENDROOT
BRANCH   1  15
HETATM   15  C6  UNL     1     -20.773  19.089   2.199  1.00  0.00     0.094 C 
HETATM   16  C7  UNL     1     -19.875  17.895   2.084  1.00  0.00     0.049 C 
BRANCH  15  17
HETATM   17  C5  UNL     1     -20.995  19.381   3.627  1.00  0.00     0.151 C 
BRANCH  17  18
HETATM   18  C4  UNL     1     -22.465  19.449   3.887  1.00  0.00     0.261 C 
HETATM   19  O2  UNL     1     -23.105  20.536   3.649  1.00  0.00    -0.265 OA
BRANCH  18  20
HETATM   20  O1  UNL     1     -23.222  18.417   4.373  1.00  0.00    -0.321 OA
BRANCH  20  21
HETATM   21  C3  UNL     1     -23.196  17.918   5.673  1.00  0.00     0.178 C 
BRANCH  21  22
HETATM   22  C2  UNL     1     -23.379  18.935   6.748  1.00  0.00     0.022 C 
HETATM   23  C1  UNL     1     -22.124  18.989   7.619  1.00  0.00     0.007 C 
ENDBRANCH  21  22
ENDBRANCH  20  21
ENDBRANCH  18  20
ENDBRANCH  17  18
ENDBRANCH  15  17
BRANCH  15  24
HETATM   24  O3  UNL     1     -22.045  18.711   1.697  1.00  0.00    -0.387 OA
ATOM     25  H3  UNL     1     -22.143  17.797   1.935  1.00  0.00     0.210 HD
ENDBRANCH  15  24
ENDBRANCH   1  15
BRANCH   9  26
HETATM   26  C16 UNL     1     -23.688  22.889   0.476  1.00  0.00     0.055 C 
HETATM   27  C17 UNL     1     -24.395  24.261   0.377  1.00  0.00     0.045 C 
HETATM   28  C18 UNL     1     -24.566  21.919  -0.236  1.00  0.00     0.045 C 
BRANCH  26  29
HETATM   29  O5  UNL     1     -23.596  22.703   1.848  1.00  0.00    -0.390 OA
ATOM     30  H5  UNL     1     -24.224  23.203   2.356  1.00  0.00     0.210 HD
ENDBRANCH  26  29
ENDBRANCH   9  26
TORSDOF 9
ENDMDL
MODEL 2
REMARK VINA RESULT: -7.676225931      3.259      6.032
REMARK  9 active torsions:
REMARK  status: ('A' for Active; 'I' for Inactive)
REMARK    1  A    between atoms: C2_2  and  C3_3 
REMARK    2  A    between atoms: C3_3  and  O1_4 
REMARK    3  A    between atoms: O1_4  and  C4_5 
REMARK    4  A    between atoms: C4_5  and  C5_7 
REMARK    5  A    between atoms: C5_7  and  C6_8 
REMARK    6  A    between atoms: C6_8  and  O3_10 
REMARK    7  A    between atoms: C6_8  and  C8_12 
REMARK    8  A    between atoms: C15_20  and  C16_21 
REMARK    9  A    between atoms: C16_21  and  O5_24 
ROOT
HETATM    1  C8  UNL     1     -26.334  22.553   2.647  1.00  0.00     0.093 C 
HETATM    2  C9  UNL     1     -27.166  23.616   3.236  1.00  0.00     0.044 C 
HETATM    3  C10 UNL     1     -28.536  23.302   2.646  1.00  0.00     0.035 C 
HETATM    4  C11 UNL     1     -28.339  22.074   1.754  1.00  0.00     0.129 C 
HETATM    5  O4  UNL     1     -27.315  21.527   2.611  1.00  0.00    -0.371 OA
HETATM    6  C12 UNL     1     -27.767  22.211   0.481  1.00  0.00     0.050 C 
HETATM    7  C13 UNL     1     -28.189  21.909  -0.896  1.00  0.00     0.129 C 
HETATM    8  C14 UNL     1     -26.889  22.054  -1.730  1.00  0.00     0.040 C 
HETATM    9  C15 UNL     1     -25.714  22.684  -1.085  1.00  0.00     0.026 C 
HETATM   10  C19 UNL     1     -25.879  23.433   0.216  1.00  0.00     0.002 C 
HETATM   11  C20 UNL     1     -25.519  22.775   1.473  1.00  0.00     0.047 C 
HETATM   12  C21 UNL     1     -27.380  23.619   0.188  1.00  0.00     0.023 C 
HETATM   13  C22 UNL     1     -27.986  24.018  -1.128  1.00  0.00     0.173 C 
HETATM   14  O6  UNL     1     -28.953  23.006  -1.337  1.00  0.00    -0.385 OA
ENDROOT
BRANCH   1  15
HETATM   15  C6  UNL     1     -25.400  22.111   3.765  1.00  0.00     0.094 C 
HETATM   16  C7  UNL     1     -25.832  22.616   5.109  1.00  0.00     0.049 C 
BRANCH  15  17
HETATM   17  C5  UNL     1     -25.134  20.665   3.864  1.00  0.00     0.151 C 
BRANCH  17  18
HETATM   18  C4  UNL     1     -23.671  20.426   3.673  1.00  0.00     0.261 C 
HETATM   19  O2  UNL     1     -23.182  20.381   2.487  1.00  0.00    -0.265 OA
BRANCH  18  20
HETATM   20  O1  UNL     1     -22.769  20.245   4.687  1.00  0.00    -0.321 OA
BRANCH  20  21
HETATM   21  C3  UNL     1     -23.057  19.800   5.975  1.00  0.00     0.178 C 
BRANCH  21  22
HETATM   22  C2  UNL     1     -23.305  18.336   6.102  1.00  0.00     0.022 C 
HETATM   23  C1  UNL     1     -22.794  17.848   7.458  1.00  0.00     0.007 C 
ENDBRANCH  21  22
ENDBRANCH  20  21
ENDBRANCH  18  20
ENDBRANCH  17  18
ENDBRANCH  15  17
BRANCH  15  24
HETATM   24  O3  UNL     1     -24.143  22.700   3.476  1.00  0.00    -0.387 OA
ATOM     25  H3  UNL     1     -23.953  23.256   4.222  1.00  0.00     0.210 HD
ENDBRANCH  15  24
ENDBRANCH   1  15
BRANCH   9  26
HETATM   26  C16 UNL     1     -24.426  21.891  -1.225  1.00  0.00     0.055 C 
HETATM   27  C17 UNL     1     -24.466  21.219  -2.618  1.00  0.00     0.045 C 
HETATM   28  C18 UNL     1     -23.241  22.794  -1.236  1.00  0.00     0.045 C 
BRANCH  26  29
HETATM   29  O5  UNL     1     -24.327  20.800  -0.374  1.00  0.00    -0.390 OA
ATOM     30  H5  UNL     1     -23.673  20.892   0.309  1.00  0.00     0.210 HD
ENDBRANCH  26  29
ENDBRANCH   9  26
TORSDOF 9
ENDMDL
MODEL 3
REMARK VINA RESULT: -7.611131355      3.198      5.149
REMARK  9 active torsions:
REMARK  status: ('A' for Active; 'I' for Inactive)
REMARK    1  A    between atoms: C2_2  and  C3_3 
REMARK    2  A    between atoms: C3_3  and  O1_4 
REMARK    3  A    between atoms: O1_4  and  C4_5 
REMARK    4  A    between atoms: C4_5  and  C5_7 
REMARK    5  A    between atoms: C5_7  and  C6_8 
REMARK    6  A    between atoms: C6_8  and  O3_10 
REMARK    7  A    between atoms: C6_8  and  C8_12 
REMARK    8  A    between atoms: C15_20  and  C16_21 
REMARK    9  A    between atoms: C16_21  and  O5_24 
ROOT
HETATM    1  C8  UNL     1     -24.624  21.679   2.902  1.00  0.00     0.093 C 
HETATM    2  C9  UNL     1     -23.595  21.543   1.856  1.00  0.00     0.044 C 
HETATM    3  C10 UNL     1     -23.437  22.985   1.387  1.00  0.00     0.035 C 
HETATM    4  C11 UNL     1     -24.420  23.809   2.221  1.00  0.00     0.129 C 
HETATM    5  O4  UNL     1     -24.257  22.964   3.379  1.00  0.00    -0.371 OA
HETATM    6  C12 UNL     1     -25.788  23.805   1.909  1.00  0.00     0.050 C 
HETATM    7  C13 UNL     1     -26.783  24.826   1.544  1.00  0.00     0.129 C 
HETATM    8  C14 UNL     1     -28.141  24.086   1.660  1.00  0.00     0.040 C 
HETATM    9  C15 UNL     1     -28.123  22.612   1.800  1.00  0.00     0.026 C 
HETATM   10  C19 UNL     1     -26.853  21.844   1.523  1.00  0.00     0.002 C 
HETATM   11  C20 UNL     1     -26.021  21.405   2.645  1.00  0.00     0.047 C 
HETATM   12  C21 UNL     1     -26.098  22.910   0.759  1.00  0.00     0.023 C 
HETATM   13  C22 UNL     1     -26.880  23.692  -0.258  1.00  0.00     0.173 C 
HETATM   14  O6  UNL     1     -26.668  25.028   0.156  1.00  0.00    -0.385 OA
ENDROOT
BRANCH   1  15
HETATM   15  C6  UNL     1     -24.181  20.746   4.020  1.00  0.00     0.094 C 
HETATM   16  C7  UNL     1     -24.426  21.322   5.382  1.00  0.00     0.049 C 
BRANCH  15  17
HETATM   17  C5  UNL     1     -24.719  19.374   3.981  1.00  0.00     0.151 C 
BRANCH  17  18
HETATM   18  C4  UNL     1     -23.583  18.409   3.871  1.00  0.00     0.261 C 
HETATM   19  O2  UNL     1     -23.363  17.808   2.759  1.00  0.00    -0.265 OA
BRANCH  18  20
HETATM   20  O1  UNL     1     -22.721  18.097   4.888  1.00  0.00    -0.321 OA
BRANCH  20  21
HETATM   21  C3  UNL     1     -23.038  17.399   6.051  1.00  0.00     0.178 C 
BRANCH  21  22
HETATM   22  C2  UNL     1     -23.036  18.211   7.301  1.00  0.00     0.022 C 
HETATM   23  C1  UNL     1     -21.923  19.256   7.228  1.00  0.00     0.007 C 
ENDBRANCH  21  22
ENDBRANCH  20  21
ENDBRANCH  18  20
ENDBRANCH  17  18
ENDBRANCH  15  17
BRANCH  15  24
HETATM   24  O3  UNL     1     -22.779  20.598   3.869  1.00  0.00    -0.387 OA
ATOM     25  H3  UNL     1     -22.407  20.919   4.682  1.00  0.00     0.210 HD
ENDBRANCH  15  24
ENDBRANCH   1  15
BRANCH   9  26
HETATM   26  C16 UNL     1     -28.972  22.084   2.943  1.00  0.00     0.055 C 
HETATM   27  C17 UNL     1     -28.220  22.423   4.252  1.00  0.00     0.045 C 
HETATM   28  C18 UNL     1     -30.274  22.804   3.017  1.00  0.00     0.045 C 
BRANCH  26  29
HETATM   29  O5  UNL     1     -29.060  20.701   3.003  1.00  0.00    -0.390 OA
ATOM     30  H5  UNL     1     -29.450  20.366   3.802  1.00  0.00     0.210 HD
ENDBRANCH  26  29
ENDBRANCH   9  26
TORSDOF 9
ENDMDL
MODEL 4
REMARK VINA RESULT: -7.527387109      1.032      1.351
REMARK  9 active torsions:
REMARK  status: ('A' for Active; 'I' for Inactive)
REMARK    1  A    between atoms: C2_2  and  C3_3 
REMARK    2  A    between atoms: C3_3  and  O1_4 
REMARK    3  A    between atoms: O1_4  and  C4_5 
REMARK    4  A    between atoms: C4_5  and  C5_7 
REMARK    5  A    between atoms: C5_7  and  C6_8 
REMARK    6  A    between atoms: C6_8  and  O3_10 
REMARK    7  A    between atoms: C6_8  and  C8_12 
REMARK    8  A    between atoms: C15_20  and  C16_21 
REMARK    9  A    between atoms: C16_21  and  O5_24 
ROOT
HETATM    1  C8  UNL     1     -20.305  20.196   1.370  1.00  0.00     0.093 C 
HETATM    2  C9  UNL     1     -19.199  19.718   0.521  1.00  0.00     0.044 C 
HETATM    3  C10 UNL     1     -18.248  20.909   0.551  1.00  0.00     0.035 C 
HETATM    4  C11 UNL     1     -18.927  21.969   1.421  1.00  0.00     0.129 C 
HETATM    5  O4  UNL     1     -19.539  20.979   2.273  1.00  0.00    -0.371 OA
HETATM    6  C12 UNL     1     -19.968  22.750   0.900  1.00  0.00     0.050 C 
HETATM    7  C13 UNL     1     -20.203  24.190   0.706  1.00  0.00     0.129 C 
HETATM    8  C14 UNL     1     -21.712  24.283   0.360  1.00  0.00     0.040 C 
HETATM    9  C15 UNL     1     -22.433  23.029   0.041  1.00  0.00     0.026 C 
HETATM   10  C19 UNL     1     -21.658  21.764  -0.242  1.00  0.00     0.002 C 
HETATM   11  C20 UNL     1     -21.514  20.760   0.813  1.00  0.00     0.047 C 
HETATM   12  C21 UNL     1     -20.300  22.379  -0.504  1.00  0.00     0.023 C 
HETATM   13  C22 UNL     1     -20.272  23.622  -1.348  1.00  0.00     0.173 C 
HETATM   14  O6  UNL     1     -19.593  24.541  -0.514  1.00  0.00    -0.385 OA
ENDROOT
BRANCH   1  15
HETATM   15  C6  UNL     1     -20.714  18.991   2.205  1.00  0.00     0.094 C 
HETATM   16  C7  UNL     1     -19.673  17.913   2.211  1.00  0.00     0.049 C 
BRANCH  15  17
HETATM   17  C5  UNL     1     -21.123  19.264   3.595  1.00  0.00     0.151 C 
BRANCH  17  18
HETATM   18  C4  UNL     1     -22.559  18.884   3.763  1.00  0.00     0.261 C 
HETATM   19  O2  UNL     1     -22.860  17.737   4.252  1.00  0.00    -0.265 OA
BRANCH  18  20
HETATM   20  O1  UNL     1     -23.622  19.679   3.431  1.00  0.00    -0.321 OA
BRANCH  20  21
HETATM   21  C3  UNL     1     -24.726  19.954   4.235  1.00  0.00     0.178 C 
BRANCH  21  22
HETATM   22  C2  UNL     1     -24.438  20.754   5.460  1.00  0.00     0.022 C 
HETATM   23  C1  UNL     1     -25.237  22.057   5.418  1.00  0.00     0.007 C 
ENDBRANCH  21  22
ENDBRANCH  20  21
ENDBRANCH  18  20
ENDBRANCH  17  18
ENDBRANCH  15  17
BRANCH  15  24
HETATM   24  O3  UNL     1     -21.869  18.459   1.577  1.00  0.00    -0.387 OA
ATOM     25  H3  UNL     1     -21.585  17.641   1.187  1.00  0.00     0.210 HD
ENDBRANCH  15  24
ENDBRANCH   1  15
BRANCH   9  26
HETATM   26  C16 UNL     1     -23.731  22.844   0.808  1.00  0.00     0.055 C 
HETATM   27  C17 UNL     1     -24.392  24.239   0.908  1.00  0.00     0.045 C 
HETATM   28  C18 UNL     1     -24.684  21.989   0.047  1.00  0.00     0.045 C 
BRANCH  26  29
HETATM   29  O5  UNL     1     -23.566  22.499   2.141  1.00  0.00    -0.390 OA
ATOM     30  H5  UNL     1     -23.762  21.591   2.340  1.00  0.00     0.210 HD
ENDBRANCH  26  29
ENDBRANCH   9  26
TORSDOF 9
ENDMDL
MODEL 5
REMARK VINA RESULT: -7.468622198      2.810      5.518
REMARK  9 active torsions:
REMARK  status: ('A' for Active; 'I' for Inactive)
REMARK    1  A    between atoms: C2_2  and  C3_3 
REMARK    2  A    between atoms: C3_3  and  O1_4 
REMARK    3  A    between atoms: O1_4  and  C4_5 
REMARK    4  A    between atoms: C4_5  and  C5_7 
REMARK    5  A    between atoms: C5_7  and  C6_8 
REMARK    6  A    between atoms: C6_8  and  O3_10 
REMARK    7  A    between atoms: C6_8  and  C8_12 
REMARK    8  A    between atoms: C15_20  and  C16_21 
REMARK    9  A    between atoms: C16_21  and  O5_24 
ROOT
HETATM    1  C8  UNL     1     -25.751  22.655   1.768  1.00  0.00     0.093 C 
HETATM    2  C9  UNL     1     -26.720  23.719   2.084  1.00  0.00     0.044 C 
HETATM    3  C10 UNL     1     -27.931  23.289   1.263  1.00  0.00     0.035 C 
HETATM    4  C11 UNL     1     -27.516  22.006   0.540  1.00  0.00     0.129 C 
HETATM    5  O4  UNL     1     -26.670  21.582   1.628  1.00  0.00    -0.371 OA
HETATM    6  C12 UNL     1     -26.703  22.069  -0.601  1.00  0.00     0.050 C 
HETATM    7  C13 UNL     1     -26.827  21.637  -2.003  1.00  0.00     0.129 C 
HETATM    8  C14 UNL     1     -25.390  21.781  -2.570  1.00  0.00     0.040 C 
HETATM    9  C15 UNL     1     -24.392  22.520  -1.762  1.00  0.00     0.026 C 
HETATM   10  C19 UNL     1     -24.842  23.361  -0.592  1.00  0.00     0.002 C 
HETATM   11  C20 UNL     1     -24.723  22.825   0.765  1.00  0.00     0.047 C 
HETATM   12  C21 UNL     1     -26.312  23.468  -0.935  1.00  0.00     0.023 C 
HETATM   13  C22 UNL     1     -26.652  23.730  -2.375  1.00  0.00     0.173 C 
HETATM   14  O6  UNL     1     -27.522  22.656  -2.682  1.00  0.00    -0.385 OA
ENDROOT
BRANCH   1  15
HETATM   15  C6  UNL     1     -25.050  22.352   3.084  1.00  0.00     0.094 C 
HETATM   16  C7  UNL     1     -25.148  23.483   4.063  1.00  0.00     0.049 C 
BRANCH  15  17
HETATM   17  C5  UNL     1     -25.439  21.102   3.762  1.00  0.00     0.151 C 
BRANCH  17  18
HETATM   18  C4  UNL     1     -24.222  20.254   3.952  1.00  0.00     0.261 C 
HETATM   19  O2  UNL     1     -23.864  19.439   3.027  1.00  0.00    -0.265 OA
BRANCH  18  20
HETATM   20  O1  UNL     1     -23.425  20.267   5.064  1.00  0.00    -0.321 OA
BRANCH  20  21
HETATM   21  C3  UNL     1     -22.460  19.319   5.397  1.00  0.00     0.178 C 
BRANCH  21  22
HETATM   22  C2  UNL     1     -22.956  18.156   6.186  1.00  0.00     0.022 C 
HETATM   23  C1  UNL     1     -22.825  18.460   7.679  1.00  0.00     0.007 C 
ENDBRANCH  21  22
ENDBRANCH  20  21
ENDBRANCH  18  20
ENDBRANCH  17  18
ENDBRANCH  15  17
BRANCH  15  24
HETATM   24  O3  UNL     1     -23.678  22.188   2.764  1.00  0.00    -0.387 OA
ATOM     25  H3  UNL     1     -23.469  22.916   2.190  1.00  0.00     0.210 HD
ENDBRANCH  15  24
ENDBRANCH   1  15
BRANCH   9  26
HETATM   26  C16 UNL     1     -23.077  21.784  -1.573  1.00  0.00     0.055 C 
HETATM   27  C17 UNL     1     -22.754  21.093  -2.919  1.00  0.00     0.045 C 
HETATM   28  C18 UNL     1     -21.962  22.739  -1.321  1.00  0.00     0.045 C 
BRANCH  26  29
HETATM   29  O5  UNL     1     -23.140  20.709  -0.698  1.00  0.00    -0.390 OA
ATOM     30  H5  UNL     1     -22.356  20.579  -0.177  1.00  0.00     0.210 HD
ENDBRANCH  26  29
ENDBRANCH   9  26
TORSDOF 9
ENDMDL
