MODEL 1
REMARK VINA RESULT: -3.378157541      0.000      0.000
REMARK  1 active torsions:
REMARK  status: ('A' for Active; 'I' for Inactive)
REMARK       I    between atoms: C1_4  and  N2_5 
REMARK       I    between atoms: C1_4  and  N4_10 
REMARK    1  A    between atoms: N2_5  and  N3_7 
ROOT
HETATM    1  N1  UNL     1      29.707  66.668  95.019  1.00  0.00    -0.230 N 
ATOM      2  H11 UNL     1      29.516  65.673  95.137  1.00  0.00     0.174 HD
ATOM      3  H12 UNL     1      30.074  67.036  94.142  1.00  0.00     0.174 HD
HETATM    4  C1  UNL     1      29.493  67.507  95.969  1.00  0.00     0.726 C 
HETATM    5  N2  UNL     1      29.758  68.890  95.805  1.00  0.00    -0.136 N 
ATOM      6  H2  UNL     1      29.319  69.582  96.413  1.00  0.00     0.205 HD
HETATM    7  N4  UNL     1      28.978  66.992  97.196  1.00  0.00    -0.017 N 
HETATM    8  N5  UNL     1      27.954  66.184  97.277  1.00  0.00    -0.270 N 
ATOM      9  H5  UNL     1      27.413  65.835  96.485  1.00  0.00     0.189 HD
HETATM   10  C2  UNL     1      27.728  65.888  98.553  1.00  0.00     0.185 A 
HETATM   11  C3  UNL     1      28.682  66.567  99.268  1.00  0.00     0.278 A 
HETATM   12  O1  UNL     1      28.764  66.514 100.530  1.00  0.00    -0.265 OA
HETATM   13  N6  UNL     1      29.434  67.236  98.394  1.00  0.00    -0.229 N 
ATOM     14  H6  UNL     1      30.227  67.835  98.622  1.00  0.00     0.193 HD
ENDROOT
BRANCH   5  15
HETATM   15  N3  UNL     1      30.630  69.282  94.796  1.00  0.00    -0.331 N 
ATOM     16  H32 UNL     1      30.270  69.480  93.863  1.00  0.00     0.177 HD
ATOM     17  H31 UNL     1      31.623  69.361  95.016  1.00  0.00     0.177 HD
ENDBRANCH   5  15
TORSDOF 1
ENDMDL
MODEL 2
REMARK VINA RESULT: -3.357619368      2.579      3.881
REMARK  1 active torsions:
REMARK  status: ('A' for Active; 'I' for Inactive)
REMARK       I    between atoms: C1_4  and  N2_5 
REMARK       I    between atoms: C1_4  and  N4_10 
REMARK    1  A    between atoms: N2_5  and  N3_7 
ROOT
HETATM    1  N1  UNL     1      29.161  66.226  99.778  1.00  0.00    -0.230 N 
ATOM      2  H11 UNL     1      28.334  66.766 100.032  1.00  0.00     0.174 HD
ATOM      3  H12 UNL     1      29.719  65.747 100.485  1.00  0.00     0.174 HD
HETATM    4  C1  UNL     1      29.542  66.121  98.554  1.00  0.00     0.726 C 
HETATM    5  N2  UNL     1      30.692  65.371  98.201  1.00  0.00    -0.136 N 
ATOM      6  H2  UNL     1      30.823  65.033  97.248  1.00  0.00     0.205 HD
HETATM    7  N4  UNL     1      28.762  66.791  97.566  1.00  0.00    -0.017 N 
HETATM    8  N5  UNL     1      27.460  66.705  97.480  1.00  0.00    -0.270 N 
ATOM      9  H5  UNL     1      26.863  66.158  98.100  1.00  0.00     0.189 HD
HETATM   10  C2  UNL     1      27.038  67.442  96.457  1.00  0.00     0.185 A 
HETATM   11  C3  UNL     1      28.165  67.997  95.907  1.00  0.00     0.278 A 
HETATM   12  O1  UNL     1      28.134  68.767  94.902  1.00  0.00    -0.265 OA
HETATM   13  N6  UNL     1      29.208  67.571  96.619  1.00  0.00    -0.229 N 
ATOM     14  H6  UNL     1      30.185  67.812  96.453  1.00  0.00     0.193 HD
ENDROOT
BRANCH   5  15
HETATM   15  N3  UNL     1      31.637  65.105  99.186  1.00  0.00    -0.331 N 
ATOM     16  H32 UNL     1      31.815  65.794  99.917  1.00  0.00     0.177 HD
ATOM     17  H31 UNL     1      32.136  64.217  99.153  1.00  0.00     0.177 HD
ENDBRANCH   5  15
TORSDOF 1
ENDMDL
MODEL 3
REMARK VINA RESULT: -3.163449161      1.218      1.278
REMARK  1 active torsions:
REMARK  status: ('A' for Active; 'I' for Inactive)
REMARK       I    between atoms: C1_4  and  N2_5 
REMARK       I    between atoms: C1_4  and  N4_10 
REMARK    1  A    between atoms: N2_5  and  N3_7 
ROOT
HETATM    1  N1  UNL     1      27.819  67.535  95.571  1.00  0.00    -0.230 N 
ATOM      2  H11 UNL     1      27.070  66.913  95.874  1.00  0.00     0.174 HD
ATOM      3  H12 UNL     1      27.772  68.025  94.678  1.00  0.00     0.174 HD
HETATM    4  C1  UNL     1      28.860  67.734  96.299  1.00  0.00     0.726 C 
HETATM    5  N2  UNL     1      29.901  68.599  95.878  1.00  0.00    -0.136 N 
ATOM      6  H2  UNL     1      30.557  68.993  96.551  1.00  0.00     0.205 HD
HETATM    7  N4  UNL     1      28.926  67.048  97.548  1.00  0.00    -0.017 N 
HETATM    8  N5  UNL     1      27.954  67.023  98.421  1.00  0.00    -0.270 N 
ATOM      9  H5  UNL     1      27.050  67.484  98.311  1.00  0.00     0.189 HD
HETATM   10  C2  UNL     1      28.327  66.304  99.474  1.00  0.00     0.185 A 
HETATM   11  C3  UNL     1      29.602  65.878  99.202  1.00  0.00     0.278 A 
HETATM   12  O1  UNL     1      30.274  65.160 100.000  1.00  0.00    -0.265 OA
HETATM   13  N6  UNL     1      29.936  66.359  98.005  1.00  0.00    -0.229 N 
ATOM     14  H6  UNL     1      30.826  66.213  97.528  1.00  0.00     0.193 HD
ENDROOT
BRANCH   5  15
HETATM   15  N3  UNL     1      30.006  68.897  94.523  1.00  0.00    -0.331 N 
ATOM     16  H32 UNL     1      30.758  68.486  93.970  1.00  0.00     0.177 HD
ATOM     17  H31 UNL     1      29.319  69.527  94.110  1.00  0.00     0.177 HD
ENDBRANCH   5  15
TORSDOF 1
ENDMDL
MODEL 4
REMARK VINA RESULT: -3.109596757      1.920      2.260
REMARK  1 active torsions:
REMARK  status: ('A' for Active; 'I' for Inactive)
REMARK       I    between atoms: C1_4  and  N2_5 
REMARK       I    between atoms: C1_4  and  N4_10 
REMARK    1  A    between atoms: N2_5  and  N3_7 
ROOT
HETATM    1  N1  UNL     1      26.979  67.105  96.808  1.00  0.00    -0.230 N 
ATOM      2  H11 UNL     1      26.575  66.398  97.423  1.00  0.00     0.174 HD
ATOM      3  H12 UNL     1      26.407  67.601  96.125  1.00  0.00     0.174 HD
HETATM    4  C1  UNL     1      28.228  67.405  96.864  1.00  0.00     0.726 C 
HETATM    5  N2  UNL     1      28.788  68.388  96.009  1.00  0.00    -0.136 N 
ATOM      6  H2  UNL     1      29.671  68.842  96.244  1.00  0.00     0.205 HD
HETATM    7  N4  UNL     1      29.027  66.711  97.819  1.00  0.00    -0.017 N 
HETATM    8  N5  UNL     1      28.701  66.564  99.076  1.00  0.00    -0.270 N 
ATOM      9  H5  UNL     1      27.851  66.922  99.511  1.00  0.00     0.189 HD
HETATM   10  C2  UNL     1      29.651  65.872  99.698  1.00  0.00     0.185 A 
HETATM   11  C3  UNL     1      30.596  65.596  98.744  1.00  0.00     0.278 A 
HETATM   12  O1  UNL     1      31.654  64.944  98.990  1.00  0.00    -0.265 OA
HETATM   13  N6  UNL     1      30.175  66.130  97.598  1.00  0.00    -0.229 N 
ATOM     14  H6  UNL     1      30.664  66.093  96.704  1.00  0.00     0.193 HD
ENDROOT
BRANCH   5  15
HETATM   15  N3  UNL     1      28.106  68.718  94.843  1.00  0.00    -0.331 N 
ATOM     16  H32 UNL     1      27.119  68.972  94.887  1.00  0.00     0.177 HD
ATOM     17  H31 UNL     1      28.616  68.698  93.960  1.00  0.00     0.177 HD
ENDBRANCH   5  15
TORSDOF 1
ENDMDL
MODEL 5
REMARK VINA RESULT: -2.660603682      2.470      4.211
REMARK  1 active torsions:
REMARK  status: ('A' for Active; 'I' for Inactive)
REMARK       I    between atoms: C1_4  and  N2_5 
REMARK       I    between atoms: C1_4  and  N4_10 
REMARK    1  A    between atoms: N2_5  and  N3_7 
ROOT
HETATM    1  N1  UNL     1      26.967  66.741  98.731  1.00  0.00    -0.230 N 
ATOM      2  H11 UNL     1      26.266  67.204  98.152  1.00  0.00     0.174 HD
ATOM      3  H12 UNL     1      26.725  66.343  99.638  1.00  0.00     0.174 HD
HETATM    4  C1  UNL     1      28.189  66.635  98.345  1.00  0.00     0.726 C 
HETATM    5  N2  UNL     1      29.163  65.991  99.150  1.00  0.00    -0.136 N 
ATOM      6  H2  UNL     1      30.027  65.638  98.741  1.00  0.00     0.205 HD
HETATM    7  N4  UNL     1      28.526  67.191  97.076  1.00  0.00    -0.017 N 
HETATM    8  N5  UNL     1      27.848  66.974  95.979  1.00  0.00    -0.270 N 
ATOM      9  H5  UNL     1      27.014  66.391  95.906  1.00  0.00     0.189 HD
HETATM   10  C2  UNL     1      28.417  67.632  94.974  1.00  0.00     0.185 A 
HETATM   11  C3  UNL     1      29.499  68.278  95.516  1.00  0.00     0.278 A 
HETATM   12  O1  UNL     1      30.278  69.008  94.835  1.00  0.00    -0.265 OA
HETATM   13  N6  UNL     1      29.532  67.980  96.815  1.00  0.00    -0.229 N 
ATOM     14  H6  UNL     1      30.223  68.312  97.488  1.00  0.00     0.193 HD
ENDROOT
BRANCH   5  15
HETATM   15  N3  UNL     1      28.911  65.854 100.510  1.00  0.00    -0.331 N 
ATOM     16  H32 UNL     1      27.951  65.878 100.854  1.00  0.00     0.177 HD
ATOM     17  H31 UNL     1      29.703  65.730 101.140  1.00  0.00     0.177 HD
ENDBRANCH   5  15
TORSDOF 1
ENDMDL
