MODEL 1
REMARK VINA RESULT: -4.199811054      0.000      0.000
REMARK  1 active torsions:
REMARK  status: ('A' for Active; 'I' for Inactive)
REMARK    1  A    between atoms: N1_1  and  C1_4 
ROOT
HETATM    1  C1  UNL     1      30.318  65.681  98.530  1.00  0.00     0.694 A 
HETATM    2  N2  UNL     1      29.103  65.513  99.077  1.00  0.00    -0.139 N 
ATOM      3  H2  UNL     1      29.032  64.995  99.953  1.00  0.00     0.189 HD
HETATM    4  C2  UNL     1      27.974  65.997  98.522  1.00  0.00     0.374 A 
HETATM    5  O1  UNL     1      26.872  65.810  99.075  1.00  0.00    -0.244 OA
HETATM    6  N3  UNL     1      28.038  66.684  97.364  1.00  0.00    -0.029 N 
HETATM    7  N4  UNL     1      27.100  67.267  96.602  1.00  0.00    -0.270 N 
ATOM      8  H4  UNL     1      26.100  67.281  96.803  1.00  0.00     0.189 HD
HETATM    9  C3  UNL     1      27.689  67.833  95.532  1.00  0.00     0.216 A 
HETATM   10  N5  UNL     1      28.998  67.583  95.658  1.00  0.00    -0.184 N 
ATOM     11  H5  UNL     1      29.715  67.885  94.998  1.00  0.00     0.185 HD
HETATM   12  C4  UNL     1      29.239  66.871  96.788  1.00  0.00     0.723 A 
HETATM   13  N6  UNL     1      30.350  66.376  97.366  1.00  0.00    -0.020 N 
ATOM     14  H6  UNL     1      31.250  66.530  96.911  1.00  0.00     0.203 HD
ENDROOT
BRANCH   1  15
HETATM   15  N1  UNL     1      31.383  65.212  99.075  1.00  0.00    -0.234 N 
ATOM     16  H12 UNL     1      31.391  64.320  99.568  1.00  0.00     0.174 HD
ATOM     17  H11 UNL     1      32.272  65.710  99.042  1.00  0.00     0.174 HD
ENDBRANCH   1  15
TORSDOF 1
ENDMDL
MODEL 2
REMARK VINA RESULT: -3.608285755      1.591      1.684
REMARK  1 active torsions:
REMARK  status: ('A' for Active; 'I' for Inactive)
REMARK    1  A    between atoms: N1_1  and  C1_4 
ROOT
HETATM    1  C1  UNL     1      30.794  65.675  98.508  1.00  0.00     0.694 A 
HETATM    2  N2  UNL     1      30.417  66.452  99.536  1.00  0.00    -0.139 N 
ATOM      3  H2  UNL     1      31.029  66.514 100.349  1.00  0.00     0.189 HD
HETATM    4  C2  UNL     1      29.267  67.154  99.542  1.00  0.00     0.374 A 
HETATM    5  O1  UNL     1      28.968  67.861 100.525  1.00  0.00    -0.244 OA
HETATM    6  N3  UNL     1      28.437  67.091  98.482  1.00  0.00    -0.029 N 
HETATM    7  N4  UNL     1      27.255  67.669  98.218  1.00  0.00    -0.270 N 
ATOM      8  H4  UNL     1      26.757  68.305  98.840  1.00  0.00     0.189 HD
HETATM    9  C3  UNL     1      26.832  67.276  97.002  1.00  0.00     0.216 A 
HETATM   10  N5  UNL     1      27.777  66.451  96.533  1.00  0.00    -0.184 N 
ATOM     11  H5  UNL     1      27.745  65.986  95.626  1.00  0.00     0.185 HD
HETATM   12  C4  UNL     1      28.784  66.321  97.434  1.00  0.00     0.723 A 
HETATM   13  N6  UNL     1      29.939  65.631  97.455  1.00  0.00    -0.020 N 
ATOM     14  H6  UNL     1      30.181  65.054  96.650  1.00  0.00     0.203 HD
ENDROOT
BRANCH   1  15
HETATM   15  N1  UNL     1      31.896  65.013  98.520  1.00  0.00    -0.234 N 
ATOM     16  H12 UNL     1      31.915  63.994  98.568  1.00  0.00     0.174 HD
ATOM     17  H11 UNL     1      32.804  65.474  98.483  1.00  0.00     0.174 HD
ENDBRANCH   1  15
TORSDOF 1
ENDMDL
MODEL 3
REMARK VINA RESULT: -3.462716776      0.872      3.362
REMARK  1 active torsions:
REMARK  status: ('A' for Active; 'I' for Inactive)
REMARK    1  A    between atoms: N1_1  and  C1_4 
ROOT
HETATM    1  C1  UNL     1      28.132  67.416  96.176  1.00  0.00     0.694 A 
HETATM    2  N2  UNL     1      27.244  67.016  97.101  1.00  0.00    -0.139 N 
ATOM      3  H2  UNL     1      26.264  67.268  96.976  1.00  0.00     0.189 HD
HETATM    4  C2  UNL     1      27.589  66.295  98.186  1.00  0.00     0.374 A 
HETATM    5  O1  UNL     1      26.722  65.950  99.013  1.00  0.00    -0.244 OA
HETATM    6  N3  UNL     1      28.878  65.948  98.379  1.00  0.00    -0.029 N 
HETATM    7  N4  UNL     1      29.495  65.252  99.344  1.00  0.00    -0.270 N 
ATOM      8  H4  UNL     1      29.041  64.839 100.158  1.00  0.00     0.189 HD
HETATM    9  C3  UNL     1      30.812  65.183  99.068  1.00  0.00     0.216 A 
HETATM   10  N5  UNL     1      30.980  65.850  97.919  1.00  0.00    -0.184 N 
ATOM     11  H5  UNL     1      31.875  65.976  97.445  1.00  0.00     0.185 HD
HETATM   12  C4  UNL     1      29.794  66.334  97.472  1.00  0.00     0.723 A 
HETATM   13  N6  UNL     1      29.420  67.052  96.396  1.00  0.00    -0.020 N 
ATOM     14  H6  UNL     1      30.132  67.333  95.722  1.00  0.00     0.203 HD
ENDROOT
BRANCH   1  15
HETATM   15  N1  UNL     1      27.783  68.102  95.147  1.00  0.00    -0.234 N 
ATOM     16  H12 UNL     1      27.213  67.706  94.400  1.00  0.00     0.174 HD
ATOM     17  H11 UNL     1      28.059  69.076  95.026  1.00  0.00     0.174 HD
ENDBRANCH   1  15
TORSDOF 1
ENDMDL
MODEL 4
REMARK VINA RESULT: -3.448314827      1.867      2.767
REMARK  1 active torsions:
REMARK  status: ('A' for Active; 'I' for Inactive)
REMARK    1  A    between atoms: N1_1  and  C1_4 
ROOT
HETATM    1  C1  UNL     1      27.172  66.146  98.572  1.00  0.00     0.694 A 
HETATM    2  N2  UNL     1      28.408  66.262  99.083  1.00  0.00    -0.139 N 
ATOM      3  H2  UNL     1      28.603  65.834  99.988  1.00  0.00     0.189 HD
HETATM    4  C2  UNL     1      29.403  66.919  98.455  1.00  0.00     0.374 A 
HETATM    5  O1  UNL     1      30.534  66.995  98.977  1.00  0.00    -0.244 OA
HETATM    6  N3  UNL     1      29.176  67.496  97.258  1.00  0.00    -0.029 N 
HETATM    7  N4  UNL     1      29.959  68.197  96.425  1.00  0.00    -0.270 N 
ATOM      8  H4  UNL     1      30.941  68.421  96.585  1.00  0.00     0.189 HD
HETATM    9  C3  UNL     1      29.243  68.557  95.342  1.00  0.00     0.216 A 
HETATM   10  N5  UNL     1      28.014  68.062  95.535  1.00  0.00    -0.184 N 
ATOM     11  H5  UNL     1      27.236  68.168  94.883  1.00  0.00     0.185 HD
HETATM   12  C4  UNL     1      27.947  67.399  96.717  1.00  0.00     0.723 A 
HETATM   13  N6  UNL     1      26.972  66.737  97.367  1.00  0.00    -0.020 N 
ATOM     14  H6  UNL     1      26.049  66.676  96.938  1.00  0.00     0.203 HD
ENDROOT
BRANCH   1  15
HETATM   15  N1  UNL     1      26.236  65.515  99.186  1.00  0.00    -0.234 N 
ATOM     16  H12 UNL     1      25.927  65.780 100.121  1.00  0.00     0.174 HD
ATOM     17  H11 UNL     1      25.756  64.718  98.769  1.00  0.00     0.174 HD
ENDBRANCH   1  15
TORSDOF 1
ENDMDL
MODEL 5
REMARK VINA RESULT: -3.107580821      1.175      1.175
REMARK  1 active torsions:
REMARK  status: ('A' for Active; 'I' for Inactive)
REMARK    1  A    between atoms: N1_1  and  C1_4 
ROOT
HETATM    1  C1  UNL     1      29.673  67.039  99.441  1.00  0.00     0.694 A 
HETATM    2  N2  UNL     1      28.534  66.333  99.528  1.00  0.00    -0.139 N 
ATOM      3  H2  UNL     1      28.312  65.874 100.411  1.00  0.00     0.189 HD
HETATM    4  C2  UNL     1      27.672  66.203  98.500  1.00  0.00     0.374 A 
HETATM    5  O1  UNL     1      26.628  65.534  98.637  1.00  0.00    -0.244 OA
HETATM    6  N3  UNL     1      27.939  66.797  97.320  1.00  0.00    -0.029 N 
HETATM    7  N4  UNL     1      27.278  66.838  96.154  1.00  0.00    -0.270 N 
ATOM      8  H4  UNL     1      26.386  66.382  95.964  1.00  0.00     0.189 HD
HETATM    9  C3  UNL     1      27.979  67.578  95.274  1.00  0.00     0.216 A 
HETATM   10  N5  UNL     1      29.075  67.985  95.927  1.00  0.00    -0.184 N 
ATOM     11  H5  UNL     1      29.809  68.568  95.525  1.00  0.00     0.185 HD
HETATM   12  C4  UNL     1      29.073  67.512  97.199  1.00  0.00     0.723 A 
HETATM   13  N6  UNL     1      29.916  67.625  98.243  1.00  0.00    -0.020 N 
ATOM     14  H6  UNL     1      30.769  68.172  98.128  1.00  0.00     0.203 HD
ENDROOT
BRANCH   1  15
HETATM   15  N1  UNL     1      30.483  67.152 100.433  1.00  0.00    -0.234 N 
ATOM     16  H12 UNL     1      30.408  67.911 101.110  1.00  0.00     0.174 HD
ATOM     17  H11 UNL     1      31.241  66.488 100.591  1.00  0.00     0.174 HD
ENDBRANCH   1  15
TORSDOF 1
ENDMDL
