MODEL 1
REMARK VINA RESULT: -5.045260422      0.000      0.000
REMARK  1 active torsions:
REMARK  status: ('A' for Active; 'I' for Inactive)
REMARK    1  A    between atoms: N1_1  and  C1_4 
ROOT
HETATM    1  C1  UNL     1      27.864  66.861  96.751  1.00  0.00     0.171 C 
HETATM    2  N2  UNL     1      26.997  66.816  97.767  1.00  0.00    -0.334 N 
ATOM      3  H2  UNL     1      26.044  67.132  97.584  1.00  0.00     0.168 HD
HETATM    4  C2  UNL     1      27.281  66.382  99.031  1.00  0.00     0.200 C 
HETATM    5  N3  UNL     1      28.483  66.211  99.612  1.00  0.00    -0.185 N 
ATOM      6  H3  UNL     1      28.511  66.248 100.631  1.00  0.00     0.185 HD
HETATM    7  C3  UNL     1      29.649  65.996  98.981  1.00  0.00     0.719 A 
HETATM    8  N4  UNL     1      30.927  65.582  99.221  1.00  0.00    -0.113 N 
ATOM      9  H4  UNL     1      31.430  65.277 100.054  1.00  0.00     0.203 HD
HETATM   10  N5  UNL     1      31.258  65.733  97.944  1.00  0.00     0.018 NA
HETATM   11  N6  UNL     1      30.024  66.136  97.699  1.00  0.00    -0.027 N 
HETATM   12  C4  UNL     1      29.204  66.565  96.697  1.00  0.00     0.324 C 
HETATM   13  O1  UNL     1      29.788  66.690  95.603  1.00  0.00    -0.262 OA
ENDROOT
BRANCH   1  14
HETATM   14  N1  UNL     1      27.373  67.246  95.633  1.00  0.00    -0.381 N 
ATOM     15  H12 UNL     1      26.354  67.292  95.623  1.00  0.00     0.157 HD
ATOM     16  H11 UNL     1      28.059  67.454  94.906  1.00  0.00     0.157 HD
ENDBRANCH   1  14
TORSDOF 1
ENDMDL
MODEL 2
REMARK VINA RESULT: -3.968012353      1.830      3.825
REMARK  1 active torsions:
REMARK  status: ('A' for Active; 'I' for Inactive)
REMARK    1  A    between atoms: N1_1  and  C1_4 
ROOT
HETATM    1  C1  UNL     1      29.276  67.104  99.577  1.00  0.00     0.171 C 
HETATM    2  N2  UNL     1      30.366  66.386  99.285  1.00  0.00    -0.334 N 
ATOM      3  H2  UNL     1      31.071  66.288 100.017  1.00  0.00     0.168 HD
HETATM    4  C2  UNL     1      30.614  65.773  98.090  1.00  0.00     0.200 C 
HETATM    5  N3  UNL     1      30.030  65.988  96.897  1.00  0.00    -0.185 N 
ATOM      6  H3  UNL     1      30.568  65.734  96.068  1.00  0.00     0.185 HD
HETATM    7  C3  UNL     1      28.807  66.504  96.691  1.00  0.00     0.719 A 
HETATM    8  N4  UNL     1      27.863  66.645  95.715  1.00  0.00    -0.113 N 
ATOM      9  H4  UNL     1      27.807  66.364  94.737  1.00  0.00     0.203 HD
HETATM   10  N5  UNL     1      27.049  67.292  96.540  1.00  0.00     0.018 NA
HETATM   11  N6  UNL     1      27.954  67.162  97.494  1.00  0.00    -0.027 N 
HETATM   12  C4  UNL     1      28.198  67.458  98.802  1.00  0.00     0.324 C 
HETATM   13  O1  UNL     1      27.299  68.141  99.328  1.00  0.00    -0.262 OA
ENDROOT
BRANCH   1  14
HETATM   14  N1  UNL     1      29.217  67.541 100.778  1.00  0.00    -0.381 N 
ATOM     15  H12 UNL     1      28.870  68.498 100.853  1.00  0.00     0.157 HD
ATOM     16  H11 UNL     1      29.521  66.882 101.496  1.00  0.00     0.157 HD
ENDBRANCH   1  14
TORSDOF 1
ENDMDL
MODEL 3
REMARK VINA RESULT: -3.926684501      1.465      3.132
REMARK  1 active torsions:
REMARK  status: ('A' for Active; 'I' for Inactive)
REMARK    1  A    between atoms: N1_1  and  C1_4 
ROOT
HETATM    1  C1  UNL     1      28.964  65.793  98.438  1.00  0.00     0.171 C 
HETATM    2  N2  UNL     1      27.673  65.871  98.776  1.00  0.00    -0.334 N 
ATOM      3  H2  UNL     1      27.356  65.290  99.552  1.00  0.00     0.168 HD
HETATM    4  C2  UNL     1      26.742  66.664  98.167  1.00  0.00     0.200 C 
HETATM    5  N3  UNL     1      26.808  67.273  96.968  1.00  0.00    -0.185 N 
ATOM      6  H3  UNL     1      25.922  67.499  96.517  1.00  0.00     0.185 HD
HETATM    7  C3  UNL     1      27.928  67.610  96.308  1.00  0.00     0.719 A 
HETATM    8  N4  UNL     1      28.357  68.379  95.265  1.00  0.00    -0.113 N 
ATOM      9  H4  UNL     1      27.892  68.999  94.603  1.00  0.00     0.203 HD
HETATM   10  N5  UNL     1      29.616  68.003  95.453  1.00  0.00     0.018 NA
HETATM   11  N6  UNL     1      29.214  67.254  96.464  1.00  0.00    -0.027 N 
HETATM   12  C4  UNL     1      29.666  66.395  97.422  1.00  0.00     0.324 C 
HETATM   13  O1  UNL     1      30.885  66.152  97.329  1.00  0.00    -0.262 OA
ENDROOT
BRANCH   1  14
HETATM   14  N1  UNL     1      29.676  65.030  99.179  1.00  0.00    -0.381 N 
ATOM     15  H12 UNL     1      30.675  65.072  98.975  1.00  0.00     0.157 HD
ATOM     16  H11 UNL     1      29.157  64.487  99.869  1.00  0.00     0.157 HD
ENDBRANCH   1  14
TORSDOF 1
ENDMDL
MODEL 4
REMARK VINA RESULT: -3.833361617      1.797      3.331
REMARK  1 active torsions:
REMARK  status: ('A' for Active; 'I' for Inactive)
REMARK    1  A    between atoms: N1_1  and  C1_4 
ROOT
HETATM    1  C1  UNL     1      27.626  66.199  98.284  1.00  0.00     0.171 C 
HETATM    2  N2  UNL     1      28.727  65.509  98.597  1.00  0.00    -0.334 N 
ATOM      3  H2  UNL     1      28.661  64.850  99.374  1.00  0.00     0.168 HD
HETATM    4  C2  UNL     1      29.933  65.612  97.964  1.00  0.00     0.200 C 
HETATM    5  N3  UNL     1      30.373  66.585  97.146  1.00  0.00    -0.185 N 
ATOM      6  H3  UNL     1      31.384  66.700  97.068  1.00  0.00     0.185 HD
HETATM    7  C3  UNL     1      29.611  67.421  96.421  1.00  0.00     0.719 A 
HETATM    8  N4  UNL     1      29.694  68.309  95.388  1.00  0.00    -0.113 N 
ATOM      9  H4  UNL     1      30.454  68.636  94.792  1.00  0.00     0.203 HD
HETATM   10  N5  UNL     1      28.397  68.580  95.464  1.00  0.00     0.018 NA
HETATM   11  N6  UNL     1      28.303  67.724  96.466  1.00  0.00    -0.027 N 
HETATM   12  C4  UNL     1      27.415  67.180  97.346  1.00  0.00     0.324 C 
HETATM   13  O1  UNL     1      26.271  67.666  97.254  1.00  0.00    -0.262 OA
ENDROOT
BRANCH   1  14
HETATM   14  N1  UNL     1      26.585  65.904  98.968  1.00  0.00    -0.381 N 
ATOM     15  H12 UNL     1      25.871  66.634  98.970  1.00  0.00     0.157 HD
ATOM     16  H11 UNL     1      26.605  64.989  99.417  1.00  0.00     0.157 HD
ENDBRANCH   1  14
TORSDOF 1
ENDMDL
MODEL 5
REMARK VINA RESULT: -3.682012804      1.109      1.116
REMARK  1 active torsions:
REMARK  status: ('A' for Active; 'I' for Inactive)
REMARK    1  A    between atoms: N1_1  and  C1_4 
ROOT
HETATM    1  C1  UNL     1      27.972  67.511  96.514  1.00  0.00     0.171 C 
HETATM    2  N2  UNL     1      26.827  66.957  96.924  1.00  0.00    -0.334 N 
ATOM      3  H2  UNL     1      25.988  67.161  96.381  1.00  0.00     0.168 HD
HETATM    4  C2  UNL     1      26.688  66.141  98.011  1.00  0.00     0.200 C 
HETATM    5  N3  UNL     1      27.531  65.964  99.045  1.00  0.00    -0.185 N 
ATOM      6  H3  UNL     1      27.125  65.629  99.919  1.00  0.00     0.185 HD
HETATM    7  C3  UNL     1      28.856  66.187  99.038  1.00  0.00     0.719 A 
HETATM    8  N4  UNL     1      29.981  65.924  99.764  1.00  0.00    -0.113 N 
ATOM      9  H4  UNL     1      30.165  65.420 100.631  1.00  0.00     0.203 HD
HETATM   10  N5  UNL     1      30.742  66.584  98.899  1.00  0.00     0.018 NA
HETATM   11  N6  UNL     1      29.660  66.845  98.187  1.00  0.00    -0.027 N 
HETATM   12  C4  UNL     1      29.235  67.474  97.054  1.00  0.00     0.324 C 
HETATM   13  O1  UNL     1      30.144  68.084  96.460  1.00  0.00    -0.262 OA
ENDROOT
BRANCH   1  14
HETATM   14  N1  UNL     1      27.891  68.195  95.435  1.00  0.00    -0.381 N 
ATOM     15  H12 UNL     1      28.755  68.677  95.185  1.00  0.00     0.157 HD
ATOM     16  H11 UNL     1      26.982  68.169  94.972  1.00  0.00     0.157 HD
ENDBRANCH   1  14
TORSDOF 1
ENDMDL
