MODEL 1
REMARK VINA RESULT: -4.842688402      0.000      0.000
REMARK  1 active torsions:
REMARK  status: ('A' for Active; 'I' for Inactive)
REMARK    1  A    between atoms: N1_1  and  C1_4 
ROOT
HETATM    1  C1  UNL     1      30.520  65.664  98.338  1.00  0.00     0.693 A 
HETATM    2  N2  UNL     1      30.177  66.365  97.248  1.00  0.00    -0.167 N 
ATOM      3  H2  UNL     1      30.822  66.651  96.511  1.00  0.00     0.186 HD
HETATM    4  C2  UNL     1      28.847  66.639  97.269  1.00  0.00     0.228 A 
HETATM    5  C3  UNL     1      27.793  67.242  96.614  1.00  0.00     0.306 A 
HETATM    6  O1  UNL     1      27.878  67.857  95.515  1.00  0.00    -0.263 OA
HETATM    7  N3  UNL     1      26.701  67.043  97.368  1.00  0.00    -0.245 N 
ATOM      8  H3  UNL     1      25.754  67.363  97.164  1.00  0.00     0.187 HD
HETATM    9  N4  UNL     1      27.087  66.351  98.426  1.00  0.00     0.006 NA
HETATM   10  N5  UNL     1      28.381  66.087  98.402  1.00  0.00    -0.143 N 
HETATM   11  N6  UNL     1      29.390  65.498  99.048  1.00  0.00    -0.111 N 
ATOM     12  H6  UNL     1      29.316  65.002  99.936  1.00  0.00     0.207 HD
ENDROOT
BRANCH   1  13
HETATM   13  N1  UNL     1      31.674  65.206  98.704  1.00  0.00    -0.233 N 
ATOM     14  H12 UNL     1      32.563  65.620  98.424  1.00  0.00     0.174 HD
ATOM     15  H11 UNL     1      31.905  64.407  99.293  1.00  0.00     0.174 HD
ENDBRANCH   1  13
TORSDOF 1
ENDMDL
MODEL 2
REMARK VINA RESULT: -4.802136016      1.381      1.655
REMARK  1 active torsions:
REMARK  status: ('A' for Active; 'I' for Inactive)
REMARK    1  A    between atoms: N1_1  and  C1_4 
ROOT
HETATM    1  C1  UNL     1      29.541  65.772  98.458  1.00  0.00     0.693 A 
HETATM    2  N2  UNL     1      30.159  66.463  97.489  1.00  0.00    -0.167 N 
ATOM      3  H2  UNL     1      31.166  66.466  97.325  1.00  0.00     0.186 HD
HETATM    4  C2  UNL     1      29.249  67.157  96.758  1.00  0.00     0.228 A 
HETATM    5  C3  UNL     1      29.049  68.020  95.701  1.00  0.00     0.306 A 
HETATM    6  O1  UNL     1      29.962  68.489  94.965  1.00  0.00    -0.263 OA
HETATM    7  N3  UNL     1      27.728  68.245  95.625  1.00  0.00    -0.245 N 
ATOM      8  H3  UNL     1      27.251  68.841  94.950  1.00  0.00     0.187 HD
HETATM    9  N4  UNL     1      27.166  67.547  96.596  1.00  0.00     0.006 NA
HETATM   10  N5  UNL     1      28.053  66.874  97.304  1.00  0.00    -0.143 N 
HETATM   11  N6  UNL     1      28.229  66.038  98.330  1.00  0.00    -0.111 N 
ATOM     12  H6  UNL     1      27.488  65.661  98.922  1.00  0.00     0.207 HD
ENDROOT
BRANCH   1  13
HETATM   13  N1  UNL     1      30.033  64.991  99.366  1.00  0.00    -0.233 N 
ATOM     14  H12 UNL     1      30.322  65.308 100.291  1.00  0.00     0.174 HD
ATOM     15  H11 UNL     1      30.215  63.988  99.338  1.00  0.00     0.174 HD
ENDBRANCH   1  13
TORSDOF 1
ENDMDL
MODEL 3
REMARK VINA RESULT: -4.409403096      2.018      3.494
REMARK  1 active torsions:
REMARK  status: ('A' for Active; 'I' for Inactive)
REMARK    1  A    between atoms: N1_1  and  C1_4 
ROOT
HETATM    1  C1  UNL     1      27.917  66.899  96.456  1.00  0.00     0.693 A 
HETATM    2  N2  UNL     1      29.153  66.399  96.593  1.00  0.00    -0.167 N 
ATOM      3  H2  UNL     1      29.788  66.191  95.822  1.00  0.00     0.186 HD
HETATM    4  C2  UNL     1      29.438  66.211  97.908  1.00  0.00     0.228 A 
HETATM    5  C3  UNL     1      30.376  65.787  98.826  1.00  0.00     0.306 A 
HETATM    6  O1  UNL     1      31.524  65.347  98.539  1.00  0.00    -0.263 OA
HETATM    7  N3  UNL     1      29.827  65.936 100.041  1.00  0.00    -0.245 N 
ATOM      8  H3  UNL     1      30.261  65.713 100.936  1.00  0.00     0.187 HD
HETATM    9  N4  UNL     1      28.615  66.428  99.855  1.00  0.00     0.006 NA
HETATM   10  N5  UNL     1      28.341  66.609  98.576  1.00  0.00    -0.143 N 
HETATM   11  N6  UNL     1      27.423  67.024  97.701  1.00  0.00    -0.111 N 
ATOM     12  H6  UNL     1      26.496  67.379  97.938  1.00  0.00     0.207 HD
ENDROOT
BRANCH   1  13
HETATM   13  N1  UNL     1      27.262  67.219  95.386  1.00  0.00    -0.233 N 
ATOM     14  H12 UNL     1      27.413  66.782  94.477  1.00  0.00     0.174 HD
ATOM     15  H11 UNL     1      26.529  67.914  95.250  1.00  0.00     0.174 HD
ENDBRANCH   1  13
TORSDOF 1
ENDMDL
MODEL 4
REMARK VINA RESULT: -4.352567910      2.191      3.483
REMARK  1 active torsions:
REMARK  status: ('A' for Active; 'I' for Inactive)
REMARK    1  A    between atoms: N1_1  and  C1_4 
ROOT
HETATM    1  C1  UNL     1      28.486  68.030  95.829  1.00  0.00     0.693 A 
HETATM    2  N2  UNL     1      29.523  67.963  96.675  1.00  0.00    -0.167 N 
ATOM      3  H2  UNL     1      30.333  68.584  96.658  1.00  0.00     0.186 HD
HETATM    4  C2  UNL     1      29.339  66.949  97.559  1.00  0.00     0.228 A 
HETATM    5  C3  UNL     1      29.857  66.264  98.639  1.00  0.00     0.306 A 
HETATM    6  O1  UNL     1      30.957  66.524  99.203  1.00  0.00    -0.263 OA
HETATM    7  N3  UNL     1      28.976  65.300  98.948  1.00  0.00    -0.245 N 
ATOM      8  H3  UNL     1      29.062  64.617  99.701  1.00  0.00     0.187 HD
HETATM    9  N4  UNL     1      27.977  65.406  98.090  1.00  0.00     0.006 NA
HETATM   10  N5  UNL     1      28.159  66.393  97.232  1.00  0.00    -0.143 N 
HETATM   11  N6  UNL     1      27.644  67.046  96.188  1.00  0.00    -0.111 N 
ATOM     12  H6  UNL     1      26.755  66.832  95.736  1.00  0.00     0.207 HD
ENDROOT
BRANCH   1  13
HETATM   13  N1  UNL     1      28.266  68.842  94.845  1.00  0.00    -0.233 N 
ATOM     14  H12 UNL     1      28.555  69.820  94.841  1.00  0.00     0.174 HD
ATOM     15  H11 UNL     1      27.799  68.680  93.953  1.00  0.00     0.174 HD
ENDBRANCH   1  13
TORSDOF 1
ENDMDL
MODEL 5
REMARK VINA RESULT: -4.222235619      2.152      3.747
REMARK  1 active torsions:
REMARK  status: ('A' for Active; 'I' for Inactive)
REMARK    1  A    between atoms: N1_1  and  C1_4 
ROOT
HETATM    1  C1  UNL     1      28.033  67.030  96.413  1.00  0.00     0.693 A 
HETATM    2  N2  UNL     1      27.977  67.505  97.665  1.00  0.00    -0.167 N 
ATOM      3  H2  UNL     1      27.255  68.132  98.020  1.00  0.00     0.186 HD
HETATM    4  C2  UNL     1      29.021  67.029  98.392  1.00  0.00     0.228 A 
HETATM    5  C3  UNL     1      29.650  67.018  99.620  1.00  0.00     0.306 A 
HETATM    6  O1  UNL     1      29.257  67.647 100.641  1.00  0.00    -0.263 OA
HETATM    7  N3  UNL     1      30.726  66.225  99.500  1.00  0.00    -0.245 N 
ATOM      8  H3  UNL     1      31.404  66.005 100.229  1.00  0.00     0.187 HD
HETATM    9  N4  UNL     1      30.738  65.783  98.254  1.00  0.00     0.006 NA
HETATM   10  N5  UNL     1      29.722  66.248  97.551  1.00  0.00    -0.143 N 
HETATM   11  N6  UNL     1      29.126  66.248  96.356  1.00  0.00    -0.111 N 
ATOM     12  H6  UNL     1      29.447  65.737  95.534  1.00  0.00     0.207 HD
ENDROOT
BRANCH   1  13
HETATM   13  N1  UNL     1      27.241  67.234  95.409  1.00  0.00    -0.233 N 
ATOM     14  H12 UNL     1      26.237  67.387  95.501  1.00  0.00     0.174 HD
ATOM     15  H11 UNL     1      27.446  67.277  94.411  1.00  0.00     0.174 HD
ENDBRANCH   1  13
TORSDOF 1
ENDMDL
