MODEL 1
REMARK VINA RESULT: -9.174559376      0.000      0.000
REMARK  17 active torsions:
REMARK  status: ('A' for Active; 'I' for Inactive)
REMARK    1  A    between atoms: O1_2  and  N1_3 
REMARK    2  A    between atoms: C2_5  and  C3_6 
REMARK    3  A    between atoms: C2_5  and  C22_51 
REMARK    4  A    between atoms: C3_6  and  O3_8 
REMARK    5  A    between atoms: O3_8  and  C4_9 
REMARK    6  A    between atoms: C4_9  and  O4_10 
REMARK    7  A    between atoms: C4_9  and  C5_12 
REMARK    8  A    between atoms: N4_17  and  C6_18 
REMARK    9  A    between atoms: C6_18  and  C7_19 
REMARK   10  A    between atoms: C7_19  and  N5_20 
REMARK   11  A    between atoms: N7_26  and  C12_27 
REMARK   12  A    between atoms: C12_27  and  O5_28 
REMARK   13  A    between atoms: C12_27  and  C13_30 
REMARK   14  A    between atoms: C15_33  and  N8_34 
REMARK   15  A    between atoms: C17_40  and  C18_41 
REMARK       I    between atoms: C18_41  and  N10_43 
REMARK       I    between atoms: N10_43  and  C19_45 
REMARK   16  A    between atoms: C21_48  and  O8_49 
REMARK   17  A    between atoms: C24_54  and  N11_55 
ROOT
HETATM    1  C6  UNL     1      45.291 -15.197  29.111  1.00  0.00     0.197 C 
ENDROOT
BRANCH   1   2
HETATM    2  N4  UNL     1      44.177 -14.928  29.939  1.00  0.00    -0.250 N 
HETATM    3  N3  UNL     1      44.194 -14.309  31.106  1.00  0.00    -0.238 N 
HETATM    4  N2  UNL     1      43.010 -14.235  31.656  1.00  0.00    -0.281 N 
ATOM      5  H3  UNL     1      45.039 -13.930  31.532  1.00  0.00     0.208 HD
HETATM    6  C5  UNL     1      42.126 -14.839  30.818  1.00  0.00     0.134 A 
ATOM      7  H2  UNL     1      42.790 -13.802  32.552  1.00  0.00     0.188 HD
HETATM    8  C21 UNL     1      42.889 -15.264  29.750  1.00  0.00     0.188 A 
BRANCH   6   9
HETATM    9  C4  UNL     1      40.652 -14.992  31.045  1.00  0.00     0.324 C 
BRANCH   9  10
HETATM   10  O3  UNL     1      39.919 -14.755  29.858  1.00  0.00    -0.279 OA
BRANCH  10  11
HETATM   11  C3  UNL     1      39.137 -13.581  29.688  1.00  0.00     0.317 C 
HETATM   12  O2  UNL     1      38.006 -13.673  30.181  1.00  0.00    -0.257 OA
BRANCH  11  13
HETATM   13  C2  UNL     1      39.713 -12.445  28.990  1.00  0.00     0.156 C 
HETATM   14  N1  UNL     1      39.664 -11.344  29.603  1.00  0.00    -0.259 N 
ATOM     15  H1  UNL     1      39.218 -11.422  30.516  1.00  0.00     0.194 HD
BRANCH  14  16
HETATM   16  O1  UNL     1      40.058 -10.116  29.334  1.00  0.00    -0.285 OA
HETATM   17  C1  UNL     1      39.442  -9.011  30.014  1.00  0.00     0.237 C 
ENDBRANCH  14  16
BRANCH  13  18
HETATM   18  C22 UNL     1      40.332 -12.648  27.655  1.00  0.00     0.075 A 
HETATM   19  C23 UNL     1      40.151 -11.680  26.687  1.00  0.00     0.085 A 
HETATM   20  S2  UNL     1      40.976 -12.338  25.345  1.00  0.00    -0.064 SA
HETATM   21  C24 UNL     1      41.501 -13.780  26.055  1.00  0.00     0.142 A 
HETATM   22  N12 UNL     1      41.024 -13.705  27.301  1.00  0.00    -0.335 N 
ATOM     23  H12 UNL     1      41.195 -14.459  27.966  1.00  0.00     0.168 HD
BRANCH  21  24
HETATM   24  N11 UNL     1      42.212 -14.770  25.545  1.00  0.00    -0.380 N 
ATOM     25 2H11 UNL     1      42.264 -15.035  24.562  1.00  0.00     0.158 HD
ATOM     26 1H11 UNL     1      42.826 -15.442  26.004  1.00  0.00     0.158 HD
ENDBRANCH  21  24
ENDBRANCH  13  18
ENDBRANCH  11  13
ENDBRANCH  10  11
ENDBRANCH   9  10
BRANCH   9  27
HETATM   27  O4  UNL     1      40.412 -16.310  31.423  1.00  0.00    -0.365 OA
ATOM     28  H4  UNL     1      41.254 -16.747  31.475  1.00  0.00     0.213 HD
ENDBRANCH   9  27
ENDBRANCH   6   9
BRANCH   8  29
HETATM   29  O8  UNL     1      42.368 -15.941  28.649  1.00  0.00    -0.343 OA
ATOM     30  H8  UNL     1      42.781 -15.951  27.794  1.00  0.00     0.219 HD
ENDBRANCH   8  29
ENDBRANCH   1   2
BRANCH   1  31
HETATM   31  C7  UNL     1      46.654 -15.148  29.711  1.00  0.00     0.088 C 
BRANCH  31  32
HETATM   32  N5  UNL     1      47.161 -16.291  30.350  1.00  0.00    -0.323 N 
HETATM   33  C8  UNL     1      46.537 -17.534  30.147  1.00  0.00     0.097 C 
HETATM   34  C9  UNL     1      46.322 -18.078  31.551  1.00  0.00     0.321 C 
HETATM   35  N6  UNL     1      47.301 -17.408  32.331  1.00  0.00     0.139 N 
HETATM   36  C10 UNL     1      47.040 -17.348  33.737  1.00  0.00     0.297 C 
HETATM   37  C17 UNL     1      47.586 -16.142  31.721  1.00  0.00     0.350 C 
HETATM   38  C11 UNL     1      46.088 -16.260  34.116  1.00  0.00     0.155 C 
HETATM   39  N7  UNL     1      46.626 -15.011  33.732  1.00  0.00    -0.356 N 
HETATM   40  C16 UNL     1      46.994 -14.953  32.385  1.00  0.00     0.136 C 
BRANCH  39  41
HETATM   41  C12 UNL     1      47.379 -14.314  34.700  1.00  0.00     0.271 C 
BRANCH  41  42
HETATM   42  O5  UNL     1      48.554 -15.086  34.923  1.00  0.00    -0.371 OA
ATOM     43  H5  UNL     1      48.652 -15.155  35.865  1.00  0.00     0.212 HD
ENDBRANCH  41  42
BRANCH  41  44
HETATM   44  C13 UNL     1      46.628 -14.345  36.028  1.00  0.00     0.066 A 
HETATM   45  C14 UNL     1      47.110 -15.098  37.072  1.00  0.00     0.082 A 
HETATM   46  S1  UNL     1      45.950 -14.813  38.284  1.00  0.00    -0.064 SA
HETATM   47  C15 UNL     1      44.926 -13.762  37.410  1.00  0.00     0.142 A 
HETATM   48  N9  UNL     1      45.526 -13.679  36.222  1.00  0.00    -0.336 N 
ATOM     49  H9  UNL     1      45.128 -13.105  35.478  1.00  0.00     0.168 HD
BRANCH  47  50
HETATM   50  N8  UNL     1      43.815 -13.174  37.804  1.00  0.00    -0.380 N 
ATOM     51  H82 UNL     1      43.008 -13.595  38.263  1.00  0.00     0.158 HD
ATOM     52  H81 UNL     1      43.549 -12.192  37.727  1.00  0.00     0.158 HD
ENDBRANCH  47  50
ENDBRANCH  41  44
ENDBRANCH  39  41
BRANCH  37  53
HETATM   53  C18 UNL     1      49.058 -16.002  31.730  1.00  0.00     0.290 C 
HETATM   54  O6  UNL     1      49.770 -17.000  31.516  1.00  0.00    -0.268 OA
HETATM   55  N10 UNL     1      49.650 -14.751  31.976  1.00  0.00    -0.294 N 
HETATM   56  C19 UNL     1      51.069 -14.611  31.991  1.00  0.00     0.220 C 
ATOM     57  H10 UNL     1      49.060 -13.937  32.145  1.00  0.00     0.171 HD
HETATM   58  C20 UNL     1      51.713 -13.298  32.253  1.00  0.00     0.117 C 
HETATM   59  O7  UNL     1      51.784 -15.629  31.777  1.00  0.00    -0.274 OA
ENDBRANCH  37  53
ENDBRANCH  31  32
ENDBRANCH   1  31
TORSDOF 17
ENDMDL
MODEL 2
REMARK VINA RESULT: -8.992901075      2.852      5.625
REMARK  17 active torsions:
REMARK  status: ('A' for Active; 'I' for Inactive)
REMARK    1  A    between atoms: O1_2  and  N1_3 
REMARK    2  A    between atoms: C2_5  and  C3_6 
REMARK    3  A    between atoms: C2_5  and  C22_51 
REMARK    4  A    between atoms: C3_6  and  O3_8 
REMARK    5  A    between atoms: O3_8  and  C4_9 
REMARK    6  A    between atoms: C4_9  and  O4_10 
REMARK    7  A    between atoms: C4_9  and  C5_12 
REMARK    8  A    between atoms: N4_17  and  C6_18 
REMARK    9  A    between atoms: C6_18  and  C7_19 
REMARK   10  A    between atoms: C7_19  and  N5_20 
REMARK   11  A    between atoms: N7_26  and  C12_27 
REMARK   12  A    between atoms: C12_27  and  O5_28 
REMARK   13  A    between atoms: C12_27  and  C13_30 
REMARK   14  A    between atoms: C15_33  and  N8_34 
REMARK   15  A    between atoms: C17_40  and  C18_41 
REMARK       I    between atoms: C18_41  and  N10_43 
REMARK       I    between atoms: N10_43  and  C19_45 
REMARK   16  A    between atoms: C21_48  and  O8_49 
REMARK   17  A    between atoms: C24_54  and  N11_55 
ROOT
HETATM    1  C6  UNL     1      42.647 -12.854  36.618  1.00  0.00     0.197 C 
ENDROOT
BRANCH   1   2
HETATM    2  N4  UNL     1      41.488 -12.936  35.813  1.00  0.00    -0.250 N 
HETATM    3  N3  UNL     1      40.234 -12.911  36.230  1.00  0.00    -0.238 N 
HETATM    4  N2  UNL     1      39.374 -13.037  35.254  1.00  0.00    -0.281 N 
ATOM      5  H3  UNL     1      39.967 -12.804  37.208  1.00  0.00     0.208 HD
HETATM    6  C5  UNL     1      40.076 -13.157  34.095  1.00  0.00     0.134 A 
ATOM      7  H2  UNL     1      38.358 -13.044  35.345  1.00  0.00     0.188 HD
HETATM    8  C21 UNL     1      41.400 -13.090  34.479  1.00  0.00     0.188 A 
BRANCH   6   9
HETATM    9  C4  UNL     1      39.498 -13.328  32.722  1.00  0.00     0.324 C 
BRANCH   9  10
HETATM   10  O3  UNL     1      40.160 -14.356  32.009  1.00  0.00    -0.279 OA
BRANCH  10  11
HETATM   11  C3  UNL     1      40.106 -14.431  30.591  1.00  0.00     0.317 C 
HETATM   12  O2  UNL     1      38.965 -14.627  30.156  1.00  0.00    -0.257 OA
BRANCH  11  13
HETATM   13  C2  UNL     1      41.334 -14.276  29.831  1.00  0.00     0.156 C 
HETATM   14  N1  UNL     1      42.403 -14.463  30.475  1.00  0.00    -0.259 N 
ATOM     15  H1  UNL     1      42.236 -14.700  31.452  1.00  0.00     0.194 HD
BRANCH  14  16
HETATM   16  O1  UNL     1      43.684 -14.422  30.174  1.00  0.00    -0.285 OA
HETATM   17  C1  UNL     1      44.367 -15.636  29.822  1.00  0.00     0.237 C 
ENDBRANCH  14  16
BRANCH  13  18
HETATM   18  C22 UNL     1      41.259 -13.950  28.384  1.00  0.00     0.075 A 
HETATM   19  C23 UNL     1      41.728 -14.873  27.472  1.00  0.00     0.085 A 
HETATM   20  S2  UNL     1      41.491 -14.077  25.980  1.00  0.00    -0.064 SA
HETATM   21  C24 UNL     1      40.823 -12.639  26.568  1.00  0.00     0.142 A 
HETATM   22  N12 UNL     1      40.805 -12.821  27.891  1.00  0.00    -0.335 N 
ATOM     23  H12 UNL     1      40.444 -12.095  28.509  1.00  0.00     0.168 HD
BRANCH  21  24
HETATM   24  N11 UNL     1      40.404 -11.567  25.918  1.00  0.00    -0.380 N 
ATOM     25 2H11 UNL     1      40.988 -10.888  25.430  1.00  0.00     0.158 HD
ATOM     26 1H11 UNL     1      39.459 -11.212  25.776  1.00  0.00     0.158 HD
ENDBRANCH  21  24
ENDBRANCH  13  18
ENDBRANCH  11  13
ENDBRANCH  10  11
ENDBRANCH   9  10
BRANCH   9  27
HETATM   27  O4  UNL     1      38.168 -13.710  32.863  1.00  0.00    -0.365 OA
ATOM     28  H4  UNL     1      38.005 -13.830  33.792  1.00  0.00     0.213 HD
ENDBRANCH   9  27
ENDBRANCH   6   9
BRANCH   8  29
HETATM   29  O8  UNL     1      42.467 -13.173  33.589  1.00  0.00    -0.343 OA
ATOM     30  H8  UNL     1      42.719 -12.471  33.001  1.00  0.00     0.219 HD
ENDBRANCH   8  29
ENDBRANCH   1   2
BRANCH   1  31
HETATM   31  C7  UNL     1      43.830 -13.683  36.251  1.00  0.00     0.088 C 
BRANCH  31  32
HETATM   32  N5  UNL     1      43.733 -15.081  36.323  1.00  0.00    -0.323 N 
HETATM   33  C8  UNL     1      43.687 -15.711  37.579  1.00  0.00     0.097 C 
HETATM   34  C9  UNL     1      44.749 -16.796  37.492  1.00  0.00     0.321 C 
HETATM   35  N6  UNL     1      44.877 -17.041  36.099  1.00  0.00     0.139 N 
HETATM   36  C10 UNL     1      46.106 -17.645  35.685  1.00  0.00     0.297 C 
HETATM   37  C17 UNL     1      44.530 -15.843  35.390  1.00  0.00     0.350 C 
HETATM   38  C11 UNL     1      47.230 -16.668  35.551  1.00  0.00     0.155 C 
HETATM   39  N7  UNL     1      46.891 -15.694  34.585  1.00  0.00    -0.356 N 
HETATM   40  C16 UNL     1      45.666 -15.067  34.831  1.00  0.00     0.136 C 
BRANCH  39  41
HETATM   41  C12 UNL     1      47.306 -15.936  33.259  1.00  0.00     0.271 C 
BRANCH  41  42
HETATM   42  O5  UNL     1      47.628 -17.321  33.188  1.00  0.00    -0.371 OA
ATOM     43  H5  UNL     1      48.062 -17.451  32.354  1.00  0.00     0.212 HD
ENDBRANCH  41  42
BRANCH  41  44
HETATM   44  C13 UNL     1      48.625 -15.210  33.012  1.00  0.00     0.066 A 
HETATM   45  C14 UNL     1      49.307 -15.407  31.835  1.00  0.00     0.082 A 
HETATM   46  S1  UNL     1      50.672 -14.412  32.043  1.00  0.00    -0.064 SA
HETATM   47  C15 UNL     1      50.307 -13.805  33.597  1.00  0.00     0.142 A 
HETATM   48  N9  UNL     1      49.148 -14.399  33.885  1.00  0.00    -0.336 N 
ATOM     49  H9  UNL     1      48.680 -14.220  34.774  1.00  0.00     0.168 HD
BRANCH  47  50
HETATM   50  N8  UNL     1      50.996 -12.960  34.337  1.00  0.00    -0.380 N 
ATOM     51  H82 UNL     1      51.007 -11.942  34.286  1.00  0.00     0.158 HD
ATOM     52  H81 UNL     1      51.645 -13.158  35.099  1.00  0.00     0.158 HD
ENDBRANCH  47  50
ENDBRANCH  41  44
ENDBRANCH  39  41
BRANCH  37  53
HETATM   53  C18 UNL     1      43.653 -16.262  34.277  1.00  0.00     0.290 C 
HETATM   54  O6  UNL     1      43.764 -15.712  33.167  1.00  0.00    -0.268 OA
HETATM   55  N10 UNL     1      42.698 -17.277  34.470  1.00  0.00    -0.294 N 
HETATM   56  C19 UNL     1      41.845 -17.682  33.401  1.00  0.00     0.220 C 
ATOM     57  H10 UNL     1      42.615 -17.727  35.381  1.00  0.00     0.171 HD
HETATM   58  C20 UNL     1      40.828 -18.749  33.586  1.00  0.00     0.117 C 
HETATM   59  O7  UNL     1      41.963 -17.116  32.279  1.00  0.00    -0.274 OA
ENDBRANCH  37  53
ENDBRANCH  31  32
ENDBRANCH   1  31
TORSDOF 17
ENDMDL
MODEL 3
REMARK VINA RESULT: -8.882158655      2.657      5.231
REMARK  17 active torsions:
REMARK  status: ('A' for Active; 'I' for Inactive)
REMARK    1  A    between atoms: O1_2  and  N1_3 
REMARK    2  A    between atoms: C2_5  and  C3_6 
REMARK    3  A    between atoms: C2_5  and  C22_51 
REMARK    4  A    between atoms: C3_6  and  O3_8 
REMARK    5  A    between atoms: O3_8  and  C4_9 
REMARK    6  A    between atoms: C4_9  and  O4_10 
REMARK    7  A    between atoms: C4_9  and  C5_12 
REMARK    8  A    between atoms: N4_17  and  C6_18 
REMARK    9  A    between atoms: C6_18  and  C7_19 
REMARK   10  A    between atoms: C7_19  and  N5_20 
REMARK   11  A    between atoms: N7_26  and  C12_27 
REMARK   12  A    between atoms: C12_27  and  O5_28 
REMARK   13  A    between atoms: C12_27  and  C13_30 
REMARK   14  A    between atoms: C15_33  and  N8_34 
REMARK   15  A    between atoms: C17_40  and  C18_41 
REMARK       I    between atoms: C18_41  and  N10_43 
REMARK       I    between atoms: N10_43  and  C19_45 
REMARK   16  A    between atoms: C21_48  and  O8_49 
REMARK   17  A    between atoms: C24_54  and  N11_55 
ROOT
HETATM    1  C6  UNL     1      43.308 -13.484  36.113  1.00  0.00     0.197 C 
ENDROOT
BRANCH   1   2
HETATM    2  N4  UNL     1      42.245 -12.965  35.340  1.00  0.00    -0.250 N 
HETATM    3  N3  UNL     1      41.834 -11.710  35.305  1.00  0.00    -0.238 N 
HETATM    4  N2  UNL     1      40.805 -11.536  34.517  1.00  0.00    -0.281 N 
ATOM      5  H3  UNL     1      42.273 -10.957  35.836  1.00  0.00     0.208 HD
HETATM    6  C5  UNL     1      40.488 -12.743  33.978  1.00  0.00     0.134 A 
ATOM      7  H2  UNL     1      40.327 -10.654  34.339  1.00  0.00     0.188 HD
HETATM    8  C21 UNL     1      41.409 -13.620  34.513  1.00  0.00     0.188 A 
BRANCH   6   9
HETATM    9  C4  UNL     1      39.370 -13.019  33.017  1.00  0.00     0.324 C 
BRANCH   9  10
HETATM   10  O3  UNL     1      39.861 -13.498  31.779  1.00  0.00    -0.279 OA
BRANCH  10  11
HETATM   11  C3  UNL     1      39.145 -13.298  30.568  1.00  0.00     0.317 C 
HETATM   12  O2  UNL     1      38.187 -14.069  30.434  1.00  0.00    -0.257 OA
BRANCH  11  13
HETATM   13  C2  UNL     1      39.585 -12.259  29.653  1.00  0.00     0.156 C 
HETATM   14  N1  UNL     1      39.455 -11.075  30.068  1.00  0.00    -0.259 N 
ATOM     15  H1  UNL     1      39.053 -11.027  31.003  1.00  0.00     0.194 HD
BRANCH  14  16
HETATM   16  O1  UNL     1      39.721  -9.885  29.569  1.00  0.00    -0.285 OA
HETATM   17  C1  UNL     1      39.331  -8.710  30.297  1.00  0.00     0.237 C 
ENDBRANCH  14  16
BRANCH  13  18
HETATM   18  C22 UNL     1      40.170 -12.642  28.343  1.00  0.00     0.075 A 
HETATM   19  C23 UNL     1      40.691 -13.912  28.195  1.00  0.00     0.085 A 
HETATM   20  S2  UNL     1      41.276 -13.890  26.592  1.00  0.00    -0.064 SA
HETATM   21  C24 UNL     1      40.844 -12.305  26.189  1.00  0.00     0.142 A 
HETATM   22  N12 UNL     1      40.265 -11.848  27.302  1.00  0.00    -0.335 N 
ATOM     23  H12 UNL     1      39.901 -10.896  27.343  1.00  0.00     0.168 HD
BRANCH  21  24
HETATM   24  N11 UNL     1      41.016 -11.636  25.062  1.00  0.00    -0.380 N 
ATOM     25 2H11 UNL     1      41.863 -11.147  24.771  1.00  0.00     0.158 HD
ATOM     26 1H11 UNL     1      40.373 -11.477  24.288  1.00  0.00     0.158 HD
ENDBRANCH  21  24
ENDBRANCH  13  18
ENDBRANCH  11  13
ENDBRANCH  10  11
ENDBRANCH   9  10
BRANCH   9  27
HETATM   27  O4  UNL     1      38.575 -14.021  33.563  1.00  0.00    -0.365 OA
ATOM     28  H4  UNL     1      37.758 -13.618  33.834  1.00  0.00     0.213 HD
ENDBRANCH   9  27
ENDBRANCH   6   9
BRANCH   8  29
HETATM   29  O8  UNL     1      41.442 -14.981  34.220  1.00  0.00    -0.343 OA
ATOM     30  H8  UNL     1      40.664 -15.508  34.081  1.00  0.00     0.219 HD
ENDBRANCH   8  29
ENDBRANCH   1   2
BRANCH   1  31
HETATM   31  C7  UNL     1      44.569 -13.874  35.422  1.00  0.00     0.088 C 
BRANCH  31  32
HETATM   32  N5  UNL     1      45.320 -14.948  35.924  1.00  0.00    -0.323 N 
HETATM   33  C8  UNL     1      46.304 -14.711  36.901  1.00  0.00     0.097 C 
HETATM   34  C9  UNL     1      47.542 -15.410  36.361  1.00  0.00     0.321 C 
HETATM   35  N6  UNL     1      47.023 -16.398  35.483  1.00  0.00     0.139 N 
HETATM   36  C10 UNL     1      47.929 -16.880  34.485  1.00  0.00     0.297 C 
HETATM   37  C17 UNL     1      45.761 -15.942  34.975  1.00  0.00     0.350 C 
HETATM   38  C11 UNL     1      48.038 -15.977  33.299  1.00  0.00     0.155 C 
HETATM   39  N7  UNL     1      46.770 -15.846  32.691  1.00  0.00    -0.356 N 
HETATM   40  C16 UNL     1      45.766 -15.444  33.576  1.00  0.00     0.136 C 
BRANCH  39  41
HETATM   41  C12 UNL     1      46.469 -16.738  31.640  1.00  0.00     0.271 C 
BRANCH  41  42
HETATM   42  O5  UNL     1      47.505 -16.582  30.676  1.00  0.00    -0.371 OA
ATOM     43  H5  UNL     1      47.825 -17.456  30.486  1.00  0.00     0.212 HD
ENDBRANCH  41  42
BRANCH  41  44
HETATM   44  C13 UNL     1      45.200 -16.264  30.936  1.00  0.00     0.066 A 
HETATM   45  C14 UNL     1      45.256 -15.851  29.626  1.00  0.00     0.082 A 
HETATM   46  S1  UNL     1      43.636 -15.430  29.316  1.00  0.00    -0.064 SA
HETATM   47  C15 UNL     1      42.982 -15.798  30.851  1.00  0.00     0.142 A 
HETATM   48  N9  UNL     1      44.044 -16.229  31.533  1.00  0.00    -0.336 N 
ATOM     49  H9  UNL     1      43.952 -16.526  32.505  1.00  0.00     0.168 HD
BRANCH  47  50
HETATM   50  N8  UNL     1      41.737 -15.686  31.267  1.00  0.00    -0.380 N 
ATOM     51  H82 UNL     1      40.944 -15.273  30.778  1.00  0.00     0.158 HD
ATOM     52  H81 UNL     1      41.329 -15.987  32.152  1.00  0.00     0.158 HD
ENDBRANCH  47  50
ENDBRANCH  41  44
ENDBRANCH  39  41
BRANCH  37  53
HETATM   53  C18 UNL     1      44.841 -17.095  35.062  1.00  0.00     0.290 C 
HETATM   54  O6  UNL     1      43.842 -17.140  34.321  1.00  0.00    -0.268 OA
HETATM   55  N10 UNL     1      45.091 -18.136  35.974  1.00  0.00    -0.294 N 
HETATM   56  C19 UNL     1      44.204 -19.249  36.066  1.00  0.00     0.220 C 
ATOM     57  H10 UNL     1      45.914 -18.095  36.574  1.00  0.00     0.171 HD
HETATM   58  C20 UNL     1      44.450 -20.356  37.025  1.00  0.00     0.117 C 
HETATM   59  O7  UNL     1      43.191 -19.284  35.314  1.00  0.00    -0.274 OA
ENDBRANCH  37  53
ENDBRANCH  31  32
ENDBRANCH   1  31
TORSDOF 17
ENDMDL
MODEL 4
REMARK VINA RESULT: -8.878576398      2.644      4.430
REMARK  17 active torsions:
REMARK  status: ('A' for Active; 'I' for Inactive)
REMARK    1  A    between atoms: O1_2  and  N1_3 
REMARK    2  A    between atoms: C2_5  and  C3_6 
REMARK    3  A    between atoms: C2_5  and  C22_51 
REMARK    4  A    between atoms: C3_6  and  O3_8 
REMARK    5  A    between atoms: O3_8  and  C4_9 
REMARK    6  A    between atoms: C4_9  and  O4_10 
REMARK    7  A    between atoms: C4_9  and  C5_12 
REMARK    8  A    between atoms: N4_17  and  C6_18 
REMARK    9  A    between atoms: C6_18  and  C7_19 
REMARK   10  A    between atoms: C7_19  and  N5_20 
REMARK   11  A    between atoms: N7_26  and  C12_27 
REMARK   12  A    between atoms: C12_27  and  O5_28 
REMARK   13  A    between atoms: C12_27  and  C13_30 
REMARK   14  A    between atoms: C15_33  and  N8_34 
REMARK   15  A    between atoms: C17_40  and  C18_41 
REMARK       I    between atoms: C18_41  and  N10_43 
REMARK       I    between atoms: N10_43  and  C19_45 
REMARK   16  A    between atoms: C21_48  and  O8_49 
REMARK   17  A    between atoms: C24_54  and  N11_55 
ROOT
HETATM    1  C6  UNL     1      44.562 -18.540  33.731  1.00  0.00     0.197 C 
ENDROOT
BRANCH   1   2
HETATM    2  N4  UNL     1      44.716 -17.874  32.494  1.00  0.00    -0.250 N 
HETATM    3  N3  UNL     1      45.778 -17.908  31.708  1.00  0.00    -0.238 N 
HETATM    4  N2  UNL     1      45.640 -17.165  30.641  1.00  0.00    -0.281 N 
ATOM      5  H3  UNL     1      46.614 -18.455  31.911  1.00  0.00     0.208 HD
HETATM    6  C5  UNL     1      44.412 -16.584  30.696  1.00  0.00     0.134 A 
ATOM      7  H2  UNL     1      46.330 -17.043  29.900  1.00  0.00     0.188 HD
HETATM    8  C21 UNL     1      43.857 -17.049  31.871  1.00  0.00     0.188 A 
BRANCH   6   9
HETATM    9  C4  UNL     1      43.828 -15.646  29.682  1.00  0.00     0.324 C 
BRANCH   9  10
HETATM   10  O3  UNL     1      42.437 -15.854  29.528  1.00  0.00    -0.279 OA
BRANCH  10  11
HETATM   11  C3  UNL     1      41.749 -15.444  28.354  1.00  0.00     0.317 C 
HETATM   12  O2  UNL     1      41.734 -16.309  27.470  1.00  0.00    -0.257 OA
BRANCH  11  13
HETATM   13  C2  UNL     1      41.160 -14.117  28.311  1.00  0.00     0.156 C 
HETATM   14  N1  UNL     1      40.825 -13.631  29.426  1.00  0.00    -0.259 N 
ATOM     15  H1  UNL     1      41.024 -14.259  30.204  1.00  0.00     0.194 HD
BRANCH  14  16
HETATM   16  O1  UNL     1      40.277 -12.499  29.815  1.00  0.00    -0.285 OA
HETATM   17  C1  UNL     1      38.886 -12.473  30.175  1.00  0.00     0.237 C 
ENDBRANCH  14  16
BRANCH  13  18
HETATM   18  C22 UNL     1      41.022 -13.423  27.005  1.00  0.00     0.075 A 
HETATM   19  C23 UNL     1      40.388 -12.197  26.971  1.00  0.00     0.085 A 
HETATM   20  S2  UNL     1      40.419 -11.809  25.309  1.00  0.00    -0.064 SA
HETATM   21  C24 UNL     1      41.217 -13.189  24.744  1.00  0.00     0.142 A 
HETATM   22  N12 UNL     1      41.432 -13.900  25.854  1.00  0.00    -0.335 N 
ATOM     23  H12 UNL     1      41.907 -14.801  25.807  1.00  0.00     0.168 HD
BRANCH  21  24
HETATM   24  N11 UNL     1      41.566 -13.527  23.515  1.00  0.00    -0.380 N 
ATOM     25 2H11 UNL     1      41.048 -14.141  22.886  1.00  0.00     0.158 HD
ATOM     26 1H11 UNL     1      42.383 -13.260  22.966  1.00  0.00     0.158 HD
ENDBRANCH  21  24
ENDBRANCH  13  18
ENDBRANCH  11  13
ENDBRANCH  10  11
ENDBRANCH   9  10
BRANCH   9  27
HETATM   27  O4  UNL     1      44.004 -14.348  30.150  1.00  0.00    -0.365 OA
ATOM     28  H4  UNL     1      43.146 -14.014  30.388  1.00  0.00     0.213 HD
ENDBRANCH   9  27
ENDBRANCH   6   9
BRANCH   8  29
HETATM   29  O8  UNL     1      42.586 -16.694  32.317  1.00  0.00    -0.343 OA
ATOM     30  H8  UNL     1      42.405 -16.382  33.196  1.00  0.00     0.219 HD
ENDBRANCH   8  29
ENDBRANCH   1   2
BRANCH   1  31
HETATM   31  C7  UNL     1      44.600 -17.734  34.984  1.00  0.00     0.088 C 
BRANCH  31  32
HETATM   32  N5  UNL     1      45.692 -16.883  35.216  1.00  0.00    -0.323 N 
HETATM   33  C8  UNL     1      46.609 -17.191  36.236  1.00  0.00     0.097 C 
HETATM   34  C9  UNL     1      46.725 -15.903  37.036  1.00  0.00     0.321 C 
HETATM   35  N6  UNL     1      46.342 -14.892  36.115  1.00  0.00     0.139 N 
HETATM   36  C10 UNL     1      45.897 -13.661  36.694  1.00  0.00     0.297 C 
HETATM   37  C17 UNL     1      45.440 -15.463  35.157  1.00  0.00     0.350 C 
HETATM   38  C11 UNL     1      44.472 -13.700  37.145  1.00  0.00     0.155 C 
HETATM   39  N7  UNL     1      43.637 -13.973  36.038  1.00  0.00    -0.356 N 
HETATM   40  C16 UNL     1      44.005 -15.121  35.332  1.00  0.00     0.136 C 
BRANCH  39  41
HETATM   41  C12 UNL     1      43.104 -12.862  35.351  1.00  0.00     0.271 C 
BRANCH  41  42
HETATM   42  O5  UNL     1      42.712 -11.926  36.349  1.00  0.00    -0.371 OA
ATOM     43  H5  UNL     1      42.749 -11.070  35.940  1.00  0.00     0.212 HD
ENDBRANCH  41  42
BRANCH  41  44
HETATM   44  C13 UNL     1      41.804 -13.280  34.669  1.00  0.00     0.066 A 
HETATM   45  C14 UNL     1      40.595 -12.916  35.213  1.00  0.00     0.082 A 
HETATM   46  S1  UNL     1      39.489 -13.606  34.121  1.00  0.00    -0.064 SA
HETATM   47  C15 UNL     1      40.608 -14.313  33.041  1.00  0.00     0.142 A 
HETATM   48  N9  UNL     1      41.786 -13.984  33.574  1.00  0.00    -0.336 N 
ATOM     49  H9  UNL     1      42.657 -14.278  33.131  1.00  0.00     0.168 HD
BRANCH  47  50
HETATM   50  N8  UNL     1      40.376 -15.013  31.950  1.00  0.00    -0.380 N 
ATOM     51  H82 UNL     1      41.027 -15.249  31.201  1.00  0.00     0.158 HD
ATOM     52  H81 UNL     1      39.508 -15.453  31.644  1.00  0.00     0.158 HD
ENDBRANCH  47  50
ENDBRANCH  41  44
ENDBRANCH  39  41
BRANCH  37  53
HETATM   53  C18 UNL     1      45.882 -14.976  33.834  1.00  0.00     0.290 C 
HETATM   54  O6  UNL     1      45.090 -14.334  33.120  1.00  0.00    -0.268 OA
HETATM   55  N10 UNL     1      47.189 -15.234  33.383  1.00  0.00    -0.294 N 
HETATM   56  C19 UNL     1      47.620 -14.771  32.104  1.00  0.00     0.220 C 
ATOM     57  H10 UNL     1      47.834 -15.756  33.975  1.00  0.00     0.171 HD
HETATM   58  C20 UNL     1      48.995 -15.037  31.610  1.00  0.00     0.117 C 
HETATM   59  O7  UNL     1      46.809 -14.125  31.385  1.00  0.00    -0.274 OA
ENDBRANCH  37  53
ENDBRANCH  31  32
ENDBRANCH   1  31
TORSDOF 17
ENDMDL
MODEL 5
REMARK VINA RESULT: -8.874486441      3.778      7.064
REMARK  17 active torsions:
REMARK  status: ('A' for Active; 'I' for Inactive)
REMARK    1  A    between atoms: O1_2  and  N1_3 
REMARK    2  A    between atoms: C2_5  and  C3_6 
REMARK    3  A    between atoms: C2_5  and  C22_51 
REMARK    4  A    between atoms: C3_6  and  O3_8 
REMARK    5  A    between atoms: O3_8  and  C4_9 
REMARK    6  A    between atoms: C4_9  and  O4_10 
REMARK    7  A    between atoms: C4_9  and  C5_12 
REMARK    8  A    between atoms: N4_17  and  C6_18 
REMARK    9  A    between atoms: C6_18  and  C7_19 
REMARK   10  A    between atoms: C7_19  and  N5_20 
REMARK   11  A    between atoms: N7_26  and  C12_27 
REMARK   12  A    between atoms: C12_27  and  O5_28 
REMARK   13  A    between atoms: C12_27  and  C13_30 
REMARK   14  A    between atoms: C15_33  and  N8_34 
REMARK   15  A    between atoms: C17_40  and  C18_41 
REMARK       I    between atoms: C18_41  and  N10_43 
REMARK       I    between atoms: N10_43  and  C19_45 
REMARK   16  A    between atoms: C21_48  and  O8_49 
REMARK   17  A    between atoms: C24_54  and  N11_55 
ROOT
HETATM    1  C6  UNL     1      43.758 -14.100  34.797  1.00  0.00     0.197 C 
ENDROOT
BRANCH   1   2
HETATM    2  N4  UNL     1      42.693 -13.170  34.808  1.00  0.00    -0.250 N 
HETATM    3  N3  UNL     1      42.610 -12.076  35.545  1.00  0.00    -0.238 N 
HETATM    4  N2  UNL     1      41.490 -11.427  35.362  1.00  0.00    -0.281 N 
ATOM      5  H3  UNL     1      43.342 -11.770  36.186  1.00  0.00     0.208 HD
HETATM    6  C5  UNL     1      40.757 -12.116  34.446  1.00  0.00     0.134 A 
ATOM      7  H2  UNL     1      41.215 -10.561  35.824  1.00  0.00     0.188 HD
HETATM    8  C21 UNL     1      41.540 -13.204  34.118  1.00  0.00     0.188 A 
BRANCH   6   9
HETATM    9  C4  UNL     1      39.399 -11.741  33.935  1.00  0.00     0.324 C 
BRANCH   9  10
HETATM   10  O3  UNL     1      39.434 -11.433  32.554  1.00  0.00    -0.279 OA
BRANCH  10  11
HETATM   11  C3  UNL     1      38.766 -10.294  32.028  1.00  0.00     0.317 C 
HETATM   12  O2  UNL     1      38.089 -10.547  31.024  1.00  0.00    -0.257 OA
BRANCH  11  13
HETATM   13  C2  UNL     1      38.934  -9.012  32.689  1.00  0.00     0.156 C 
HETATM   14  N1  UNL     1      40.127  -8.661  32.905  1.00  0.00    -0.259 N 
ATOM     15  H1  UNL     1      40.805  -9.347  32.575  1.00  0.00     0.194 HD
BRANCH  14  16
HETATM   16  O1  UNL     1      40.697  -7.611  33.459  1.00  0.00    -0.285 OA
HETATM   17  C1  UNL     1      40.540  -7.383  34.869  1.00  0.00     0.237 C 
ENDBRANCH  14  16
BRANCH  13  18
HETATM   18  C22 UNL     1      37.735  -8.204  33.029  1.00  0.00     0.075 A 
HETATM   19  C23 UNL     1      37.009  -8.538  34.154  1.00  0.00     0.085 A 
HETATM   20  S2  UNL     1      35.735  -7.403  34.126  1.00  0.00    -0.064 SA
HETATM   21  C24 UNL     1      36.170  -6.572  32.718  1.00  0.00     0.142 A 
HETATM   22  N12 UNL     1      37.281  -7.198  32.319  1.00  0.00    -0.335 N 
ATOM     23  H12 UNL     1      37.769  -6.899  31.475  1.00  0.00     0.168 HD
BRANCH  21  24
HETATM   24  N11 UNL     1      35.588  -5.549  32.118  1.00  0.00    -0.380 N 
ATOM     25 2H11 UNL     1      35.036  -5.584  31.261  1.00  0.00     0.158 HD
ATOM     26 1H11 UNL     1      35.568  -4.562  32.373  1.00  0.00     0.158 HD
ENDBRANCH  21  24
ENDBRANCH  13  18
ENDBRANCH  11  13
ENDBRANCH  10  11
ENDBRANCH   9  10
BRANCH   9  27
HETATM   27  O4  UNL     1      38.564 -12.843  34.093  1.00  0.00    -0.365 OA
ATOM     28  H4  UNL     1      38.811 -13.481  33.434  1.00  0.00     0.213 HD
ENDBRANCH   9  27
ENDBRANCH   6   9
BRANCH   8  29
HETATM   29  O8  UNL     1      41.159 -14.180  33.200  1.00  0.00    -0.343 OA
ATOM     30  H8  UNL     1      41.214 -15.113  33.370  1.00  0.00     0.219 HD
ENDBRANCH   8  29
ENDBRANCH   1   2
BRANCH   1  31
HETATM   31  C7  UNL     1      44.720 -14.069  33.660  1.00  0.00     0.088 C 
BRANCH  31  32
HETATM   32  N5  UNL     1      45.314 -15.268  33.234  1.00  0.00    -0.323 N 
HETATM   33  C8  UNL     1      46.709 -15.333  33.070  1.00  0.00     0.097 C 
HETATM   34  C9  UNL     1      46.895 -15.923  31.680  1.00  0.00     0.321 C 
HETATM   35  N6  UNL     1      45.685 -16.627  31.442  1.00  0.00     0.139 N 
HETATM   36  C10 UNL     1      45.371 -16.875  30.068  1.00  0.00     0.297 C 
HETATM   37  C17 UNL     1      44.635 -16.002  32.192  1.00  0.00     0.350 C 
HETATM   38  C11 UNL     1      44.747 -15.702  29.383  1.00  0.00     0.155 C 
HETATM   39  N7  UNL     1      43.542 -15.364  30.037  1.00  0.00    -0.356 N 
HETATM   40  C16 UNL     1      43.692 -15.161  31.412  1.00  0.00     0.136 C 
BRANCH  39  41
HETATM   41  C12 UNL     1      42.357 -15.941  29.534  1.00  0.00     0.271 C 
BRANCH  41  42
HETATM   42  O5  UNL     1      42.600 -16.216  28.159  1.00  0.00    -0.371 OA
ATOM     43  H5  UNL     1      42.410 -15.413  27.689  1.00  0.00     0.212 HD
ENDBRANCH  41  42
BRANCH  41  44
HETATM   44  C13 UNL     1      41.253 -14.887  29.537  1.00  0.00     0.066 A 
HETATM   45  C14 UNL     1      41.291 -13.851  28.635  1.00  0.00     0.082 A 
HETATM   46  S1  UNL     1      39.888 -12.975  29.038  1.00  0.00    -0.064 SA
HETATM   47  C15 UNL     1      39.333 -13.963  30.317  1.00  0.00     0.142 A 
HETATM   48  N9  UNL     1      40.257 -14.924  30.375  1.00  0.00    -0.336 N 
ATOM     49  H9  UNL     1      40.184 -15.673  31.064  1.00  0.00     0.168 HD
BRANCH  47  50
HETATM   50  N8  UNL     1      38.260 -13.818  31.068  1.00  0.00    -0.380 N 
ATOM     51  H82 UNL     1      37.283 -13.914  30.795  1.00  0.00     0.158 HD
ATOM     52  H81 UNL     1      38.200 -13.585  32.059  1.00  0.00     0.158 HD
ENDBRANCH  47  50
ENDBRANCH  41  44
ENDBRANCH  39  41
BRANCH  37  53
HETATM   53  C18 UNL     1      43.874 -17.097  32.828  1.00  0.00     0.290 C 
HETATM   54  O6  UNL     1      44.475 -18.113  33.224  1.00  0.00    -0.268 OA
HETATM   55  N10 UNL     1      42.480 -16.995  32.987  1.00  0.00    -0.294 N 
HETATM   56  C19 UNL     1      41.740 -18.051  33.595  1.00  0.00     0.220 C 
ATOM     57  H10 UNL     1      41.995 -16.158  32.665  1.00  0.00     0.171 HD
HETATM   58  C20 UNL     1      40.268 -17.963  33.768  1.00  0.00     0.117 C 
HETATM   59  O7  UNL     1      42.357 -19.079  33.990  1.00  0.00    -0.274 OA
ENDBRANCH  37  53
ENDBRANCH  31  32
ENDBRANCH   1  31
TORSDOF 17
ENDMDL
