MODEL 1
REMARK VINA RESULT: -9.782976852      0.000      0.000
REMARK  15 active torsions:
REMARK  status: ('A' for Active; 'I' for Inactive)
REMARK    1  A    between atoms: N1_1  and  C1_4 
REMARK    2  A    between atoms: C3_8  and  C4_9 
REMARK    3  A    between atoms: C4_9  and  N3_10 
REMARK    4  A    between atoms: C4_9  and  C7_16 
REMARK    5  A    between atoms: N3_10  and  C5_12 
REMARK    6  A    between atoms: C5_12  and  C6_13 
REMARK    7  A    between atoms: C7_16  and  O3_17 
REMARK    8  A    between atoms: C7_16  and  C8_19 
REMARK    9  A    between atoms: C8_19  and  C9_21 
REMARK       I    between atoms: C9_21  and  N4_23 
REMARK   10  A    between atoms: N4_23  and  C10_25 
REMARK   11  A    between atoms: C11_28  and  C12_29 
REMARK   12  A    between atoms: C12_29  and  N6_30 
REMARK   13  A    between atoms: C12_29  and  S1_45 
REMARK   14  A    between atoms: C14_32  and  N7_33 
REMARK   15  A    between atoms: C18_38  and  O7_39 
ROOT
HETATM    1  C10 UNL     1      44.196 -14.811  31.838  1.00  0.00     0.129 A 
HETATM    2  N5  UNL     1      45.388 -15.404  31.565  1.00  0.00    -0.342 N 
ATOM      3  H5  UNL     1      45.710 -15.510  30.603  1.00  0.00     0.167 HD
HETATM    4  C11 UNL     1      46.129 -15.846  32.594  1.00  0.00     0.055 A 
HETATM    5  C19 UNL     1      45.715 -15.711  33.897  1.00  0.00     0.061 A 
HETATM    6  C20 UNL     1      44.490 -15.104  34.216  1.00  0.00     0.072 A 
HETATM    7  N10 UNL     1      43.987 -14.917  35.407  1.00  0.00    -0.293 N 
ATOM      8  H10 UNL     1      44.501 -15.228  36.231  1.00  0.00     0.187 HD
HETATM    9  N11 UNL     1      42.837 -14.338  35.542  1.00  0.00    -0.269 N 
ATOM     10  H11 UNL     1      42.329 -14.131  36.402  1.00  0.00     0.195 HD
HETATM   11  S2  UNL     1      42.381 -14.010  33.952  1.00  0.00     0.007 SA
HETATM   12  C21 UNL     1      43.747 -14.660  33.156  1.00  0.00     0.095 A 
ENDROOT
BRANCH   1  13
HETATM   13  N4  UNL     1      43.441 -14.371  30.921  1.00  0.00    -0.305 N 
HETATM   14  C9  UNL     1      42.494 -15.062  30.174  1.00  0.00     0.295 C 
HETATM   15  O5  UNL     1      42.894 -15.658  29.128  1.00  0.00    -0.264 OA
ATOM     16  H4  UNL     1      43.540 -13.380  30.702  1.00  0.00     0.170 HD
BRANCH  14  17
HETATM   17  C8  UNL     1      41.076 -15.154  30.497  1.00  0.00     0.247 C 
HETATM   18  O4  UNL     1      40.793 -15.393  31.720  1.00  0.00    -0.284 OA
BRANCH  17  19
HETATM   19  C7  UNL     1      40.016 -14.982  29.468  1.00  0.00     0.225 C 
BRANCH  19  20
HETATM   20  C4  UNL     1      39.828 -13.528  29.127  1.00  0.00     0.155 C 
BRANCH  20  21
HETATM   21  C3  UNL     1      40.424 -13.236  27.770  1.00  0.00     0.027 A 
HETATM   22  C2  UNL     1      41.188 -14.074  26.994  1.00  0.00     0.107 A 
HETATM   23  N2  UNL     1      41.601 -13.618  25.845  1.00  0.00    -0.346 N 
HETATM   24  C1  UNL     1      41.268 -12.383  25.486  1.00  0.00     0.142 A 
ATOM     25  H2  UNL     1      42.171 -14.200  25.231  1.00  0.00     0.167 HD
HETATM   26  S3  UNL     1      40.338 -11.833  26.806  1.00  0.00    -0.055 SA
BRANCH  24  27
HETATM   27  N1  UNL     1      41.591 -11.758  24.371  1.00  0.00    -0.380 N 
ATOM     28  H12 UNL     1      41.034 -11.127  23.797  1.00  0.00     0.158 HD
ATOM     29  H11 UNL     1      42.481 -11.800  23.875  1.00  0.00     0.158 HD
ENDBRANCH  24  27
ENDBRANCH  20  21
BRANCH  20  30
HETATM   30  N3  UNL     1      40.419 -12.630  30.053  1.00  0.00    -0.401 N 
ATOM     31  H3  UNL     1      41.413 -12.652  30.281  1.00  0.00     0.154 HD
BRANCH  30  32
HETATM   32  C5  UNL     1      39.513 -11.688  30.646  1.00  0.00     0.228 C 
BRANCH  32  33
HETATM   33  C6  UNL     1      39.252 -12.115  32.047  1.00  0.00     0.190 C 
HETATM   34  O1  UNL     1      39.694 -11.466  33.029  1.00  0.00    -0.647 OA
HETATM   35  O2  UNL     1      38.506 -13.258  32.343  1.00  0.00    -0.647 OA
ENDBRANCH  32  33
ENDBRANCH  30  32
ENDBRANCH  20  30
ENDBRANCH  19  20
BRANCH  19  36
HETATM   36  O3  UNL     1      38.792 -15.382  30.061  1.00  0.00    -0.385 OA
ATOM     37  H3  UNL     1      38.429 -14.589  30.437  1.00  0.00     0.210 HD
ENDBRANCH  19  36
ENDBRANCH  17  19
ENDBRANCH  14  17
ENDBRANCH   1  13
BRANCH   4  38
HETATM   38  C12 UNL     1      47.457 -16.528  32.332  1.00  0.00     0.302 C 
BRANCH  38  39
HETATM   39  N6  UNL     1      48.563 -15.637  32.390  1.00  0.00    -0.257 N 
HETATM   40  C13 UNL     1      48.975 -14.943  33.463  1.00  0.00     0.163 A 
HETATM   41  C14 UNL     1      50.082 -14.198  33.097  1.00  0.00     0.139 A 
HETATM   42  N8  UNL     1      50.311 -14.461  31.810  1.00  0.00    -0.270 N 
HETATM   43  N9  UNL     1      49.393 -15.318  31.417  1.00  0.00    -0.237 N 
ATOM     44  H8  UNL     1      51.058 -14.070  31.237  1.00  0.00     0.190 HD
ATOM     45  H9  UNL     1      49.331 -15.693  30.471  1.00  0.00     0.208 HD
BRANCH  41  46
HETATM   46  N7  UNL     1      50.818 -13.320  33.973  1.00  0.00    -0.332 N 
HETATM   47  C15 UNL     1      50.289 -12.826  35.225  1.00  0.00     0.135 C 
HETATM   48  C16 UNL     1      51.355 -11.949  35.794  1.00  0.00     0.103 C 
HETATM   49  C17 UNL     1      52.332 -11.719  34.698  1.00  0.00     0.176 C 
HETATM   50  O6  UNL     1      53.134 -10.793  34.618  1.00  0.00    -0.293 OA
HETATM   51  C18 UNL     1      52.147 -12.824  33.731  1.00  0.00     0.292 C 
BRANCH  51  52
HETATM   52  O7  UNL     1      52.214 -12.280  32.446  1.00  0.00    -0.369 OA
ATOM     53  H7  UNL     1      52.562 -12.927  31.845  1.00  0.00     0.212 HD
ENDBRANCH  51  52
ENDBRANCH  41  46
ENDBRANCH  38  39
BRANCH  38  54
HETATM   54  S1  UNL     1      47.311 -17.415  30.807  1.00  0.00     0.133 S 
HETATM   55  O8  UNL     1      48.536 -18.211  30.559  1.00  0.00    -0.593 OA
HETATM   56  O9  UNL     1      46.137 -18.353  30.883  1.00  0.00    -0.593 OA
HETATM   57  O10 UNL     1      47.068 -16.330  29.521  1.00  0.00    -0.593 OA
ENDBRANCH  38  54
ENDBRANCH   4  38
TORSDOF 15
ENDMDL
MODEL 2
REMARK VINA RESULT: -9.702228328      1.684      1.992
REMARK  15 active torsions:
REMARK  status: ('A' for Active; 'I' for Inactive)
REMARK    1  A    between atoms: N1_1  and  C1_4 
REMARK    2  A    between atoms: C3_8  and  C4_9 
REMARK    3  A    between atoms: C4_9  and  N3_10 
REMARK    4  A    between atoms: C4_9  and  C7_16 
REMARK    5  A    between atoms: N3_10  and  C5_12 
REMARK    6  A    between atoms: C5_12  and  C6_13 
REMARK    7  A    between atoms: C7_16  and  O3_17 
REMARK    8  A    between atoms: C7_16  and  C8_19 
REMARK    9  A    between atoms: C8_19  and  C9_21 
REMARK       I    between atoms: C9_21  and  N4_23 
REMARK   10  A    between atoms: N4_23  and  C10_25 
REMARK   11  A    between atoms: C11_28  and  C12_29 
REMARK   12  A    between atoms: C12_29  and  N6_30 
REMARK   13  A    between atoms: C12_29  and  S1_45 
REMARK   14  A    between atoms: C14_32  and  N7_33 
REMARK   15  A    between atoms: C18_38  and  O7_39 
ROOT
HETATM    1  C10 UNL     1      44.258 -14.960  32.346  1.00  0.00     0.129 A 
HETATM    2  N5  UNL     1      45.443 -15.444  31.888  1.00  0.00    -0.342 N 
ATOM      3  H5  UNL     1      45.717 -15.320  30.914  1.00  0.00     0.167 HD
HETATM    4  C11 UNL     1      46.242 -16.090  32.753  1.00  0.00     0.055 A 
HETATM    5  C19 UNL     1      45.894 -16.268  34.070  1.00  0.00     0.061 A 
HETATM    6  C20 UNL     1      44.678 -15.781  34.577  1.00  0.00     0.072 A 
HETATM    7  N10 UNL     1      44.234 -15.885  35.800  1.00  0.00    -0.293 N 
ATOM      8  H10 UNL     1      44.793 -16.363  36.507  1.00  0.00     0.187 HD
HETATM    9  N11 UNL     1      43.083 -15.382  36.118  1.00  0.00    -0.269 N 
ATOM     10  H11 UNL     1      42.617 -15.390  37.025  1.00  0.00     0.195 HD
HETATM   11  S2  UNL     1      42.542 -14.711  34.669  1.00  0.00     0.007 SA
HETATM   12  C21 UNL     1      43.874 -15.127  33.682  1.00  0.00     0.095 A 
ENDROOT
BRANCH   1  13
HETATM   13  N4  UNL     1      43.450 -14.343  31.590  1.00  0.00    -0.305 N 
HETATM   14  C9  UNL     1      42.585 -14.866  30.637  1.00  0.00     0.295 C 
HETATM   15  O5  UNL     1      43.043 -15.055  29.470  1.00  0.00    -0.264 OA
ATOM     16  H4  UNL     1      43.433 -13.328  31.695  1.00  0.00     0.170 HD
BRANCH  14  17
HETATM   17  C8  UNL     1      41.189 -15.213  30.873  1.00  0.00     0.247 C 
HETATM   18  O4  UNL     1      40.979 -16.171  31.691  1.00  0.00    -0.284 OA
BRANCH  17  19
HETATM   19  C7  UNL     1      40.070 -14.497  30.202  1.00  0.00     0.225 C 
BRANCH  19  20
HETATM   20  C4  UNL     1      39.482 -13.449  31.108  1.00  0.00     0.155 C 
BRANCH  20  21
HETATM   21  C3  UNL     1      39.573 -12.092  30.452  1.00  0.00     0.027 A 
HETATM   22  C2  UNL     1      40.102 -11.792  29.219  1.00  0.00     0.107 A 
HETATM   23  N2  UNL     1      40.077 -10.545  28.842  1.00  0.00    -0.346 N 
HETATM   24  C1  UNL     1      39.549  -9.637  29.657  1.00  0.00     0.142 A 
ATOM     25  H2  UNL     1      40.456 -10.270  27.935  1.00  0.00     0.167 HD
HETATM   26  S3  UNL     1      39.067 -10.561  31.007  1.00  0.00    -0.055 SA
BRANCH  24  27
HETATM   27  N1  UNL     1      39.439  -8.341  29.446  1.00  0.00    -0.380 N 
ATOM     28  H12 UNL     1      39.039  -7.846  28.649  1.00  0.00     0.158 HD
ATOM     29  H11 UNL     1      39.742  -7.586  30.060  1.00  0.00     0.158 HD
ENDBRANCH  24  27
ENDBRANCH  20  21
BRANCH  20  30
HETATM   30  N3  UNL     1      40.112 -13.352  32.376  1.00  0.00    -0.401 N 
ATOM     31  H3  UNL     1      41.115 -13.197  32.479  1.00  0.00     0.154 HD
BRANCH  30  32
HETATM   32  C5  UNL     1      39.234 -13.488  33.501  1.00  0.00     0.228 C 
BRANCH  32  33
HETATM   33  C6  UNL     1      39.245 -12.206  34.256  1.00  0.00     0.190 C 
HETATM   34  O1  UNL     1      40.320 -11.648  34.595  1.00  0.00    -0.647 OA
HETATM   35  O2  UNL     1      38.066 -11.559  34.629  1.00  0.00    -0.647 OA
ENDBRANCH  32  33
ENDBRANCH  30  32
ENDBRANCH  20  30
ENDBRANCH  19  20
BRANCH  19  36
HETATM   36  O3  UNL     1      39.030 -15.442  30.008  1.00  0.00    -0.385 OA
ATOM     37  H3  UNL     1      38.500 -15.085  29.305  1.00  0.00     0.210 HD
ENDBRANCH  19  36
ENDBRANCH  17  19
ENDBRANCH  14  17
ENDBRANCH   1  13
BRANCH   4  38
HETATM   38  C12 UNL     1      47.565 -16.659  32.280  1.00  0.00     0.302 C 
BRANCH  38  39
HETATM   39  N6  UNL     1      48.625 -15.714  32.320  1.00  0.00    -0.257 N 
HETATM   40  C13 UNL     1      49.047 -15.031  33.397  1.00  0.00     0.163 A 
HETATM   41  C14 UNL     1      50.098 -14.219  33.008  1.00  0.00     0.139 A 
HETATM   42  N8  UNL     1      50.285 -14.433  31.705  1.00  0.00    -0.270 N 
HETATM   43  N9  UNL     1      49.396 -15.325  31.324  1.00  0.00    -0.237 N 
ATOM     44  H8  UNL     1      50.986 -13.987  31.114  1.00  0.00     0.190 HD
ATOM     45  H9  UNL     1      49.313 -15.676  30.370  1.00  0.00     0.208 HD
BRANCH  41  46
HETATM   46  N7  UNL     1      50.826 -13.329  33.880  1.00  0.00    -0.332 N 
HETATM   47  C15 UNL     1      50.275 -12.799  35.107  1.00  0.00     0.135 C 
HETATM   48  C16 UNL     1      51.338 -11.922  35.679  1.00  0.00     0.103 C 
HETATM   49  C17 UNL     1      52.343 -11.731  34.601  1.00  0.00     0.176 C 
HETATM   50  O6  UNL     1      53.158 -10.817  34.518  1.00  0.00    -0.293 OA
HETATM   51  C18 UNL     1      52.166 -12.856  33.656  1.00  0.00     0.292 C 
BRANCH  51  52
HETATM   52  O7  UNL     1      52.269 -12.343  32.361  1.00  0.00    -0.369 OA
ATOM     53  H7  UNL     1      53.180 -12.343  32.091  1.00  0.00     0.212 HD
ENDBRANCH  51  52
ENDBRANCH  41  46
ENDBRANCH  38  39
BRANCH  38  54
HETATM   54  S1  UNL     1      47.295 -17.390  30.691  1.00  0.00     0.133 S 
HETATM   55  O8  UNL     1      48.464 -18.212  30.300  1.00  0.00    -0.593 OA
HETATM   56  O9  UNL     1      46.081 -18.279  30.746  1.00  0.00    -0.593 OA
HETATM   57  O10 UNL     1      47.038 -16.178  29.526  1.00  0.00    -0.593 OA
ENDBRANCH  38  54
ENDBRANCH   4  38
TORSDOF 15
ENDMDL
MODEL 3
REMARK VINA RESULT: -9.638246881      1.592      2.001
REMARK  15 active torsions:
REMARK  status: ('A' for Active; 'I' for Inactive)
REMARK    1  A    between atoms: N1_1  and  C1_4 
REMARK    2  A    between atoms: C3_8  and  C4_9 
REMARK    3  A    between atoms: C4_9  and  N3_10 
REMARK    4  A    between atoms: C4_9  and  C7_16 
REMARK    5  A    between atoms: N3_10  and  C5_12 
REMARK    6  A    between atoms: C5_12  and  C6_13 
REMARK    7  A    between atoms: C7_16  and  O3_17 
REMARK    8  A    between atoms: C7_16  and  C8_19 
REMARK    9  A    between atoms: C8_19  and  C9_21 
REMARK       I    between atoms: C9_21  and  N4_23 
REMARK   10  A    between atoms: N4_23  and  C10_25 
REMARK   11  A    between atoms: C11_28  and  C12_29 
REMARK   12  A    between atoms: C12_29  and  N6_30 
REMARK   13  A    between atoms: C12_29  and  S1_45 
REMARK   14  A    between atoms: C14_32  and  N7_33 
REMARK   15  A    between atoms: C18_38  and  O7_39 
ROOT
HETATM    1  C10 UNL     1      45.259 -14.748  33.247  1.00  0.00     0.129 A 
HETATM    2  N5  UNL     1      46.322 -15.207  32.535  1.00  0.00    -0.342 N 
ATOM      3  H5  UNL     1      46.427 -14.979  31.547  1.00  0.00     0.167 HD
HETATM    4  C11 UNL     1      47.229 -15.970  33.168  1.00  0.00     0.055 A 
HETATM    5  C19 UNL     1      47.108 -16.288  34.500  1.00  0.00     0.061 A 
HETATM    6  C20 UNL     1      46.023 -15.831  35.264  1.00  0.00     0.072 A 
HETATM    7  N10 UNL     1      45.794 -16.062  36.529  1.00  0.00    -0.293 N 
ATOM      8  H10 UNL     1      46.446 -16.633  37.068  1.00  0.00     0.187 HD
HETATM    9  N11 UNL     1      44.742 -15.569  37.099  1.00  0.00    -0.269 N 
ATOM     10  H11 UNL     1      44.441 -15.669  38.069  1.00  0.00     0.195 HD
HETATM   11  S2  UNL     1      43.988 -14.722  35.852  1.00  0.00     0.007 SA
HETATM   12  C21 UNL     1      45.107 -15.057  34.604  1.00  0.00     0.095 A 
ENDROOT
BRANCH   1  13
HETATM   13  N4  UNL     1      44.362 -14.027  32.719  1.00  0.00    -0.305 N 
HETATM   14  C9  UNL     1      43.470 -14.358  31.705  1.00  0.00     0.295 C 
HETATM   15  O5  UNL     1      43.858 -14.202  30.508  1.00  0.00    -0.264 OA
ATOM     16  H4  UNL     1      44.283 -13.078  33.085  1.00  0.00     0.170 HD
BRANCH  14  17
HETATM   17  C8  UNL     1      42.120 -14.868  31.911  1.00  0.00     0.247 C 
HETATM   18  O4  UNL     1      41.667 -14.792  33.103  1.00  0.00    -0.284 OA
BRANCH  17  19
HETATM   19  C7  UNL     1      41.314 -15.446  30.802  1.00  0.00     0.225 C 
BRANCH  19  20
HETATM   20  C4  UNL     1      40.408 -14.407  30.197  1.00  0.00     0.155 C 
BRANCH  20  21
HETATM   21  C3  UNL     1      40.792 -14.165  28.758  1.00  0.00     0.027 A 
HETATM   22  C2  UNL     1      40.541 -13.045  28.002  1.00  0.00     0.107 A 
HETATM   23  N2  UNL     1      40.967 -13.044  26.770  1.00  0.00    -0.346 N 
HETATM   24  C1  UNL     1      41.614 -14.111  26.312  1.00  0.00     0.142 A 
ATOM     25  H2  UNL     1      40.807 -12.237  26.167  1.00  0.00     0.167 HD
HETATM   26  S3  UNL     1      41.629 -15.161  27.656  1.00  0.00    -0.055 SA
BRANCH  24  27
HETATM   27  N1  UNL     1      42.113 -14.288  25.105  1.00  0.00    -0.380 N 
ATOM     28  H12 UNL     1      42.794 -13.725  24.597  1.00  0.00     0.158 HD
ATOM     29  H11 UNL     1      41.897 -15.039  24.450  1.00  0.00     0.158 HD
ENDBRANCH  24  27
ENDBRANCH  20  21
BRANCH  20  30
HETATM   30  N3  UNL     1      40.431 -13.154  30.862  1.00  0.00    -0.401 N 
ATOM     31  H3  UNL     1      41.264 -12.566  30.895  1.00  0.00     0.154 HD
BRANCH  30  32
HETATM   32  C5  UNL     1      39.196 -12.774  31.483  1.00  0.00     0.228 C 
BRANCH  32  33
HETATM   33  C6  UNL     1      39.112 -11.289  31.480  1.00  0.00     0.190 C 
HETATM   34  O1  UNL     1      38.598 -10.654  32.436  1.00  0.00    -0.647 OA
HETATM   35  O2  UNL     1      39.598 -10.525  30.417  1.00  0.00    -0.647 OA
ENDBRANCH  32  33
ENDBRANCH  30  32
ENDBRANCH  20  30
ENDBRANCH  19  20
BRANCH  19  36
HETATM   36  O3  UNL     1      40.443 -16.405  31.379  1.00  0.00    -0.385 OA
ATOM     37  H3  UNL     1      40.151 -16.942  30.651  1.00  0.00     0.210 HD
ENDBRANCH  19  36
ENDBRANCH  17  19
ENDBRANCH  14  17
ENDBRANCH   1  13
BRANCH   4  38
HETATM   38  C12 UNL     1      48.421 -16.516  32.408  1.00  0.00     0.302 C 
BRANCH  38  39
HETATM   39  N6  UNL     1      49.520 -15.615  32.372  1.00  0.00    -0.257 N 
HETATM   40  C13 UNL     1      49.728 -14.574  33.194  1.00  0.00     0.163 A 
HETATM   41  C14 UNL     1      50.910 -13.958  32.820  1.00  0.00     0.139 A 
HETATM   42  N8  UNL     1      51.386 -14.644  31.782  1.00  0.00    -0.270 N 
HETATM   43  N9  UNL     1      50.540 -15.623  31.538  1.00  0.00    -0.237 N 
ATOM     44  H8  UNL     1      52.246 -14.447  31.271  1.00  0.00     0.190 HD
ATOM     45  H9  UNL     1      50.660 -16.307  30.791  1.00  0.00     0.208 HD
BRANCH  41  46
HETATM   46  N7  UNL     1      51.480 -12.799  33.463  1.00  0.00    -0.332 N 
HETATM   47  C15 UNL     1      52.620 -12.084  32.936  1.00  0.00     0.135 C 
HETATM   48  C16 UNL     1      52.887 -10.981  33.907  1.00  0.00     0.103 C 
HETATM   49  C17 UNL     1      52.087 -11.294  35.119  1.00  0.00     0.176 C 
HETATM   50  O6  UNL     1      52.286 -10.871  36.254  1.00  0.00    -0.293 OA
HETATM   51  C18 UNL     1      51.006 -12.209  34.687  1.00  0.00     0.292 C 
BRANCH  51  52
HETATM   52  O7  UNL     1      50.874 -13.201  35.661  1.00  0.00    -0.369 OA
ATOM     53  H7  UNL     1      51.188 -12.871  36.495  1.00  0.00     0.212 HD
ENDBRANCH  51  52
ENDBRANCH  41  46
ENDBRANCH  38  39
BRANCH  38  54
HETATM   54  S1  UNL     1      47.848 -17.035  30.816  1.00  0.00     0.133 S 
HETATM   55  O8  UNL     1      47.831 -15.888  29.878  1.00  0.00    -0.593 OA
HETATM   56  O9  UNL     1      48.773 -18.089  30.268  1.00  0.00    -0.593 OA
HETATM   57  O10 UNL     1      46.283 -17.689  30.943  1.00  0.00    -0.593 OA
ENDBRANCH  38  54
ENDBRANCH   4  38
TORSDOF 15
ENDMDL
MODEL 4
REMARK VINA RESULT: -9.539353551      4.055      9.134
REMARK  15 active torsions:
REMARK  status: ('A' for Active; 'I' for Inactive)
REMARK    1  A    between atoms: N1_1  and  C1_4 
REMARK    2  A    between atoms: C3_8  and  C4_9 
REMARK    3  A    between atoms: C4_9  and  N3_10 
REMARK    4  A    between atoms: C4_9  and  C7_16 
REMARK    5  A    between atoms: N3_10  and  C5_12 
REMARK    6  A    between atoms: C5_12  and  C6_13 
REMARK    7  A    between atoms: C7_16  and  O3_17 
REMARK    8  A    between atoms: C7_16  and  C8_19 
REMARK    9  A    between atoms: C8_19  and  C9_21 
REMARK       I    between atoms: C9_21  and  N4_23 
REMARK   10  A    between atoms: N4_23  and  C10_25 
REMARK   11  A    between atoms: C11_28  and  C12_29 
REMARK   12  A    between atoms: C12_29  and  N6_30 
REMARK   13  A    between atoms: C12_29  and  S1_45 
REMARK   14  A    between atoms: C14_32  and  N7_33 
REMARK   15  A    between atoms: C18_38  and  O7_39 
ROOT
HETATM    1  C10 UNL     1      40.960 -13.170  33.500  1.00  0.00     0.129 A 
HETATM    2  N5  UNL     1      40.247 -12.685  32.450  1.00  0.00    -0.342 N 
ATOM      3  H5  UNL     1      40.184 -13.206  31.575  1.00  0.00     0.167 HD
HETATM    4  C11 UNL     1      39.630 -11.500  32.593  1.00  0.00     0.055 A 
HETATM    5  C19 UNL     1      39.701 -10.782  33.763  1.00  0.00     0.061 A 
HETATM    6  C20 UNL     1      40.428 -11.254  34.868  1.00  0.00     0.072 A 
HETATM    7  N10 UNL     1      40.572 -10.669  36.026  1.00  0.00    -0.293 N 
ATOM      8  H10 UNL     1      40.127  -9.768  36.201  1.00  0.00     0.187 HD
HETATM    9  N11 UNL     1      41.279 -11.232  36.954  1.00  0.00    -0.269 N 
ATOM     10  H11 UNL     1      41.475 -10.892  37.895  1.00  0.00     0.195 HD
HETATM   11  S2  UNL     1      41.798 -12.663  36.228  1.00  0.00     0.007 SA
HETATM   12  C21 UNL     1      41.052 -12.461  34.704  1.00  0.00     0.095 A 
ENDROOT
BRANCH   1  13
HETATM   13  N4  UNL     1      41.571 -14.278  33.439  1.00  0.00    -0.305 N 
HETATM   14  C9  UNL     1      42.343 -14.785  32.400  1.00  0.00     0.295 C 
HETATM   15  O5  UNL     1      41.744 -15.422  31.482  1.00  0.00    -0.264 OA
ATOM     16  H4  UNL     1      41.487 -14.877  34.260  1.00  0.00     0.170 HD
BRANCH  14  17
HETATM   17  C8  UNL     1      43.789 -14.643  32.284  1.00  0.00     0.247 C 
HETATM   18  O4  UNL     1      44.213 -14.033  31.245  1.00  0.00    -0.284 OA
BRANCH  17  19
HETATM   19  C7  UNL     1      44.722 -15.178  33.312  1.00  0.00     0.225 C 
BRANCH  19  20
HETATM   20  C4  UNL     1      44.807 -16.679  33.233  1.00  0.00     0.155 C 
BRANCH  20  21
HETATM   21  C3  UNL     1      45.869 -17.082  32.239  1.00  0.00     0.027 A 
HETATM   22  C2  UNL     1      45.998 -18.289  31.594  1.00  0.00     0.107 A 
HETATM   23  N2  UNL     1      46.995 -18.425  30.767  1.00  0.00    -0.346 N 
HETATM   24  C1  UNL     1      47.829 -17.404  30.590  1.00  0.00     0.142 A 
ATOM     25  H2  UNL     1      47.135 -19.301  30.263  1.00  0.00     0.167 HD
HETATM   26  S3  UNL     1      47.194 -16.203  31.621  1.00  0.00    -0.055 SA
BRANCH  24  27
HETATM   27  N1  UNL     1      48.883 -17.359  29.802  1.00  0.00    -0.380 N 
ATOM     28  H12 UNL     1      49.341 -18.112  29.288  1.00  0.00     0.158 HD
ATOM     29  H11 UNL     1      49.442 -16.541  29.562  1.00  0.00     0.158 HD
ENDBRANCH  24  27
ENDBRANCH  20  21
BRANCH  20  30
HETATM   30  N3  UNL     1      43.598 -17.313  32.845  1.00  0.00    -0.401 N 
ATOM     31  H3  UNL     1      43.225 -17.249  31.897  1.00  0.00     0.154 HD
BRANCH  30  32
HETATM   32  C5  UNL     1      42.939 -18.049  33.884  1.00  0.00     0.228 C 
BRANCH  32  33
HETATM   33  C6  UNL     1      41.534 -18.293  33.460  1.00  0.00     0.190 C 
HETATM   34  O1  UNL     1      41.221 -19.278  32.744  1.00  0.00    -0.647 OA
HETATM   35  O2  UNL     1      40.492 -17.442  33.834  1.00  0.00    -0.647 OA
ENDBRANCH  32  33
ENDBRANCH  30  32
ENDBRANCH  20  30
ENDBRANCH  19  20
BRANCH  19  36
HETATM   36  O3  UNL     1      44.143 -14.908  34.579  1.00  0.00    -0.385 OA
ATOM     37  H3  UNL     1      44.716 -15.332  35.207  1.00  0.00     0.210 HD
ENDBRANCH  19  36
ENDBRANCH  17  19
ENDBRANCH  14  17
ENDBRANCH   1  13
BRANCH   4  38
HETATM   38  C12 UNL     1      38.838 -10.915  31.442  1.00  0.00     0.302 C 
BRANCH  38  39
HETATM   39  N6  UNL     1      39.422 -11.176  30.173  1.00  0.00    -0.257 N 
HETATM   40  C13 UNL     1      39.755 -12.379  29.678  1.00  0.00     0.163 A 
HETATM   41  C14 UNL     1      40.293 -12.193  28.417  1.00  0.00     0.139 A 
HETATM   42  N8  UNL     1      40.271 -10.882  28.181  1.00  0.00    -0.270 N 
HETATM   43  N9  UNL     1      39.748 -10.302  29.241  1.00  0.00    -0.237 N 
ATOM     44  H8  UNL     1      40.597 -10.414  27.336  1.00  0.00     0.190 HD
ATOM     45  H9  UNL     1      39.611  -9.296  29.331  1.00  0.00     0.208 HD
BRANCH  41  46
HETATM   46  N7  UNL     1      40.771 -13.248  27.555  1.00  0.00    -0.332 N 
HETATM   47  C15 UNL     1      41.263 -14.513  28.053  1.00  0.00     0.135 C 
HETATM   48  C16 UNL     1      41.666 -15.290  26.844  1.00  0.00     0.103 C 
HETATM   49  C17 UNL     1      41.685 -14.323  25.716  1.00  0.00     0.176 C 
HETATM   50  O6  UNL     1      42.297 -14.447  24.659  1.00  0.00    -0.293 OA
HETATM   51  C18 UNL     1      40.823 -13.189  26.119  1.00  0.00     0.292 C 
BRANCH  51  52
HETATM   52  O7  UNL     1      41.460 -12.010  25.724  1.00  0.00    -0.369 OA
ATOM     53  H7  UNL     1      42.044 -12.193  24.997  1.00  0.00     0.212 HD
ENDBRANCH  51  52
ENDBRANCH  41  46
ENDBRANCH  38  39
BRANCH  38  54
HETATM   54  S1  UNL     1      38.579  -9.198  31.789  1.00  0.00     0.133 S 
HETATM   55  O8  UNL     1      37.671  -8.603  30.781  1.00  0.00    -0.593 OA
HETATM   56  O9  UNL     1      37.949  -9.050  33.148  1.00  0.00    -0.593 OA
HETATM   57  O10 UNL     1      40.064  -8.369  31.777  1.00  0.00    -0.593 OA
ENDBRANCH  38  54
ENDBRANCH   4  38
TORSDOF 15
ENDMDL
MODEL 5
REMARK VINA RESULT: -9.534154192      3.617      9.261
REMARK  15 active torsions:
REMARK  status: ('A' for Active; 'I' for Inactive)
REMARK    1  A    between atoms: N1_1  and  C1_4 
REMARK    2  A    between atoms: C3_8  and  C4_9 
REMARK    3  A    between atoms: C4_9  and  N3_10 
REMARK    4  A    between atoms: C4_9  and  C7_16 
REMARK    5  A    between atoms: N3_10  and  C5_12 
REMARK    6  A    between atoms: C5_12  and  C6_13 
REMARK    7  A    between atoms: C7_16  and  O3_17 
REMARK    8  A    between atoms: C7_16  and  C8_19 
REMARK    9  A    between atoms: C8_19  and  C9_21 
REMARK       I    between atoms: C9_21  and  N4_23 
REMARK   10  A    between atoms: N4_23  and  C10_25 
REMARK   11  A    between atoms: C11_28  and  C12_29 
REMARK   12  A    between atoms: C12_29  and  N6_30 
REMARK   13  A    between atoms: C12_29  and  S1_45 
REMARK   14  A    between atoms: C14_32  and  N7_33 
REMARK   15  A    between atoms: C18_38  and  O7_39 
ROOT
HETATM    1  C10 UNL     1      44.737 -16.126  33.773  1.00  0.00     0.129 A 
HETATM    2  N5  UNL     1      43.609 -15.882  33.056  1.00  0.00    -0.342 N 
ATOM      3  H5  UNL     1      43.287 -16.541  32.347  1.00  0.00     0.167 HD
HETATM    4  C11 UNL     1      42.928 -14.751  33.307  1.00  0.00     0.055 A 
HETATM    5  C19 UNL     1      43.342 -13.851  34.259  1.00  0.00     0.061 A 
HETATM    6  C20 UNL     1      44.503 -14.071  35.017  1.00  0.00     0.072 A 
HETATM    7  N10 UNL     1      44.998 -13.297  35.945  1.00  0.00    -0.293 N 
ATOM      8  H10 UNL     1      44.529 -12.424  36.185  1.00  0.00     0.187 HD
HETATM    9  N11 UNL     1      46.086 -13.637  36.561  1.00  0.00    -0.269 N 
ATOM     10  H11 UNL     1      46.580 -13.133  37.297  1.00  0.00     0.195 HD
HETATM   11  S2  UNL     1      46.487 -15.112  35.850  1.00  0.00     0.007 SA
HETATM   12  C21 UNL     1      45.185 -15.227  34.748  1.00  0.00     0.095 A 
ENDROOT
BRANCH   1  13
HETATM   13  N4  UNL     1      45.433 -17.168  33.591  1.00  0.00    -0.305 N 
HETATM   14  C9  UNL     1      45.855 -17.730  32.392  1.00  0.00     0.295 C 
HETATM   15  O5  UNL     1      45.066 -18.535  31.812  1.00  0.00    -0.264 OA
ATOM     16  H4  UNL     1      45.722 -17.661  34.437  1.00  0.00     0.170 HD
BRANCH  14  17
HETATM   17  C8  UNL     1      47.137 -17.467  31.749  1.00  0.00     0.247 C 
HETATM   18  O4  UNL     1      47.254 -17.873  30.544  1.00  0.00    -0.284 OA
BRANCH  17  19
HETATM   19  C7  UNL     1      48.247 -16.770  32.452  1.00  0.00     0.225 C 
BRANCH  19  20
HETATM   20  C4  UNL     1      48.947 -15.808  31.530  1.00  0.00     0.155 C 
BRANCH  20  21
HETATM   21  C3  UNL     1      49.786 -14.844  32.333  1.00  0.00     0.027 A 
HETATM   22  C2  UNL     1      49.512 -14.333  33.580  1.00  0.00     0.107 A 
HETATM   23  N2  UNL     1      50.381 -13.511  34.096  1.00  0.00    -0.346 N 
HETATM   24  C1  UNL     1      51.474 -13.209  33.402  1.00  0.00     0.142 A 
ATOM     25  H2  UNL     1      50.225 -13.105  35.019  1.00  0.00     0.167 HD
HETATM   26  S3  UNL     1      51.282 -14.112  31.967  1.00  0.00    -0.055 SA
BRANCH  24  27
HETATM   27  N1  UNL     1      52.453 -12.404  33.760  1.00  0.00    -0.380 N 
ATOM     28  H12 UNL     1      52.919 -12.312  34.663  1.00  0.00     0.158 HD
ATOM     29  H11 UNL     1      52.929 -11.712  33.181  1.00  0.00     0.158 HD
ENDBRANCH  24  27
ENDBRANCH  20  21
BRANCH  20  30
HETATM   30  N3  UNL     1      48.075 -15.039  30.717  1.00  0.00    -0.401 N 
ATOM     31  H3  UNL     1      48.183 -14.976  29.704  1.00  0.00     0.154 HD
BRANCH  30  32
HETATM   32  C5  UNL     1      47.032 -14.356  31.425  1.00  0.00     0.228 C 
BRANCH  32  33
HETATM   33  C6  UNL     1      45.812 -14.363  30.572  1.00  0.00     0.190 C 
HETATM   34  O1  UNL     1      45.751 -15.035  29.511  1.00  0.00    -0.647 OA
HETATM   35  O2  UNL     1      44.675 -13.625  30.905  1.00  0.00    -0.647 OA
ENDBRANCH  32  33
ENDBRANCH  30  32
ENDBRANCH  20  30
ENDBRANCH  19  20
BRANCH  19  36
HETATM   36  O3  UNL     1      49.220 -17.753  32.767  1.00  0.00    -0.385 OA
ATOM     37  H3  UNL     1      48.807 -18.312  33.414  1.00  0.00     0.210 HD
ENDBRANCH  19  36
ENDBRANCH  17  19
ENDBRANCH  14  17
ENDBRANCH   1  13
BRANCH   4  38
HETATM   38  C12 UNL     1      41.673 -14.433  32.519  1.00  0.00     0.302 C 
BRANCH  38  39
HETATM   39  N6  UNL     1      40.574 -14.070  33.344  1.00  0.00    -0.257 N 
HETATM   40  C13 UNL     1      40.160 -12.823  33.621  1.00  0.00     0.163 A 
HETATM   41  C14 UNL     1      39.061 -12.909  34.458  1.00  0.00     0.139 A 
HETATM   42  N8  UNL     1      38.839 -14.207  34.665  1.00  0.00    -0.270 N 
HETATM   43  N9  UNL     1      39.753 -14.873  33.991  1.00  0.00    -0.237 N 
ATOM     44  H8  UNL     1      38.099 -14.609  35.239  1.00  0.00     0.190 HD
ATOM     45  H9  UNL     1      39.818 -15.890  33.971  1.00  0.00     0.208 HD
BRANCH  41  46
HETATM   46  N7  UNL     1      38.326 -11.783  34.980  1.00  0.00    -0.332 N 
HETATM   47  C15 UNL     1      37.431 -11.878  36.111  1.00  0.00     0.135 C 
HETATM   48  C16 UNL     1      36.875 -10.505  36.300  1.00  0.00     0.103 C 
HETATM   49  C17 UNL     1      37.229  -9.742  35.075  1.00  0.00     0.176 C 
HETATM   50  O6  UNL     1      36.673  -8.729  34.661  1.00  0.00    -0.293 OA
HETATM   51  C18 UNL     1      38.379 -10.442  34.461  1.00  0.00     0.292 C 
BRANCH  51  52
HETATM   52  O7  UNL     1      38.172 -10.469  33.080  1.00  0.00    -0.369 OA
ATOM     53  H7  UNL     1      38.153  -9.580  32.744  1.00  0.00     0.212 HD
ENDBRANCH  51  52
ENDBRANCH  41  46
ENDBRANCH  38  39
BRANCH  38  54
HETATM   54  S1  UNL     1      41.358 -15.801  31.440  1.00  0.00     0.133 S 
HETATM   55  O8  UNL     1      41.169 -17.042  32.228  1.00  0.00    -0.593 OA
HETATM   56  O9  UNL     1      40.103 -15.539  30.650  1.00  0.00    -0.593 OA
HETATM   57  O10 UNL     1      42.656 -16.005  30.360  1.00  0.00    -0.593 OA
ENDBRANCH  38  54
ENDBRANCH   4  38
TORSDOF 15
ENDMDL
