MODEL 1
REMARK VINA RESULT: -9.380923593      0.000      0.000
REMARK  15 active torsions:
REMARK  status: ('A' for Active; 'I' for Inactive)
REMARK    1  A    between atoms: N1_2  and  C2_4 
REMARK    2  A    between atoms: C2_4  and  O1_5 
REMARK    3  A    between atoms: C2_4  and  C3_7 
REMARK    4  A    between atoms: C4_8  and  O2_9 
REMARK    5  A    between atoms: C5_11  and  C6_12 
REMARK    6  A    between atoms: C6_12  and  O3_13 
REMARK    7  A    between atoms: C6_12  and  N2_15 
REMARK    8  A    between atoms: N2_15  and  C7_17 
REMARK    9  A    between atoms: C9_21  and  C10_22 
REMARK   10  A    between atoms: C11_25  and  C12_26 
REMARK   11  A    between atoms: C12_26  and  N4_27 
REMARK   12  A    between atoms: C19_42  and  N9_43 
REMARK   13  A    between atoms: C20_49  and  S2_50 
REMARK   14  A    between atoms: S2_50  and  C21_51 
REMARK   15  A    between atoms: C21_51  and  C22_52 
ROOT
HETATM    1  C3  UNL     1      47.395 -15.056  34.969  1.00  0.00     0.077 C 
HETATM    2  C4  UNL     1      46.333 -15.149  35.710  1.00  0.00     0.100 C 
HETATM    3  C5  UNL     1      45.062 -15.937  35.480  1.00  0.00     0.090 C 
HETATM    4  C18 UNL     1      44.928 -16.960  34.668  1.00  0.00     0.135 C 
HETATM    5  N7  UNL     1      43.679 -17.586  34.571  1.00  0.00    -0.082 NA
HETATM    6  N8  UNL     1      45.956 -17.514  33.803  1.00  0.00    -0.327 N 
ATOM      7  H8  UNL     1      45.912 -18.521  33.643  1.00  0.00     0.168 HD
HETATM    8  C19 UNL     1      47.012 -16.827  33.153  1.00  0.00     0.157 C 
HETATM    9  C23 UNL     1      47.621 -15.766  33.671  1.00  0.00     0.109 C 
HETATM   10  N13 UNL     1      48.631 -15.239  32.846  1.00  0.00    -0.097 NA
ENDROOT
BRANCH   3  11
HETATM   11  C6  UNL     1      43.946 -15.460  36.243  1.00  0.00     0.153 C 
BRANCH  11  12
HETATM   12  O3  UNL     1      43.667 -16.187  37.323  1.00  0.00    -0.346 OA
ATOM     13  H3  UNL     1      44.385 -16.731  37.626  1.00  0.00     0.219 HD
ENDBRANCH  11  12
BRANCH  11  14
HETATM   14  N2  UNL     1      43.078 -14.397  36.106  1.00  0.00    -0.354 N 
ATOM     15  H2  UNL     1      42.771 -13.885  36.934  1.00  0.00     0.162 HD
BRANCH  14  16
HETATM   16  C7  UNL     1      42.582 -13.987  34.755  1.00  0.00     0.210 C 
HETATM   17  C8  UNL     1      41.925 -12.664  34.866  1.00  0.00     0.251 C 
HETATM   18  O4  UNL     1      42.091 -11.566  35.455  1.00  0.00    -0.271 OA
HETATM   19  N3  UNL     1      40.930 -13.145  33.965  1.00  0.00    -0.293 N 
HETATM   20  C9  UNL     1      39.924 -12.881  32.955  1.00  0.00     0.120 C 
HETATM   21  C17 UNL     1      41.214 -14.474  34.425  1.00  0.00     0.187 C 
HETATM   22  C11 UNL     1      39.893 -13.609  31.868  1.00  0.00    -0.017 C 
HETATM   23  C16 UNL     1      40.908 -14.703  31.609  1.00  0.00     0.114 C 
HETATM   24  S1  UNL     1      41.124 -15.704  33.107  1.00  0.00    -0.136 SA
BRANCH  20  25
HETATM   25  C10 UNL     1      39.001 -11.814  33.229  1.00  0.00     0.227 C 
HETATM   26  O5  UNL     1      38.243 -11.870  34.260  1.00  0.00    -0.643 OA
HETATM   27  O6  UNL     1      38.833 -10.694  32.477  1.00  0.00    -0.643 OA
ENDBRANCH  20  25
BRANCH  22  28
HETATM   28  C12 UNL     1      38.938 -13.433  30.802  1.00  0.00     0.187 C 
BRANCH  28  29
HETATM   29  N4  UNL     1      39.487 -12.700  29.646  1.00  0.00    -0.283 N 
HETATM   30  C13 UNL     1      39.848 -13.291  28.469  1.00  0.00     0.138 A 
HETATM   31  C14 UNL     1      40.310 -12.327  27.597  1.00  0.00     0.040 A 
HETATM   32  C15 UNL     1      40.809 -12.527  26.194  1.00  0.00     0.071 C 
HETATM   33  N5  UNL     1      40.212 -11.170  28.281  1.00  0.00    -0.289 N 
HETATM   34  N6  UNL     1      39.726 -11.421  29.482  1.00  0.00    -0.240 N 
ATOM     35  H5  UNL     1      40.471 -10.249  27.928  1.00  0.00     0.188 HD
ATOM     36  H6  UNL     1      39.557 -10.709  30.193  1.00  0.00     0.208 HD
ENDBRANCH  28  29
ENDBRANCH  22  28
ENDBRANCH  14  16
ENDBRANCH  11  14
ENDBRANCH   3  11
BRANCH   2  37
HETATM   37  O2  UNL     1      46.277 -14.461  36.897  1.00  0.00    -0.358 OA
ATOM     38  H2  UNL     1      45.738 -13.681  36.957  1.00  0.00     0.217 HD
ENDBRANCH   2  37
BRANCH   1  39
HETATM   39  C2  UNL     1      48.495 -14.224  35.403  1.00  0.00     0.150 C 
BRANCH  39  40
HETATM   40  N1  UNL     1      49.537 -13.598  34.721  1.00  0.00    -0.375 N 
HETATM   41  C1  UNL     1      50.553 -12.805  35.476  1.00  0.00     0.148 C 
ATOM     42  H1  UNL     1      49.606 -13.682  33.707  1.00  0.00     0.161 HD
ENDBRANCH  39  40
BRANCH  39  43
HETATM   43  O1  UNL     1      48.516 -14.014  36.702  1.00  0.00    -0.346 OA
ATOM     44  H1  UNL     1      47.664 -14.093  37.113  1.00  0.00     0.219 HD
ENDBRANCH  39  43
ENDBRANCH   1  39
BRANCH   8  45
HETATM   45  N9  UNL     1      47.461 -17.280  31.902  1.00  0.00    -0.201 N 
HETATM   46  N10 UNL     1      48.678 -17.676  31.611  1.00  0.00    -0.216 N 
HETATM   47  N11 UNL     1      48.744 -18.034  30.341  1.00  0.00    -0.004 NA
ATOM     48  H10 UNL     1      49.458 -17.704  32.267  1.00  0.00     0.206 HD
HETATM   49  N12 UNL     1      47.552 -17.868  29.793  1.00  0.00    -0.261 N 
HETATM   50  C20 UNL     1      46.738 -17.389  30.784  1.00  0.00     0.182 A 
ATOM     51  H12 UNL     1      47.291 -18.059  28.826  1.00  0.00     0.186 HD
BRANCH  50  52
HETATM   52  S2  UNL     1      45.013 -16.981  30.621  1.00  0.00    -0.080 SA
BRANCH  52  53
HETATM   53  C21 UNL     1      44.782 -15.327  29.965  1.00  0.00     0.195 C 
BRANCH  53  54
HETATM   54  C22 UNL     1      44.968 -14.317  31.061  1.00  0.00     0.182 C 
HETATM   55  O7  UNL     1      44.457 -14.623  32.174  1.00  0.00    -0.647 OA
HETATM   56  O8  UNL     1      45.657 -13.129  30.855  1.00  0.00    -0.647 OA
ENDBRANCH  53  54
ENDBRANCH  52  53
ENDBRANCH  50  52
ENDBRANCH   8  45
TORSDOF 15
ENDMDL
MODEL 2
REMARK VINA RESULT: -9.282289961      3.373      9.602
REMARK  15 active torsions:
REMARK  status: ('A' for Active; 'I' for Inactive)
REMARK    1  A    between atoms: N1_2  and  C2_4 
REMARK    2  A    between atoms: C2_4  and  O1_5 
REMARK    3  A    between atoms: C2_4  and  C3_7 
REMARK    4  A    between atoms: C4_8  and  O2_9 
REMARK    5  A    between atoms: C5_11  and  C6_12 
REMARK    6  A    between atoms: C6_12  and  O3_13 
REMARK    7  A    between atoms: C6_12  and  N2_15 
REMARK    8  A    between atoms: N2_15  and  C7_17 
REMARK    9  A    between atoms: C9_21  and  C10_22 
REMARK   10  A    between atoms: C11_25  and  C12_26 
REMARK   11  A    between atoms: C12_26  and  N4_27 
REMARK   12  A    between atoms: C19_42  and  N9_43 
REMARK   13  A    between atoms: C20_49  and  S2_50 
REMARK   14  A    between atoms: S2_50  and  C21_51 
REMARK   15  A    between atoms: C21_51  and  C22_52 
ROOT
HETATM    1  C3  UNL     1      39.272 -11.795  31.359  1.00  0.00     0.077 C 
HETATM    2  C4  UNL     1      39.363 -12.684  32.302  1.00  0.00     0.100 C 
HETATM    3  C5  UNL     1      39.331 -12.505  33.803  1.00  0.00     0.090 C 
HETATM    4  C18 UNL     1      38.845 -11.467  34.444  1.00  0.00     0.135 C 
HETATM    5  N7  UNL     1      38.887 -11.456  35.843  1.00  0.00    -0.082 NA
HETATM    6  N8  UNL     1      38.278 -10.271  33.843  1.00  0.00    -0.327 N 
ATOM      7  H8  UNL     1      37.524  -9.823  34.363  1.00  0.00     0.168 HD
HETATM    8  C19 UNL     1      38.646  -9.651  32.621  1.00  0.00     0.157 C 
HETATM    9  C23 UNL     1      39.074 -10.324  31.560  1.00  0.00     0.109 C 
HETATM   10  N13 UNL     1      39.395  -9.503  30.465  1.00  0.00    -0.097 NA
ENDROOT
BRANCH   3  11
HETATM   11  C6  UNL     1      39.910 -13.601  34.524  1.00  0.00     0.153 C 
BRANCH  11  12
HETATM   12  O3  UNL     1      39.135 -14.682  34.594  1.00  0.00    -0.346 OA
ATOM     13  H3  UNL     1      38.898 -14.938  35.478  1.00  0.00     0.219 HD
ENDBRANCH  11  12
BRANCH  11  14
HETATM   14  N2  UNL     1      41.111 -13.791  35.174  1.00  0.00    -0.354 N 
ATOM     15  H2  UNL     1      41.163 -13.668  36.186  1.00  0.00     0.162 HD
BRANCH  14  16
HETATM   16  C7  UNL     1      42.338 -14.177  34.410  1.00  0.00     0.210 C 
HETATM   17  C8  UNL     1      42.091 -15.465  33.724  1.00  0.00     0.251 C 
HETATM   18  O4  UNL     1      41.170 -16.049  33.098  1.00  0.00    -0.271 OA
HETATM   19  N3  UNL     1      43.423 -15.842  34.071  1.00  0.00    -0.293 N 
HETATM   20  C9  UNL     1      44.613 -16.621  33.798  1.00  0.00     0.120 C 
HETATM   21  C17 UNL     1      43.336 -14.955  35.195  1.00  0.00     0.187 C 
HETATM   22  C11 UNL     1      45.787 -16.046  33.841  1.00  0.00    -0.017 C 
HETATM   23  C16 UNL     1      45.942 -14.566  34.130  1.00  0.00     0.114 C 
HETATM   24  S1  UNL     1      44.891 -14.105  35.536  1.00  0.00    -0.136 SA
BRANCH  20  25
HETATM   25  C10 UNL     1      44.417 -18.013  33.498  1.00  0.00     0.227 C 
HETATM   26  O5  UNL     1      44.113 -18.835  34.433  1.00  0.00    -0.643 OA
HETATM   27  O6  UNL     1      44.525 -18.586  32.269  1.00  0.00    -0.643 OA
ENDBRANCH  20  25
BRANCH  22  28
HETATM   28  C12 UNL     1      47.033 -16.724  33.586  1.00  0.00     0.187 C 
BRANCH  28  29
HETATM   29  N4  UNL     1      47.312 -16.908  32.150  1.00  0.00    -0.283 N 
HETATM   30  C13 UNL     1      47.229 -15.909  31.222  1.00  0.00     0.138 A 
HETATM   31  C14 UNL     1      47.564 -16.409  29.981  1.00  0.00     0.040 A 
HETATM   32  C15 UNL     1      47.607 -15.664  28.677  1.00  0.00     0.071 C 
HETATM   33  N5  UNL     1      47.842 -17.709  30.199  1.00  0.00    -0.289 N 
HETATM   34  N6  UNL     1      47.686 -17.973  31.482  1.00  0.00    -0.240 N 
ATOM     35  H5  UNL     1      48.128 -18.381  29.487  1.00  0.00     0.188 HD
ATOM     36  H6  UNL     1      47.836 -18.891  31.902  1.00  0.00     0.208 HD
ENDBRANCH  28  29
ENDBRANCH  22  28
ENDBRANCH  14  16
ENDBRANCH  11  14
ENDBRANCH   3  11
BRANCH   2  37
HETATM   37  O2  UNL     1      39.513 -14.006  31.967  1.00  0.00    -0.358 OA
ATOM     38  H2  UNL     1      39.811 -14.622  32.626  1.00  0.00     0.217 HD
ENDBRANCH   2  37
BRANCH   1  39
HETATM   39  C2  UNL     1      39.335 -12.214  29.977  1.00  0.00     0.150 C 
BRANCH  39  40
HETATM   40  N1  UNL     1      40.390 -12.353  29.077  1.00  0.00    -0.375 N 
HETATM   41  C1  UNL     1      40.775 -13.710  28.583  1.00  0.00     0.148 C 
ATOM     42  H1  UNL     1      40.899 -11.530  28.755  1.00  0.00     0.161 HD
ENDBRANCH  39  40
BRANCH  39  43
HETATM   43  O1  UNL     1      38.164 -12.528  29.467  1.00  0.00    -0.346 OA
ATOM     44  H1  UNL     1      37.750 -13.266  29.897  1.00  0.00     0.219 HD
ENDBRANCH  39  43
ENDBRANCH   1  39
BRANCH   8  45
HETATM   45  N9  UNL     1      38.551  -8.255  32.503  1.00  0.00    -0.201 N 
HETATM   46  N10 UNL     1      39.553  -7.409  32.458  1.00  0.00    -0.216 N 
HETATM   47  N11 UNL     1      39.098  -6.175  32.344  1.00  0.00    -0.004 NA
ATOM     48  H10 UNL     1      40.539  -7.667  32.504  1.00  0.00     0.206 HD
HETATM   49  N12 UNL     1      37.777  -6.213  32.315  1.00  0.00    -0.261 N 
HETATM   50  C20 UNL     1      37.429  -7.534  32.416  1.00  0.00     0.182 A 
ATOM     51  H12 UNL     1      37.143  -5.419  32.234  1.00  0.00     0.186 HD
BRANCH  50  52
HETATM   52  S2  UNL     1      35.773  -8.187  32.430  1.00  0.00    -0.080 SA
BRANCH  52  53
HETATM   53  C21 UNL     1      35.222  -8.562  34.096  1.00  0.00     0.195 C 
BRANCH  53  54
HETATM   54  C22 UNL     1      35.979  -7.719  35.082  1.00  0.00     0.182 C 
HETATM   55  O7  UNL     1      35.540  -6.546  35.243  1.00  0.00    -0.647 OA
HETATM   56  O8  UNL     1      37.085  -8.205  35.765  1.00  0.00    -0.647 OA
ENDBRANCH  53  54
ENDBRANCH  52  53
ENDBRANCH  50  52
ENDBRANCH   8  45
TORSDOF 15
ENDMDL
MODEL 3
REMARK VINA RESULT: -9.276248913      3.110      9.893
REMARK  15 active torsions:
REMARK  status: ('A' for Active; 'I' for Inactive)
REMARK    1  A    between atoms: N1_2  and  C2_4 
REMARK    2  A    between atoms: C2_4  and  O1_5 
REMARK    3  A    between atoms: C2_4  and  C3_7 
REMARK    4  A    between atoms: C4_8  and  O2_9 
REMARK    5  A    between atoms: C5_11  and  C6_12 
REMARK    6  A    between atoms: C6_12  and  O3_13 
REMARK    7  A    between atoms: C6_12  and  N2_15 
REMARK    8  A    between atoms: N2_15  and  C7_17 
REMARK    9  A    between atoms: C9_21  and  C10_22 
REMARK   10  A    between atoms: C11_25  and  C12_26 
REMARK   11  A    between atoms: C12_26  and  N4_27 
REMARK   12  A    between atoms: C19_42  and  N9_43 
REMARK   13  A    between atoms: C20_49  and  S2_50 
REMARK   14  A    between atoms: S2_50  and  C21_51 
REMARK   15  A    between atoms: C21_51  and  C22_52 
ROOT
HETATM    1  C3  UNL     1      39.263 -12.120  31.396  1.00  0.00     0.077 C 
HETATM    2  C4  UNL     1      39.630 -13.250  31.921  1.00  0.00     0.100 C 
HETATM    3  C5  UNL     1      40.330 -13.521  33.234  1.00  0.00     0.090 C 
HETATM    4  C18 UNL     1      40.381 -12.705  34.261  1.00  0.00     0.135 C 
HETATM    5  N7  UNL     1      41.070 -13.109  35.412  1.00  0.00    -0.082 NA
HETATM    6  N8  UNL     1      39.812 -11.370  34.331  1.00  0.00    -0.327 N 
ATOM      7  H8  UNL     1      39.473 -11.074  35.246  1.00  0.00     0.168 HD
HETATM    8  C19 UNL     1      39.669 -10.427  33.281  1.00  0.00     0.157 C 
HETATM    9  C23 UNL     1      39.433 -10.769  32.019  1.00  0.00     0.109 C 
HETATM   10  N13 UNL     1      39.342  -9.670  31.147  1.00  0.00    -0.097 NA
ENDROOT
BRANCH   3  11
HETATM   11  C6  UNL     1      40.982 -14.797  33.283  1.00  0.00     0.153 C 
BRANCH  11  12
HETATM   12  O3  UNL     1      40.337 -15.717  33.996  1.00  0.00    -0.346 OA
ATOM     13  H3  UNL     1      40.664 -16.602  33.883  1.00  0.00     0.219 HD
ENDBRANCH  11  12
BRANCH  11  14
HETATM   14  N2  UNL     1      42.152 -15.295  32.747  1.00  0.00    -0.354 N 
ATOM     15  H2  UNL     1      42.111 -15.973  31.986  1.00  0.00     0.162 HD
BRANCH  14  16
HETATM   16  C7  UNL     1      43.480 -14.850  33.273  1.00  0.00     0.210 C 
HETATM   17  C8  UNL     1      44.385 -14.587  32.129  1.00  0.00     0.251 C 
HETATM   18  O4  UNL     1      44.345 -14.074  30.983  1.00  0.00    -0.271 OA
HETATM   19  N3  UNL     1      45.429 -15.196  32.888  1.00  0.00    -0.293 N 
HETATM   20  C9  UNL     1      46.840 -15.334  33.188  1.00  0.00     0.120 C 
HETATM   21  C17 UNL     1      44.427 -15.958  33.577  1.00  0.00     0.187 C 
HETATM   22  C11 UNL     1      47.239 -15.332  34.434  1.00  0.00    -0.017 C 
HETATM   23  C16 UNL     1      46.270 -15.149  35.584  1.00  0.00     0.114 C 
HETATM   24  S1  UNL     1      44.810 -16.195  35.325  1.00  0.00    -0.136 SA
BRANCH  20  25
HETATM   25  C10 UNL     1      47.726 -15.474  32.065  1.00  0.00     0.227 C 
HETATM   26  O5  UNL     1      48.205 -14.434  31.491  1.00  0.00    -0.643 OA
HETATM   27  O6  UNL     1      48.134 -16.649  31.514  1.00  0.00    -0.643 OA
ENDBRANCH  20  25
BRANCH  22  28
HETATM   28  C12 UNL     1      48.615 -15.462  34.844  1.00  0.00     0.187 C 
BRANCH  28  29
HETATM   29  N4  UNL     1      49.231 -14.178  35.227  1.00  0.00    -0.283 N 
HETATM   30  C13 UNL     1      50.130 -13.502  34.453  1.00  0.00     0.138 A 
HETATM   31  C14 UNL     1      50.499 -12.337  35.093  1.00  0.00     0.040 A 
HETATM   32  C15 UNL     1      51.463 -11.293  34.606  1.00  0.00     0.071 C 
HETATM   33  N5  UNL     1      49.804 -12.345  36.247  1.00  0.00    -0.289 N 
HETATM   34  N6  UNL     1      49.068 -13.439  36.298  1.00  0.00    -0.240 N 
ATOM     35  H5  UNL     1      49.841 -11.622  36.966  1.00  0.00     0.188 HD
ATOM     36  H6  UNL     1      48.450 -13.680  37.074  1.00  0.00     0.208 HD
ENDBRANCH  28  29
ENDBRANCH  22  28
ENDBRANCH  14  16
ENDBRANCH  11  14
ENDBRANCH   3  11
BRANCH   2  37
HETATM   37  O2  UNL     1      39.381 -14.418  31.245  1.00  0.00    -0.358 OA
ATOM     38  H2  UNL     1      39.570 -15.248  31.667  1.00  0.00     0.217 HD
ENDBRANCH   2  37
BRANCH   1  39
HETATM   39  C2  UNL     1      38.605 -12.114  30.109  1.00  0.00     0.150 C 
BRANCH  39  40
HETATM   40  N1  UNL     1      38.957 -12.628  28.862  1.00  0.00    -0.375 N 
HETATM   41  C1  UNL     1      40.376 -12.562  28.401  1.00  0.00     0.148 C 
ATOM     42  H1  UNL     1      38.245 -13.048  28.265  1.00  0.00     0.161 HD
ENDBRANCH  39  40
BRANCH  39  43
HETATM   43  O1  UNL     1      37.439 -11.503  30.115  1.00  0.00    -0.346 OA
ATOM     44  H1  UNL     1      37.166 -11.217  30.979  1.00  0.00     0.219 HD
ENDBRANCH  39  43
ENDBRANCH   1  39
BRANCH   8  45
HETATM   45  N9  UNL     1      39.767  -9.057  33.569  1.00  0.00    -0.201 N 
HETATM   46  N10 UNL     1      40.821  -8.297  33.380  1.00  0.00    -0.216 N 
HETATM   47  N11 UNL     1      40.560  -7.060  33.762  1.00  0.00    -0.004 NA
ATOM     48  H10 UNL     1      41.710  -8.615  32.995  1.00  0.00     0.206 HD
HETATM   49  N12 UNL     1      39.316  -7.010  34.209  1.00  0.00    -0.261 N 
HETATM   50  C20 UNL     1      38.813  -8.277  34.086  1.00  0.00     0.182 A 
ATOM     51  H12 UNL     1      38.829  -6.190  34.572  1.00  0.00     0.186 HD
BRANCH  50  52
HETATM   52  S2  UNL     1      37.173  -8.804  34.535  1.00  0.00    -0.080 SA
BRANCH  52  53
HETATM   53  C21 UNL     1      35.915  -7.751  33.810  1.00  0.00     0.195 C 
BRANCH  53  54
HETATM   54  C22 UNL     1      35.925  -7.906  32.315  1.00  0.00     0.182 C 
HETATM   55  O7  UNL     1      35.570  -6.887  31.661  1.00  0.00    -0.647 OA
HETATM   56  O8  UNL     1      36.300  -9.094  31.705  1.00  0.00    -0.647 OA
ENDBRANCH  53  54
ENDBRANCH  52  53
ENDBRANCH  50  52
ENDBRANCH   8  45
TORSDOF 15
ENDMDL
MODEL 4
REMARK VINA RESULT: -9.229004940      2.162      2.980
REMARK  15 active torsions:
REMARK  status: ('A' for Active; 'I' for Inactive)
REMARK    1  A    between atoms: N1_2  and  C2_4 
REMARK    2  A    between atoms: C2_4  and  O1_5 
REMARK    3  A    between atoms: C2_4  and  C3_7 
REMARK    4  A    between atoms: C4_8  and  O2_9 
REMARK    5  A    between atoms: C5_11  and  C6_12 
REMARK    6  A    between atoms: C6_12  and  O3_13 
REMARK    7  A    between atoms: C6_12  and  N2_15 
REMARK    8  A    between atoms: N2_15  and  C7_17 
REMARK    9  A    between atoms: C9_21  and  C10_22 
REMARK   10  A    between atoms: C11_25  and  C12_26 
REMARK   11  A    between atoms: C12_26  and  N4_27 
REMARK   12  A    between atoms: C19_42  and  N9_43 
REMARK   13  A    between atoms: C20_49  and  S2_50 
REMARK   14  A    between atoms: S2_50  and  C21_51 
REMARK   15  A    between atoms: C21_51  and  C22_52 
ROOT
HETATM    1  C3  UNL     1      44.541 -15.004  34.567  1.00  0.00     0.077 C 
HETATM    2  C4  UNL     1      43.312 -15.419  34.607  1.00  0.00     0.100 C 
HETATM    3  C5  UNL     1      42.664 -16.586  33.895  1.00  0.00     0.090 C 
HETATM    4  C18 UNL     1      43.291 -17.618  33.381  1.00  0.00     0.135 C 
HETATM    5  N7  UNL     1      42.542 -18.621  32.754  1.00  0.00    -0.082 NA
HETATM    6  N8  UNL     1      44.729 -17.829  33.359  1.00  0.00    -0.327 N 
ATOM      7  H8  UNL     1      45.041 -18.798  33.420  1.00  0.00     0.168 HD
HETATM    8  C19 UNL     1      45.752 -16.851  33.263  1.00  0.00     0.157 C 
HETATM    9  C23 UNL     1      45.654 -15.636  33.789  1.00  0.00     0.109 C 
HETATM   10  N13 UNL     1      46.783 -14.831  33.560  1.00  0.00    -0.097 NA
ENDROOT
BRANCH   3  11
HETATM   11  C6  UNL     1      41.237 -16.479  33.802  1.00  0.00     0.153 C 
BRANCH  11  12
HETATM   12  O3  UNL     1      40.579 -17.579  34.161  1.00  0.00    -0.346 OA
ATOM     13  H3  UNL     1      39.652 -17.447  34.323  1.00  0.00     0.219 HD
ENDBRANCH  11  12
BRANCH  11  14
HETATM   14  N2  UNL     1      40.376 -15.474  33.414  1.00  0.00    -0.354 N 
ATOM     15  H2  UNL     1      39.484 -15.357  33.898  1.00  0.00     0.162 HD
BRANCH  14  16
HETATM   16  C7  UNL     1      40.736 -14.552  32.292  1.00  0.00     0.210 C 
HETATM   17  C8  UNL     1      40.527 -13.154  32.734  1.00  0.00     0.251 C 
HETATM   18  O4  UNL     1      40.702 -12.442  33.755  1.00  0.00    -0.271 OA
HETATM   19  N3  UNL     1      39.997 -12.883  31.437  1.00  0.00    -0.293 N 
HETATM   20  C9  UNL     1      39.729 -11.943  30.367  1.00  0.00     0.120 C 
HETATM   21  C17 UNL     1      39.622 -14.265  31.347  1.00  0.00     0.187 C 
HETATM   22  C11 UNL     1      40.013 -12.270  29.132  1.00  0.00    -0.017 C 
HETATM   23  C16 UNL     1      40.658 -13.598  28.785  1.00  0.00     0.114 C 
HETATM   24  S1  UNL     1      39.822 -14.936  29.683  1.00  0.00    -0.136 SA
BRANCH  20  25
HETATM   25  C10 UNL     1      39.147 -10.685  30.745  1.00  0.00     0.227 C 
HETATM   26  O5  UNL     1      37.874 -10.565  30.828  1.00  0.00    -0.643 OA
HETATM   27  O6  UNL     1      39.831  -9.547  31.040  1.00  0.00    -0.643 OA
ENDBRANCH  20  25
BRANCH  22  28
HETATM   28  C12 UNL     1      39.790 -11.415  27.994  1.00  0.00     0.187 C 
BRANCH  28  29
HETATM   29  N4  UNL     1      40.530 -11.841  26.792  1.00  0.00    -0.283 N 
HETATM   30  C13 UNL     1      40.940 -13.123  26.563  1.00  0.00     0.138 A 
HETATM   31  C14 UNL     1      41.591 -13.185  25.348  1.00  0.00     0.040 A 
HETATM   32  C15 UNL     1      42.204 -14.393  24.700  1.00  0.00     0.071 C 
HETATM   33  N5  UNL     1      41.552 -11.924  24.875  1.00  0.00    -0.289 N 
HETATM   34  N6  UNL     1      40.923 -11.157  25.744  1.00  0.00    -0.240 N 
ATOM     35  H5  UNL     1      41.946 -11.612  23.987  1.00  0.00     0.188 HD
ATOM     36  H6  UNL     1      40.763 -10.157  25.618  1.00  0.00     0.208 HD
ENDBRANCH  28  29
ENDBRANCH  22  28
ENDBRANCH  14  16
ENDBRANCH  11  14
ENDBRANCH   3  11
BRANCH   2  37
HETATM   37  O2  UNL     1      42.402 -14.755  35.392  1.00  0.00    -0.358 OA
ATOM     38  H2  UNL     1      41.478 -14.802  35.175  1.00  0.00     0.217 HD
ENDBRANCH   2  37
BRANCH   1  39
HETATM   39  C2  UNL     1      44.927 -13.847  35.342  1.00  0.00     0.150 C 
BRANCH  39  40
HETATM   40  N1  UNL     1      45.874 -13.652  36.348  1.00  0.00    -0.375 N 
HETATM   41  C1  UNL     1      45.930 -14.589  37.510  1.00  0.00     0.148 C 
ATOM     42  H1  UNL     1      46.526 -12.870  36.290  1.00  0.00     0.161 HD
ENDBRANCH  39  40
BRANCH  39  43
HETATM   43  O1  UNL     1      44.254 -12.758  35.038  1.00  0.00    -0.346 OA
ATOM     44  H1  UNL     1      43.354 -12.773  35.340  1.00  0.00     0.219 HD
ENDBRANCH  39  43
ENDBRANCH   1  39
BRANCH   8  45
HETATM   45  N9  UNL     1      46.944 -17.167  32.590  1.00  0.00    -0.201 N 
HETATM   46  N10 UNL     1      48.116 -17.376  33.144  1.00  0.00    -0.216 N 
HETATM   47  N11 UNL     1      49.012 -17.649  32.213  1.00  0.00    -0.004 NA
ATOM     48  H10 UNL     1      48.306 -17.333  34.145  1.00  0.00     0.206 HD
HETATM   49  N12 UNL     1      48.418 -17.617  31.032  1.00  0.00    -0.261 N 
HETATM   50  C20 UNL     1      47.105 -17.311  31.272  1.00  0.00     0.182 A 
ATOM     51  H12 UNL     1      48.851 -17.787  30.125  1.00  0.00     0.186 HD
BRANCH  50  52
HETATM   52  S2  UNL     1      45.827 -17.134  30.046  1.00  0.00    -0.080 SA
BRANCH  52  53
HETATM   53  C21 UNL     1      45.391 -15.413  29.785  1.00  0.00     0.195 C 
BRANCH  53  54
HETATM   54  C22 UNL     1      44.058 -15.127  30.415  1.00  0.00     0.182 C 
HETATM   55  O7  UNL     1      43.967 -14.021  31.017  1.00  0.00    -0.647 OA
HETATM   56  O8  UNL     1      43.002 -16.025  30.336  1.00  0.00    -0.647 OA
ENDBRANCH  53  54
ENDBRANCH  52  53
ENDBRANCH  50  52
ENDBRANCH   8  45
TORSDOF 15
ENDMDL
MODEL 5
REMARK VINA RESULT: -9.015121007      3.203      9.773
REMARK  15 active torsions:
REMARK  status: ('A' for Active; 'I' for Inactive)
REMARK    1  A    between atoms: N1_2  and  C2_4 
REMARK    2  A    between atoms: C2_4  and  O1_5 
REMARK    3  A    between atoms: C2_4  and  C3_7 
REMARK    4  A    between atoms: C4_8  and  O2_9 
REMARK    5  A    between atoms: C5_11  and  C6_12 
REMARK    6  A    between atoms: C6_12  and  O3_13 
REMARK    7  A    between atoms: C6_12  and  N2_15 
REMARK    8  A    between atoms: N2_15  and  C7_17 
REMARK    9  A    between atoms: C9_21  and  C10_22 
REMARK   10  A    between atoms: C11_25  and  C12_26 
REMARK   11  A    between atoms: C12_26  and  N4_27 
REMARK   12  A    between atoms: C19_42  and  N9_43 
REMARK   13  A    between atoms: C20_49  and  S2_50 
REMARK   14  A    between atoms: S2_50  and  C21_51 
REMARK   15  A    between atoms: C21_51  and  C22_52 
ROOT
HETATM    1  C3  UNL     1      39.207 -12.173  31.334  1.00  0.00     0.077 C 
HETATM    2  C4  UNL     1      39.548 -13.320  31.836  1.00  0.00     0.100 C 
HETATM    3  C5  UNL     1      40.250 -13.633  33.139  1.00  0.00     0.090 C 
HETATM    4  C18 UNL     1      40.331 -12.837  34.179  1.00  0.00     0.135 C 
HETATM    5  N7  UNL     1      41.018 -13.279  35.317  1.00  0.00    -0.082 NA
HETATM    6  N8  UNL     1      39.798 -11.488  34.277  1.00  0.00    -0.327 N 
ATOM      7  H8  UNL     1      39.475 -11.200  35.200  1.00  0.00     0.168 HD
HETATM    8  C19 UNL     1      39.672 -10.525  33.244  1.00  0.00     0.157 C 
HETATM    9  C23 UNL     1      39.418 -10.838  31.979  1.00  0.00     0.109 C 
HETATM   10  N13 UNL     1      39.350  -9.722  31.126  1.00  0.00    -0.097 NA
ENDROOT
BRANCH   3  11
HETATM   11  C6  UNL     1      40.868 -14.927  33.160  1.00  0.00     0.153 C 
BRANCH  11  12
HETATM   12  O3  UNL     1      40.511 -15.690  34.191  1.00  0.00    -0.346 OA
ATOM     13  H3  UNL     1      40.998 -16.503  34.265  1.00  0.00     0.219 HD
ENDBRANCH  11  12
BRANCH  11  14
HETATM   14  N2  UNL     1      41.769 -15.571  32.337  1.00  0.00    -0.354 N 
ATOM     15  H2  UNL     1      41.434 -16.260  31.663  1.00  0.00     0.162 HD
BRANCH  14  16
HETATM   16  C7  UNL     1      43.231 -15.269  32.424  1.00  0.00     0.210 C 
HETATM   17  C8  UNL     1      43.773 -15.124  31.053  1.00  0.00     0.251 C 
HETATM   18  O4  UNL     1      43.444 -14.625  29.947  1.00  0.00    -0.271 OA
HETATM   19  N3  UNL     1      44.929 -15.835  31.495  1.00  0.00    -0.293 N 
HETATM   20  C9  UNL     1      46.343 -16.124  31.369  1.00  0.00     0.120 C 
HETATM   21  C17 UNL     1      44.108 -16.471  32.484  1.00  0.00     0.187 C 
HETATM   22  C11 UNL     1      47.096 -16.150  32.438  1.00  0.00    -0.017 C 
HETATM   23  C16 UNL     1      46.540 -15.845  33.815  1.00  0.00     0.114 C 
HETATM   24  S1  UNL     1      44.971 -16.726  34.049  1.00  0.00    -0.136 SA
BRANCH  20  25
HETATM   25  C10 UNL     1      46.833 -16.377  30.041  1.00  0.00     0.227 C 
HETATM   26  O5  UNL     1      46.999 -15.406  29.222  1.00  0.00    -0.643 OA
HETATM   27  O6  UNL     1      47.157 -17.595  29.530  1.00  0.00    -0.643 OA
ENDBRANCH  20  25
BRANCH  22  28
HETATM   28  C12 UNL     1      48.511 -16.426  32.428  1.00  0.00     0.187 C 
BRANCH  28  29
HETATM   29  N4  UNL     1      49.330 -15.278  32.858  1.00  0.00    -0.283 N 
HETATM   30  C13 UNL     1      50.396 -14.795  32.154  1.00  0.00     0.138 A 
HETATM   31  C14 UNL     1      50.932 -13.713  32.822  1.00  0.00     0.040 A 
HETATM   32  C15 UNL     1      52.111 -12.878  32.411  1.00  0.00     0.071 C 
HETATM   33  N5  UNL     1      50.165 -13.575  33.921  1.00  0.00    -0.289 N 
HETATM   34  N6  UNL     1      49.232 -14.508  33.915  1.00  0.00    -0.240 N 
ATOM     35  H5  UNL     1      50.286 -12.863  34.642  1.00  0.00     0.188 HD
ATOM     36  H6  UNL     1      48.524 -14.617  34.642  1.00  0.00     0.208 HD
ENDBRANCH  28  29
ENDBRANCH  22  28
ENDBRANCH  14  16
ENDBRANCH  11  14
ENDBRANCH   3  11
BRANCH   2  37
HETATM   37  O2  UNL     1      39.262 -14.470  31.143  1.00  0.00    -0.358 OA
ATOM     38  H2  UNL     1      39.500 -15.310  31.517  1.00  0.00     0.217 HD
ENDBRANCH   2  37
BRANCH   1  39
HETATM   39  C2  UNL     1      38.539 -12.126  30.053  1.00  0.00     0.150 C 
BRANCH  39  40
HETATM   40  N1  UNL     1      38.906 -12.551  28.777  1.00  0.00    -0.375 N 
HETATM   41  C1  UNL     1      40.350 -12.627  28.402  1.00  0.00     0.148 C 
ATOM     42  H1  UNL     1      38.188 -12.811  28.100  1.00  0.00     0.161 HD
ENDBRANCH  39  40
BRANCH  39  43
HETATM   43  O1  UNL     1      37.346 -11.574  30.100  1.00  0.00    -0.346 OA
ATOM     44  H1  UNL     1      37.285 -10.761  29.614  1.00  0.00     0.219 HD
ENDBRANCH  39  43
ENDBRANCH   1  39
BRANCH   8  45
HETATM   45  N9  UNL     1      39.809  -9.162  33.555  1.00  0.00    -0.201 N 
HETATM   46  N10 UNL     1      40.878  -8.425  33.359  1.00  0.00    -0.216 N 
HETATM   47  N11 UNL     1      40.654  -7.189  33.769  1.00  0.00    -0.004 NA
ATOM     48  H10 UNL     1      41.751  -8.756  32.950  1.00  0.00     0.206 HD
HETATM   49  N12 UNL     1      39.422  -7.117  34.241  1.00  0.00    -0.261 N 
HETATM   50  C20 UNL     1      38.886  -8.370  34.106  1.00  0.00     0.182 A 
ATOM     51  H12 UNL     1      38.962  -6.294  34.629  1.00  0.00     0.186 HD
BRANCH  50  52
HETATM   52  S2  UNL     1      37.243  -8.866  34.579  1.00  0.00    -0.080 SA
BRANCH  52  53
HETATM   53  C21 UNL     1      35.995  -7.786  33.875  1.00  0.00     0.195 C 
BRANCH  53  54
HETATM   54  C22 UNL     1      35.948  -7.970  32.385  1.00  0.00     0.182 C 
HETATM   55  O7  UNL     1      35.573  -6.962  31.725  1.00  0.00    -0.647 OA
HETATM   56  O8  UNL     1      36.294  -9.172  31.784  1.00  0.00    -0.647 OA
ENDBRANCH  53  54
ENDBRANCH  52  53
ENDBRANCH  50  52
ENDBRANCH   8  45
TORSDOF 15
ENDMDL
