MODEL 1
REMARK VINA RESULT: -8.260987288      0.000      0.000
REMARK  17 active torsions:
REMARK  status: ('A' for Active; 'I' for Inactive)
REMARK    1  A    between atoms: C2_2  and  O1_3 
REMARK    2  A    between atoms: O1_3  and  C3_4 
REMARK    3  A    between atoms: C3_4  and  C4_6 
REMARK    4  A    between atoms: C4_6  and  N1_7 
REMARK    5  A    between atoms: N1_7  and  C5_9 
REMARK    6  A    between atoms: C5_9  and  O3_10 
REMARK    7  A    between atoms: C5_9  and  C6_12 
REMARK    8  A    between atoms: C6_12  and  C20_44 
REMARK    9  A    between atoms: N2_13  and  O4_15 
REMARK   10  A    between atoms: O4_15  and  C7_16 
REMARK   11  A    between atoms: C8_17  and  C9_18 
REMARK   12  A    between atoms: C11_26  and  N6_27 
REMARK       I    between atoms: N6_27  and  C12_29 
REMARK   13  A    between atoms: C12_29  and  C13_31 
REMARK   14  A    between atoms: C13_31  and  O8_32 
REMARK   15  A    between atoms: N7_34  and  O9_36 
REMARK   16  A    between atoms: O9_36  and  C14_37 
REMARK   17  A    between atoms: C22_47  and  N8_48 
ROOT
HETATM    1  C6  UNL     1      41.975 -13.814  33.645  1.00  0.00     0.132 C 
HETATM    2  N2  UNL     1      43.060 -14.289  33.157  1.00  0.00    -0.255 N 
ATOM      3  H2  UNL     1      42.937 -14.720  32.241  1.00  0.00     0.195 HD
ENDROOT
BRANCH   2   4
HETATM    4  O4  UNL     1      44.304 -14.337  33.594  1.00  0.00    -0.238 OA
BRANCH   4   5
HETATM    5  C7  UNL     1      45.230 -15.313  33.319  1.00  0.00     0.119 C 
HETATM    6  C8  UNL     1      45.849 -15.305  32.135  1.00  0.00     0.148 C 
HETATM    7  N3  UNL     1      46.779 -16.263  31.728  1.00  0.00    -0.295 N 
HETATM    8  C10 UNL     1      47.281 -16.698  30.451  1.00  0.00     0.194 C 
HETATM    9  C18 UNL     1      47.569 -17.152  32.613  1.00  0.00     0.197 C 
HETATM   10  N4  UNL     1      46.505 -16.702  29.231  1.00  0.00    -0.063 NA
HETATM   11  N5  UNL     1      48.502 -17.095  30.562  1.00  0.00    -0.340 N 
HETATM   12  C11 UNL     1      48.923 -16.950  31.983  1.00  0.00     0.220 C 
ATOM     13  H5  UNL     1      49.083 -17.450  29.802  1.00  0.00     0.164 HD
HETATM   14  S1  UNL     1      47.337 -16.664  34.295  1.00  0.00    -0.133 SA
HETATM   15  C19 UNL     1      45.494 -16.325  34.381  1.00  0.00     0.146 C 
BRANCH   6  16
HETATM   16  C9  UNL     1      45.501 -14.224  31.182  1.00  0.00     0.229 C 
HETATM   17  O5  UNL     1      44.510 -14.396  30.391  1.00  0.00    -0.643 OA
HETATM   18  O6  UNL     1      46.198 -13.058  31.131  1.00  0.00    -0.643 OA
ENDBRANCH   6  16
BRANCH  12  19
HETATM   19  N6  UNL     1      49.366 -15.574  32.063  1.00  0.00    -0.330 N 
HETATM   20  C12 UNL     1      50.726 -15.259  31.882  1.00  0.00     0.295 C 
HETATM   21  O7  UNL     1      51.543 -16.187  31.662  1.00  0.00    -0.264 OA
ATOM     22  H6  UNL     1      48.691 -14.832  32.251  1.00  0.00     0.165 HD
BRANCH  20  23
HETATM   23  C13 UNL     1      51.202 -13.880  31.946  1.00  0.00     0.230 C 
HETATM   24  N7  UNL     1      51.857 -13.466  32.958  1.00  0.00    -0.239 N 
ATOM     25  H7  UNL     1      52.036 -14.123  33.718  1.00  0.00     0.196 HD
BRANCH  23  26
HETATM   26  O8  UNL     1      50.964 -12.985  30.922  1.00  0.00    -0.341 OA
ATOM     27  H8  UNL     1      50.808 -12.063  31.093  1.00  0.00     0.219 HD
ENDBRANCH  23  26
BRANCH  24  28
HETATM   28  O9  UNL     1      52.334 -12.189  33.082  1.00  0.00    -0.268 OA
BRANCH  28  29
HETATM   29  C14 UNL     1      52.208 -11.436  34.252  1.00  0.00     0.078 C 
HETATM   30  C15 UNL     1      50.819 -10.809  34.255  1.00  0.00     0.048 C 
HETATM   31  C16 UNL     1      52.432 -12.238  35.511  1.00  0.00     0.048 C 
HETATM   32  C17 UNL     1      53.204 -10.283  34.293  1.00  0.00     0.048 C 
ENDBRANCH  28  29
ENDBRANCH  24  28
ENDBRANCH  20  23
ENDBRANCH  12  19
ENDBRANCH   4   5
ENDBRANCH   2   4
BRANCH   1  33
HETATM   33  C5  UNL     1      40.797 -13.972  32.810  1.00  0.00     0.171 C 
BRANCH  33  34
HETATM   34  N1  UNL     1      40.456 -13.280  31.637  1.00  0.00    -0.305 N 
ATOM     35  H1  UNL     1      40.387 -12.263  31.662  1.00  0.00     0.166 HD
BRANCH  34  36
HETATM   36  C4  UNL     1      40.200 -13.979  30.383  1.00  0.00     0.452 C 
HETATM   37  N10 UNL     1      38.900 -14.644  30.447  1.00  0.00    -0.011 N 
HETATM   38  C23 UNL     1      37.914 -13.560  30.352  1.00  0.00     0.266 C 
ATOM     39 2H10 UNL     1      38.777 -15.377  29.749  1.00  0.00     0.283 HD
ATOM     40 1H10 UNL     1      38.781 -15.240  31.265  1.00  0.00     0.283 HD
HETATM   41  C24 UNL     1      38.744 -12.348  29.920  1.00  0.00     0.266 C 
HETATM   42  N11 UNL     1      39.924 -12.991  29.350  1.00  0.00    -0.011 N 
ATOM     43 2H11 UNL     1      40.697 -12.370  29.112  1.00  0.00     0.283 HD
ATOM     44 1H11 UNL     1      39.818 -13.357  28.403  1.00  0.00     0.283 HD
BRANCH  36  45
HETATM   45  C3  UNL     1      41.226 -14.928  29.983  1.00  0.00     0.346 C 
HETATM   46  O2  UNL     1      41.516 -15.906  30.712  1.00  0.00    -0.258 OA
BRANCH  45  47
HETATM   47  O1  UNL     1      41.923 -14.795  28.791  1.00  0.00    -0.317 OA
BRANCH  47  48
HETATM   48  C2  UNL     1      41.631 -15.633  27.698  1.00  0.00     0.174 C 
HETATM   49  C1  UNL     1      41.724 -14.820  26.411  1.00  0.00     0.034 C 
ENDBRANCH  47  48
ENDBRANCH  45  47
ENDBRANCH  36  45
ENDBRANCH  34  36
ENDBRANCH  33  34
BRANCH  33  50
HETATM   50  O3  UNL     1      39.975 -14.889  33.232  1.00  0.00    -0.344 OA
ATOM     51  H3  UNL     1      40.327 -15.756  33.394  1.00  0.00     0.219 HD
ENDBRANCH  33  50
ENDBRANCH   1  33
BRANCH   1  52
HETATM   52  C20 UNL     1      41.951 -13.186  34.997  1.00  0.00     0.074 A 
HETATM   53  C21 UNL     1      40.853 -12.450  35.375  1.00  0.00     0.085 A 
HETATM   54  S2  UNL     1      41.209 -12.061  37.001  1.00  0.00    -0.064 SA
HETATM   55  C22 UNL     1      42.711 -12.841  37.118  1.00  0.00     0.142 A 
HETATM   56  N9  UNL     1      42.878 -13.370  35.901  1.00  0.00    -0.335 N 
ATOM     57  H9  UNL     1      43.715 -13.909  35.681  1.00  0.00     0.168 HD
BRANCH  55  58
HETATM   58  N8  UNL     1      43.550 -12.932  38.136  1.00  0.00    -0.380 N 
ATOM     59  H82 UNL     1      43.772 -12.196  38.807  1.00  0.00     0.158 HD
ATOM     60  H81 UNL     1      44.123 -13.715  38.451  1.00  0.00     0.158 HD
ENDBRANCH  55  58
ENDBRANCH   1  52
TORSDOF 17
ENDMDL
MODEL 2
REMARK VINA RESULT: -8.254985924      2.792      4.599
REMARK  17 active torsions:
REMARK  status: ('A' for Active; 'I' for Inactive)
REMARK    1  A    between atoms: C2_2  and  O1_3 
REMARK    2  A    between atoms: O1_3  and  C3_4 
REMARK    3  A    between atoms: C3_4  and  C4_6 
REMARK    4  A    between atoms: C4_6  and  N1_7 
REMARK    5  A    between atoms: N1_7  and  C5_9 
REMARK    6  A    between atoms: C5_9  and  O3_10 
REMARK    7  A    between atoms: C5_9  and  C6_12 
REMARK    8  A    between atoms: C6_12  and  C20_44 
REMARK    9  A    between atoms: N2_13  and  O4_15 
REMARK   10  A    between atoms: O4_15  and  C7_16 
REMARK   11  A    between atoms: C8_17  and  C9_18 
REMARK   12  A    between atoms: C11_26  and  N6_27 
REMARK       I    between atoms: N6_27  and  C12_29 
REMARK   13  A    between atoms: C12_29  and  C13_31 
REMARK   14  A    between atoms: C13_31  and  O8_32 
REMARK   15  A    between atoms: N7_34  and  O9_36 
REMARK   16  A    between atoms: O9_36  and  C14_37 
REMARK   17  A    between atoms: C22_47  and  N8_48 
ROOT
HETATM    1  C6  UNL     1      41.469 -14.455  32.666  1.00  0.00     0.132 C 
HETATM    2  N2  UNL     1      42.195 -15.415  33.106  1.00  0.00    -0.255 N 
ATOM      3  H2  UNL     1      42.840 -15.786  32.410  1.00  0.00     0.195 HD
ENDROOT
BRANCH   2   4
HETATM    4  O4  UNL     1      42.280 -16.023  34.274  1.00  0.00    -0.238 OA
BRANCH   4   5
HETATM    5  C7  UNL     1      43.250 -15.832  35.226  1.00  0.00     0.119 C 
HETATM    6  C8  UNL     1      44.174 -16.779  35.412  1.00  0.00     0.148 C 
HETATM    7  N3  UNL     1      45.184 -16.715  36.373  1.00  0.00    -0.295 N 
HETATM    8  C10 UNL     1      46.023 -17.691  37.017  1.00  0.00     0.194 C 
HETATM    9  C18 UNL     1      45.701 -15.486  37.023  1.00  0.00     0.197 C 
HETATM   10  N4  UNL     1      45.615 -19.048  37.307  1.00  0.00    -0.063 NA
HETATM   11  N5  UNL     1      47.167 -17.175  37.311  1.00  0.00    -0.340 N 
HETATM   12  C11 UNL     1      47.176 -15.754  36.866  1.00  0.00     0.220 C 
ATOM     13  H5  UNL     1      47.937 -17.659  37.771  1.00  0.00     0.164 HD
HETATM   14  S1  UNL     1      45.010 -14.067  36.231  1.00  0.00    -0.133 SA
HETATM   15  C19 UNL     1      43.213 -14.554  35.994  1.00  0.00     0.146 C 
BRANCH   6  16
HETATM   16  C9  UNL     1      44.099 -17.991  34.561  1.00  0.00     0.229 C 
HETATM   17  O5  UNL     1      44.843 -18.063  33.524  1.00  0.00    -0.643 OA
HETATM   18  O6  UNL     1      43.268 -19.026  34.857  1.00  0.00    -0.643 OA
ENDBRANCH   6  16
BRANCH  12  19
HETATM   19  N6  UNL     1      47.573 -15.840  35.476  1.00  0.00    -0.330 N 
HETATM   20  C12 UNL     1      48.335 -14.809  34.894  1.00  0.00     0.295 C 
HETATM   21  O7  UNL     1      48.652 -13.816  35.595  1.00  0.00    -0.264 OA
ATOM     22  H6  UNL     1      47.301 -16.649  34.918  1.00  0.00     0.165 HD
BRANCH  20  23
HETATM   23  C13 UNL     1      48.760 -14.872  33.499  1.00  0.00     0.230 C 
HETATM   24  N7  UNL     1      48.006 -15.393  32.614  1.00  0.00    -0.239 N 
ATOM     25  H7  UNL     1      47.103 -15.765  32.908  1.00  0.00     0.196 HD
BRANCH  23  26
HETATM   26  O8  UNL     1      49.981 -14.370  33.093  1.00  0.00    -0.341 OA
ATOM     27  H8  UNL     1      50.084 -13.464  32.828  1.00  0.00     0.219 HD
ENDBRANCH  23  26
BRANCH  24  28
HETATM   28  O9  UNL     1      48.342 -15.482  31.289  1.00  0.00    -0.268 OA
BRANCH  28  29
HETATM   29  C14 UNL     1      47.659 -16.293  30.380  1.00  0.00     0.078 C 
HETATM   30  C15 UNL     1      48.382 -17.632  30.315  1.00  0.00     0.048 C 
HETATM   31  C16 UNL     1      46.203 -16.491  30.727  1.00  0.00     0.048 C 
HETATM   32  C17 UNL     1      47.690 -15.715  28.970  1.00  0.00     0.048 C 
ENDBRANCH  28  29
ENDBRANCH  24  28
ENDBRANCH  20  23
ENDBRANCH  12  19
ENDBRANCH   4   5
ENDBRANCH   2   4
BRANCH   1  33
HETATM   33  C5  UNL     1      41.705 -14.081  31.283  1.00  0.00     0.171 C 
BRANCH  33  34
HETATM   34  N1  UNL     1      40.903 -13.297  30.439  1.00  0.00    -0.305 N 
ATOM     35  H1  UNL     1      40.879 -12.286  30.574  1.00  0.00     0.166 HD
BRANCH  34  36
HETATM   36  C4  UNL     1      40.104 -13.890  29.374  1.00  0.00     0.452 C 
HETATM   37  N10 UNL     1      39.142 -14.830  29.945  1.00  0.00    -0.011 N 
HETATM   38  C23 UNL     1      38.130 -13.989  30.598  1.00  0.00     0.266 C 
ATOM     39 2H10 UNL     1      38.757 -15.489  29.270  1.00  0.00     0.283 HD
ATOM     40 1H10 UNL     1      39.561 -15.526  30.562  1.00  0.00     0.283 HD
HETATM   41  C24 UNL     1      38.432 -12.582  30.074  1.00  0.00     0.266 C 
HETATM   42  N11 UNL     1      39.190 -12.879  28.862  1.00  0.00    -0.011 N 
ATOM     43 2H11 UNL     1      39.625 -12.079  28.403  1.00  0.00     0.283 HD
ATOM     44 1H11 UNL     1      38.638 -13.150  28.048  1.00  0.00     0.283 HD
BRANCH  36  45
HETATM   45  C3  UNL     1      40.864 -14.537  28.317  1.00  0.00     0.346 C 
HETATM   46  O2  UNL     1      41.202 -15.739  28.412  1.00  0.00    -0.258 OA
BRANCH  45  47
HETATM   47  O1  UNL     1      41.247 -13.857  27.169  1.00  0.00    -0.317 OA
BRANCH  47  48
HETATM   48  C2  UNL     1      41.857 -14.547  26.104  1.00  0.00     0.174 C 
HETATM   49  C1  UNL     1      41.669 -13.744  24.821  1.00  0.00     0.034 C 
ENDBRANCH  47  48
ENDBRANCH  45  47
ENDBRANCH  36  45
ENDBRANCH  34  36
ENDBRANCH  33  34
BRANCH  33  50
HETATM   50  O3  UNL     1      42.821 -14.544  30.799  1.00  0.00    -0.344 OA
ATOM     51  H3  UNL     1      42.848 -15.459  30.547  1.00  0.00     0.219 HD
ENDBRANCH  33  50
ENDBRANCH   1  33
BRANCH   1  52
HETATM   52  C20 UNL     1      40.434 -13.817  33.530  1.00  0.00     0.074 A 
HETATM   53  C21 UNL     1      40.224 -12.461  33.434  1.00  0.00     0.085 A 
HETATM   54  S2  UNL     1      38.892 -12.217  34.476  1.00  0.00    -0.064 SA
HETATM   55  C22 UNL     1      38.671 -13.824  34.974  1.00  0.00     0.142 A 
HETATM   56  N9  UNL     1      39.631 -14.484  34.317  1.00  0.00    -0.335 N 
ATOM     57  H9  UNL     1      39.735 -15.492  34.428  1.00  0.00     0.168 HD
BRANCH  55  58
HETATM   58  N8  UNL     1      37.785 -14.347  35.805  1.00  0.00    -0.380 N 
ATOM     59  H82 UNL     1      36.903 -13.925  36.096  1.00  0.00     0.158 HD
ATOM     60  H81 UNL     1      37.794 -15.237  36.304  1.00  0.00     0.158 HD
ENDBRANCH  55  58
ENDBRANCH   1  52
TORSDOF 17
ENDMDL
MODEL 3
REMARK VINA RESULT: -8.224008333      3.570      6.438
REMARK  17 active torsions:
REMARK  status: ('A' for Active; 'I' for Inactive)
REMARK    1  A    between atoms: C2_2  and  O1_3 
REMARK    2  A    between atoms: O1_3  and  C3_4 
REMARK    3  A    between atoms: C3_4  and  C4_6 
REMARK    4  A    between atoms: C4_6  and  N1_7 
REMARK    5  A    between atoms: N1_7  and  C5_9 
REMARK    6  A    between atoms: C5_9  and  O3_10 
REMARK    7  A    between atoms: C5_9  and  C6_12 
REMARK    8  A    between atoms: C6_12  and  C20_44 
REMARK    9  A    between atoms: N2_13  and  O4_15 
REMARK   10  A    between atoms: O4_15  and  C7_16 
REMARK   11  A    between atoms: C8_17  and  C9_18 
REMARK   12  A    between atoms: C11_26  and  N6_27 
REMARK       I    between atoms: N6_27  and  C12_29 
REMARK   13  A    between atoms: C12_29  and  C13_31 
REMARK   14  A    between atoms: C13_31  and  O8_32 
REMARK   15  A    between atoms: N7_34  and  O9_36 
REMARK   16  A    between atoms: O9_36  and  C14_37 
REMARK   17  A    between atoms: C22_47  and  N8_48 
ROOT
HETATM    1  C6  UNL     1      39.913 -12.880  31.030  1.00  0.00     0.132 C 
HETATM    2  N2  UNL     1      40.018 -13.437  32.179  1.00  0.00    -0.255 N 
ATOM      3  H2  UNL     1      39.587 -12.899  32.930  1.00  0.00     0.195 HD
ENDROOT
BRANCH   2   4
HETATM    4  O4  UNL     1      40.570 -14.562  32.592  1.00  0.00    -0.238 OA
BRANCH   4   5
HETATM    5  C7  UNL     1      41.373 -14.722  33.694  1.00  0.00     0.119 C 
HETATM    6  C8  UNL     1      42.221 -15.753  33.735  1.00  0.00     0.148 C 
HETATM    7  N3  UNL     1      43.058 -16.040  34.815  1.00  0.00    -0.295 N 
HETATM    8  C10 UNL     1      43.745 -17.221  35.268  1.00  0.00     0.194 C 
HETATM    9  C18 UNL     1      43.497 -15.088  35.863  1.00  0.00     0.197 C 
HETATM   10  N4  UNL     1      43.252 -18.568  35.087  1.00  0.00    -0.063 NA
HETATM   11  N5  UNL     1      44.839 -16.899  35.868  1.00  0.00    -0.340 N 
HETATM   12  C11 UNL     1      44.968 -15.416  35.861  1.00  0.00     0.220 C 
ATOM     13  H5  UNL     1      45.506 -17.552  36.280  1.00  0.00     0.164 HD
HETATM   14  S1  UNL     1      42.993 -13.454  35.421  1.00  0.00    -0.133 SA
HETATM   15  C19 UNL     1      41.248 -13.712  34.784  1.00  0.00     0.146 C 
BRANCH   6  16
HETATM   16  C9  UNL     1      42.252 -16.668  32.568  1.00  0.00     0.229 C 
HETATM   17  O5  UNL     1      41.388 -17.609  32.501  1.00  0.00    -0.643 OA
HETATM   18  O6  UNL     1      43.164 -16.529  31.570  1.00  0.00    -0.643 OA
ENDBRANCH   6  16
BRANCH  12  19
HETATM   19  N6  UNL     1      45.590 -15.139  34.583  1.00  0.00    -0.330 N 
HETATM   20  C12 UNL     1      46.950 -15.440  34.380  1.00  0.00     0.295 C 
HETATM   21  O7  UNL     1      47.611 -15.940  35.324  1.00  0.00    -0.264 OA
ATOM     22  H6  UNL     1      45.042 -14.726  33.828  1.00  0.00     0.165 HD
BRANCH  20  23
HETATM   23  C13 UNL     1      47.604 -15.183  33.100  1.00  0.00     0.230 C 
HETATM   24  N7  UNL     1      46.964 -15.319  32.006  1.00  0.00    -0.239 N 
ATOM     25  H7  UNL     1      45.988 -15.612  32.051  1.00  0.00     0.196 HD
BRANCH  23  26
HETATM   26  O8  UNL     1      48.925 -14.786  33.030  1.00  0.00    -0.341 OA
ATOM     27  H8  UNL     1      49.617 -15.399  32.815  1.00  0.00     0.219 HD
ENDBRANCH  23  26
BRANCH  24  28
HETATM   28  O9  UNL     1      47.515 -15.093  30.773  1.00  0.00    -0.268 OA
BRANCH  28  29
HETATM   29  C14 UNL     1      47.641 -16.085  29.799  1.00  0.00     0.078 C 
HETATM   30  C15 UNL     1      46.356 -16.904  29.799  1.00  0.00     0.048 C 
HETATM   31  C16 UNL     1      47.925 -15.542  28.419  1.00  0.00     0.048 C 
HETATM   32  C17 UNL     1      48.773 -17.054  30.120  1.00  0.00     0.048 C 
ENDBRANCH  28  29
ENDBRANCH  24  28
ENDBRANCH  20  23
ENDBRANCH  12  19
ENDBRANCH   4   5
ENDBRANCH   2   4
BRANCH   1  33
HETATM   33  C5  UNL     1      39.204 -11.612  31.016  1.00  0.00     0.171 C 
BRANCH  33  34
HETATM   34  N1  UNL     1      39.644 -10.358  31.466  1.00  0.00    -0.305 N 
ATOM     35  H1  UNL     1      40.575 -10.034  31.203  1.00  0.00     0.166 HD
BRANCH  34  36
HETATM   36  C4  UNL     1      38.805  -9.506  32.301  1.00  0.00     0.452 C 
HETATM   37  N10 UNL     1      38.493 -10.195  33.551  1.00  0.00    -0.011 N 
HETATM   38  C23 UNL     1      39.744 -10.170  34.321  1.00  0.00     0.266 C 
ATOM     39 2H10 UNL     1      37.694  -9.805  34.049  1.00  0.00     0.283 HD
ATOM     40 1H10 UNL     1      38.106 -11.130  33.422  1.00  0.00     0.283 HD
HETATM   41  C24 UNL     1      40.620  -9.170  33.561  1.00  0.00     0.266 C 
HETATM   42  N11 UNL     1      39.619  -8.414  32.814  1.00  0.00    -0.011 N 
ATOM     43 2H11 UNL     1      39.982  -7.764  32.117  1.00  0.00     0.283 HD
ATOM     44 1H11 UNL     1      39.119  -7.697  33.341  1.00  0.00     0.283 HD
BRANCH  36  45
HETATM   45  C3  UNL     1      37.581  -9.037  31.672  1.00  0.00     0.346 C 
HETATM   46  O2  UNL     1      37.580  -8.644  30.482  1.00  0.00    -0.258 OA
BRANCH  45  47
HETATM   47  O1  UNL     1      36.373  -9.005  32.353  1.00  0.00    -0.317 OA
BRANCH  47  48
HETATM   48  C2  UNL     1      35.744  -7.776  32.629  1.00  0.00     0.174 C 
HETATM   49  C1  UNL     1      35.559  -7.641  34.136  1.00  0.00     0.034 C 
ENDBRANCH  47  48
ENDBRANCH  45  47
ENDBRANCH  36  45
ENDBRANCH  34  36
ENDBRANCH  33  34
BRANCH  33  50
HETATM   50  O3  UNL     1      38.010 -11.687  30.503  1.00  0.00    -0.344 OA
ATOM     51  H3  UNL     1      37.938 -11.886  29.577  1.00  0.00     0.219 HD
ENDBRANCH  33  50
ENDBRANCH   1  33
BRANCH   1  52
HETATM   52  C20 UNL     1      40.523 -13.498  29.818  1.00  0.00     0.074 A 
HETATM   53  C21 UNL     1      40.133 -13.061  28.573  1.00  0.00     0.085 A 
HETATM   54  S2  UNL     1      41.172 -13.931  27.532  1.00  0.00    -0.064 SA
HETATM   55  C22 UNL     1      42.037 -14.793  28.710  1.00  0.00     0.142 A 
HETATM   56  N9  UNL     1      41.492 -14.375  29.858  1.00  0.00    -0.335 N 
ATOM     57  H9  UNL     1      41.827 -14.735  30.751  1.00  0.00     0.168 HD
BRANCH  55  58
HETATM   58  N8  UNL     1      43.016 -15.672  28.580  1.00  0.00    -0.380 N 
ATOM     59  H82 UNL     1      42.919 -16.688  28.549  1.00  0.00     0.158 HD
ATOM     60  H81 UNL     1      44.022 -15.531  28.486  1.00  0.00     0.158 HD
ENDBRANCH  55  58
ENDBRANCH   1  52
TORSDOF 17
ENDMDL
MODEL 4
REMARK VINA RESULT: -8.150424791      3.698      6.901
REMARK  17 active torsions:
REMARK  status: ('A' for Active; 'I' for Inactive)
REMARK    1  A    between atoms: C2_2  and  O1_3 
REMARK    2  A    between atoms: O1_3  and  C3_4 
REMARK    3  A    between atoms: C3_4  and  C4_6 
REMARK    4  A    between atoms: C4_6  and  N1_7 
REMARK    5  A    between atoms: N1_7  and  C5_9 
REMARK    6  A    between atoms: C5_9  and  O3_10 
REMARK    7  A    between atoms: C5_9  and  C6_12 
REMARK    8  A    between atoms: C6_12  and  C20_44 
REMARK    9  A    between atoms: N2_13  and  O4_15 
REMARK   10  A    between atoms: O4_15  and  C7_16 
REMARK   11  A    between atoms: C8_17  and  C9_18 
REMARK   12  A    between atoms: C11_26  and  N6_27 
REMARK       I    between atoms: N6_27  and  C12_29 
REMARK   13  A    between atoms: C12_29  and  C13_31 
REMARK   14  A    between atoms: C13_31  and  O8_32 
REMARK   15  A    between atoms: N7_34  and  O9_36 
REMARK   16  A    between atoms: O9_36  and  C14_37 
REMARK   17  A    between atoms: C22_47  and  N8_48 
ROOT
HETATM    1  C6  UNL     1      39.616 -11.949  30.620  1.00  0.00     0.132 C 
HETATM    2  N2  UNL     1      39.857 -12.624  31.682  1.00  0.00    -0.255 N 
ATOM      3  H2  UNL     1      39.471 -12.203  32.526  1.00  0.00     0.195 HD
ENDROOT
BRANCH   2   4
HETATM    4  O4  UNL     1      40.502 -13.752  31.909  1.00  0.00    -0.238 OA
BRANCH   4   5
HETATM    5  C7  UNL     1      41.113 -14.123  33.082  1.00  0.00     0.119 C 
HETATM    6  C8  UNL     1      41.803 -15.266  33.122  1.00  0.00     0.148 C 
HETATM    7  N3  UNL     1      42.433 -15.765  34.263  1.00  0.00    -0.295 N 
HETATM    8  C10 UNL     1      42.886 -17.068  34.673  1.00  0.00     0.194 C 
HETATM    9  C18 UNL     1      42.842 -14.981  35.454  1.00  0.00     0.197 C 
HETATM   10  N4  UNL     1      42.249 -18.308  34.290  1.00  0.00    -0.063 NA
HETATM   11  N5  UNL     1      43.917 -16.963  35.439  1.00  0.00    -0.340 N 
HETATM   12  C11 UNL     1      44.242 -15.519  35.604  1.00  0.00     0.220 C 
ATOM     13  H5  UNL     1      44.426 -17.739  35.861  1.00  0.00     0.164 HD
HETATM   14  S1  UNL     1      42.628 -13.259  35.125  1.00  0.00    -0.133 SA
HETATM   15  C19 UNL     1      40.971 -13.204  34.247  1.00  0.00     0.146 C 
BRANCH   6  16
HETATM   16  C9  UNL     1      41.875 -16.072  31.879  1.00  0.00     0.229 C 
HETATM   17  O5  UNL     1      40.887 -16.825  31.575  1.00  0.00    -0.643 OA
HETATM   18  O6  UNL     1      42.956 -16.025  31.055  1.00  0.00    -0.643 OA
ENDBRANCH   6  16
BRANCH  12  19
HETATM   19  N6  UNL     1      45.069 -15.227  34.452  1.00  0.00    -0.330 N 
HETATM   20  C12 UNL     1      46.402 -15.679  34.407  1.00  0.00     0.295 C 
HETATM   21  O7  UNL     1      46.859 -16.326  35.382  1.00  0.00    -0.264 OA
ATOM     22  H6  UNL     1      44.686 -14.693  33.672  1.00  0.00     0.165 HD
BRANCH  20  23
HETATM   23  C13 UNL     1      47.258 -15.410  33.256  1.00  0.00     0.230 C 
HETATM   24  N7  UNL     1      46.804 -15.518  32.070  1.00  0.00    -0.239 N 
ATOM     25  H7  UNL     1      45.830 -15.798  31.950  1.00  0.00     0.196 HD
BRANCH  23  26
HETATM   26  O8  UNL     1      48.577 -15.031  33.409  1.00  0.00    -0.341 OA
ATOM     27  H8  UNL     1      49.250 -15.315  32.802  1.00  0.00     0.219 HD
ENDBRANCH  23  26
BRANCH  24  28
HETATM   28  O9  UNL     1      47.551 -15.279  30.948  1.00  0.00    -0.268 OA
BRANCH  28  29
HETATM   29  C14 UNL     1      47.670 -16.195  29.900  1.00  0.00     0.078 C 
HETATM   30  C15 UNL     1      48.949 -16.993  30.122  1.00  0.00     0.048 C 
HETATM   31  C16 UNL     1      46.483 -17.118  29.769  1.00  0.00     0.048 C 
HETATM   32  C17 UNL     1      47.823 -15.498  28.553  1.00  0.00     0.048 C 
ENDBRANCH  28  29
ENDBRANCH  24  28
ENDBRANCH  20  23
ENDBRANCH  12  19
ENDBRANCH   4   5
ENDBRANCH   2   4
BRANCH   1  33
HETATM   33  C5  UNL     1      38.844 -10.734  30.818  1.00  0.00     0.171 C 
BRANCH  33  34
HETATM   34  N1  UNL     1      39.246  -9.529  31.417  1.00  0.00    -0.305 N 
ATOM     35  H1  UNL     1      40.038  -9.020  31.025  1.00  0.00     0.166 HD
BRANCH  34  36
HETATM   36  C4  UNL     1      38.560  -8.988  32.584  1.00  0.00     0.452 C 
HETATM   37  N10 UNL     1      38.774  -9.867  33.732  1.00  0.00    -0.011 N 
HETATM   38  C23 UNL     1      40.174  -9.648  34.122  1.00  0.00     0.266 C 
ATOM     39 2H10 UNL     1      38.107  -9.726  34.490  1.00  0.00     0.283 HD
ATOM     40 1H10 UNL     1      38.543 -10.844  33.553  1.00  0.00     0.283 HD
HETATM   41  C24 UNL     1      40.580  -8.398  33.337  1.00  0.00     0.266 C 
HETATM   42  N11 UNL     1      39.279  -7.806  33.037  1.00  0.00    -0.011 N 
ATOM     43 2H11 UNL     1      39.289  -7.017  32.391  1.00  0.00     0.283 HD
ATOM     44 1H11 UNL     1      38.842  -7.285  33.797  1.00  0.00     0.283 HD
BRANCH  36  45
HETATM   45  C3  UNL     1      37.139  -8.739  32.406  1.00  0.00     0.346 C 
HETATM   46  O2  UNL     1      36.724  -8.047  31.447  1.00  0.00    -0.258 OA
BRANCH  45  47
HETATM   47  O1  UNL     1      36.190  -9.250  33.280  1.00  0.00    -0.317 OA
BRANCH  47  48
HETATM   48  C2  UNL     1      35.183  -8.417  33.802  1.00  0.00     0.174 C 
HETATM   49  C1  UNL     1      35.805  -7.459  34.813  1.00  0.00     0.034 C 
ENDBRANCH  47  48
ENDBRANCH  45  47
ENDBRANCH  36  45
ENDBRANCH  34  36
ENDBRANCH  33  34
BRANCH  33  50
HETATM   50  O3  UNL     1      37.628 -10.807  30.360  1.00  0.00    -0.344 OA
ATOM     51  H3  UNL     1      37.511 -11.082  29.459  1.00  0.00     0.219 HD
ENDBRANCH  33  50
ENDBRANCH   1  33
BRANCH   1  52
HETATM   52  C20 UNL     1      40.141 -12.387  29.295  1.00  0.00     0.074 A 
HETATM   53  C21 UNL     1      40.642 -13.660  29.160  1.00  0.00     0.085 A 
HETATM   54  S2  UNL     1      40.982 -13.749  27.488  1.00  0.00    -0.064 SA
HETATM   55  C22 UNL     1      40.479 -12.189  27.049  1.00  0.00     0.142 A 
HETATM   56  N9  UNL     1      40.068 -11.663  28.209  1.00  0.00    -0.335 N 
ATOM     57  H9  UNL     1      39.703 -10.712  28.244  1.00  0.00     0.168 HD
BRANCH  55  58
HETATM   58  N8  UNL     1      40.474 -11.592  25.870  1.00  0.00    -0.380 N 
ATOM     59  H82 UNL     1      40.743 -12.009  24.978  1.00  0.00     0.158 HD
ATOM     60  H81 UNL     1      40.213 -10.640  25.613  1.00  0.00     0.158 HD
ENDBRANCH  55  58
ENDBRANCH   1  52
TORSDOF 17
ENDMDL
MODEL 5
REMARK VINA RESULT: -8.144926254      3.175      5.312
REMARK  17 active torsions:
REMARK  status: ('A' for Active; 'I' for Inactive)
REMARK    1  A    between atoms: C2_2  and  O1_3 
REMARK    2  A    between atoms: O1_3  and  C3_4 
REMARK    3  A    between atoms: C3_4  and  C4_6 
REMARK    4  A    between atoms: C4_6  and  N1_7 
REMARK    5  A    between atoms: N1_7  and  C5_9 
REMARK    6  A    between atoms: C5_9  and  O3_10 
REMARK    7  A    between atoms: C5_9  and  C6_12 
REMARK    8  A    between atoms: C6_12  and  C20_44 
REMARK    9  A    between atoms: N2_13  and  O4_15 
REMARK   10  A    between atoms: O4_15  and  C7_16 
REMARK   11  A    between atoms: C8_17  and  C9_18 
REMARK   12  A    between atoms: C11_26  and  N6_27 
REMARK       I    between atoms: N6_27  and  C12_29 
REMARK   13  A    between atoms: C12_29  and  C13_31 
REMARK   14  A    between atoms: C13_31  and  O8_32 
REMARK   15  A    between atoms: N7_34  and  O9_36 
REMARK   16  A    between atoms: O9_36  and  C14_37 
REMARK   17  A    between atoms: C22_47  and  N8_48 
ROOT
HETATM    1  C6  UNL     1      40.448 -13.248  30.267  1.00  0.00     0.132 C 
HETATM    2  N2  UNL     1      41.363 -13.703  31.039  1.00  0.00    -0.255 N 
ATOM      3  H2  UNL     1      41.108 -13.679  32.026  1.00  0.00     0.195 HD
ENDROOT
BRANCH   2   4
HETATM    4  O4  UNL     1      42.567 -14.195  30.822  1.00  0.00    -0.238 OA
BRANCH   4   5
HETATM    5  C7  UNL     1      43.128 -15.286  31.440  1.00  0.00     0.119 C 
HETATM    6  C8  UNL     1      44.435 -15.519  31.285  1.00  0.00     0.148 C 
HETATM    7  N3  UNL     1      45.108 -16.614  31.831  1.00  0.00    -0.295 N 
HETATM    8  C10 UNL     1      46.344 -17.286  31.530  1.00  0.00     0.194 C 
HETATM    9  C18 UNL     1      44.665 -17.428  32.989  1.00  0.00     0.197 C 
HETATM   10  N4  UNL     1      46.903 -17.403  30.202  1.00  0.00    -0.063 NA
HETATM   11  N5  UNL     1      46.859 -17.777  32.605  1.00  0.00    -0.340 N 
HETATM   12  C11 UNL     1      45.965 -17.457  33.752  1.00  0.00     0.220 C 
ATOM     13  H5  UNL     1      47.734 -18.299  32.660  1.00  0.00     0.164 HD
HETATM   14  S1  UNL     1      43.259 -16.667  33.740  1.00  0.00    -0.133 SA
HETATM   15  C19 UNL     1      42.228 -16.144  32.263  1.00  0.00     0.146 C 
BRANCH   6  16
HETATM   16  C9  UNL     1      45.211 -14.569  30.453  1.00  0.00     0.229 C 
HETATM   17  O5  UNL     1      45.442 -14.868  29.231  1.00  0.00    -0.643 OA
HETATM   18  O6  UNL     1      45.675 -13.392  30.950  1.00  0.00    -0.643 OA
ENDBRANCH   6  16
BRANCH  12  19
HETATM   19  N6  UNL     1      46.395 -16.134  34.153  1.00  0.00    -0.330 N 
HETATM   20  C12 UNL     1      47.603 -15.967  34.857  1.00  0.00     0.295 C 
HETATM   21  O7  UNL     1      48.289 -16.981  35.137  1.00  0.00    -0.264 OA
ATOM     22  H6  UNL     1      45.822 -15.321  33.925  1.00  0.00     0.165 HD
BRANCH  20  23
HETATM   23  C13 UNL     1      48.069 -14.645  35.266  1.00  0.00     0.230 C 
HETATM   24  N7  UNL     1      49.137 -14.153  34.775  1.00  0.00    -0.239 N 
ATOM     25  H7  UNL     1      49.654 -14.708  34.093  1.00  0.00     0.196 HD
BRANCH  23  26
HETATM   26  O8  UNL     1      47.374 -13.888  36.190  1.00  0.00    -0.341 OA
ATOM     27  H8  UNL     1      47.690 -13.038  36.473  1.00  0.00     0.219 HD
ENDBRANCH  23  26
BRANCH  24  28
HETATM   28  O9  UNL     1      49.629 -12.921  35.114  1.00  0.00    -0.268 OA
BRANCH  28  29
HETATM   29  C14 UNL     1      50.888 -12.465  34.717  1.00  0.00     0.078 C 
HETATM   30  C15 UNL     1      51.811 -12.533  35.927  1.00  0.00     0.048 C 
HETATM   31  C16 UNL     1      51.471 -13.240  33.560  1.00  0.00     0.048 C 
HETATM   32  C17 UNL     1      50.851 -11.005  34.281  1.00  0.00     0.048 C 
ENDBRANCH  28  29
ENDBRANCH  24  28
ENDBRANCH  20  23
ENDBRANCH  12  19
ENDBRANCH   4   5
ENDBRANCH   2   4
BRANCH   1  33
HETATM   33  C5  UNL     1      39.238 -12.799  30.934  1.00  0.00     0.171 C 
BRANCH  33  34
HETATM   34  N1  UNL     1      38.946 -12.794  32.307  1.00  0.00    -0.305 N 
ATOM     35  H1  UNL     1      38.519 -13.620  32.727  1.00  0.00     0.166 HD
BRANCH  34  36
HETATM   36  C4  UNL     1      39.236 -11.639  33.148  1.00  0.00     0.452 C 
HETATM   37  N10 UNL     1      38.409 -11.686  34.352  1.00  0.00    -0.011 N 
HETATM   38  C23 UNL     1      38.987 -12.761  35.169  1.00  0.00     0.266 C 
ATOM     39 2H10 UNL     1      38.335 -10.792  34.837  1.00  0.00     0.283 HD
ATOM     40 1H10 UNL     1      37.413 -11.800  34.164  1.00  0.00     0.283 HD
HETATM   41  C24 UNL     1      40.328 -13.053  34.491  1.00  0.00     0.266 C 
HETATM   42  N11 UNL     1      40.553 -11.819  33.743  1.00  0.00    -0.011 N 
ATOM     43 2H11 UNL     1      41.337 -11.831  33.091  1.00  0.00     0.283 HD
ATOM     44 1H11 UNL     1      40.907 -11.030  34.284  1.00  0.00     0.283 HD
BRANCH  36  45
HETATM   45  C3  UNL     1      39.094 -10.348  32.496  1.00  0.00     0.346 C 
HETATM   46  O2  UNL     1      40.085  -9.599  32.330  1.00  0.00    -0.258 OA
BRANCH  45  47
HETATM   47  O1  UNL     1      37.868  -9.891  32.033  1.00  0.00    -0.317 OA
BRANCH  47  48
HETATM   48  C2  UNL     1      37.535  -8.527  32.127  1.00  0.00     0.174 C 
HETATM   49  C1  UNL     1      36.054  -8.400  32.467  1.00  0.00     0.034 C 
ENDBRANCH  47  48
ENDBRANCH  45  47
ENDBRANCH  36  45
ENDBRANCH  34  36
ENDBRANCH  33  34
BRANCH  33  50
HETATM   50  O3  UNL     1      38.332 -12.338  30.120  1.00  0.00    -0.344 OA
ATOM     51  H3  UNL     1      37.594 -12.900  29.918  1.00  0.00     0.219 HD
ENDBRANCH  33  50
ENDBRANCH   1  33
BRANCH   1  52
HETATM   52  C20 UNL     1      40.658 -13.163  28.793  1.00  0.00     0.074 A 
HETATM   53  C21 UNL     1      41.248 -14.218  28.138  1.00  0.00     0.085 A 
HETATM   54  S2  UNL     1      41.152 -13.738  26.501  1.00  0.00    -0.064 SA
HETATM   55  C22 UNL     1      40.379 -12.244  26.725  1.00  0.00     0.142 A 
HETATM   56  N9  UNL     1      40.225 -12.176  28.053  1.00  0.00    -0.335 N 
ATOM     57  H9  UNL     1      39.776 -11.367  28.480  1.00  0.00     0.168 HD
BRANCH  55  58
HETATM   58  N8  UNL     1      40.002 -11.335  25.843  1.00  0.00    -0.380 N 
ATOM     59  H82 UNL     1      39.280 -11.446  25.129  1.00  0.00     0.158 HD
ATOM     60  H81 UNL     1      40.332 -10.382  25.695  1.00  0.00     0.158 HD
ENDBRANCH  55  58
ENDBRANCH   1  52
TORSDOF 17
ENDMDL
