MODEL 1
REMARK VINA RESULT: -9.283941161      0.000      0.000
REMARK  19 active torsions:
REMARK  status: ('A' for Active; 'I' for Inactive)
REMARK    1  A    between atoms: O1_2  and  C2_3 
REMARK    2  A    between atoms: C3_4  and  C4_5 
REMARK    3  A    between atoms: C4_5  and  C5_6 
REMARK    4  A    between atoms: N1_9  and  C8_10 
REMARK    5  A    between atoms: C13_25  and  O3_26 
REMARK    6  A    between atoms: O3_26  and  C14_27 
REMARK    7  A    between atoms: C14_27  and  C15_28 
REMARK    8  A    between atoms: C15_28  and  N7_29 
REMARK    9  A    between atoms: C16_30  and  O4_31 
REMARK   10  A    between atoms: C19_35  and  O5_36 
REMARK   11  A    between atoms: C21_40  and  O7_41 
REMARK   12  A    between atoms: C21_40  and  C22_43 
REMARK   13  A    between atoms: C23_44  and  C24_45 
REMARK   14  A    between atoms: C24_45  and  O8_46 
REMARK   15  A    between atoms: C24_45  and  C25_48 
REMARK   16  A    between atoms: C25_48  and  O9_49 
REMARK   17  A    between atoms: C26_52  and  C27_53 
REMARK   18  A    between atoms: C27_53  and  O11_54 
REMARK   19  A    between atoms: C28_56  and  O12_57 
ROOT
HETATM    1  O3  UNL     1      43.695 -15.693  34.202  1.00  0.00    -0.347 OA
ENDROOT
BRANCH   1   2
HETATM    2  C13 UNL     1      45.048 -15.467  34.389  1.00  0.00     0.104 A 
HETATM    3  C12 UNL     1      45.539 -14.930  35.557  1.00  0.00     0.040 A 
HETATM    4  C11 UNL     1      46.894 -14.722  35.694  1.00  0.00     0.013 A 
HETATM    5  C3  UNL     1      47.796 -15.048  34.661  1.00  0.00    -0.020 A 
HETATM    6  C2  UNL     1      47.285 -15.579  33.520  1.00  0.00     0.110 A 
HETATM    7  C28 UNL     1      45.907 -15.796  33.362  1.00  0.00     0.135 A 
BRANCH   5   8
HETATM    8  C4  UNL     1      49.182 -14.716  34.891  1.00  0.00     0.067 C 
BRANCH   8   9
HETATM    9  C5  UNL     1      49.740 -13.472  34.316  1.00  0.00     0.092 C 
HETATM   10  C6  UNL     1      49.720 -12.406  35.423  1.00  0.00     0.046 C 
HETATM   11  C7  UNL     1      51.096 -12.364  36.082  1.00  0.00     0.154 C 
HETATM   12  N1  UNL     1      52.002 -11.888  35.064  1.00  0.00    -0.130 N 
HETATM   13  C10 UNL     1      51.996 -12.558  33.819  1.00  0.00     0.337 C 
HETATM   14  O2  UNL     1      52.887 -12.328  32.959  1.00  0.00    -0.246 OA
HETATM   15  N6  UNL     1      50.945 -13.490  33.600  1.00  0.00    -0.337 N 
ATOM     16  H6  UNL     1      51.075 -14.207  32.886  1.00  0.00     0.164 HD
BRANCH  12  17
HETATM   17  C8  UNL     1      52.850 -10.790  35.330  1.00  0.00     0.720 A 
HETATM   18  N2  UNL     1      53.558 -10.038  34.457  1.00  0.00    -0.115 N 
HETATM   19  N3  UNL     1      54.229  -9.102  35.126  1.00  0.00    -0.211 N 
ATOM     20  H2  UNL     1      53.575 -10.168  33.445  1.00  0.00     0.207 HD
HETATM   21  N4  UNL     1      53.961  -9.244  36.407  1.00  0.00    -0.209 N 
ATOM     22  H3  UNL     1      54.842  -8.398  34.717  1.00  0.00     0.210 HD
HETATM   23  C9  UNL     1      54.489  -8.431  37.464  1.00  0.00     0.202 C 
HETATM   24  N5  UNL     1      53.132 -10.257  36.544  1.00  0.00    -0.113 N 
ATOM     25  H5  UNL     1      52.757 -10.591  37.432  1.00  0.00     0.207 HD
ENDBRANCH  12  17
ENDBRANCH   8   9
ENDBRANCH   5   8
BRANCH   6  26
HETATM   26  O1  UNL     1      48.052 -15.943  32.465  1.00  0.00    -0.352 OA
HETATM   27  C1  UNL     1      48.481 -15.212  31.387  1.00  0.00     0.210 C 
ENDBRANCH   6  26
BRANCH   7  28
HETATM   28  O12 UNL     1      45.437 -16.334  32.185  1.00  0.00    -0.351 OA
HETATM   29  C29 UNL     1      44.806 -15.647  31.144  1.00  0.00     0.210 C 
ENDBRANCH   7  28
ENDBRANCH   1   2
BRANCH   1  30
HETATM   30  C14 UNL     1      42.759 -14.682  34.403  1.00  0.00     0.196 C 
BRANCH  30  31
HETATM   31  C15 UNL     1      41.393 -15.205  34.007  1.00  0.00     0.161 C 
BRANCH  31  32
HETATM   32  N7  UNL     1      40.929 -14.674  32.766  1.00  0.00    -0.290 N 
HETATM   33  C16 UNL     1      40.598 -13.369  32.657  1.00  0.00     0.155 A 
HETATM   34  C17 UNL     1      40.159 -12.781  31.489  1.00  0.00     0.040 A 
HETATM   35  C18 UNL     1      40.061 -13.595  30.373  1.00  0.00     0.069 A 
HETATM   36  C26 UNL     1      39.732 -11.425  31.063  1.00  0.00     0.188 C 
HETATM   37  C19 UNL     1      40.392 -14.919  30.471  1.00  0.00     0.148 A 
HETATM   38  C21 UNL     1      39.595 -12.757  29.263  1.00  0.00     0.264 C 
HETATM   39  C20 UNL     1      40.828 -15.465  31.662  1.00  0.00     0.283 A 
HETATM   40  O6  UNL     1      41.142 -16.675  31.793  1.00  0.00    -0.265 OA
HETATM   41  O10 UNL     1      39.830 -11.444  29.674  1.00  0.00    -0.329 OA
BRANCH  33  42
HETATM   42  O4  UNL     1      40.713 -12.579  33.813  1.00  0.00    -0.345 OA
ATOM     43  H4  UNL     1      40.232 -11.760  33.829  1.00  0.00     0.219 HD
ENDBRANCH  33  42
BRANCH  37  44
HETATM   44  O5  UNL     1      40.304 -15.778  29.355  1.00  0.00    -0.355 OA
ATOM     45  H5  UNL     1      40.534 -16.697  29.423  1.00  0.00     0.218 HD
ENDBRANCH  37  44
BRANCH  38  46
HETATM   46  O7  UNL     1      38.264 -12.967  29.003  1.00  0.00    -0.351 OA
ATOM     47  H7  UNL     1      38.117 -13.828  28.630  1.00  0.00     0.214 HD
ENDBRANCH  38  46
BRANCH  38  48
HETATM   48  C22 UNL     1      40.402 -13.016  28.043  1.00  0.00    -0.030 C 
HETATM   49  C23 UNL     1      41.041 -13.245  27.049  1.00  0.00    -0.067 C 
BRANCH  49  50
HETATM   50  C24 UNL     1      41.810 -13.527  25.827  1.00  0.00     0.220 C 
BRANCH  50  51
HETATM   51  O8  UNL     1      41.544 -14.775  25.315  1.00  0.00    -0.381 OA
ATOM     52  H8  UNL     1      41.942 -14.909  24.462  1.00  0.00     0.211 HD
ENDBRANCH  50  51
BRANCH  50  53
HETATM   53  C25 UNL     1      41.432 -12.513  24.747  1.00  0.00     0.208 C 
BRANCH  53  54
HETATM   54  O9  UNL     1      42.288 -11.406  24.798  1.00  0.00    -0.397 OA
ATOM     55  H9  UNL     1      42.798 -11.345  23.998  1.00  0.00     0.209 HD
ENDBRANCH  53  54
ENDBRANCH  50  53
ENDBRANCH  49  50
ENDBRANCH  38  48
BRANCH  36  56
HETATM   56  C27 UNL     1      38.296 -11.149  31.486  1.00  0.00     0.201 C 
BRANCH  56  57
HETATM   57  O11 UNL     1      37.730 -10.319  30.504  1.00  0.00    -0.398 OA
ATOM     58  H11 UNL     1      37.066  -9.793  30.932  1.00  0.00     0.209 HD
ENDBRANCH  56  57
ENDBRANCH  36  56
ENDBRANCH  31  32
ENDBRANCH  30  31
ENDBRANCH   1  30
TORSDOF 19
ENDMDL
MODEL 2
REMARK VINA RESULT: -9.249580982      1.803      3.808
REMARK  19 active torsions:
REMARK  status: ('A' for Active; 'I' for Inactive)
REMARK    1  A    between atoms: O1_2  and  C2_3 
REMARK    2  A    between atoms: C3_4  and  C4_5 
REMARK    3  A    between atoms: C4_5  and  C5_6 
REMARK    4  A    between atoms: N1_9  and  C8_10 
REMARK    5  A    between atoms: C13_25  and  O3_26 
REMARK    6  A    between atoms: O3_26  and  C14_27 
REMARK    7  A    between atoms: C14_27  and  C15_28 
REMARK    8  A    between atoms: C15_28  and  N7_29 
REMARK    9  A    between atoms: C16_30  and  O4_31 
REMARK   10  A    between atoms: C19_35  and  O5_36 
REMARK   11  A    between atoms: C21_40  and  O7_41 
REMARK   12  A    between atoms: C21_40  and  C22_43 
REMARK   13  A    between atoms: C23_44  and  C24_45 
REMARK   14  A    between atoms: C24_45  and  O8_46 
REMARK   15  A    between atoms: C24_45  and  C25_48 
REMARK   16  A    between atoms: C25_48  and  O9_49 
REMARK   17  A    between atoms: C26_52  and  C27_53 
REMARK   18  A    between atoms: C27_53  and  O11_54 
REMARK   19  A    between atoms: C28_56  and  O12_57 
ROOT
HETATM    1  O3  UNL     1      45.642 -16.136  30.639  1.00  0.00    -0.347 OA
ENDROOT
BRANCH   1   2
HETATM    2  C13 UNL     1      46.702 -15.690  31.408  1.00  0.00     0.104 A 
HETATM    3  C12 UNL     1      47.814 -15.107  30.843  1.00  0.00     0.040 A 
HETATM    4  C11 UNL     1      48.844 -14.681  31.652  1.00  0.00     0.013 A 
HETATM    5  C3  UNL     1      48.788 -14.826  33.053  1.00  0.00    -0.020 A 
HETATM    6  C2  UNL     1      47.679 -15.401  33.584  1.00  0.00     0.110 A 
HETATM    7  C28 UNL     1      46.621 -15.844  32.776  1.00  0.00     0.135 A 
BRANCH   5   8
HETATM    8  C4  UNL     1      49.958 -14.409  33.788  1.00  0.00     0.067 C 
BRANCH   8   9
HETATM    9  C5  UNL     1      50.450 -13.020  33.652  1.00  0.00     0.092 C 
HETATM   10  C6  UNL     1      50.217 -12.317  35.000  1.00  0.00     0.046 C 
HETATM   11  C7  UNL     1      51.509 -12.377  35.809  1.00  0.00     0.154 C 
HETATM   12  N1  UNL     1      52.464 -11.575  35.081  1.00  0.00    -0.130 N 
HETATM   13  C10 UNL     1      52.647 -11.862  33.709  1.00  0.00     0.337 C 
HETATM   14  O2  UNL     1      53.594 -11.340  33.064  1.00  0.00    -0.246 OA
HETATM   15  N6  UNL     1      51.718 -12.757  33.114  1.00  0.00    -0.337 N 
ATOM     16  H6  UNL     1      51.986 -13.232  32.252  1.00  0.00     0.164 HD
BRANCH  12  17
HETATM   17  C8  UNL     1      53.172 -10.547  35.742  1.00  0.00     0.720 A 
HETATM   18  N2  UNL     1      53.963  -9.588  35.210  1.00  0.00    -0.115 N 
HETATM   19  N3  UNL     1      54.439  -8.819  36.187  1.00  0.00    -0.211 N 
ATOM     20  H2  UNL     1      54.163  -9.473  34.216  1.00  0.00     0.207 HD
HETATM   21  N4  UNL     1      53.967  -9.269  37.330  1.00  0.00    -0.209 N 
ATOM     22  H3  UNL     1      55.062  -8.020  36.070  1.00  0.00     0.210 HD
HETATM   23  C9  UNL     1      54.245  -8.715  38.623  1.00  0.00     0.202 C 
HETATM   24  N5  UNL     1      53.202 -10.309  37.077  1.00  0.00    -0.113 N 
ATOM     25  H5  UNL     1      52.706 -10.856  37.781  1.00  0.00     0.207 HD
ENDBRANCH  12  17
ENDBRANCH   8   9
ENDBRANCH   5   8
BRANCH   6  26
HETATM   26  O1  UNL     1      47.505 -15.584  34.914  1.00  0.00    -0.352 OA
HETATM   27  C1  UNL     1      47.015 -14.730  35.870  1.00  0.00     0.210 C 
ENDBRANCH   6  26
BRANCH   7  28
HETATM   28  O12 UNL     1      45.518 -16.425  33.362  1.00  0.00    -0.351 OA
HETATM   29  C29 UNL     1      45.313 -17.788  33.593  1.00  0.00     0.210 C 
ENDBRANCH   7  28
ENDBRANCH   1   2
BRANCH   1  30
HETATM   30  C14 UNL     1      44.983 -15.286  29.754  1.00  0.00     0.196 C 
BRANCH  30  31
HETATM   31  C15 UNL     1      43.625 -15.880  29.437  1.00  0.00     0.161 C 
BRANCH  31  32
HETATM   32  N7  UNL     1      42.543 -15.115  29.966  1.00  0.00    -0.290 N 
HETATM   33  C16 UNL     1      42.326 -15.060  31.298  1.00  0.00     0.155 A 
HETATM   34  C17 UNL     1      41.312 -14.330  31.885  1.00  0.00     0.040 A 
HETATM   35  C18 UNL     1      40.479 -13.618  31.039  1.00  0.00     0.069 A 
HETATM   36  C26 UNL     1      40.831 -14.078  33.265  1.00  0.00     0.188 C 
HETATM   37  C19 UNL     1      40.688 -13.666  29.687  1.00  0.00     0.148 A 
HETATM   38  C21 UNL     1      39.502 -12.918  31.879  1.00  0.00     0.264 C 
HETATM   39  C20 UNL     1      41.717 -14.411  29.144  1.00  0.00     0.283 A 
HETATM   40  O6  UNL     1      41.941 -14.481  27.909  1.00  0.00    -0.265 OA
HETATM   41  O10 UNL     1      40.050 -12.928  33.162  1.00  0.00    -0.329 OA
BRANCH  33  42
HETATM   42  O4  UNL     1      43.195 -15.798  32.121  1.00  0.00    -0.345 OA
ATOM     43  H4  UNL     1      43.187 -15.598  33.050  1.00  0.00     0.219 HD
ENDBRANCH  33  42
BRANCH  37  44
HETATM   44  O5  UNL     1      39.859 -12.954  28.795  1.00  0.00    -0.355 OA
ATOM     45  H5  UNL     1      39.341 -13.405  28.139  1.00  0.00     0.218 HD
ENDBRANCH  37  44
BRANCH  38  46
HETATM   46  O7  UNL     1      38.282 -13.545  31.853  1.00  0.00    -0.351 OA
ATOM     47  H7  UNL     1      37.590 -12.943  31.605  1.00  0.00     0.214 HD
ENDBRANCH  38  46
BRANCH  38  48
HETATM   48  C22 UNL     1      39.362 -11.505  31.442  1.00  0.00    -0.030 C 
HETATM   49  C23 UNL     1      39.255 -10.353  31.112  1.00  0.00    -0.067 C 
BRANCH  49  50
HETATM   50  C24 UNL     1      39.136  -8.941  30.714  1.00  0.00     0.220 C 
BRANCH  50  51
HETATM   51  O8  UNL     1      38.196  -8.751  29.729  1.00  0.00    -0.381 OA
ATOM     52  H8  UNL     1      37.619  -8.019  29.915  1.00  0.00     0.211 HD
ENDBRANCH  50  51
BRANCH  50  53
HETATM   53  C25 UNL     1      38.692  -8.112  31.919  1.00  0.00     0.208 C 
BRANCH  53  54
HETATM   54  O9  UNL     1      38.951  -6.754  31.699  1.00  0.00    -0.397 OA
ATOM     55  H9  UNL     1      39.543  -6.418  32.362  1.00  0.00     0.209 HD
ENDBRANCH  53  54
ENDBRANCH  50  53
ENDBRANCH  49  50
ENDBRANCH  38  48
BRANCH  36  56
HETATM   56  C27 UNL     1      39.989 -15.242  33.770  1.00  0.00     0.201 C 
BRANCH  56  57
HETATM   57  O11 UNL     1      39.021 -14.705  34.636  1.00  0.00    -0.398 OA
ATOM     58  H11 UNL     1      38.623 -15.435  35.094  1.00  0.00     0.209 HD
ENDBRANCH  56  57
ENDBRANCH  36  56
ENDBRANCH  31  32
ENDBRANCH  30  31
ENDBRANCH   1  30
TORSDOF 19
ENDMDL
MODEL 3
REMARK VINA RESULT: -9.192961703      1.590      2.499
REMARK  19 active torsions:
REMARK  status: ('A' for Active; 'I' for Inactive)
REMARK    1  A    between atoms: O1_2  and  C2_3 
REMARK    2  A    between atoms: C3_4  and  C4_5 
REMARK    3  A    between atoms: C4_5  and  C5_6 
REMARK    4  A    between atoms: N1_9  and  C8_10 
REMARK    5  A    between atoms: C13_25  and  O3_26 
REMARK    6  A    between atoms: O3_26  and  C14_27 
REMARK    7  A    between atoms: C14_27  and  C15_28 
REMARK    8  A    between atoms: C15_28  and  N7_29 
REMARK    9  A    between atoms: C16_30  and  O4_31 
REMARK   10  A    between atoms: C19_35  and  O5_36 
REMARK   11  A    between atoms: C21_40  and  O7_41 
REMARK   12  A    between atoms: C21_40  and  C22_43 
REMARK   13  A    between atoms: C23_44  and  C24_45 
REMARK   14  A    between atoms: C24_45  and  O8_46 
REMARK   15  A    between atoms: C24_45  and  C25_48 
REMARK   16  A    between atoms: C25_48  and  O9_49 
REMARK   17  A    between atoms: C26_52  and  C27_53 
REMARK   18  A    between atoms: C27_53  and  O11_54 
REMARK   19  A    between atoms: C28_56  and  O12_57 
ROOT
HETATM    1  O3  UNL     1      44.599 -17.110  33.612  1.00  0.00    -0.347 OA
ENDROOT
BRANCH   1   2
HETATM    2  C13 UNL     1      45.738 -16.452  34.046  1.00  0.00     0.104 A 
HETATM    3  C12 UNL     1      46.996 -16.831  33.633  1.00  0.00     0.040 A 
HETATM    4  C11 UNL     1      48.098 -16.145  34.094  1.00  0.00     0.013 A 
HETATM    5  C3  UNL     1      47.969 -15.059  34.983  1.00  0.00    -0.020 A 
HETATM    6  C2  UNL     1      46.718 -14.706  35.372  1.00  0.00     0.110 A 
HETATM    7  C28 UNL     1      45.583 -15.394  34.915  1.00  0.00     0.135 A 
BRANCH   5   8
HETATM    8  C4  UNL     1      49.198 -14.468  35.455  1.00  0.00     0.067 C 
BRANCH   8   9
HETATM    9  C5  UNL     1      49.751 -13.283  34.761  1.00  0.00     0.092 C 
HETATM   10  C6  UNL     1      49.852 -12.151  35.797  1.00  0.00     0.046 C 
HETATM   11  C7  UNL     1      51.276 -12.120  36.347  1.00  0.00     0.154 C 
HETATM   12  N1  UNL     1      52.116 -11.742  35.235  1.00  0.00    -0.130 N 
HETATM   13  C10 UNL     1      51.991 -12.486  34.039  1.00  0.00     0.337 C 
HETATM   14  O2  UNL     1      52.820 -12.343  33.102  1.00  0.00    -0.246 OA
HETATM   15  N6  UNL     1      50.896 -13.389  33.959  1.00  0.00    -0.337 N 
ATOM     16  H6  UNL     1      50.946 -14.153  33.285  1.00  0.00     0.164 HD
BRANCH  12  17
HETATM   17  C8  UNL     1      53.017 -10.663  35.366  1.00  0.00     0.720 A 
HETATM   18  N2  UNL     1      53.523  -9.862  34.401  1.00  0.00    -0.115 N 
HETATM   19  N3  UNL     1      54.340  -8.968  34.954  1.00  0.00    -0.211 N 
ATOM     20  H2  UNL     1      53.312  -9.932  33.405  1.00  0.00     0.207 HD
HETATM   21  N4  UNL     1      54.363  -9.184  36.253  1.00  0.00    -0.209 N 
ATOM     22  H3  UNL     1      54.857  -8.242  34.459  1.00  0.00     0.210 HD
HETATM   23  C9  UNL     1      55.126  -8.435  37.209  1.00  0.00     0.202 C 
HETATM   24  N5  UNL     1      53.571 -10.202  36.514  1.00  0.00    -0.113 N 
ATOM     25  H5  UNL     1      53.400 -10.587  37.443  1.00  0.00     0.207 HD
ENDBRANCH  12  17
ENDBRANCH   8   9
ENDBRANCH   5   8
BRANCH   6  26
HETATM   26  O1  UNL     1      46.468 -13.674  36.212  1.00  0.00    -0.352 OA
HETATM   27  C1  UNL     1      46.495 -13.619  37.583  1.00  0.00     0.210 C 
ENDBRANCH   6  26
BRANCH   7  28
HETATM   28  O12 UNL     1      44.334 -15.000  35.341  1.00  0.00    -0.351 OA
HETATM   29  C29 UNL     1      43.574 -15.582  36.359  1.00  0.00     0.210 C 
ENDBRANCH   7  28
ENDBRANCH   1   2
BRANCH   1  30
HETATM   30  C14 UNL     1      44.358 -17.319  32.257  1.00  0.00     0.196 C 
BRANCH  30  31
HETATM   31  C15 UNL     1      44.717 -16.055  31.503  1.00  0.00     0.161 C 
BRANCH  31  32
HETATM   32  N7  UNL     1      43.611 -15.491  30.798  1.00  0.00    -0.290 N 
HETATM   33  C16 UNL     1      42.826 -14.560  31.382  1.00  0.00     0.155 A 
HETATM   34  C17 UNL     1      41.752 -13.958  30.759  1.00  0.00     0.040 A 
HETATM   35  C18 UNL     1      41.481 -14.345  29.457  1.00  0.00     0.069 A 
HETATM   36  C26 UNL     1      40.734 -12.940  31.119  1.00  0.00     0.188 C 
HETATM   37  C19 UNL     1      42.269 -15.288  28.855  1.00  0.00     0.148 A 
HETATM   38  C21 UNL     1      40.321 -13.569  29.005  1.00  0.00     0.264 C 
HETATM   39  C20 UNL     1      43.335 -15.864  29.518  1.00  0.00     0.283 A 
HETATM   40  O6  UNL     1      44.082 -16.733  29.000  1.00  0.00    -0.265 OA
HETATM   41  O10 UNL     1      40.227 -12.500  29.898  1.00  0.00    -0.329 OA
BRANCH  33  42
HETATM   42  O4  UNL     1      43.136 -14.195  32.703  1.00  0.00    -0.345 OA
ATOM     43  H4  UNL     1      43.470 -13.317  32.844  1.00  0.00     0.219 HD
ENDBRANCH  33  42
BRANCH  37  44
HETATM   44  O5  UNL     1      42.022 -15.707  27.531  1.00  0.00    -0.355 OA
ATOM     45  H5  UNL     1      42.713 -15.707  26.879  1.00  0.00     0.218 HD
ENDBRANCH  37  44
BRANCH  38  46
HETATM   46  O7  UNL     1      39.179 -14.329  29.014  1.00  0.00    -0.351 OA
ATOM     47  H7  UNL     1      39.038 -14.750  28.174  1.00  0.00     0.214 HD
ENDBRANCH  38  46
BRANCH  38  48
HETATM   48  C22 UNL     1      40.563 -13.022  27.645  1.00  0.00    -0.030 C 
HETATM   49  C23 UNL     1      40.757 -12.602  26.534  1.00  0.00    -0.067 C 
BRANCH  49  50
HETATM   50  C24 UNL     1      40.987 -12.097  25.171  1.00  0.00     0.220 C 
BRANCH  50  51
HETATM   51  O8  UNL     1      42.158 -11.385  25.066  1.00  0.00    -0.381 OA
ATOM     52  H8  UNL     1      42.079 -10.644  24.476  1.00  0.00     0.211 HD
ENDBRANCH  50  51
BRANCH  50  53
HETATM   53  C25 UNL     1      41.096 -13.278  24.207  1.00  0.00     0.208 C 
BRANCH  53  54
HETATM   54  O9  UNL     1      41.806 -14.329  24.801  1.00  0.00    -0.397 OA
ATOM     55  H9  UNL     1      41.342 -14.651  25.566  1.00  0.00     0.209 HD
ENDBRANCH  53  54
ENDBRANCH  50  53
ENDBRANCH  49  50
ENDBRANCH  38  48
BRANCH  36  56
HETATM   56  C27 UNL     1      39.623 -13.554  31.959  1.00  0.00     0.201 C 
BRANCH  56  57
HETATM   57  O11 UNL     1      38.866 -12.493  32.480  1.00  0.00    -0.398 OA
ATOM     58  H11 UNL     1      39.367 -12.116  33.193  1.00  0.00     0.209 HD
ENDBRANCH  56  57
ENDBRANCH  36  56
ENDBRANCH  31  32
ENDBRANCH  30  31
ENDBRANCH   1  30
TORSDOF 19
ENDMDL
MODEL 4
REMARK VINA RESULT: -8.998628019      2.917      6.196
REMARK  19 active torsions:
REMARK  status: ('A' for Active; 'I' for Inactive)
REMARK    1  A    between atoms: O1_2  and  C2_3 
REMARK    2  A    between atoms: C3_4  and  C4_5 
REMARK    3  A    between atoms: C4_5  and  C5_6 
REMARK    4  A    between atoms: N1_9  and  C8_10 
REMARK    5  A    between atoms: C13_25  and  O3_26 
REMARK    6  A    between atoms: O3_26  and  C14_27 
REMARK    7  A    between atoms: C14_27  and  C15_28 
REMARK    8  A    between atoms: C15_28  and  N7_29 
REMARK    9  A    between atoms: C16_30  and  O4_31 
REMARK   10  A    between atoms: C19_35  and  O5_36 
REMARK   11  A    between atoms: C21_40  and  O7_41 
REMARK   12  A    between atoms: C21_40  and  C22_43 
REMARK   13  A    between atoms: C23_44  and  C24_45 
REMARK   14  A    between atoms: C24_45  and  O8_46 
REMARK   15  A    between atoms: C24_45  and  C25_48 
REMARK   16  A    between atoms: C25_48  and  O9_49 
REMARK   17  A    between atoms: C26_52  and  C27_53 
REMARK   18  A    between atoms: C27_53  and  O11_54 
REMARK   19  A    between atoms: C28_56  and  O12_57 
ROOT
HETATM    1  O3  UNL     1      41.996 -14.340  30.689  1.00  0.00    -0.347 OA
ENDROOT
BRANCH   1   2
HETATM    2  C13 UNL     1      43.070 -15.211  30.630  1.00  0.00     0.104 A 
HETATM    3  C12 UNL     1      44.001 -15.147  29.618  1.00  0.00     0.040 A 
HETATM    4  C11 UNL     1      45.052 -16.037  29.602  1.00  0.00     0.013 A 
HETATM    5  C3  UNL     1      45.200 -17.018  30.604  1.00  0.00    -0.020 A 
HETATM    6  C2  UNL     1      44.269 -17.057  31.591  1.00  0.00     0.110 A 
HETATM    7  C28 UNL     1      43.190 -16.160  31.623  1.00  0.00     0.135 A 
BRANCH   5   8
HETATM    8  C4  UNL     1      46.298 -17.940  30.441  1.00  0.00     0.067 C 
BRANCH   8   9
HETATM    9  C5  UNL     1      47.489 -17.818  31.310  1.00  0.00     0.092 C 
HETATM   10  C6  UNL     1      48.525 -16.971  30.552  1.00  0.00     0.046 C 
HETATM   11  C7  UNL     1      48.406 -15.523  31.019  1.00  0.00     0.154 C 
HETATM   12  N1  UNL     1      48.807 -15.527  32.406  1.00  0.00    -0.130 N 
HETATM   13  C10 UNL     1      48.172 -16.449  33.269  1.00  0.00     0.337 C 
HETATM   14  O2  UNL     1      48.327 -16.377  34.516  1.00  0.00    -0.246 OA
HETATM   15  N6  UNL     1      47.362 -17.443  32.656  1.00  0.00    -0.337 N 
ATOM     16  H6  UNL     1      46.652 -17.908  33.222  1.00  0.00     0.164 HD
BRANCH  12  17
HETATM   17  C8  UNL     1      49.803 -14.631  32.855  1.00  0.00     0.720 A 
HETATM   18  N2  UNL     1      50.983 -14.320  32.275  1.00  0.00    -0.115 N 
HETATM   19  N3  UNL     1      51.624 -13.430  33.031  1.00  0.00    -0.211 N 
ATOM     20  H2  UNL     1      51.329 -14.706  31.396  1.00  0.00     0.207 HD
HETATM   21  N4  UNL     1      50.873 -13.169  34.080  1.00  0.00    -0.209 N 
ATOM     22  H3  UNL     1      52.537 -13.021  32.831  1.00  0.00     0.210 HD
HETATM   23  C9  UNL     1      51.207 -12.259  35.138  1.00  0.00     0.202 C 
HETATM   24  N5  UNL     1      49.773 -13.885  33.987  1.00  0.00    -0.113 N 
ATOM     25  H5  UNL     1      49.012 -13.880  34.666  1.00  0.00     0.207 HD
ENDBRANCH  12  17
ENDBRANCH   8   9
ENDBRANCH   5   8
BRANCH   6  26
HETATM   26  O1  UNL     1      44.311 -17.945  32.613  1.00  0.00    -0.352 OA
HETATM   27  C1  UNL     1      44.569 -17.752  33.946  1.00  0.00     0.210 C 
ENDBRANCH   6  26
BRANCH   7  28
HETATM   28  O12 UNL     1      42.270 -16.242  32.644  1.00  0.00    -0.351 OA
HETATM   29  C29 UNL     1      41.163 -17.093  32.707  1.00  0.00     0.210 C 
ENDBRANCH   7  28
ENDBRANCH   1   2
BRANCH   1  30
HETATM   30  C14 UNL     1      40.895 -14.494  29.849  1.00  0.00     0.196 C 
BRANCH  30  31
HETATM   31  C15 UNL     1      39.635 -14.371  30.681  1.00  0.00     0.161 C 
BRANCH  31  32
HETATM   32  N7  UNL     1      39.446 -13.063  31.221  1.00  0.00    -0.290 N 
HETATM   33  C16 UNL     1      39.115 -12.029  30.418  1.00  0.00     0.155 A 
HETATM   34  C17 UNL     1      38.900 -10.742  30.868  1.00  0.00     0.040 A 
HETATM   35  C18 UNL     1      39.035 -10.520  32.227  1.00  0.00     0.069 A 
HETATM   36  C26 UNL     1      38.539  -9.438  30.259  1.00  0.00     0.188 C 
HETATM   37  C19 UNL     1      39.370 -11.560  33.052  1.00  0.00     0.148 A 
HETATM   38  C21 UNL     1      38.747  -9.102  32.467  1.00  0.00     0.264 C 
HETATM   39  C20 UNL     1      39.576 -12.833  32.556  1.00  0.00     0.283 A 
HETATM   40  O6  UNL     1      39.885 -13.814  33.280  1.00  0.00    -0.265 OA
HETATM   41  O10 UNL     1      38.076  -8.668  31.323  1.00  0.00    -0.329 OA
BRANCH  33  42
HETATM   42  O4  UNL     1      38.988 -12.298  29.044  1.00  0.00    -0.345 OA
ATOM     43  H4  UNL     1      39.681 -11.984  28.474  1.00  0.00     0.219 HD
ENDBRANCH  33  42
BRANCH  37  44
HETATM   44  O5  UNL     1      39.517 -11.371  34.442  1.00  0.00    -0.355 OA
ATOM     45  H5  UNL     1      40.368 -11.206  34.828  1.00  0.00     0.218 HD
ENDBRANCH  37  44
BRANCH  38  46
HETATM   46  O7  UNL     1      39.899  -8.387  32.671  1.00  0.00    -0.351 OA
ATOM     47  H7  UNL     1      39.733  -7.451  32.651  1.00  0.00     0.214 HD
ENDBRANCH  38  46
BRANCH  38  48
HETATM   48  C22 UNL     1      37.835  -8.948  33.630  1.00  0.00    -0.030 C 
HETATM   49  C23 UNL     1      37.078  -8.835  34.559  1.00  0.00    -0.067 C 
BRANCH  49  50
HETATM   50  C24 UNL     1      36.148  -8.710  35.692  1.00  0.00     0.220 C 
BRANCH  50  51
HETATM   51  O8  UNL     1      35.220  -7.714  35.501  1.00  0.00    -0.381 OA
ATOM     52  H8  UNL     1      34.379  -7.922  35.894  1.00  0.00     0.211 HD
ENDBRANCH  50  51
BRANCH  50  53
HETATM   53  C25 UNL     1      35.373 -10.016  35.857  1.00  0.00     0.208 C 
BRANCH  53  54
HETATM   54  O9  UNL     1      34.079  -9.885  35.336  1.00  0.00    -0.397 OA
ATOM     55  H9  UNL     1      33.810 -10.691  34.912  1.00  0.00     0.209 HD
ENDBRANCH  53  54
ENDBRANCH  50  53
ENDBRANCH  49  50
ENDBRANCH  38  48
BRANCH  36  56
HETATM   56  C27 UNL     1      39.755  -8.779  29.623  1.00  0.00     0.201 C 
BRANCH  56  57
HETATM   57  O11 UNL     1      40.229  -9.655  28.634  1.00  0.00    -0.398 OA
ATOM     58  H11 UNL     1      39.710  -9.501  27.853  1.00  0.00     0.209 HD
ENDBRANCH  56  57
ENDBRANCH  36  56
ENDBRANCH  31  32
ENDBRANCH  30  31
ENDBRANCH   1  30
TORSDOF 19
ENDMDL
MODEL 5
REMARK VINA RESULT: -8.977787534      2.344      4.733
REMARK  19 active torsions:
REMARK  status: ('A' for Active; 'I' for Inactive)
REMARK    1  A    between atoms: O1_2  and  C2_3 
REMARK    2  A    between atoms: C3_4  and  C4_5 
REMARK    3  A    between atoms: C4_5  and  C5_6 
REMARK    4  A    between atoms: N1_9  and  C8_10 
REMARK    5  A    between atoms: C13_25  and  O3_26 
REMARK    6  A    between atoms: O3_26  and  C14_27 
REMARK    7  A    between atoms: C14_27  and  C15_28 
REMARK    8  A    between atoms: C15_28  and  N7_29 
REMARK    9  A    between atoms: C16_30  and  O4_31 
REMARK   10  A    between atoms: C19_35  and  O5_36 
REMARK   11  A    between atoms: C21_40  and  O7_41 
REMARK   12  A    between atoms: C21_40  and  C22_43 
REMARK   13  A    between atoms: C23_44  and  C24_45 
REMARK   14  A    between atoms: C24_45  and  O8_46 
REMARK   15  A    between atoms: C24_45  and  C25_48 
REMARK   16  A    between atoms: C25_48  and  O9_49 
REMARK   17  A    between atoms: C26_52  and  C27_53 
REMARK   18  A    between atoms: C27_53  and  O11_54 
REMARK   19  A    between atoms: C28_56  and  O12_57 
ROOT
HETATM    1  O3  UNL     1      47.158 -16.591  34.968  1.00  0.00    -0.347 OA
ENDROOT
BRANCH   1   2
HETATM    2  C13 UNL     1      48.003 -15.494  34.989  1.00  0.00     0.104 A 
HETATM    3  C12 UNL     1      48.205 -14.756  36.134  1.00  0.00     0.040 A 
HETATM    4  C11 UNL     1      49.054 -13.672  36.104  1.00  0.00     0.013 A 
HETATM    5  C3  UNL     1      49.727 -13.298  34.923  1.00  0.00    -0.020 A 
HETATM    6  C2  UNL     1      49.512 -14.044  33.810  1.00  0.00     0.110 A 
HETATM    7  C28 UNL     1      48.648 -15.151  33.821  1.00  0.00     0.135 A 
BRANCH   5   8
HETATM    8  C4  UNL     1      50.532 -12.103  34.995  1.00  0.00     0.067 C 
BRANCH   8   9
HETATM    9  C5  UNL     1      51.848 -12.148  35.672  1.00  0.00     0.092 C 
HETATM   10  C6  UNL     1      52.873 -11.499  34.726  1.00  0.00     0.046 C 
HETATM   11  C7  UNL     1      53.051 -10.038  35.130  1.00  0.00     0.154 C 
HETATM   12  N1  UNL     1      53.655 -10.067  36.442  1.00  0.00    -0.130 N 
HETATM   13  C10 UNL     1      53.025 -10.852  37.435  1.00  0.00     0.337 C 
HETATM   14  O2  UNL     1      53.379 -10.770  38.640  1.00  0.00    -0.246 OA
HETATM   15  N6  UNL     1      51.987 -11.720  37.000  1.00  0.00    -0.337 N 
ATOM     16  H6  UNL     1      51.310 -12.049  37.688  1.00  0.00     0.164 HD
BRANCH  12  17
HETATM   17  C8  UNL     1      54.833  -9.330  36.692  1.00  0.00     0.720 A 
HETATM   18  N2  UNL     1      56.081  -9.544  36.218  1.00  0.00    -0.115 N 
HETATM   19  N3  UNL     1      56.902  -8.614  36.703  1.00  0.00    -0.211 N 
ATOM     20  H2  UNL     1      56.351 -10.300  35.587  1.00  0.00     0.207 HD
HETATM   21  N4  UNL     1      56.200  -7.813  37.477  1.00  0.00    -0.209 N 
ATOM     22  H3  UNL     1      57.900  -8.536  36.510  1.00  0.00     0.210 HD
HETATM   23  C9  UNL     1      56.716  -6.681  38.191  1.00  0.00     0.202 C 
HETATM   24  N5  UNL     1      54.953  -8.232  37.479  1.00  0.00    -0.113 N 
ATOM     25  H5  UNL     1      54.189  -7.796  37.996  1.00  0.00     0.207 HD
ENDBRANCH  12  17
ENDBRANCH   8   9
ENDBRANCH   5   8
BRANCH   6  26
HETATM   26  O1  UNL     1      50.110 -13.791  32.621  1.00  0.00    -0.352 OA
HETATM   27  C1  UNL     1      51.381 -14.072  32.190  1.00  0.00     0.210 C 
ENDBRANCH   6  26
BRANCH   7  28
HETATM   28  O12 UNL     1      48.460 -15.876  32.664  1.00  0.00    -0.351 OA
HETATM   29  C29 UNL     1      49.114 -17.056  32.301  1.00  0.00     0.210 C 
ENDBRANCH   7  28
ENDBRANCH   1   2
BRANCH   1  30
HETATM   30  C14 UNL     1      46.127 -16.726  35.895  1.00  0.00     0.196 C 
BRANCH  30  31
HETATM   31  C15 UNL     1      44.945 -17.378  35.207  1.00  0.00     0.161 C 
BRANCH  31  32
HETATM   32  N7  UNL     1      44.605 -16.757  33.968  1.00  0.00    -0.290 N 
HETATM   33  C16 UNL     1      45.041 -17.273  32.798  1.00  0.00     0.155 A 
HETATM   34  C17 UNL     1      44.741 -16.739  31.562  1.00  0.00     0.040 A 
HETATM   35  C18 UNL     1      43.943 -15.608  31.541  1.00  0.00     0.069 A 
HETATM   36  C26 UNL     1      45.057 -17.061  30.148  1.00  0.00     0.188 C 
HETATM   37  C19 UNL     1      43.496 -15.075  32.720  1.00  0.00     0.148 A 
HETATM   38  C21 UNL     1      43.750 -15.238  30.134  1.00  0.00     0.264 C 
HETATM   39  C20 UNL     1      43.822 -15.644  33.935  1.00  0.00     0.283 A 
HETATM   40  O6  UNL     1      43.431 -15.185  35.039  1.00  0.00    -0.265 OA
HETATM   41  O10 UNL     1      44.095 -16.377  29.407  1.00  0.00    -0.329 OA
BRANCH  33  42
HETATM   42  O4  UNL     1      45.848 -18.421  32.864  1.00  0.00    -0.345 OA
ATOM     43  H4  UNL     1      46.735 -18.311  33.185  1.00  0.00     0.219 HD
ENDBRANCH  33  42
BRANCH  37  44
HETATM   44  O5  UNL     1      42.682 -13.923  32.737  1.00  0.00    -0.355 OA
ATOM     45  H5  UNL     1      42.958 -13.120  32.311  1.00  0.00     0.218 HD
ENDBRANCH  37  44
BRANCH  38  46
HETATM   46  O7  UNL     1      44.534 -14.168  29.788  1.00  0.00    -0.351 OA
ATOM     47  H7  UNL     1      44.006 -13.408  29.570  1.00  0.00     0.214 HD
ENDBRANCH  38  46
BRANCH  38  48
HETATM   48  C22 UNL     1      42.320 -14.932  29.872  1.00  0.00    -0.030 C 
HETATM   49  C23 UNL     1      41.168 -14.660  29.653  1.00  0.00    -0.067 C 
BRANCH  49  50
HETATM   50  C24 UNL     1      39.764 -14.321  29.375  1.00  0.00     0.220 C 
BRANCH  50  51
HETATM   51  O8  UNL     1      38.920 -14.704  30.391  1.00  0.00    -0.381 OA
ATOM     52  H8  UNL     1      38.086 -14.250  30.360  1.00  0.00     0.211 HD
ENDBRANCH  50  51
BRANCH  50  53
HETATM   53  C25 UNL     1      39.628 -12.805  29.231  1.00  0.00     0.208 C 
BRANCH  53  54
HETATM   54  O9  UNL     1      39.797 -12.425  27.894  1.00  0.00    -0.397 OA
ATOM     55  H9  UNL     1      38.995 -12.045  27.554  1.00  0.00     0.209 HD
ENDBRANCH  53  54
ENDBRANCH  50  53
ENDBRANCH  49  50
ENDBRANCH  38  48
BRANCH  36  56
HETATM   56  C27 UNL     1      46.451 -16.575  29.777  1.00  0.00     0.201 C 
BRANCH  56  57
HETATM   57  O11 UNL     1      47.202 -17.707  29.422  1.00  0.00    -0.398 OA
ATOM     58  H11 UNL     1      47.530 -17.560  28.543  1.00  0.00     0.209 HD
ENDBRANCH  56  57
ENDBRANCH  36  56
ENDBRANCH  31  32
ENDBRANCH  30  31
ENDBRANCH   1  30
TORSDOF 19
ENDMDL
