MODEL 1
REMARK VINA RESULT: -6.524341815      0.000      0.000
REMARK  7 active torsions:
REMARK  status: ('A' for Active; 'I' for Inactive)
REMARK    1  A    between atoms: C2_2  and  C4_4 
REMARK    2  A    between atoms: C4_4  and  O1_5 
REMARK    3  A    between atoms: C4_4  and  C5_7 
REMARK    4  A    between atoms: C4_4  and  C6_10 
REMARK    5  A    between atoms: C5_7  and  O2_8 
REMARK    6  A    between atoms: C6_10  and  O3_11 
REMARK    7  A    between atoms: O3_11  and  C7_12 
ROOT
HETATM    1  C6  UNL     1      -0.552  -7.325  -8.040  1.00  0.00     0.208 C 
ENDROOT
BRANCH   1   2
HETATM    2  C4  UNL     1      -1.446  -6.094  -8.028  1.00  0.00     0.103 C 
BRANCH   2   3
HETATM    3  C2  UNL     1      -2.880  -6.443  -7.803  1.00  0.00     0.016 C 
HETATM    4  C1  UNL     1      -3.564  -5.619  -6.761  1.00  0.00     0.012 C 
HETATM    5  C3  UNL     1      -3.590  -6.375  -9.141  1.00  0.00     0.012 C 
ENDBRANCH   2   3
BRANCH   2   6
HETATM    6  O1  UNL     1      -1.051  -5.226  -7.011  1.00  0.00    -0.385 OA
ATOM      7  H1  UNL     1      -0.663  -4.459  -7.414  1.00  0.00     0.210 HD
ENDBRANCH   2   6
BRANCH   2   8
HETATM    8  C5  UNL     1      -1.251  -5.334  -9.345  1.00  0.00     0.204 C 
BRANCH   8   9
HETATM    9  O2  UNL     1       0.080  -5.427  -9.749  1.00  0.00    -0.398 OA
ATOM     10  H2  UNL     1       0.210  -4.921 -10.543  1.00  0.00     0.209 HD
ENDBRANCH   8   9
ENDBRANCH   2   8
ENDBRANCH   1   2
BRANCH   1  11
HETATM   11  O3  UNL     1       0.588  -7.020  -7.348  1.00  0.00    -0.383 OA
BRANCH  11  12
HETATM   12  C7  UNL     1       1.321  -8.099  -6.925  1.00  0.00     0.124 C 
HETATM   13  C8  UNL     1       0.313  -9.151  -6.443  1.00  0.00     0.059 C 
HETATM   14  C9  UNL     1       1.028 -10.401  -5.981  1.00  0.00     0.235 C 
HETATM   15  N1  UNL     1       2.160 -10.107  -5.140  1.00  0.00    -0.075 N 
HETATM   16  C10 UNL     1       2.043  -8.763  -4.620  1.00  0.00     0.235 C 
ATOM     17  H12 UNL     1       2.276 -10.797  -4.398  1.00  0.00     0.277 HD
ATOM     18  H11 UNL     1       3.046 -10.257  -5.622  1.00  0.00     0.277 HD
HETATM   19  C11 UNL     1       2.164  -7.722  -5.729  1.00  0.00     0.059 C 
ENDBRANCH  11  12
ENDBRANCH   1  11
TORSDOF 7
ENDMDL
MODEL 2
REMARK VINA RESULT: -6.208448357      0.671      1.412
REMARK  7 active torsions:
REMARK  status: ('A' for Active; 'I' for Inactive)
REMARK    1  A    between atoms: C2_2  and  C4_4 
REMARK    2  A    between atoms: C4_4  and  O1_5 
REMARK    3  A    between atoms: C4_4  and  C5_7 
REMARK    4  A    between atoms: C4_4  and  C6_10 
REMARK    5  A    between atoms: C5_7  and  O2_8 
REMARK    6  A    between atoms: C6_10  and  O3_11 
REMARK    7  A    between atoms: O3_11  and  C7_12 
ROOT
HETATM    1  C6  UNL     1      -0.075  -7.073  -7.938  1.00  0.00     0.208 C 
ENDROOT
BRANCH   1   2
HETATM    2  C4  UNL     1      -1.225  -6.079  -7.982  1.00  0.00     0.103 C 
BRANCH   2   3
HETATM    3  C2  UNL     1      -2.549  -6.742  -7.796  1.00  0.00     0.016 C 
HETATM    4  C1  UNL     1      -3.436  -6.088  -6.785  1.00  0.00     0.012 C 
HETATM    5  C3  UNL     1      -3.213  -6.845  -9.155  1.00  0.00     0.012 C 
ENDBRANCH   2   3
BRANCH   2   6
HETATM    6  O1  UNL     1      -1.075  -5.129  -6.972  1.00  0.00    -0.385 OA
ATOM      7  H1  UNL     1      -0.618  -5.540  -6.248  1.00  0.00     0.210 HD
ENDBRANCH   2   6
BRANCH   2   8
HETATM    8  C5  UNL     1      -1.161  -5.312  -9.308  1.00  0.00     0.204 C 
BRANCH   8   9
HETATM    9  O2  UNL     1       0.113  -5.435  -9.861  1.00  0.00    -0.398 OA
ATOM     10  H2  UNL     1       0.579  -4.610  -9.779  1.00  0.00     0.209 HD
ENDBRANCH   8   9
ENDBRANCH   2   8
ENDBRANCH   1   2
BRANCH   1  11
HETATM   11  O3  UNL     1      -0.532  -8.215  -7.341  1.00  0.00    -0.383 OA
BRANCH  11  12
HETATM   12  C7  UNL     1       0.152  -8.600  -6.216  1.00  0.00     0.124 C 
HETATM   13  C8  UNL     1       1.590  -8.089  -6.382  1.00  0.00     0.059 C 
HETATM   14  C9  UNL     1       2.422  -8.440  -5.169  1.00  0.00     0.235 C 
HETATM   15  N1  UNL     1       2.229  -9.803  -4.747  1.00  0.00    -0.075 N 
HETATM   16  C10 UNL     1       1.650 -10.569  -5.826  1.00  0.00     0.235 C 
ATOM     17  H12 UNL     1       3.091 -10.223  -4.397  1.00  0.00     0.277 HD
ATOM     18  H11 UNL     1       1.677  -9.866  -3.891  1.00  0.00     0.277 HD
HETATM   19  C11 UNL     1       0.230 -10.107  -6.142  1.00  0.00     0.059 C 
ENDBRANCH  11  12
ENDBRANCH   1  11
TORSDOF 7
ENDMDL
MODEL 3
REMARK VINA RESULT: -6.150085369      3.792      5.718
REMARK  7 active torsions:
REMARK  status: ('A' for Active; 'I' for Inactive)
REMARK    1  A    between atoms: C2_2  and  C4_4 
REMARK    2  A    between atoms: C4_4  and  O1_5 
REMARK    3  A    between atoms: C4_4  and  C5_7 
REMARK    4  A    between atoms: C4_4  and  C6_10 
REMARK    5  A    between atoms: C5_7  and  O2_8 
REMARK    6  A    between atoms: C6_10  and  O3_11 
REMARK    7  A    between atoms: O3_11  and  C7_12 
ROOT
HETATM    1  C6  UNL     1      -4.721  -7.530  -8.035  1.00  0.00     0.208 C 
ENDROOT
BRANCH   1   2
HETATM    2  C4  UNL     1      -6.218  -7.690  -7.821  1.00  0.00     0.103 C 
BRANCH   2   3
HETATM    3  C2  UNL     1      -6.989  -7.517  -9.087  1.00  0.00     0.016 C 
HETATM    4  C1  UNL     1      -7.149  -8.766  -9.894  1.00  0.00     0.012 C 
HETATM    5  C3  UNL     1      -8.324  -6.890  -8.738  1.00  0.00     0.012 C 
ENDBRANCH   2   3
BRANCH   2   6
HETATM    6  O1  UNL     1      -6.496  -8.962  -7.319  1.00  0.00    -0.385 OA
ATOM      7  H1  UNL     1      -6.328  -8.951  -6.385  1.00  0.00     0.210 HD
ENDBRANCH   2   6
BRANCH   2   8
HETATM    8  C5  UNL     1      -6.670  -6.694  -6.746  1.00  0.00     0.204 C 
BRANCH   8   9
HETATM    9  O2  UNL     1      -5.594  -6.377  -5.918  1.00  0.00    -0.398 OA
ATOM     10  H2  UNL     1      -5.804  -5.609  -5.400  1.00  0.00     0.209 HD
ENDBRANCH   8   9
ENDBRANCH   2   8
ENDBRANCH   1   2
BRANCH   1  11
HETATM   11  O3  UNL     1      -4.530  -6.457  -8.862  1.00  0.00    -0.383 OA
BRANCH  11  12
HETATM   12  C7  UNL     1      -3.223  -6.201  -9.194  1.00  0.00     0.124 C 
HETATM   13  C8  UNL     1      -2.370  -6.681  -8.012  1.00  0.00     0.059 C 
HETATM   14  C9  UNL     1      -0.900  -6.468  -8.297  1.00  0.00     0.235 C 
HETATM   15  N1  UNL     1      -0.631  -5.164  -8.845  1.00  0.00    -0.075 N 
HETATM   16  C10 UNL     1      -1.741  -4.282  -8.567  1.00  0.00     0.235 C 
ATOM     17  H12 UNL     1       0.255  -4.783  -8.512  1.00  0.00     0.277 HD
ATOM     18  H11 UNL     1      -0.410  -5.203  -9.840  1.00  0.00     0.277 HD
HETATM   19  C11 UNL     1      -2.998  -4.712  -9.317  1.00  0.00     0.059 C 
ENDBRANCH  11  12
ENDBRANCH   1  11
TORSDOF 7
ENDMDL
MODEL 4
REMARK VINA RESULT: -6.035877592      5.240      7.091
REMARK  7 active torsions:
REMARK  status: ('A' for Active; 'I' for Inactive)
REMARK    1  A    between atoms: C2_2  and  C4_4 
REMARK    2  A    between atoms: C4_4  and  O1_5 
REMARK    3  A    between atoms: C4_4  and  C5_7 
REMARK    4  A    between atoms: C4_4  and  C6_10 
REMARK    5  A    between atoms: C5_7  and  O2_8 
REMARK    6  A    between atoms: C6_10  and  O3_11 
REMARK    7  A    between atoms: O3_11  and  C7_12 
ROOT
HETATM    1  C6  UNL     1      -5.691  -7.213  -7.123  1.00  0.00     0.208 C 
ENDROOT
BRANCH   1   2
HETATM    2  C4  UNL     1      -4.961  -6.033  -7.747  1.00  0.00     0.103 C 
BRANCH   2   3
HETATM    3  C2  UNL     1      -4.281  -6.404  -9.022  1.00  0.00     0.016 C 
HETATM    4  C1  UNL     1      -3.275  -5.407  -9.502  1.00  0.00     0.012 C 
HETATM    5  C3  UNL     1      -3.677  -7.783  -8.843  1.00  0.00     0.012 C 
ENDBRANCH   2   3
BRANCH   2   6
HETATM    6  O1  UNL     1      -5.863  -5.005  -8.023  1.00  0.00    -0.385 OA
ATOM      7  H1  UNL     1      -6.064  -4.564  -7.207  1.00  0.00     0.210 HD
ENDBRANCH   2   6
BRANCH   2   8
HETATM    8  C5  UNL     1      -3.969  -5.472  -6.721  1.00  0.00     0.204 C 
BRANCH   8   9
HETATM    9  O2  UNL     1      -4.318  -4.161  -6.398  1.00  0.00    -0.398 OA
ATOM     10  H2  UNL     1      -5.223  -4.132  -6.111  1.00  0.00     0.209 HD
ENDBRANCH   8   9
ENDBRANCH   2   8
ENDBRANCH   1   2
BRANCH   1  11
HETATM   11  O3  UNL     1      -7.034  -7.001  -7.274  1.00  0.00    -0.383 OA
BRANCH  11  12
HETATM   12  C7  UNL     1      -7.710  -7.994  -7.936  1.00  0.00     0.124 C 
HETATM   13  C8  UNL     1      -6.902  -9.283  -7.735  1.00  0.00     0.059 C 
HETATM   14  C9  UNL     1      -7.588 -10.451  -8.408  1.00  0.00     0.235 C 
HETATM   15  N1  UNL     1      -8.038 -10.131  -9.738  1.00  0.00    -0.075 N 
HETATM   16  C10 UNL     1      -7.342  -8.960 -10.218  1.00  0.00     0.235 C 
ATOM     17  H12 UNL     1      -7.945 -10.922 -10.376  1.00  0.00     0.277 HD
ATOM     18  H11 UNL     1      -9.051 -10.023  -9.785  1.00  0.00     0.277 HD
HETATM   19  C11 UNL     1      -7.725  -7.716  -9.422  1.00  0.00     0.059 C 
ENDBRANCH  11  12
ENDBRANCH   1  11
TORSDOF 7
ENDMDL
MODEL 5
REMARK VINA RESULT: -5.978707865      5.096      7.149
REMARK  7 active torsions:
REMARK  status: ('A' for Active; 'I' for Inactive)
REMARK    1  A    between atoms: C2_2  and  C4_4 
REMARK    2  A    between atoms: C4_4  and  O1_5 
REMARK    3  A    between atoms: C4_4  and  C5_7 
REMARK    4  A    between atoms: C4_4  and  C6_10 
REMARK    5  A    between atoms: C5_7  and  O2_8 
REMARK    6  A    between atoms: C6_10  and  O3_11 
REMARK    7  A    between atoms: O3_11  and  C7_12 
ROOT
HETATM    1  C6  UNL     1      -5.580  -5.306  -8.184  1.00  0.00     0.208 C 
ENDROOT
BRANCH   1   2
HETATM    2  C4  UNL     1      -4.256  -4.765  -7.667  1.00  0.00     0.103 C 
BRANCH   2   3
HETATM    3  C2  UNL     1      -3.551  -3.934  -8.686  1.00  0.00     0.016 C 
HETATM    4  C1  UNL     1      -3.876  -2.475  -8.632  1.00  0.00     0.012 C 
HETATM    5  C3  UNL     1      -2.064  -4.193  -8.551  1.00  0.00     0.012 C 
ENDBRANCH   2   3
BRANCH   2   6
HETATM    6  O1  UNL     1      -4.471  -3.971  -6.540  1.00  0.00    -0.385 OA
ATOM      7  H1  UNL     1      -5.303  -4.225  -6.157  1.00  0.00     0.210 HD
ENDBRANCH   2   6
BRANCH   2   8
HETATM    8  C5  UNL     1      -3.391  -5.944  -7.205  1.00  0.00     0.204 C 
BRANCH   8   9
HETATM    9  O2  UNL     1      -3.559  -6.143  -5.836  1.00  0.00    -0.398 OA
ATOM     10  H2  UNL     1      -3.527  -5.308  -5.384  1.00  0.00     0.209 HD
ENDBRANCH   8   9
ENDBRANCH   2   8
ENDBRANCH   1   2
BRANCH   1  11
HETATM   11  O3  UNL     1      -6.151  -6.042  -7.182  1.00  0.00    -0.383 OA
BRANCH  11  12
HETATM   12  C7  UNL     1      -6.962  -7.066  -7.600  1.00  0.00     0.124 C 
HETATM   13  C8  UNL     1      -6.361  -7.595  -8.909  1.00  0.00     0.059 C 
HETATM   14  C9  UNL     1      -7.174  -8.756  -9.436  1.00  0.00     0.235 C 
HETATM   15  N1  UNL     1      -8.591  -8.499  -9.393  1.00  0.00    -0.075 N 
HETATM   16  C10 UNL     1      -8.823  -7.077  -9.276  1.00  0.00     0.235 C 
ATOM     17  H12 UNL     1      -9.079  -8.904 -10.192  1.00  0.00     0.277 HD
ATOM     18  H11 UNL     1      -9.054  -9.026  -8.653  1.00  0.00     0.277 HD
HETATM   19  C11 UNL     1      -8.339  -6.540  -7.933  1.00  0.00     0.059 C 
ENDBRANCH  11  12
ENDBRANCH   1  11
TORSDOF 7
ENDMDL
