MODEL 1
REMARK VINA RESULT: -7.095450856      0.000      0.000
REMARK  6 active torsions:
REMARK  status: ('A' for Active; 'I' for Inactive)
REMARK    1  A    between atoms: N1_2  and  S1_4 
REMARK    2  A    between atoms: S1_4  and  N2_5 
REMARK    3  A    between atoms: S1_4  and  N3_9 
REMARK    4  A    between atoms: N3_9  and  N4_11 
REMARK    5  A    between atoms: N4_11  and  C2_12 
REMARK    6  A    between atoms: C2_12  and  C3_13 
ROOT
HETATM    1  N3  UNL     1       0.094  -5.564  -8.923  1.00  0.00    -0.232 N 
ATOM      2  H3  UNL     1       0.538  -5.511  -9.840  1.00  0.00     0.195 HD
ENDROOT
BRANCH   1   3
HETATM    3  S1  UNL     1      -1.432  -4.881  -8.571  1.00  0.00     0.203 S 
HETATM    4  O1  UNL     1      -2.464  -5.149  -9.606  1.00  0.00    -0.205 OA
BRANCH   3   5
HETATM    5  N1  UNL     1      -1.996  -5.383  -6.996  1.00  0.00    -0.323 N 
HETATM    6  C1  UNL     1      -3.230  -6.118  -7.229  1.00  0.00     0.159 C 
ATOM      7  H1  UNL     1      -1.552  -5.199  -6.096  1.00  0.00     0.171 HD
ENDBRANCH   3   5
BRANCH   3   8
HETATM    8  N2  UNL     1      -1.252  -3.325  -8.482  1.00  0.00    -0.328 N 
ATOM      9  H22 UNL     1      -1.886  -2.668  -8.029  1.00  0.00     0.169 HD
ATOM     10  H21 UNL     1      -0.378  -3.120  -8.968  1.00  0.00     0.169 HD
ENDBRANCH   3   8
ENDBRANCH   1   3
BRANCH   1  11
HETATM   11  N4  UNL     1       0.671  -6.204  -7.816  1.00  0.00    -0.131 NA
BRANCH  11  12
HETATM   12  C2  UNL     1       0.481  -7.614  -7.952  1.00  0.00     0.140 C 
BRANCH  12  13
HETATM   13  C3  UNL     1       1.296  -8.387  -6.946  1.00  0.00     0.002 C 
HETATM   14  C4  UNL     1       1.892  -7.453  -5.894  1.00  0.00     0.006 C 
HETATM   15  C5  UNL     1       2.894  -8.312  -5.127  1.00  0.00     0.000 C 
HETATM   16  C6  UNL     1       2.124  -9.315  -4.347  1.00  0.00     0.000 C 
HETATM   17  C7  UNL     1       0.752  -9.616  -4.822  1.00  0.00     0.000 C 
HETATM   18  C8  UNL     1       0.544  -9.521  -6.304  1.00  0.00     0.006 C 
ENDBRANCH  12  13
ENDBRANCH  11  12
ENDBRANCH   1  11
TORSDOF 6
ENDMDL
MODEL 2
REMARK VINA RESULT: -6.858521796      0.422      1.395
REMARK  6 active torsions:
REMARK  status: ('A' for Active; 'I' for Inactive)
REMARK    1  A    between atoms: N1_2  and  S1_4 
REMARK    2  A    between atoms: S1_4  and  N2_5 
REMARK    3  A    between atoms: S1_4  and  N3_9 
REMARK    4  A    between atoms: N3_9  and  N4_11 
REMARK    5  A    between atoms: N4_11  and  C2_12 
REMARK    6  A    between atoms: C2_12  and  C3_13 
ROOT
HETATM    1  N3  UNL     1       0.100  -5.645  -8.927  1.00  0.00    -0.232 N 
ATOM      2  H3  UNL     1       0.506  -5.697  -9.861  1.00  0.00     0.195 HD
ENDROOT
BRANCH   1   3
HETATM    3  S1  UNL     1      -1.415  -4.931  -8.592  1.00  0.00     0.203 S 
HETATM    4  O1  UNL     1      -2.425  -5.133  -9.663  1.00  0.00    -0.205 OA
BRANCH   3   5
HETATM    5  N1  UNL     1      -2.037  -5.470  -7.051  1.00  0.00    -0.323 N 
HETATM    6  C1  UNL     1      -3.045  -6.474  -7.356  1.00  0.00     0.159 C 
ATOM      7  H1  UNL     1      -1.752  -5.147  -6.126  1.00  0.00     0.171 HD
ENDBRANCH   3   5
BRANCH   3   8
HETATM    8  N2  UNL     1      -1.194  -3.385  -8.445  1.00  0.00    -0.328 N 
ATOM      9  H22 UNL     1      -1.894  -2.698  -8.164  1.00  0.00     0.169 HD
ATOM     10  H21 UNL     1      -0.216  -3.222  -8.686  1.00  0.00     0.169 HD
ENDBRANCH   3   8
ENDBRANCH   1   3
BRANCH   1  11
HETATM   11  N4  UNL     1       0.727  -6.153  -7.778  1.00  0.00    -0.131 NA
BRANCH  11  12
HETATM   12  C2  UNL     1       0.707  -7.580  -7.839  1.00  0.00     0.140 C 
BRANCH  12  13
HETATM   13  C3  UNL     1       0.764  -8.199  -6.465  1.00  0.00     0.002 C 
HETATM   14  C4  UNL     1       0.712  -9.724  -6.551  1.00  0.00     0.006 C 
HETATM   15  C5  UNL     1       0.498 -10.193  -5.115  1.00  0.00     0.000 C 
HETATM   16  C6  UNL     1       1.741  -9.900  -4.355  1.00  0.00     0.000 C 
HETATM   17  C7  UNL     1       2.628  -8.850  -4.911  1.00  0.00     0.000 C 
HETATM   18  C8  UNL     1       1.937  -7.739  -5.644  1.00  0.00     0.006 C 
ENDBRANCH  12  13
ENDBRANCH  11  12
ENDBRANCH   1  11
TORSDOF 6
ENDMDL
MODEL 3
REMARK VINA RESULT: -6.710993960      5.306      8.851
REMARK  6 active torsions:
REMARK  status: ('A' for Active; 'I' for Inactive)
REMARK    1  A    between atoms: N1_2  and  S1_4 
REMARK    2  A    between atoms: S1_4  and  N2_5 
REMARK    3  A    between atoms: S1_4  and  N3_9 
REMARK    4  A    between atoms: N3_9  and  N4_11 
REMARK    5  A    between atoms: N4_11  and  C2_12 
REMARK    6  A    between atoms: C2_12  and  C3_13 
ROOT
HETATM    1  N3  UNL     1      -4.170  -4.025  -6.992  1.00  0.00    -0.232 N 
ATOM      2  H3  UNL     1      -3.386  -3.545  -6.549  1.00  0.00     0.195 HD
ENDROOT
BRANCH   1   3
HETATM    3  S1  UNL     1      -4.420  -5.712  -6.899  1.00  0.00     0.203 S 
HETATM    4  O1  UNL     1      -5.359  -6.123  -5.824  1.00  0.00    -0.205 OA
BRANCH   3   5
HETATM    5  N1  UNL     1      -4.929  -6.359  -8.440  1.00  0.00    -0.323 N 
HETATM    6  C1  UNL     1      -3.710  -6.569  -9.207  1.00  0.00     0.159 C 
ATOM      7  H1  UNL     1      -5.884  -6.550  -8.741  1.00  0.00     0.171 HD
ENDBRANCH   3   5
BRANCH   3   8
HETATM    8  N2  UNL     1      -3.036  -6.386  -6.592  1.00  0.00    -0.328 N 
ATOM      9  H22 UNL     1      -2.782  -7.357  -6.772  1.00  0.00     0.169 HD
ATOM     10  H21 UNL     1      -2.457  -5.652  -6.182  1.00  0.00     0.169 HD
ENDBRANCH   3   8
ENDBRANCH   1   3
BRANCH   1  11
HETATM   11  N4  UNL     1      -5.158  -3.371  -7.744  1.00  0.00    -0.131 NA
BRANCH  11  12
HETATM   12  C2  UNL     1      -4.884  -1.968  -7.737  1.00  0.00     0.140 C 
BRANCH  12  13
HETATM   13  C3  UNL     1      -5.832  -1.209  -8.631  1.00  0.00     0.002 C 
HETATM   14  C4  UNL     1      -5.592  -1.557 -10.100  1.00  0.00     0.006 C 
HETATM   15  C5  UNL     1      -6.406  -0.533 -10.885  1.00  0.00     0.000 C 
HETATM   16  C6  UNL     1      -7.844  -0.830 -10.658  1.00  0.00     0.000 C 
HETATM   17  C7  UNL     1      -8.178  -1.606  -9.439  1.00  0.00     0.000 C 
HETATM   18  C8  UNL     1      -7.279  -1.381  -8.260  1.00  0.00     0.006 C 
ENDBRANCH  12  13
ENDBRANCH  11  12
ENDBRANCH   1  11
TORSDOF 6
ENDMDL
MODEL 4
REMARK VINA RESULT: -6.701931531      1.536      2.047
REMARK  6 active torsions:
REMARK  status: ('A' for Active; 'I' for Inactive)
REMARK    1  A    between atoms: N1_2  and  S1_4 
REMARK    2  A    between atoms: S1_4  and  N2_5 
REMARK    3  A    between atoms: S1_4  and  N3_9 
REMARK    4  A    between atoms: N3_9  and  N4_11 
REMARK    5  A    between atoms: N4_11  and  C2_12 
REMARK    6  A    between atoms: C2_12  and  C3_13 
ROOT
HETATM    1  N3  UNL     1       0.102  -6.231  -7.534  1.00  0.00    -0.232 N 
ATOM      2  H3  UNL     1      -0.161  -6.023  -6.570  1.00  0.00     0.195 HD
ENDROOT
BRANCH   1   3
HETATM    3  S1  UNL     1      -0.701  -5.581  -8.894  1.00  0.00     0.203 S 
HETATM    4  O1  UNL     1       0.082  -5.670 -10.154  1.00  0.00    -0.205 OA
BRANCH   3   5
HETATM    5  N1  UNL     1      -2.279  -6.302  -9.097  1.00  0.00    -0.323 N 
HETATM    6  C1  UNL     1      -3.171  -5.214  -9.464  1.00  0.00     0.159 C 
ATOM      7  H1  UNL     1      -2.524  -7.286  -8.983  1.00  0.00     0.171 HD
ENDBRANCH   3   5
BRANCH   3   8
HETATM    8  N2  UNL     1      -0.962  -4.059  -8.613  1.00  0.00    -0.328 N 
ATOM      9  H22 UNL     1      -0.851  -3.581  -7.719  1.00  0.00     0.169 HD
ATOM     10  H21 UNL     1      -1.262  -3.662  -9.504  1.00  0.00     0.169 HD
ENDBRANCH   3   8
ENDBRANCH   1   3
BRANCH   1  11
HETATM   11  N4  UNL     1       1.160  -7.084  -7.884  1.00  0.00    -0.131 NA
BRANCH  11  12
HETATM   12  C2  UNL     1       2.052  -7.186  -6.772  1.00  0.00     0.140 C 
BRANCH  12  13
HETATM   13  C3  UNL     1       1.650  -8.296  -5.833  1.00  0.00     0.002 C 
HETATM   14  C4  UNL     1       1.623  -9.641  -6.559  1.00  0.00     0.006 C 
HETATM   15  C5  UNL     1       0.945 -10.601  -5.585  1.00  0.00     0.000 C 
HETATM   16  C6  UNL     1       1.869 -10.809  -4.440  1.00  0.00     0.000 C 
HETATM   17  C7  UNL     1       2.894  -9.761  -4.214  1.00  0.00     0.000 C 
HETATM   18  C8  UNL     1       2.489  -8.366  -4.587  1.00  0.00     0.006 C 
ENDBRANCH  12  13
ENDBRANCH  11  12
ENDBRANCH   1  11
TORSDOF 6
ENDMDL
MODEL 5
REMARK VINA RESULT: -6.621585602      1.096      1.319
REMARK  6 active torsions:
REMARK  status: ('A' for Active; 'I' for Inactive)
REMARK    1  A    between atoms: N1_2  and  S1_4 
REMARK    2  A    between atoms: S1_4  and  N2_5 
REMARK    3  A    between atoms: S1_4  and  N3_9 
REMARK    4  A    between atoms: N3_9  and  N4_11 
REMARK    5  A    between atoms: N4_11  and  C2_12 
REMARK    6  A    between atoms: C2_12  and  C3_13 
ROOT
HETATM    1  N3  UNL     1       0.445  -5.934  -8.591  1.00  0.00    -0.232 N 
ATOM      2  H3  UNL     1       1.031  -5.174  -8.937  1.00  0.00     0.195 HD
ENDROOT
BRANCH   1   3
HETATM    3  S1  UNL     1      -1.249  -5.814  -8.406  1.00  0.00     0.203 S 
HETATM    4  O1  UNL     1      -1.944  -5.245  -9.590  1.00  0.00    -0.205 OA
BRANCH   3   5
HETATM    5  N1  UNL     1      -1.944  -7.355  -7.966  1.00  0.00    -0.323 N 
HETATM    6  C1  UNL     1      -3.247  -7.404  -8.610  1.00  0.00     0.159 C 
ATOM      7  H1  UNL     1      -1.522  -8.074  -7.378  1.00  0.00     0.171 HD
ENDBRANCH   3   5
BRANCH   3   8
HETATM    8  N2  UNL     1      -1.532  -4.858  -7.194  1.00  0.00    -0.328 N 
ATOM      9  H22 UNL     1      -1.317  -5.043  -6.215  1.00  0.00     0.169 HD
ATOM     10  H21 UNL     1      -1.969  -4.027  -7.595  1.00  0.00     0.169 HD
ENDBRANCH   3   8
ENDBRANCH   1   3
BRANCH   1  11
HETATM   11  N4  UNL     1       0.945  -7.190  -8.214  1.00  0.00    -0.131 NA
BRANCH  11  12
HETATM   12  C2  UNL     1       1.757  -7.030  -7.049  1.00  0.00     0.140 C 
BRANCH  12  13
HETATM   13  C3  UNL     1       1.978  -8.341  -6.337  1.00  0.00     0.002 C 
HETATM   14  C4  UNL     1       2.345  -8.109  -4.871  1.00  0.00     0.006 C 
HETATM   15  C5  UNL     1       2.803  -9.472  -4.360  1.00  0.00     0.000 C 
HETATM   16  C6  UNL     1       1.614 -10.361  -4.315  1.00  0.00     0.000 C 
HETATM   17  C7  UNL     1       0.469  -9.984  -5.181  1.00  0.00     0.000 C 
HETATM   18  C8  UNL     1       0.826  -9.299  -6.466  1.00  0.00     0.006 C 
ENDBRANCH  12  13
ENDBRANCH  11  12
ENDBRANCH   1  11
TORSDOF 6
ENDMDL
