MODEL 1
REMARK VINA RESULT: -6.811045530      0.000      0.000
REMARK  6 active torsions:
REMARK  status: ('A' for Active; 'I' for Inactive)
REMARK    1  A    between atoms: O1_1  and  C1_3 
REMARK    2  A    between atoms: C1_3  and  O2_4 
REMARK    3  A    between atoms: O2_4  and  C2_5 
REMARK    4  A    between atoms: C2_5  and  C3_6 
REMARK    5  A    between atoms: C8_11  and  N1_12 
REMARK    6  A    between atoms: N1_12  and  C9_14 
ROOT
HETATM    1  C3  UNL     1      -4.256  -1.819  -9.334  1.00  0.00     0.032 C 
HETATM    2  C4  UNL     1      -5.004  -1.153 -10.425  1.00  0.00     0.009 C 
HETATM    3  C5  UNL     1      -6.477  -1.026 -10.297  1.00  0.00     0.001 C 
HETATM    4  C6  UNL     1      -7.085  -1.113  -8.948  1.00  0.00     0.002 C 
HETATM    5  C7  UNL     1      -6.088  -1.406  -7.839  1.00  0.00     0.025 C 
HETATM    6  C8  UNL     1      -5.237  -2.497  -8.344  1.00  0.00     0.083 C 
ENDROOT
BRANCH   6   7
HETATM    7  N1  UNL     1      -4.581  -3.386  -7.504  1.00  0.00    -0.411 N 
ATOM      8  H1  UNL     1      -4.407  -3.154  -6.526  1.00  0.00     0.154 HD
BRANCH   7   9
HETATM    9  C9  UNL     1      -4.161  -4.623  -8.047  1.00  0.00     0.104 C 
HETATM   10  C10 UNL     1      -5.138  -5.733  -8.166  1.00  0.00     0.054 C 
HETATM   11  C11 UNL     1      -4.963  -6.423  -6.791  1.00  0.00     0.234 C 
HETATM   12  N2  UNL     1      -3.644  -6.135  -6.331  1.00  0.00    -0.073 N 
HETATM   13  C12 UNL     1      -3.006  -5.279  -7.296  1.00  0.00     0.256 C 
ATOM     14  H22 UNL     1      -3.633  -5.742  -5.390  1.00  0.00     0.277 HD
ATOM     15  H21 UNL     1      -3.103  -6.977  -6.135  1.00  0.00     0.277 HD
ENDBRANCH   7   9
ENDBRANCH   6   7
BRANCH   1  16
HETATM   16  C2  UNL     1      -3.334  -0.868  -8.620  1.00  0.00     0.177 C 
BRANCH  16  17
HETATM   17  O2  UNL     1      -2.116  -1.408  -8.260  1.00  0.00    -0.367 OA
BRANCH  17  18
HETATM   18  C1  UNL     1      -1.151  -0.422  -8.302  1.00  0.00     0.334 C 
BRANCH  18  19
HETATM   19  O1  UNL     1       0.098  -0.917  -7.881  1.00  0.00    -0.377 OA
ATOM     20  H1  UNL     1       0.654  -0.216  -7.562  1.00  0.00     0.212 HD
ENDBRANCH  18  19
ENDBRANCH  17  18
ENDBRANCH  16  17
ENDBRANCH   1  16
TORSDOF 6
ENDMDL
MODEL 2
REMARK VINA RESULT: -6.298239262      4.658      6.220
REMARK  6 active torsions:
REMARK  status: ('A' for Active; 'I' for Inactive)
REMARK    1  A    between atoms: O1_1  and  C1_3 
REMARK    2  A    between atoms: C1_3  and  O2_4 
REMARK    3  A    between atoms: O2_4  and  C2_5 
REMARK    4  A    between atoms: C2_5  and  C3_6 
REMARK    5  A    between atoms: C8_11  and  N1_12 
REMARK    6  A    between atoms: N1_12  and  C9_14 
ROOT
HETATM    1  C3  UNL     1      -7.869  -6.603  -8.460  1.00  0.00     0.032 C 
HETATM    2  C4  UNL     1      -8.356  -7.434  -9.585  1.00  0.00     0.009 C 
HETATM    3  C5  UNL     1      -7.608  -8.669  -9.928  1.00  0.00     0.001 C 
HETATM    4  C6  UNL     1      -6.734  -9.282  -8.898  1.00  0.00     0.002 C 
HETATM    5  C7  UNL     1      -6.660  -8.492  -7.602  1.00  0.00     0.025 C 
HETATM    6  C8  UNL     1      -6.470  -7.087  -8.000  1.00  0.00     0.083 C 
ENDROOT
BRANCH   6   7
HETATM    7  N1  UNL     1      -5.851  -6.152  -7.180  1.00  0.00    -0.411 N 
ATOM      8  H1  UNL     1      -6.191  -5.977  -6.234  1.00  0.00     0.154 HD
BRANCH   7   9
HETATM    9  C9  UNL     1      -4.737  -5.452  -7.698  1.00  0.00     0.104 C 
HETATM   10  C10 UNL     1      -4.050  -5.971  -8.905  1.00  0.00     0.054 C 
HETATM   11  C11 UNL     1      -3.000  -6.909  -8.261  1.00  0.00     0.234 C 
HETATM   12  N2  UNL     1      -2.740  -6.424  -6.945  1.00  0.00    -0.073 N 
HETATM   13  C12 UNL     1      -3.586  -5.284  -6.710  1.00  0.00     0.256 C 
ATOM     14  H22 UNL     1      -2.846  -7.145  -6.232  1.00  0.00     0.277 HD
ATOM     15  H21 UNL     1      -1.753  -6.219  -6.789  1.00  0.00     0.277 HD
ENDBRANCH   7   9
ENDBRANCH   6   7
BRANCH   1  16
HETATM   16  C2  UNL     1      -8.841  -6.584  -7.311  1.00  0.00     0.177 C 
BRANCH  16  17
HETATM   17  O2  UNL     1      -8.813  -5.430  -6.554  1.00  0.00    -0.367 OA
BRANCH  17  18
HETATM   18  C1  UNL     1      -9.040  -4.343  -7.374  1.00  0.00     0.334 C 
BRANCH  18  19
HETATM   19  O1  UNL     1      -9.703  -3.313  -6.679  1.00  0.00    -0.377 OA
ATOM     20  H1  UNL     1      -9.166  -2.531  -6.632  1.00  0.00     0.212 HD
ENDBRANCH  18  19
ENDBRANCH  17  18
ENDBRANCH  16  17
ENDBRANCH   1  16
TORSDOF 6
ENDMDL
MODEL 3
REMARK VINA RESULT: -6.281811997      3.327      6.158
REMARK  6 active torsions:
REMARK  status: ('A' for Active; 'I' for Inactive)
REMARK    1  A    between atoms: O1_1  and  C1_3 
REMARK    2  A    between atoms: C1_3  and  O2_4 
REMARK    3  A    between atoms: O2_4  and  C2_5 
REMARK    4  A    between atoms: C2_5  and  C3_6 
REMARK    5  A    between atoms: C8_11  and  N1_12 
REMARK    6  A    between atoms: N1_12  and  C9_14 
ROOT
HETATM    1  C3  UNL     1      -5.475  -6.779  -8.212  1.00  0.00     0.032 C 
HETATM    2  C4  UNL     1      -4.681  -7.868  -8.826  1.00  0.00     0.009 C 
HETATM    3  C5  UNL     1      -3.202  -7.744  -8.840  1.00  0.00     0.001 C 
HETATM    4  C6  UNL     1      -2.554  -6.835  -7.864  1.00  0.00     0.002 C 
HETATM    5  C7  UNL     1      -3.533  -6.064  -6.995  1.00  0.00     0.025 C 
HETATM    6  C8  UNL     1      -4.569  -5.557  -7.911  1.00  0.00     0.083 C 
ENDROOT
BRANCH   6   7
HETATM    7  N1  UNL     1      -5.320  -4.421  -7.639  1.00  0.00    -0.411 N 
ATOM      8  H1  UNL     1      -5.886  -4.354  -6.793  1.00  0.00     0.154 HD
BRANCH   7   9
HETATM    9  C9  UNL     1      -5.275  -3.359  -8.573  1.00  0.00     0.104 C 
HETATM   10  C10 UNL     1      -4.057  -3.171  -9.400  1.00  0.00     0.054 C 
HETATM   11  C11 UNL     1      -3.228  -2.234  -8.487  1.00  0.00     0.234 C 
HETATM   12  N2  UNL     1      -4.145  -1.518  -7.661  1.00  0.00    -0.073 N 
HETATM   13  C12 UNL     1      -5.475  -1.976  -7.961  1.00  0.00     0.256 C 
ATOM     14  H22 UNL     1      -3.919  -1.590  -6.670  1.00  0.00     0.277 HD
ATOM     15  H21 UNL     1      -4.047  -0.507  -7.752  1.00  0.00     0.277 HD
ENDBRANCH   7   9
ENDBRANCH   6   7
BRANCH   1  16
HETATM   16  C2  UNL     1      -6.199  -7.237  -6.976  1.00  0.00     0.177 C 
BRANCH  16  17
HETATM   17  O2  UNL     1      -7.026  -6.288  -6.409  1.00  0.00    -0.367 OA
BRANCH  17  18
HETATM   18  C1  UNL     1      -8.292  -6.408  -6.947  1.00  0.00     0.334 C 
BRANCH  18  19
HETATM   19  O1  UNL     1      -9.203  -5.557  -6.293  1.00  0.00    -0.377 OA
ATOM     20  H1  UNL     1      -9.025  -4.646  -6.495  1.00  0.00     0.212 HD
ENDBRANCH  18  19
ENDBRANCH  17  18
ENDBRANCH  16  17
ENDBRANCH   1  16
TORSDOF 6
ENDMDL
MODEL 4
REMARK VINA RESULT: -6.271193742      3.319      6.191
REMARK  6 active torsions:
REMARK  status: ('A' for Active; 'I' for Inactive)
REMARK    1  A    between atoms: O1_1  and  C1_3 
REMARK    2  A    between atoms: C1_3  and  O2_4 
REMARK    3  A    between atoms: O2_4  and  C2_5 
REMARK    4  A    between atoms: C2_5  and  C3_6 
REMARK    5  A    between atoms: C8_11  and  N1_12 
REMARK    6  A    between atoms: N1_12  and  C9_14 
ROOT
HETATM    1  C3  UNL     1      -5.544  -6.795  -8.265  1.00  0.00     0.032 C 
HETATM    2  C4  UNL     1      -4.757  -7.906  -8.849  1.00  0.00     0.009 C 
HETATM    3  C5  UNL     1      -3.277  -7.799  -8.852  1.00  0.00     0.001 C 
HETATM    4  C6  UNL     1      -2.627  -6.876  -7.891  1.00  0.00     0.002 C 
HETATM    5  C7  UNL     1      -3.605  -6.076  -7.046  1.00  0.00     0.025 C 
HETATM    6  C8  UNL     1      -4.627  -5.578  -7.982  1.00  0.00     0.083 C 
ENDROOT
BRANCH   6   7
HETATM    7  N1  UNL     1      -5.368  -4.428  -7.741  1.00  0.00    -0.411 N 
ATOM      8  H1  UNL     1      -6.365  -4.478  -7.536  1.00  0.00     0.154 HD
BRANCH   7   9
HETATM    9  C9  UNL     1      -4.694  -3.185  -7.789  1.00  0.00     0.104 C 
HETATM   10  C10 UNL     1      -5.478  -1.940  -7.980  1.00  0.00     0.054 C 
HETATM   11  C11 UNL     1      -5.501  -1.844  -9.525  1.00  0.00     0.234 C 
HETATM   12  N2  UNL     1      -4.350  -2.529 -10.014  1.00  0.00    -0.073 N 
HETATM   13  C12 UNL     1      -3.642  -3.083  -8.890  1.00  0.00     0.256 C 
ATOM     14  H22 UNL     1      -4.580  -3.231 -10.718  1.00  0.00     0.277 HD
ATOM     15  H21 UNL     1      -3.759  -1.937 -10.598  1.00  0.00     0.277 HD
ENDBRANCH   7   9
ENDBRANCH   6   7
BRANCH   1  16
HETATM   16  C2  UNL     1      -6.284  -7.219  -7.025  1.00  0.00     0.177 C 
BRANCH  16  17
HETATM   17  O2  UNL     1      -7.097  -6.246  -6.481  1.00  0.00    -0.367 OA
BRANCH  17  18
HETATM   18  C1  UNL     1      -8.390  -6.432  -6.928  1.00  0.00     0.334 C 
BRANCH  18  19
HETATM   19  O1  UNL     1      -9.267  -5.493  -6.350  1.00  0.00    -0.377 OA
ATOM     20  H1  UNL     1      -8.917  -5.157  -5.534  1.00  0.00     0.212 HD
ENDBRANCH  18  19
ENDBRANCH  17  18
ENDBRANCH  16  17
ENDBRANCH   1  16
TORSDOF 6
ENDMDL
MODEL 5
REMARK VINA RESULT: -6.174168183      3.809      5.823
REMARK  6 active torsions:
REMARK  status: ('A' for Active; 'I' for Inactive)
REMARK    1  A    between atoms: O1_1  and  C1_3 
REMARK    2  A    between atoms: C1_3  and  O2_4 
REMARK    3  A    between atoms: O2_4  and  C2_5 
REMARK    4  A    between atoms: C2_5  and  C3_6 
REMARK    5  A    between atoms: C8_11  and  N1_12 
REMARK    6  A    between atoms: N1_12  and  C9_14 
ROOT
HETATM    1  C3  UNL     1      -3.931  -5.493  -7.014  1.00  0.00     0.032 C 
HETATM    2  C4  UNL     1      -4.544  -4.282  -7.607  1.00  0.00     0.009 C 
HETATM    3  C5  UNL     1      -4.069  -3.829  -8.938  1.00  0.00     0.001 C 
HETATM    4  C6  UNL     1      -3.388  -4.806  -9.822  1.00  0.00     0.002 C 
HETATM    5  C7  UNL     1      -3.192  -6.175  -9.194  1.00  0.00     0.025 C 
HETATM    6  C8  UNL     1      -2.688  -5.923  -7.833  1.00  0.00     0.083 C 
ENDROOT
BRANCH   6   7
HETATM    7  N1  UNL     1      -1.913  -6.843  -7.139  1.00  0.00    -0.411 N 
ATOM      8  H1  UNL     1      -2.029  -6.977  -6.135  1.00  0.00     0.154 HD
BRANCH   7   9
HETATM    9  C9  UNL     1      -0.957  -7.588  -7.869  1.00  0.00     0.104 C 
HETATM   10  C10 UNL     1      -0.172  -8.638  -7.176  1.00  0.00     0.054 C 
HETATM   11  C11 UNL     1       1.040  -7.814  -6.676  1.00  0.00     0.234 C 
HETATM   12  N2  UNL     1       1.189  -6.697  -7.550  1.00  0.00    -0.073 N 
HETATM   13  C12 UNL     1       0.131  -6.742  -8.525  1.00  0.00     0.256 C 
ATOM     14  H22 UNL     1       1.224  -5.809  -7.050  1.00  0.00     0.277 HD
ATOM     15  H21 UNL     1       2.114  -6.652  -7.976  1.00  0.00     0.277 HD
ENDBRANCH   7   9
ENDBRANCH   6   7
BRANCH   1  16
HETATM   16  C2  UNL     1      -4.918  -6.622  -6.890  1.00  0.00     0.177 C 
BRANCH  16  17
HETATM   17  O2  UNL     1      -5.981  -6.366  -6.048  1.00  0.00    -0.367 OA
BRANCH  17  18
HETATM   18  C1  UNL     1      -7.153  -6.761  -6.663  1.00  0.00     0.334 C 
BRANCH  18  19
HETATM   19  O1  UNL     1      -8.262  -6.077  -6.127  1.00  0.00    -0.377 OA
ATOM     20  H1  UNL     1      -8.975  -6.676  -5.942  1.00  0.00     0.212 HD
ENDBRANCH  18  19
ENDBRANCH  17  18
ENDBRANCH  16  17
ENDBRANCH   1  16
TORSDOF 6
ENDMDL
