MODEL 1
REMARK VINA RESULT: -7.998508351      0.000      0.000
REMARK  10 active torsions:
REMARK  status: ('A' for Active; 'I' for Inactive)
REMARK       I    between atoms: N1_2  and  C2_3 
REMARK       I    between atoms: N1_2  and  C7_11 
REMARK       I    between atoms: C2_3  and  N2_5 
REMARK    1  A    between atoms: N2_5  and  C3_7 
REMARK    2  A    between atoms: C7_11  and  C8_13 
REMARK    3  A    between atoms: C10_15  and  C11_16 
REMARK    4  A    between atoms: C11_16  and  N3_18 
REMARK    5  A    between atoms: N3_18  and  C12_20 
REMARK    6  A    between atoms: C12_20  and  C13_21 
REMARK    7  A    between atoms: C12_20  and  C20_28 
REMARK    8  A    between atoms: C13_21  and  C14_22 
REMARK    9  A    between atoms: C20_28  and  C21_30 
REMARK       I    between atoms: C21_30  and  N4_32 
REMARK   10  A    between atoms: C25_36  and  C26_37 
ROOT
HETATM    1  C12 UNL     1      14.682  -2.031  49.123  1.00  0.00     0.159 C 
ENDROOT
BRANCH   1   2
HETATM    2  N3  UNL     1      14.278  -2.010  47.787  1.00  0.00    -0.381 N 
ATOM      3  H3  UNL     1      13.343  -2.372  47.605  1.00  0.00     0.156 HD
BRANCH   2   4
HETATM    4  C11 UNL     1      14.970  -1.568  46.682  1.00  0.00     0.270 C 
HETATM    5  F1  UNL     1      16.097  -2.428  46.493  1.00  0.00    -0.227 F 
BRANCH   4   6
HETATM    6  C10 UNL     1      15.577  -0.151  46.908  1.00  0.00     0.053 A 
HETATM    7  C8  UNL     1      15.936   0.584  45.692  1.00  0.00     0.087 A 
HETATM    8  C9  UNL     1      17.054  -0.059  46.511  1.00  0.00     0.024 A 
BRANCH   7   9
HETATM    9  C7  UNL     1      16.076   2.099  45.670  1.00  0.00     0.232 C 
HETATM   10  N1  UNL     1      16.503   2.730  44.504  1.00  0.00    -0.274 N 
HETATM   11  C1  UNL     1      16.801   1.846  43.348  1.00  0.00     0.164 C 
HETATM   12  C2  UNL     1      16.719   4.077  44.322  1.00  0.00     0.325 C 
HETATM   13  O1  UNL     1      17.225   4.419  43.181  1.00  0.00    -0.247 OA
HETATM   14  N2  UNL     1      16.453   5.117  45.233  1.00  0.00    -0.335 N 
ATOM     15  H2  UNL     1      16.049   4.915  46.146  1.00  0.00     0.165 HD
HETATM   16  O2  UNL     1      15.804   2.730  46.732  1.00  0.00    -0.272 OA
BRANCH  14  17
HETATM   17  C3  UNL     1      16.772   6.518  44.839  1.00  0.00     0.023 C 
HETATM   18  C4  UNL     1      16.568   6.728  43.375  1.00  0.00     0.037 C 
HETATM   19  C5  UNL     1      15.864   7.420  45.610  1.00  0.00     0.037 C 
HETATM   20  C6  UNL     1      18.209   6.820  45.253  1.00  0.00     0.037 C 
ENDBRANCH  14  17
ENDBRANCH   7   9
ENDBRANCH   4   6
ENDBRANCH   2   4
ENDBRANCH   1   2
BRANCH   1  21
HETATM   21  C13 UNL     1      14.063  -1.102  50.065  1.00  0.00     0.037 C 
BRANCH  21  22
HETATM   22  C14 UNL     1      13.042  -0.103  49.605  1.00  0.00    -0.012 C 
HETATM   23  C15 UNL     1      12.026   0.020  50.743  1.00  0.00     0.005 C 
HETATM   24  C16 UNL     1      11.508   1.387  50.931  1.00  0.00     0.000 C 
HETATM   25  C17 UNL     1      12.569   2.443  51.112  1.00  0.00     0.000 C 
HETATM   26  C18 UNL     1      13.940   1.892  50.694  1.00  0.00     0.000 C 
HETATM   27  C19 UNL     1      13.713   1.224  49.356  1.00  0.00     0.005 C 
ENDBRANCH  21  22
ENDBRANCH   1  21
BRANCH   1  28
HETATM   28  C20 UNL     1      14.790  -3.463  49.612  1.00  0.00     0.238 C 
HETATM   29  O3  UNL     1      14.543  -3.584  50.864  1.00  0.00    -0.285 OA
BRANCH  28  30
HETATM   30  C21 UNL     1      15.125  -4.586  48.846  1.00  0.00     0.292 C 
HETATM   31  O4  UNL     1      14.516  -4.844  47.743  1.00  0.00    -0.264 OA
HETATM   32  N4  UNL     1      16.167  -5.496  49.258  1.00  0.00    -0.332 N 
HETATM   33  C22 UNL     1      16.957  -5.421  50.440  1.00  0.00     0.127 C 
HETATM   34  C25 UNL     1      16.549  -6.634  48.452  1.00  0.00     0.176 C 
HETATM   35  C23 UNL     1      18.183  -6.278  50.153  1.00  0.00     0.022 C 
HETATM   36  C24 UNL     1      17.712  -7.251  49.144  1.00  0.00     0.036 C 
BRANCH  34  37
HETATM   37  C26 UNL     1      15.442  -7.645  48.339  1.00  0.00     0.254 C 
HETATM   38  N5  UNL     1      15.054  -8.109  47.081  1.00  0.00    -0.060 NA
HETATM   39  O5  UNL     1      14.874  -8.068  49.355  1.00  0.00    -0.275 OA
ENDBRANCH  34  37
ENDBRANCH  28  30
ENDBRANCH   1  28
TORSDOF 10
ENDMDL
MODEL 2
REMARK VINA RESULT: -7.924497808      2.817      9.387
REMARK  10 active torsions:
REMARK  status: ('A' for Active; 'I' for Inactive)
REMARK       I    between atoms: N1_2  and  C2_3 
REMARK       I    between atoms: N1_2  and  C7_11 
REMARK       I    between atoms: C2_3  and  N2_5 
REMARK    1  A    between atoms: N2_5  and  C3_7 
REMARK    2  A    between atoms: C7_11  and  C8_13 
REMARK    3  A    between atoms: C10_15  and  C11_16 
REMARK    4  A    between atoms: C11_16  and  N3_18 
REMARK    5  A    between atoms: N3_18  and  C12_20 
REMARK    6  A    between atoms: C12_20  and  C13_21 
REMARK    7  A    between atoms: C12_20  and  C20_28 
REMARK    8  A    between atoms: C13_21  and  C14_22 
REMARK    9  A    between atoms: C20_28  and  C21_30 
REMARK       I    between atoms: C21_30  and  N4_32 
REMARK   10  A    between atoms: C25_36  and  C26_37 
ROOT
HETATM    1  C12 UNL     1      13.697  -0.843  49.401  1.00  0.00     0.159 C 
ENDROOT
BRANCH   1   2
HETATM    2  N3  UNL     1      14.217  -2.120  49.187  1.00  0.00    -0.381 N 
ATOM      3  H3  UNL     1      14.272  -2.716  50.013  1.00  0.00     0.156 HD
BRANCH   2   4
HETATM    4  C11 UNL     1      14.665  -2.686  48.016  1.00  0.00     0.270 C 
HETATM    5  F1  UNL     1      13.782  -2.286  46.965  1.00  0.00    -0.227 F 
BRANCH   4   6
HETATM    6  C10 UNL     1      14.572  -4.241  48.051  1.00  0.00     0.053 A 
HETATM    7  C8  UNL     1      15.766  -4.935  48.544  1.00  0.00     0.087 A 
HETATM    8  C9  UNL     1      15.500  -4.922  47.039  1.00  0.00     0.024 A 
BRANCH   7   9
HETATM    9  C7  UNL     1      15.712  -6.351  49.097  1.00  0.00     0.232 C 
HETATM   10  N1  UNL     1      16.747  -6.808  49.910  1.00  0.00    -0.274 N 
HETATM   11  C1  UNL     1      17.851  -5.851  50.170  1.00  0.00     0.164 C 
HETATM   12  C2  UNL     1      16.876  -8.063  50.460  1.00  0.00     0.325 C 
HETATM   13  O1  UNL     1      17.982  -8.293  51.090  1.00  0.00    -0.247 OA
HETATM   14  N2  UNL     1      15.944  -9.118  50.414  1.00  0.00    -0.335 N 
ATOM     15  H2  UNL     1      15.050  -8.999  49.938  1.00  0.00     0.165 HD
HETATM   16  O2  UNL     1      14.718  -7.067  48.782  1.00  0.00    -0.272 OA
BRANCH  14  17
HETATM   17  C3  UNL     1      16.285 -10.410  51.071  1.00  0.00     0.023 C 
HETATM   18  C4  UNL     1      16.586 -10.215  52.521  1.00  0.00     0.037 C 
HETATM   19  C5  UNL     1      15.109 -11.319  50.917  1.00  0.00     0.037 C 
HETATM   20  C6  UNL     1      17.467 -11.030  50.333  1.00  0.00     0.037 C 
ENDBRANCH  14  17
ENDBRANCH   7   9
ENDBRANCH   4   6
ENDBRANCH   2   4
ENDBRANCH   1   2
BRANCH   1  21
HETATM   21  C13 UNL     1      13.080  -0.534  50.689  1.00  0.00     0.037 C 
BRANCH  21  22
HETATM   22  C14 UNL     1      11.711   0.076  50.762  1.00  0.00    -0.012 C 
HETATM   23  C15 UNL     1      11.245  -0.101  52.209  1.00  0.00     0.005 C 
HETATM   24  C16 UNL     1      10.457   1.035  52.722  1.00  0.00     0.000 C 
HETATM   25  C17 UNL     1      11.131   2.378  52.590  1.00  0.00     0.000 C 
HETATM   26  C18 UNL     1      12.320   2.281  51.623  1.00  0.00     0.000 C 
HETATM   27  C19 UNL     1      11.793   1.541  50.413  1.00  0.00     0.005 C 
ENDBRANCH  21  22
ENDBRANCH   1  21
BRANCH   1  28
HETATM   28  C20 UNL     1      14.663   0.206  48.885  1.00  0.00     0.238 C 
HETATM   29  O3  UNL     1      15.511   0.584  49.770  1.00  0.00    -0.285 OA
BRANCH  28  30
HETATM   30  C21 UNL     1      14.689   0.760  47.599  1.00  0.00     0.292 C 
HETATM   31  O4  UNL     1      13.728   1.500  47.175  1.00  0.00    -0.264 OA
HETATM   32  N4  UNL     1      15.796   0.528  46.702  1.00  0.00    -0.332 N 
HETATM   33  C22 UNL     1      16.952  -0.265  46.948  1.00  0.00     0.127 C 
HETATM   34  C25 UNL     1      15.852   1.131  45.388  1.00  0.00     0.176 C 
HETATM   35  C23 UNL     1      17.985   0.215  45.937  1.00  0.00     0.022 C 
HETATM   36  C24 UNL     1      17.175   0.752  44.823  1.00  0.00     0.036 C 
BRANCH  34  37
HETATM   37  C26 UNL     1      14.760   0.626  44.486  1.00  0.00     0.254 C 
HETATM   38  N5  UNL     1      14.747  -0.716  44.101  1.00  0.00    -0.060 NA
HETATM   39  O5  UNL     1      13.874   1.393  44.085  1.00  0.00    -0.275 OA
ENDBRANCH  34  37
ENDBRANCH  28  30
ENDBRANCH   1  28
TORSDOF 10
ENDMDL
MODEL 3
REMARK VINA RESULT: -7.784348498      2.261      9.726
REMARK  10 active torsions:
REMARK  status: ('A' for Active; 'I' for Inactive)
REMARK       I    between atoms: N1_2  and  C2_3 
REMARK       I    between atoms: N1_2  and  C7_11 
REMARK       I    between atoms: C2_3  and  N2_5 
REMARK    1  A    between atoms: N2_5  and  C3_7 
REMARK    2  A    between atoms: C7_11  and  C8_13 
REMARK    3  A    between atoms: C10_15  and  C11_16 
REMARK    4  A    between atoms: C11_16  and  N3_18 
REMARK    5  A    between atoms: N3_18  and  C12_20 
REMARK    6  A    between atoms: C12_20  and  C13_21 
REMARK    7  A    between atoms: C12_20  and  C20_28 
REMARK    8  A    between atoms: C13_21  and  C14_22 
REMARK    9  A    between atoms: C20_28  and  C21_30 
REMARK       I    between atoms: C21_30  and  N4_32 
REMARK   10  A    between atoms: C25_36  and  C26_37 
ROOT
HETATM    1  C12 UNL     1      15.385  -0.883  46.244  1.00  0.00     0.159 C 
ENDROOT
BRANCH   1   2
HETATM    2  N3  UNL     1      15.680  -2.148  46.752  1.00  0.00    -0.381 N 
ATOM      3  H3  UNL     1      16.626  -2.267  47.113  1.00  0.00     0.156 HD
BRANCH   2   4
HETATM    4  C11 UNL     1      14.870  -3.258  46.833  1.00  0.00     0.270 C 
HETATM    5  F1  UNL     1      13.511  -2.822  46.740  1.00  0.00    -0.227 F 
BRANCH   4   6
HETATM    6  C10 UNL     1      14.977  -3.952  48.225  1.00  0.00     0.053 A 
HETATM    7  C8  UNL     1      15.902  -5.088  48.296  1.00  0.00     0.087 A 
HETATM    8  C9  UNL     1      14.402  -5.372  48.233  1.00  0.00     0.024 A 
BRANCH   7   9
HETATM    9  C7  UNL     1      16.496  -5.569  49.610  1.00  0.00     0.232 C 
HETATM   10  N1  UNL     1      17.456  -6.579  49.598  1.00  0.00    -0.274 N 
HETATM   11  C1  UNL     1      17.825  -7.121  48.266  1.00  0.00     0.164 C 
HETATM   12  C2  UNL     1      18.066  -7.156  50.689  1.00  0.00     0.325 C 
HETATM   13  O1  UNL     1      18.846  -8.157  50.436  1.00  0.00    -0.247 OA
HETATM   14  N2  UNL     1      17.937  -6.780  52.039  1.00  0.00    -0.335 N 
ATOM     15  H2  UNL     1      17.343  -5.995  52.304  1.00  0.00     0.165 HD
HETATM   16  O2  UNL     1      16.080  -5.030  50.677  1.00  0.00    -0.272 OA
BRANCH  14  17
HETATM   17  C3  UNL     1      18.682  -7.549  53.075  1.00  0.00     0.023 C 
HETATM   18  C4  UNL     1      20.146  -7.575  52.779  1.00  0.00     0.037 C 
HETATM   19  C5  UNL     1      18.446  -6.880  54.390  1.00  0.00     0.037 C 
HETATM   20  C6  UNL     1      18.100  -8.957  53.144  1.00  0.00     0.037 C 
ENDBRANCH  14  17
ENDBRANCH   7   9
ENDBRANCH   4   6
ENDBRANCH   2   4
ENDBRANCH   1   2
BRANCH   1  21
HETATM   21  C13 UNL     1      14.611   0.047  47.062  1.00  0.00     0.037 C 
BRANCH  21  22
HETATM   22  C14 UNL     1      15.171   0.600  48.340  1.00  0.00    -0.012 C 
HETATM   23  C15 UNL     1      14.671   2.043  48.433  1.00  0.00     0.005 C 
HETATM   24  C16 UNL     1      14.346   2.471  49.807  1.00  0.00     0.000 C 
HETATM   25  C17 UNL     1      13.376   1.574  50.532  1.00  0.00     0.000 C 
HETATM   26  C18 UNL     1      13.242   0.233  49.795  1.00  0.00     0.000 C 
HETATM   27  C19 UNL     1      14.660  -0.208  49.506  1.00  0.00     0.005 C 
ENDBRANCH  21  22
ENDBRANCH   1  21
BRANCH   1  28
HETATM   28  C20 UNL     1      16.613  -0.287  45.583  1.00  0.00     0.238 C 
HETATM   29  O3  UNL     1      17.691  -0.502  46.243  1.00  0.00    -0.285 OA
BRANCH  28  30
HETATM   30  C21 UNL     1      16.651   0.439  44.386  1.00  0.00     0.292 C 
HETATM   31  O4  UNL     1      16.599  -0.155  43.247  1.00  0.00    -0.264 OA
HETATM   32  N4  UNL     1      16.744   1.879  44.381  1.00  0.00    -0.332 N 
HETATM   33  C22 UNL     1      16.831   2.740  45.511  1.00  0.00     0.127 C 
HETATM   34  C25 UNL     1      16.740   2.640  43.151  1.00  0.00     0.176 C 
HETATM   35  C23 UNL     1      16.411   4.111  44.999  1.00  0.00     0.022 C 
HETATM   36  C24 UNL     1      16.736   4.070  43.557  1.00  0.00     0.036 C 
BRANCH  34  37
HETATM   37  C26 UNL     1      17.956   2.363  42.310  1.00  0.00     0.254 C 
HETATM   38  N5  UNL     1      19.228   2.474  42.875  1.00  0.00    -0.060 NA
HETATM   39  O5  UNL     1      17.835   2.037  41.122  1.00  0.00    -0.275 OA
ENDBRANCH  34  37
ENDBRANCH  28  30
ENDBRANCH   1  28
TORSDOF 10
ENDMDL
MODEL 4
REMARK VINA RESULT: -7.668819805      3.608      5.482
REMARK  10 active torsions:
REMARK  status: ('A' for Active; 'I' for Inactive)
REMARK       I    between atoms: N1_2  and  C2_3 
REMARK       I    between atoms: N1_2  and  C7_11 
REMARK       I    between atoms: C2_3  and  N2_5 
REMARK    1  A    between atoms: N2_5  and  C3_7 
REMARK    2  A    between atoms: C7_11  and  C8_13 
REMARK    3  A    between atoms: C10_15  and  C11_16 
REMARK    4  A    between atoms: C11_16  and  N3_18 
REMARK    5  A    between atoms: N3_18  and  C12_20 
REMARK    6  A    between atoms: C12_20  and  C13_21 
REMARK    7  A    between atoms: C12_20  and  C20_28 
REMARK    8  A    between atoms: C13_21  and  C14_22 
REMARK    9  A    between atoms: C20_28  and  C21_30 
REMARK       I    between atoms: C21_30  and  N4_32 
REMARK   10  A    between atoms: C25_36  and  C26_37 
ROOT
HETATM    1  C12 UNL     1      15.887  -0.960  46.174  1.00  0.00     0.159 C 
ENDROOT
BRANCH   1   2
HETATM    2  N3  UNL     1      16.566  -0.059  45.352  1.00  0.00    -0.381 N 
ATOM      3  H3  UNL     1      16.069   0.807  45.145  1.00  0.00     0.156 HD
BRANCH   2   4
HETATM    4  C11 UNL     1      17.814  -0.178  44.784  1.00  0.00     0.270 C 
HETATM    5  F1  UNL     1      18.617  -0.989  45.646  1.00  0.00    -0.227 F 
BRANCH   4   6
HETATM    6  C10 UNL     1      18.552   1.192  44.715  1.00  0.00     0.053 A 
HETATM    7  C8  UNL     1      18.047   2.134  43.711  1.00  0.00     0.087 A 
HETATM    8  C9  UNL     1      19.345   1.383  43.418  1.00  0.00     0.024 A 
BRANCH   7   9
HETATM    9  C7  UNL     1      18.290   3.632  43.808  1.00  0.00     0.232 C 
HETATM   10  N1  UNL     1      17.370   4.433  44.481  1.00  0.00    -0.274 N 
HETATM   11  C1  UNL     1      16.192   3.738  45.060  1.00  0.00     0.164 C 
HETATM   12  C2  UNL     1      17.414   5.800  44.631  1.00  0.00     0.325 C 
HETATM   13  O1  UNL     1      16.386   6.340  45.202  1.00  0.00    -0.247 OA
HETATM   14  N2  UNL     1      18.447   6.671  44.234  1.00  0.00    -0.335 N 
ATOM     15  H2  UNL     1      19.287   6.308  43.785  1.00  0.00     0.165 HD
HETATM   16  O2  UNL     1      19.329   4.096  43.255  1.00  0.00    -0.272 OA
BRANCH  14  17
HETATM   17  C3  UNL     1      18.292   8.132  44.482  1.00  0.00     0.023 C 
HETATM   18  C4  UNL     1      17.869   8.399  45.889  1.00  0.00     0.037 C 
HETATM   19  C5  UNL     1      19.615   8.776  44.221  1.00  0.00     0.037 C 
HETATM   20  C6  UNL     1      17.285   8.687  43.480  1.00  0.00     0.037 C 
ENDBRANCH  14  17
ENDBRANCH   7   9
ENDBRANCH   4   6
ENDBRANCH   2   4
ENDBRANCH   1   2
BRANCH   1  21
HETATM   21  C13 UNL     1      14.946  -0.444  47.166  1.00  0.00     0.037 C 
BRANCH  21  22
HETATM   22  C14 UNL     1      15.421   0.395  48.316  1.00  0.00    -0.012 C 
HETATM   23  C15 UNL     1      14.835   1.791  48.092  1.00  0.00     0.005 C 
HETATM   24  C16 UNL     1      14.430   2.471  49.336  1.00  0.00     0.000 C 
HETATM   25  C17 UNL     1      13.484   1.681  50.206  1.00  0.00     0.000 C 
HETATM   26  C18 UNL     1      13.459   0.212  49.761  1.00  0.00     0.000 C 
HETATM   27  C19 UNL     1      14.910  -0.187  49.610  1.00  0.00     0.005 C 
ENDBRANCH  21  22
ENDBRANCH   1  21
BRANCH   1  28
HETATM   28  C20 UNL     1      15.379  -2.131  45.356  1.00  0.00     0.238 C 
HETATM   29  O3  UNL     1      15.325  -3.223  46.025  1.00  0.00    -0.285 OA
BRANCH  28  30
HETATM   30  C21 UNL     1      14.995  -2.107  44.009  1.00  0.00     0.292 C 
HETATM   31  O4  UNL     1      15.823  -2.423  43.077  1.00  0.00    -0.264 OA
HETATM   32  N4  UNL     1      13.658  -1.734  43.613  1.00  0.00    -0.332 N 
HETATM   33  C22 UNL     1      12.589  -1.333  44.463  1.00  0.00     0.127 C 
HETATM   34  C25 UNL     1      13.241  -1.748  42.229  1.00  0.00     0.176 C 
HETATM   35  C23 UNL     1      11.327  -1.538  43.636  1.00  0.00     0.022 C 
HETATM   36  C24 UNL     1      11.791  -1.418  42.238  1.00  0.00     0.036 C 
BRANCH  34  37
HETATM   37  C26 UNL     1      13.980  -0.731  41.403  1.00  0.00     0.254 C 
HETATM   38  N5  UNL     1      14.506  -1.097  40.164  1.00  0.00    -0.060 NA
HETATM   39  O5  UNL     1      14.121   0.428  41.818  1.00  0.00    -0.275 OA
ENDBRANCH  34  37
ENDBRANCH  28  30
ENDBRANCH   1  28
TORSDOF 10
ENDMDL
MODEL 5
REMARK VINA RESULT: -7.620209594      3.214      9.922
REMARK  10 active torsions:
REMARK  status: ('A' for Active; 'I' for Inactive)
REMARK       I    between atoms: N1_2  and  C2_3 
REMARK       I    between atoms: N1_2  and  C7_11 
REMARK       I    between atoms: C2_3  and  N2_5 
REMARK    1  A    between atoms: N2_5  and  C3_7 
REMARK    2  A    between atoms: C7_11  and  C8_13 
REMARK    3  A    between atoms: C10_15  and  C11_16 
REMARK    4  A    between atoms: C11_16  and  N3_18 
REMARK    5  A    between atoms: N3_18  and  C12_20 
REMARK    6  A    between atoms: C12_20  and  C13_21 
REMARK    7  A    between atoms: C12_20  and  C20_28 
REMARK    8  A    between atoms: C13_21  and  C14_22 
REMARK    9  A    between atoms: C20_28  and  C21_30 
REMARK       I    between atoms: C21_30  and  N4_32 
REMARK   10  A    between atoms: C25_36  and  C26_37 
ROOT
HETATM    1  C12 UNL     1      16.094  -2.704  45.240  1.00  0.00     0.159 C 
ENDROOT
BRANCH   1   2
HETATM    2  N3  UNL     1      15.713  -2.648  46.582  1.00  0.00    -0.381 N 
ATOM      3  H3  UNL     1      16.424  -2.305  47.227  1.00  0.00     0.156 HD
BRANCH   2   4
HETATM    4  C11 UNL     1      14.509  -2.992  47.153  1.00  0.00     0.270 C 
HETATM    5  F1  UNL     1      13.851  -1.788  47.557  1.00  0.00    -0.227 F 
BRANCH   4   6
HETATM    6  C10 UNL     1      14.703  -3.806  48.467  1.00  0.00     0.053 A 
HETATM    7  C8  UNL     1      15.740  -4.842  48.422  1.00  0.00     0.087 A 
HETATM    8  C9  UNL     1      14.277  -5.272  48.335  1.00  0.00     0.024 A 
BRANCH   7   9
HETATM    9  C7  UNL     1      16.398  -5.388  49.681  1.00  0.00     0.232 C 
HETATM   10  N1  UNL     1      17.331  -6.417  49.574  1.00  0.00    -0.274 N 
HETATM   11  C1  UNL     1      17.609  -6.914  48.202  1.00  0.00     0.164 C 
HETATM   12  C2  UNL     1      17.988  -7.050  50.604  1.00  0.00     0.325 C 
HETATM   13  O1  UNL     1      18.727  -8.057  50.269  1.00  0.00    -0.247 OA
HETATM   14  N2  UNL     1      17.946  -6.725  51.974  1.00  0.00    -0.335 N 
ATOM     15  H2  UNL     1      17.387  -5.938  52.303  1.00  0.00     0.165 HD
HETATM   16  O2  UNL     1      16.056  -4.882  50.789  1.00  0.00    -0.272 OA
BRANCH  14  17
HETATM   17  C3  UNL     1      18.731  -7.550  52.934  1.00  0.00     0.023 C 
HETATM   18  C4  UNL     1      20.185  -7.537  52.594  1.00  0.00     0.037 C 
HETATM   19  C5  UNL     1      18.526  -6.972  54.297  1.00  0.00     0.037 C 
HETATM   20  C6  UNL     1      18.167  -8.967  52.927  1.00  0.00     0.037 C 
ENDBRANCH  14  17
ENDBRANCH   7   9
ENDBRANCH   4   6
ENDBRANCH   2   4
ENDBRANCH   1   2
BRANCH   1  21
HETATM   21  C13 UNL     1      15.060  -2.780  44.211  1.00  0.00     0.037 C 
BRANCH  21  22
HETATM   22  C14 UNL     1      14.557  -1.540  43.531  1.00  0.00    -0.012 C 
HETATM   23  C15 UNL     1      13.909  -2.006  42.225  1.00  0.00     0.005 C 
HETATM   24  C16 UNL     1      12.706  -1.239  41.853  1.00  0.00     0.000 C 
HETATM   25  C17 UNL     1      11.646  -1.173  42.923  1.00  0.00     0.000 C 
HETATM   26  C18 UNL     1      12.229  -1.613  44.274  1.00  0.00     0.000 C 
HETATM   27  C19 UNL     1      13.535  -0.862  44.410  1.00  0.00     0.005 C 
ENDBRANCH  21  22
ENDBRANCH   1  21
BRANCH   1  28
HETATM   28  C20 UNL     1      17.196  -1.698  44.969  1.00  0.00     0.238 C 
HETATM   29  O3  UNL     1      18.168  -2.190  44.293  1.00  0.00    -0.285 OA
BRANCH  28  30
HETATM   30  C21 UNL     1      17.229  -0.361  45.383  1.00  0.00     0.292 C 
HETATM   31  O4  UNL     1      17.220  -0.051  46.631  1.00  0.00    -0.264 OA
HETATM   32  N4  UNL     1      17.279   0.722  44.429  1.00  0.00    -0.332 N 
HETATM   33  C22 UNL     1      17.280   0.619  43.010  1.00  0.00     0.127 C 
HETATM   34  C25 UNL     1      17.357   2.104  44.848  1.00  0.00     0.176 C 
HETATM   35  C23 UNL     1      17.833   1.949  42.516  1.00  0.00     0.022 C 
HETATM   36  C24 UNL     1      17.504   2.899  43.600  1.00  0.00     0.036 C 
BRANCH  34  37
HETATM   37  C26 UNL     1      16.119   2.545  45.579  1.00  0.00     0.254 C 
HETATM   38  N5  UNL     1      14.863   2.161  45.106  1.00  0.00    -0.060 NA
HETATM   39  O5  UNL     1      16.208   3.246  46.596  1.00  0.00    -0.275 OA
ENDBRANCH  34  37
ENDBRANCH  28  30
ENDBRANCH   1  28
TORSDOF 10
ENDMDL
