MODEL 1
REMARK VINA RESULT: -5.658755541      0.000      0.000
REMARK  9 active torsions:
REMARK  status: ('A' for Active; 'I' for Inactive)
REMARK    1  A    between atoms: N1_2  and  C2_5 
REMARK    2  A    between atoms: C2_5  and  C4_7 
REMARK       I    between atoms: C4_7  and  N2_9 
REMARK       I    between atoms: N2_9  and  C5_11 
REMARK    3  A    between atoms: C5_11  and  C6_13 
REMARK    4  A    between atoms: C6_13  and  N3_14 
REMARK    5  A    between atoms: C6_13  and  C24_39 
REMARK    6  A    between atoms: C7_15  and  C8_16 
REMARK       I    between atoms: C8_16  and  N4_18 
REMARK    7  A    between atoms: N4_18  and  C9_20 
REMARK    8  A    between atoms: C9_20  and  C10_21 
REMARK    9  A    between atoms: C9_20  and  C16_31 
REMARK       I    between atoms: C10_21  and  N5_23 
ROOT
HETATM    1  C10 UNL     1      18.029   5.174  42.789  1.00  0.00     0.244 C 
HETATM    2  O4  UNL     1      18.580   5.169  41.638  1.00  0.00    -0.271 OA
HETATM    3  N5  UNL     1      17.183   6.251  43.124  1.00  0.00    -0.330 N 
HETATM    4  C11 UNL     1      16.399   6.515  44.312  1.00  0.00     0.164 C 
HETATM    5  C12 UNL     1      16.765   7.965  44.639  1.00  0.00     0.191 C 
HETATM    6  F1  UNL     1      15.728   8.572  45.282  1.00  0.00    -0.248 F 
HETATM    7  C13 UNL     1      17.056   8.571  43.273  1.00  0.00     0.079 C 
HETATM    8  C14 UNL     1      16.906   7.439  42.286  1.00  0.00     0.197 C 
HETATM    9  C15 UNL     1      15.537   7.354  41.807  1.00  0.00     0.085 C 
HETATM   10  N6  UNL     1      14.441   7.303  41.428  1.00  0.00    -0.195 NA
ENDROOT
BRANCH   1  11
HETATM   11  C9  UNL     1      18.346   4.016  43.670  1.00  0.00     0.180 C 
BRANCH  11  12
HETATM   12  N4  UNL     1      17.414   2.913  43.387  1.00  0.00    -0.346 N 
HETATM   13  C8  UNL     1      16.346   2.597  44.220  1.00  0.00     0.252 C 
HETATM   14  O3  UNL     1      16.214   3.325  45.269  1.00  0.00    -0.271 OA
ATOM     15  H4  UNL     1      17.558   2.356  42.545  1.00  0.00     0.163 HD
BRANCH  13  16
HETATM   16  C7  UNL     1      15.331   1.541  44.075  1.00  0.00     0.316 C 
HETATM   17  N3  UNL     1      15.852   0.227  43.783  1.00  0.00     0.121 N 
HETATM   18  C23 UNL     1      15.611  -0.572  44.970  1.00  0.00     0.229 A 
HETATM   19  C20 UNL     1      14.848   0.245  45.992  1.00  0.00     0.021 A 
HETATM   20  C22 UNL     1      16.763  -0.620  45.941  1.00  0.00     0.036 A 
HETATM   21  C19 UNL     1      14.532   1.524  45.325  1.00  0.00     0.052 C 
HETATM   22  C21 UNL     1      16.059   0.288  46.888  1.00  0.00     0.009 A 
BRANCH  17  23
HETATM   23  C6  UNL     1      15.072  -0.351  42.675  1.00  0.00     0.323 C 
BRANCH  23  24
HETATM   24  C5  UNL     1      15.146   0.645  41.502  1.00  0.00     0.258 C 
HETATM   25  N2  UNL     1      13.940   0.996  40.847  1.00  0.00    -0.294 N 
HETATM   26  C4  UNL     1      13.807   1.868  39.772  1.00  0.00     0.254 C 
ATOM     27  H2  UNL     1      13.084   0.567  41.198  1.00  0.00     0.171 HD
HETATM   28  O1  UNL     1      12.621   1.992  39.276  1.00  0.00    -0.271 OA
HETATM   29  O2  UNL     1      16.213   1.141  41.128  1.00  0.00    -0.271 OA
BRANCH  26  30
HETATM   30  C2  UNL     1      14.827   2.681  39.106  1.00  0.00     0.273 C 
HETATM   31  C3  UNL     1      14.482   4.183  39.126  1.00  0.00     0.050 C 
BRANCH  30  32
HETATM   32  N1  UNL     1      14.999   2.321  37.705  1.00  0.00    -0.067 N 
HETATM   33  C1  UNL     1      15.599   1.041  37.497  1.00  0.00     0.267 C 
ATOM     34  H12 UNL     1      15.524   3.044  37.213  1.00  0.00     0.277 HD
ATOM     35  H11 UNL     1      14.109   2.382  37.210  1.00  0.00     0.277 HD
ENDBRANCH  30  32
ENDBRANCH  26  30
ENDBRANCH  23  24
BRANCH  23  36
HETATM   36  C24 UNL     1      15.694  -1.610  42.113  1.00  0.00    -0.011 C 
HETATM   37  C25 UNL     1      17.173  -1.735  42.099  1.00  0.00     0.017 C 
HETATM   38  C26 UNL     1      15.124  -1.878  40.702  1.00  0.00     0.017 C 
HETATM   39  C27 UNL     1      15.220  -2.835  42.916  1.00  0.00     0.017 C 
ENDBRANCH  23  36
ENDBRANCH  17  23
ENDBRANCH  13  16
ENDBRANCH  11  12
BRANCH  11  40
HETATM   40  C16 UNL     1      19.737   3.492  43.392  1.00  0.00     0.009 C 
HETATM   41  C17 UNL     1      20.838   4.372  43.927  1.00  0.00     0.012 C 
HETATM   42  C18 UNL     1      19.916   2.065  43.840  1.00  0.00     0.012 C 
ENDBRANCH  11  40
ENDBRANCH   1  11
TORSDOF 9
ENDMDL
MODEL 2
REMARK VINA RESULT: -5.623453647      2.803      5.469
REMARK  9 active torsions:
REMARK  status: ('A' for Active; 'I' for Inactive)
REMARK    1  A    between atoms: N1_2  and  C2_5 
REMARK    2  A    between atoms: C2_5  and  C4_7 
REMARK       I    between atoms: C4_7  and  N2_9 
REMARK       I    between atoms: N2_9  and  C5_11 
REMARK    3  A    between atoms: C5_11  and  C6_13 
REMARK    4  A    between atoms: C6_13  and  N3_14 
REMARK    5  A    between atoms: C6_13  and  C24_39 
REMARK    6  A    between atoms: C7_15  and  C8_16 
REMARK       I    between atoms: C8_16  and  N4_18 
REMARK    7  A    between atoms: N4_18  and  C9_20 
REMARK    8  A    between atoms: C9_20  and  C10_21 
REMARK    9  A    between atoms: C9_20  and  C16_31 
REMARK       I    between atoms: C10_21  and  N5_23 
ROOT
HETATM    1  C10 UNL     1      16.451   4.488  41.807  1.00  0.00     0.244 C 
HETATM    2  O4  UNL     1      15.946   3.436  41.290  1.00  0.00    -0.271 OA
HETATM    3  N5  UNL     1      16.386   5.692  41.076  1.00  0.00    -0.330 N 
HETATM    4  C11 UNL     1      16.824   7.032  41.405  1.00  0.00     0.164 C 
HETATM    5  C12 UNL     1      17.603   7.446  40.154  1.00  0.00     0.191 C 
HETATM    6  F1  UNL     1      17.546   8.800  39.998  1.00  0.00    -0.248 F 
HETATM    7  C13 UNL     1      16.900   6.688  39.035  1.00  0.00     0.079 C 
HETATM    8  C14 UNL     1      15.835   5.860  39.713  1.00  0.00     0.197 C 
HETATM    9  C15 UNL     1      14.591   6.603  39.809  1.00  0.00     0.085 C 
HETATM   10  N6  UNL     1      13.600   7.206  39.871  1.00  0.00    -0.195 NA
ENDROOT
BRANCH   1  11
HETATM   11  C9  UNL     1      17.066   4.324  43.153  1.00  0.00     0.180 C 
BRANCH  11  12
HETATM   12  N4  UNL     1      17.064   2.900  43.526  1.00  0.00    -0.346 N 
HETATM   13  C8  UNL     1      16.728   2.456  44.799  1.00  0.00     0.252 C 
HETATM   14  O3  UNL     1      16.420   3.365  45.652  1.00  0.00    -0.271 OA
ATOM     15  H4  UNL     1      17.320   2.210  42.819  1.00  0.00     0.163 HD
BRANCH  13  16
HETATM   16  C7  UNL     1      16.672   1.081  45.322  1.00  0.00     0.316 C 
HETATM   17  N3  UNL     1      16.145   0.099  44.406  1.00  0.00     0.121 N 
HETATM   18  C23 UNL     1      17.263  -0.753  44.045  1.00  0.00     0.229 A 
HETATM   19  C20 UNL     1      18.496  -0.336  44.820  1.00  0.00     0.021 A 
HETATM   20  C22 UNL     1      17.981  -0.347  42.783  1.00  0.00     0.036 A 
HETATM   21  C19 UNL     1      18.045   0.717  45.752  1.00  0.00     0.052 C 
HETATM   22  C21 UNL     1      19.138   0.179  43.558  1.00  0.00     0.009 A 
BRANCH  17  23
HETATM   23  C6  UNL     1      15.155  -0.726  45.121  1.00  0.00     0.323 C 
BRANCH  23  24
HETATM   24  C5  UNL     1      14.655   0.106  46.318  1.00  0.00     0.258 C 
HETATM   25  N2  UNL     1      14.979  -0.341  47.623  1.00  0.00    -0.294 N 
HETATM   26  C4  UNL     1      14.615   0.269  48.819  1.00  0.00     0.254 C 
ATOM     27  H2  UNL     1      15.534  -1.194  47.693  1.00  0.00     0.171 HD
HETATM   28  O1  UNL     1      14.954  -0.346  49.903  1.00  0.00    -0.271 OA
HETATM   29  O2  UNL     1      13.993   1.138  46.171  1.00  0.00    -0.271 OA
BRANCH  26  30
HETATM   30  C2  UNL     1      13.893   1.523  49.038  1.00  0.00     0.273 C 
HETATM   31  C3  UNL     1      14.833   2.676  49.440  1.00  0.00     0.050 C 
BRANCH  30  32
HETATM   32  N1  UNL     1      12.901   1.417  50.100  1.00  0.00    -0.067 N 
HETATM   33  C1  UNL     1      12.764   2.594  50.897  1.00  0.00     0.267 C 
ATOM     34  H12 UNL     1      13.097   0.608  50.690  1.00  0.00     0.277 HD
ATOM     35  H11 UNL     1      11.998   1.139  49.716  1.00  0.00     0.277 HD
ENDBRANCH  30  32
ENDBRANCH  26  30
ENDBRANCH  23  24
BRANCH  23  36
HETATM   36  C24 UNL     1      13.902  -0.973  44.311  1.00  0.00    -0.011 C 
HETATM   37  C25 UNL     1      13.276   0.166  43.592  1.00  0.00     0.017 C 
HETATM   38  C26 UNL     1      12.852  -1.686  45.194  1.00  0.00     0.017 C 
HETATM   39  C27 UNL     1      14.184  -2.007  43.206  1.00  0.00     0.017 C 
ENDBRANCH  23  36
ENDBRANCH  17  23
ENDBRANCH  13  16
ENDBRANCH  11  12
BRANCH  11  40
HETATM   40  C16 UNL     1      18.511   4.769  43.143  1.00  0.00     0.009 C 
HETATM   41  C17 UNL     1      18.894   5.618  44.328  1.00  0.00     0.012 C 
HETATM   42  C18 UNL     1      19.468   3.618  42.967  1.00  0.00     0.012 C 
ENDBRANCH  11  40
ENDBRANCH   1  11
TORSDOF 9
ENDMDL
MODEL 3
REMARK VINA RESULT: -5.608519038      1.733      2.285
REMARK  9 active torsions:
REMARK  status: ('A' for Active; 'I' for Inactive)
REMARK    1  A    between atoms: N1_2  and  C2_5 
REMARK    2  A    between atoms: C2_5  and  C4_7 
REMARK       I    between atoms: C4_7  and  N2_9 
REMARK       I    between atoms: N2_9  and  C5_11 
REMARK    3  A    between atoms: C5_11  and  C6_13 
REMARK    4  A    between atoms: C6_13  and  N3_14 
REMARK    5  A    between atoms: C6_13  and  C24_39 
REMARK    6  A    between atoms: C7_15  and  C8_16 
REMARK       I    between atoms: C8_16  and  N4_18 
REMARK    7  A    between atoms: N4_18  and  C9_20 
REMARK    8  A    between atoms: C9_20  and  C10_21 
REMARK    9  A    between atoms: C9_20  and  C16_31 
REMARK       I    between atoms: C10_21  and  N5_23 
ROOT
HETATM    1  C10 UNL     1      17.360   3.482  43.313  1.00  0.00     0.244 C 
HETATM    2  O4  UNL     1      17.725   3.201  42.123  1.00  0.00    -0.271 OA
HETATM    3  N5  UNL     1      17.353   4.835  43.711  1.00  0.00    -0.330 N 
HETATM    4  C11 UNL     1      16.960   5.461  44.956  1.00  0.00     0.164 C 
HETATM    5  C12 UNL     1      18.142   6.386  45.253  1.00  0.00     0.191 C 
HETATM    6  F1  UNL     1      17.719   7.464  45.973  1.00  0.00    -0.248 F 
HETATM    7  C13 UNL     1      18.653   6.760  43.868  1.00  0.00     0.079 C 
HETATM    8  C14 UNL     1      17.792   5.989  42.896  1.00  0.00     0.197 C 
HETATM    9  C15 UNL     1      16.619   6.761  42.525  1.00  0.00     0.085 C 
HETATM   10  N6  UNL     1      15.691   7.394  42.231  1.00  0.00    -0.195 NA
ENDROOT
BRANCH   1  11
HETATM   11  C9  UNL     1      16.973   2.326  44.168  1.00  0.00     0.180 C 
BRANCH  11  12
HETATM   12  N4  UNL     1      16.108   1.414  43.402  1.00  0.00    -0.346 N 
HETATM   13  C8  UNL     1      14.802   1.121  43.779  1.00  0.00     0.252 C 
HETATM   14  O3  UNL     1      14.382   1.689  44.851  1.00  0.00    -0.271 OA
ATOM     15  H4  UNL     1      16.483   0.979  42.559  1.00  0.00     0.163 HD
BRANCH  13  16
HETATM   16  C7  UNL     1      13.817   0.245  43.124  1.00  0.00     0.316 C 
HETATM   17  N3  UNL     1      14.377  -0.847  42.365  1.00  0.00     0.121 N 
HETATM   18  C23 UNL     1      14.038  -2.056  43.091  1.00  0.00     0.229 A 
HETATM   19  C20 UNL     1      13.175  -1.710  44.287  1.00  0.00     0.021 A 
HETATM   20  C22 UNL     1      15.096  -2.529  44.054  1.00  0.00     0.036 A 
HETATM   21  C19 UNL     1      12.907  -0.262  44.181  1.00  0.00     0.052 C 
HETATM   22  C21 UNL     1      14.298  -2.071  45.224  1.00  0.00     0.009 A 
BRANCH  17  23
HETATM   23  C6  UNL     1      13.708  -0.897  41.053  1.00  0.00     0.323 C 
BRANCH  23  24
HETATM   24  C5  UNL     1      14.030   0.425  40.331  1.00  0.00     0.258 C 
HETATM   25  N2  UNL     1      12.980   1.080  39.639  1.00  0.00    -0.294 N 
HETATM   26  C4  UNL     1      13.077   2.271  38.927  1.00  0.00     0.254 C 
ATOM     27  H2  UNL     1      12.064   0.633  39.664  1.00  0.00     0.171 HD
HETATM   28  O1  UNL     1      12.012   2.658  38.307  1.00  0.00    -0.271 OA
HETATM   29  O2  UNL     1      15.159   0.923  40.343  1.00  0.00    -0.271 OA
BRANCH  26  30
HETATM   30  C2  UNL     1      14.223   3.169  38.774  1.00  0.00     0.273 C 
HETATM   31  C3  UNL     1      13.796   4.610  38.433  1.00  0.00     0.050 C 
BRANCH  30  32
HETATM   32  N1  UNL     1      15.121   2.747  37.707  1.00  0.00    -0.067 N 
HETATM   33  C1  UNL     1      16.491   3.087  37.923  1.00  0.00     0.267 C 
ATOM     34  H12 UNL     1      14.802   3.109  36.808  1.00  0.00     0.277 HD
ATOM     35  H11 UNL     1      15.025   1.745  37.536  1.00  0.00     0.277 HD
ENDBRANCH  30  32
ENDBRANCH  26  30
ENDBRANCH  23  24
BRANCH  23  36
HETATM   36  C24 UNL     1      14.289  -1.953  40.138  1.00  0.00    -0.011 C 
HETATM   37  C25 UNL     1      15.735  -2.274  40.239  1.00  0.00     0.017 C 
HETATM   38  C26 UNL     1      13.919  -1.623  38.674  1.00  0.00     0.017 C 
HETATM   39  C27 UNL     1      13.586  -3.302  40.377  1.00  0.00     0.017 C 
ENDBRANCH  23  36
ENDBRANCH  17  23
ENDBRANCH  13  16
ENDBRANCH  11  12
BRANCH  11  40
HETATM   40  C16 UNL     1      18.190   1.528  44.579  1.00  0.00     0.009 C 
HETATM   41  C17 UNL     1      17.968   0.660  45.791  1.00  0.00     0.012 C 
HETATM   42  C18 UNL     1      18.769   0.731  43.439  1.00  0.00     0.012 C 
ENDBRANCH  11  40
ENDBRANCH   1  11
TORSDOF 9
ENDMDL
MODEL 4
REMARK VINA RESULT: -5.491125817      1.110      1.274
REMARK  9 active torsions:
REMARK  status: ('A' for Active; 'I' for Inactive)
REMARK    1  A    between atoms: N1_2  and  C2_5 
REMARK    2  A    between atoms: C2_5  and  C4_7 
REMARK       I    between atoms: C4_7  and  N2_9 
REMARK       I    between atoms: N2_9  and  C5_11 
REMARK    3  A    between atoms: C5_11  and  C6_13 
REMARK    4  A    between atoms: C6_13  and  N3_14 
REMARK    5  A    between atoms: C6_13  and  C24_39 
REMARK    6  A    between atoms: C7_15  and  C8_16 
REMARK       I    between atoms: C8_16  and  N4_18 
REMARK    7  A    between atoms: N4_18  and  C9_20 
REMARK    8  A    between atoms: C9_20  and  C10_21 
REMARK    9  A    between atoms: C9_20  and  C16_31 
REMARK       I    between atoms: C10_21  and  N5_23 
ROOT
HETATM    1  C10 UNL     1      17.926   4.902  42.764  1.00  0.00     0.244 C 
HETATM    2  O4  UNL     1      18.496   4.869  41.623  1.00  0.00    -0.271 OA
HETATM    3  N5  UNL     1      17.138   6.026  43.088  1.00  0.00    -0.330 N 
HETATM    4  C11 UNL     1      16.349   6.331  44.263  1.00  0.00     0.164 C 
HETATM    5  C12 UNL     1      16.793   7.756  44.603  1.00  0.00     0.191 C 
HETATM    6  F1  UNL     1      15.780   8.421  45.229  1.00  0.00    -0.248 F 
HETATM    7  C13 UNL     1      17.143   8.349  43.244  1.00  0.00     0.079 C 
HETATM    8  C14 UNL     1      16.945   7.230  42.250  1.00  0.00     0.197 C 
HETATM    9  C15 UNL     1      15.583   7.226  41.746  1.00  0.00     0.085 C 
HETATM   10  N6  UNL     1      14.493   7.240  41.347  1.00  0.00    -0.195 NA
ENDROOT
BRANCH   1  11
HETATM   11  C9  UNL     1      18.159   3.726  43.646  1.00  0.00     0.180 C 
BRANCH  11  12
HETATM   12  N4  UNL     1      17.006   2.814  43.566  1.00  0.00    -0.346 N 
HETATM   13  C8  UNL     1      16.144   2.594  44.634  1.00  0.00     0.252 C 
HETATM   14  O3  UNL     1      16.411   3.231  45.716  1.00  0.00    -0.271 OA
ATOM     15  H4  UNL     1      16.832   2.323  42.688  1.00  0.00     0.163 HD
BRANCH  13  16
HETATM   16  C7  UNL     1      14.955   1.728  44.711  1.00  0.00     0.316 C 
HETATM   17  N3  UNL     1      15.136   0.394  44.193  1.00  0.00     0.121 N 
HETATM   18  C23 UNL     1      15.082  -0.492  45.342  1.00  0.00     0.229 A 
HETATM   19  C20 UNL     1      14.780   0.308  46.592  1.00  0.00     0.021 A 
HETATM   20  C22 UNL     1      16.424  -0.827  45.940  1.00  0.00     0.036 A 
HETATM   21  C19 UNL     1      14.531   1.689  46.132  1.00  0.00     0.052 C 
HETATM   22  C21 UNL     1      16.174   0.062  47.108  1.00  0.00     0.009 A 
BRANCH  17  23
HETATM   23  C6  UNL     1      13.997   0.074  43.315  1.00  0.00     0.323 C 
BRANCH  23  24
HETATM   24  C5  UNL     1      14.445   0.364  41.870  1.00  0.00     0.258 C 
HETATM   25  N2  UNL     1      13.513   0.970  40.991  1.00  0.00    -0.294 N 
HETATM   26  C4  UNL     1      13.730   1.301  39.657  1.00  0.00     0.254 C 
ATOM     27  H2  UNL     1      12.592   1.183  41.373  1.00  0.00     0.171 HD
HETATM   28  O1  UNL     1      12.719   1.780  39.013  1.00  0.00    -0.271 OA
HETATM   29  O2  UNL     1      15.580   0.092  41.466  1.00  0.00    -0.271 OA
BRANCH  26  30
HETATM   30  C2  UNL     1      14.953   1.187  38.861  1.00  0.00     0.273 C 
HETATM   31  C3  UNL     1      14.913   2.069  37.597  1.00  0.00     0.050 C 
BRANCH  30  32
HETATM   32  N1  UNL     1      15.193  -0.174  38.401  1.00  0.00    -0.067 N 
HETATM   33  C1  UNL     1      16.557  -0.456  38.083  1.00  0.00     0.267 C 
ATOM     34  H12 UNL     1      14.590  -0.393  37.608  1.00  0.00     0.277 HD
ATOM     35  H11 UNL     1      14.839  -0.847  39.082  1.00  0.00     0.277 HD
ENDBRANCH  30  32
ENDBRANCH  26  30
ENDBRANCH  23  24
BRANCH  23  36
HETATM   36  C24 UNL     1      13.667  -1.402  43.295  1.00  0.00    -0.011 C 
HETATM   37  C25 UNL     1      14.779  -2.386  43.306  1.00  0.00     0.017 C 
HETATM   38  C26 UNL     1      12.707  -1.698  42.120  1.00  0.00     0.017 C 
HETATM   39  C27 UNL     1      12.825  -1.770  44.531  1.00  0.00     0.017 C 
ENDBRANCH  23  36
ENDBRANCH  17  23
ENDBRANCH  13  16
ENDBRANCH  11  12
BRANCH  11  40
HETATM   40  C16 UNL     1      19.367   2.940  43.188  1.00  0.00     0.009 C 
HETATM   41  C17 UNL     1      20.664   3.406  43.799  1.00  0.00     0.012 C 
HETATM   42  C18 UNL     1      19.188   1.454  43.362  1.00  0.00     0.012 C 
ENDBRANCH  11  40
ENDBRANCH   1  11
TORSDOF 9
ENDMDL
MODEL 5
REMARK VINA RESULT: -5.444165462      2.895      5.568
REMARK  9 active torsions:
REMARK  status: ('A' for Active; 'I' for Inactive)
REMARK    1  A    between atoms: N1_2  and  C2_5 
REMARK    2  A    between atoms: C2_5  and  C4_7 
REMARK       I    between atoms: C4_7  and  N2_9 
REMARK       I    between atoms: N2_9  and  C5_11 
REMARK    3  A    between atoms: C5_11  and  C6_13 
REMARK    4  A    between atoms: C6_13  and  N3_14 
REMARK    5  A    between atoms: C6_13  and  C24_39 
REMARK    6  A    between atoms: C7_15  and  C8_16 
REMARK       I    between atoms: C8_16  and  N4_18 
REMARK    7  A    between atoms: N4_18  and  C9_20 
REMARK    8  A    between atoms: C9_20  and  C10_21 
REMARK    9  A    between atoms: C9_20  and  C16_31 
REMARK       I    between atoms: C10_21  and  N5_23 
ROOT
HETATM    1  C10 UNL     1      16.828   4.181  44.696  1.00  0.00     0.244 C 
HETATM    2  O4  UNL     1      16.411   3.814  45.845  1.00  0.00    -0.271 OA
HETATM    3  N5  UNL     1      16.724   5.543  44.347  1.00  0.00    -0.330 N 
HETATM    4  C11 UNL     1      17.137   6.258  43.158  1.00  0.00     0.164 C 
HETATM    5  C12 UNL     1      15.889   7.071  42.806  1.00  0.00     0.191 C 
HETATM    6  F1  UNL     1      16.248   8.216  42.157  1.00  0.00    -0.248 F 
HETATM    7  C13 UNL     1      15.245   7.332  44.162  1.00  0.00     0.079 C 
HETATM    8  C14 UNL     1      16.110   6.612  45.167  1.00  0.00     0.197 C 
HETATM    9  C15 UNL     1      17.167   7.482  45.652  1.00  0.00     0.085 C 
HETATM   10  N6  UNL     1      18.002   8.192  46.037  1.00  0.00    -0.195 NA
ENDROOT
BRANCH   1  11
HETATM   11  C9  UNL     1      17.392   3.107  43.833  1.00  0.00     0.180 C 
BRANCH  11  12
HETATM   12  N4  UNL     1      16.655   1.853  44.060  1.00  0.00    -0.346 N 
HETATM   13  C8  UNL     1      17.247   0.720  44.606  1.00  0.00     0.252 C 
HETATM   14  O3  UNL     1      18.493   0.820  44.901  1.00  0.00    -0.271 OA
ATOM     15  H4  UNL     1      15.668   1.815  43.807  1.00  0.00     0.163 HD
BRANCH  13  16
HETATM   16  C7  UNL     1      16.651  -0.594  44.900  1.00  0.00     0.316 C 
HETATM   17  N3  UNL     1      15.850  -1.154  43.839  1.00  0.00     0.121 N 
HETATM   18  C23 UNL     1      16.589  -2.299  43.341  1.00  0.00     0.229 A 
HETATM   19  C20 UNL     1      17.841  -2.501  44.169  1.00  0.00     0.021 A 
HETATM   20  C22 UNL     1      17.478  -2.008  42.159  1.00  0.00     0.036 A 
HETATM   21  C19 UNL     1      17.761  -1.509  45.261  1.00  0.00     0.052 C 
HETATM   22  C21 UNL     1      18.701  -2.082  43.005  1.00  0.00     0.009 A 
BRANCH  17  23
HETATM   23  C6  UNL     1      14.584  -1.641  44.414  1.00  0.00     0.323 C 
BRANCH  23  24
HETATM   24  C5  UNL     1      14.413  -0.948  45.780  1.00  0.00     0.258 C 
HETATM   25  N2  UNL     1      14.448  -1.753  46.946  1.00  0.00    -0.294 N 
HETATM   26  C4  UNL     1      14.306  -1.313  48.258  1.00  0.00     0.254 C 
ATOM     27  H2  UNL     1      14.590  -2.754  46.809  1.00  0.00     0.171 HD
HETATM   28  O1  UNL     1      14.296  -2.227  49.171  1.00  0.00    -0.271 OA
HETATM   29  O2  UNL     1      14.253   0.272  45.883  1.00  0.00    -0.271 OA
BRANCH  26  30
HETATM   30  C2  UNL     1      14.165   0.051  48.768  1.00  0.00     0.273 C 
HETATM   31  C3  UNL     1      15.483   0.595  49.355  1.00  0.00     0.050 C 
BRANCH  30  32
HETATM   32  N1  UNL     1      13.174   0.148  49.831  1.00  0.00    -0.067 N 
HETATM   33  C1  UNL     1      12.980   1.470  50.335  1.00  0.00     0.267 C 
ATOM     34  H12 UNL     1      13.403  -0.492  50.591  1.00  0.00     0.277 HD
ATOM     35  H11 UNL     1      12.286  -0.251  49.527  1.00  0.00     0.277 HD
ENDBRANCH  30  32
ENDBRANCH  26  30
ENDBRANCH  23  24
BRANCH  23  36
HETATM   36  C24 UNL     1      13.371  -1.189  43.632  1.00  0.00    -0.011 C 
HETATM   37  C25 UNL     1      13.282   0.229  43.202  1.00  0.00     0.017 C 
HETATM   38  C26 UNL     1      12.089  -1.596  44.393  1.00  0.00     0.017 C 
HETATM   39  C27 UNL     1      13.264  -1.988  42.320  1.00  0.00     0.017 C 
ENDBRANCH  23  36
ENDBRANCH  17  23
ENDBRANCH  13  16
ENDBRANCH  11  12
BRANCH  11  40
HETATM   40  C16 UNL     1      17.226   3.449  42.370  1.00  0.00     0.009 C 
HETATM   41  C17 UNL     1      18.450   3.169  41.536  1.00  0.00     0.012 C 
HETATM   42  C18 UNL     1      16.000   2.816  41.764  1.00  0.00     0.012 C 
ENDBRANCH  11  40
ENDBRANCH   1  11
TORSDOF 9
ENDMDL
