MODEL 1
REMARK VINA RESULT: -11.106270398      0.000      0.000
REMARK  13 active torsions:
REMARK  status: ('A' for Active; 'I' for Inactive)
REMARK    1  A    between atoms: C3_3  and  C4_4 
REMARK    2  A    between atoms: C4_4  and  C5_5 
REMARK    3  A    between atoms: C5_5  and  N1_6 
REMARK    4  A    between atoms: C7_8  and  C8_9 
REMARK    5  A    between atoms: C8_9  and  C9_10 
REMARK    6  A    between atoms: C19_25  and  C20_26 
REMARK    7  A    between atoms: C20_26  and  C21_27 
REMARK    8  A    between atoms: C21_27  and  C22_28 
REMARK    9  A    between atoms: C22_28  and  C23_29 
REMARK       I    between atoms: C23_29  and  N4_31 
REMARK   10  A    between atoms: N4_31  and  C24_33 
REMARK   11  A    between atoms: C24_33  and  C25_34 
REMARK   12  A    between atoms: C25_34  and  N5_35 
REMARK       I    between atoms: N5_35  and  C26_36 
REMARK   13  A    between atoms: C26_36  and  C27_38 
ROOT
HETATM    1  C1  UNL     1      19.130  21.840  16.948  1.00  0.00     0.046 C 
HETATM    2  C2  UNL     1      17.894  21.627  17.718  1.00  0.00    -0.054 C 
HETATM    3  C3  UNL     1      18.029  21.391  19.023  1.00  0.00     0.050 C 
HETATM    4  O1  UNL     1      16.906  21.162  19.862  1.00  0.00    -0.350 OA
HETATM    5  C19 UNL     1      15.694  20.420  19.454  1.00  0.00     0.128 C 
HETATM    6  C35 UNL     1      14.847  21.477  18.829  1.00  0.00     0.033 C 
HETATM    7  C36 UNL     1      15.665  22.474  17.984  1.00  0.00     0.007 C 
HETATM    8  C37 UNL     1      16.562  21.722  16.989  1.00  0.00     0.036 C 
ENDROOT
BRANCH   5   9
HETATM    9  C20 UNL     1      15.190  19.724  20.654  1.00  0.00     0.033 C 
BRANCH   9  10
HETATM   10  C21 UNL     1      14.494  18.441  20.407  1.00  0.00     0.012 C 
BRANCH  10  11
HETATM   11  C22 UNL     1      13.198  18.153  21.028  1.00  0.00     0.103 C 
BRANCH  11  12
HETATM   12  C23 UNL     1      12.149  17.914  19.981  1.00  0.00     0.217 C 
HETATM   13  O2  UNL     1      11.759  18.862  19.292  1.00  0.00    -0.274 OA
HETATM   14  N4  UNL     1      11.668  16.616  19.838  1.00  0.00    -0.355 N 
ATOM     15  H4  UNL     1      12.094  15.927  20.458  1.00  0.00     0.162 HD
BRANCH  14  16
HETATM   16  C24 UNL     1      10.677  16.103  18.964  1.00  0.00     0.182 C 
BRANCH  16  17
HETATM   17  C25 UNL     1      11.004  15.735  17.589  1.00  0.00     0.178 C 
BRANCH  17  18
HETATM   18  N5  UNL     1      10.934  16.572  16.498  1.00  0.00    -0.385 NA
HETATM   19  C26 UNL     1      10.862  17.389  15.428  1.00  0.00     0.311 C 
HETATM   20  O3  UNL     1      10.008  17.311  14.474  1.00  0.00    -0.255 OA
BRANCH  19  21
HETATM   21  C27 UNL     1      11.849  18.540  15.247  1.00  0.00     0.193 C 
HETATM   22  C28 UNL     1      11.668  19.138  13.898  1.00  0.00     0.040 C 
HETATM   23  C29 UNL     1      11.873  20.648  14.048  1.00  0.00     0.025 C 
HETATM   24  C30 UNL     1      10.655  21.175  14.789  1.00  0.00     0.024 C 
HETATM   25  C32 UNL     1      13.063  20.857  14.964  1.00  0.00     0.079 C 
HETATM   26  C31 UNL     1      10.450  20.310  16.004  1.00  0.00     0.122 C 
HETATM   27  N6  UNL     1      11.674  19.549  16.240  1.00  0.00    -0.181 NA
HETATM   28  O4  UNL     1      12.760  20.359  16.213  1.00  0.00    -0.292 OA
HETATM   29  C33 UNL     1      14.276  20.212  14.331  1.00  0.00     0.048 C 
HETATM   30  C34 UNL     1      13.354  22.365  15.040  1.00  0.00     0.048 C 
ENDBRANCH  19  21
ENDBRANCH  17  18
ENDBRANCH  16  17
ENDBRANCH  14  16
ENDBRANCH  11  12
ENDBRANCH  10  11
ENDBRANCH   9  10
ENDBRANCH   5   9
BRANCH   3  31
HETATM   31  C4  UNL     1      19.364  21.360  19.607  1.00  0.00     0.086 C 
BRANCH  31  32
HETATM   32  C5  UNL     1      19.637  22.518  20.552  1.00  0.00     0.156 C 
BRANCH  32  33
HETATM   33  N1  UNL     1      20.570  23.482  20.038  1.00  0.00    -0.287 N 
HETATM   34  C6  UNL     1      20.167  24.579  19.326  1.00  0.00     0.138 A 
HETATM   35  C7  UNL     1      21.259  25.332  18.957  1.00  0.00     0.045 A 
HETATM   36  N2  UNL     1      22.316  24.672  19.459  1.00  0.00    -0.289 N 
HETATM   37  N3  UNL     1      21.875  23.585  20.091  1.00  0.00    -0.241 N 
ATOM     38  H2  UNL     1      23.291  24.956  19.371  1.00  0.00     0.188 HD
ATOM     39  H3  UNL     1      22.482  22.913  20.561  1.00  0.00     0.208 HD
BRANCH  35  40
HETATM   40  C8  UNL     1      21.272  26.567  18.179  1.00  0.00     0.069 C 
BRANCH  40  41
HETATM   41  C9  UNL     1      21.548  26.414  16.717  1.00  0.00    -0.034 C 
HETATM   42  C10 UNL     1      20.781  25.258  16.106  1.00  0.00     0.014 C 
HETATM   43  C11 UNL     1      21.174  25.115  14.673  1.00  0.00    -0.013 C 
HETATM   44  C12 UNL     1      22.646  24.813  14.561  1.00  0.00     0.009 C 
HETATM   45  C16 UNL     1      20.791  26.355  13.919  1.00  0.00     0.009 C 
HETATM   46  C13 UNL     1      23.403  26.013  15.080  1.00  0.00    -0.013 C 
HETATM   47  C14 UNL     1      23.024  27.256  14.328  1.00  0.00     0.009 C 
HETATM   48  C18 UNL     1      23.045  26.197  16.537  1.00  0.00     0.014 C 
HETATM   49  C15 UNL     1      21.560  27.524  14.507  1.00  0.00    -0.013 C 
HETATM   50  C17 UNL     1      21.180  27.667  15.966  1.00  0.00     0.014 C 
ENDBRANCH  40  41
ENDBRANCH  35  40
ENDBRANCH  32  33
ENDBRANCH  31  32
ENDBRANCH   3  31
TORSDOF 13
ENDMDL
MODEL 2
REMARK VINA RESULT: -10.727946161      1.447      1.844
REMARK  13 active torsions:
REMARK  status: ('A' for Active; 'I' for Inactive)
REMARK    1  A    between atoms: C3_3  and  C4_4 
REMARK    2  A    between atoms: C4_4  and  C5_5 
REMARK    3  A    between atoms: C5_5  and  N1_6 
REMARK    4  A    between atoms: C7_8  and  C8_9 
REMARK    5  A    between atoms: C8_9  and  C9_10 
REMARK    6  A    between atoms: C19_25  and  C20_26 
REMARK    7  A    between atoms: C20_26  and  C21_27 
REMARK    8  A    between atoms: C21_27  and  C22_28 
REMARK    9  A    between atoms: C22_28  and  C23_29 
REMARK       I    between atoms: C23_29  and  N4_31 
REMARK   10  A    between atoms: N4_31  and  C24_33 
REMARK   11  A    between atoms: C24_33  and  C25_34 
REMARK   12  A    between atoms: C25_34  and  N5_35 
REMARK       I    between atoms: N5_35  and  C26_36 
REMARK   13  A    between atoms: C26_36  and  C27_38 
ROOT
HETATM    1  C1  UNL     1      18.178  21.687  16.519  1.00  0.00     0.046 C 
HETATM    2  C2  UNL     1      17.010  21.120  17.214  1.00  0.00    -0.054 C 
HETATM    3  C3  UNL     1      17.153  20.850  18.511  1.00  0.00     0.050 C 
HETATM    4  O1  UNL     1      16.096  20.293  19.279  1.00  0.00    -0.350 OA
HETATM    5  C19 UNL     1      15.133  19.291  18.776  1.00  0.00     0.128 C 
HETATM    6  C35 UNL     1      14.066  20.131  18.158  1.00  0.00     0.033 C 
HETATM    7  C36 UNL     1      14.630  21.351  17.404  1.00  0.00     0.007 C 
HETATM    8  C37 UNL     1      15.728  20.913  16.422  1.00  0.00     0.036 C 
ENDROOT
BRANCH   5   9
HETATM    9  C20 UNL     1      14.781  18.420  19.913  1.00  0.00     0.033 C 
BRANCH   9  10
HETATM   10  C21 UNL     1      13.508  18.741  20.598  1.00  0.00     0.012 C 
BRANCH  10  11
HETATM   11  C22 UNL     1      12.529  17.692  20.901  1.00  0.00     0.103 C 
BRANCH  11  12
HETATM   12  C23 UNL     1      11.658  17.418  19.709  1.00  0.00     0.217 C 
HETATM   13  O2  UNL     1      11.381  18.344  18.940  1.00  0.00    -0.274 OA
HETATM   14  N4  UNL     1      11.207  16.114  19.529  1.00  0.00    -0.355 N 
ATOM     15  H4  UNL     1      11.531  15.445  20.228  1.00  0.00     0.162 HD
BRANCH  14  16
HETATM   16  C24 UNL     1      10.367  15.571  18.525  1.00  0.00     0.182 C 
BRANCH  16  17
HETATM   17  C25 UNL     1      10.928  14.960  17.323  1.00  0.00     0.178 C 
BRANCH  17  18
HETATM   18  N5  UNL     1      11.358  15.640  16.205  1.00  0.00    -0.385 NA
HETATM   19  C26 UNL     1      11.782  16.300  15.109  1.00  0.00     0.311 C 
HETATM   20  O3  UNL     1      12.457  15.800  14.139  1.00  0.00    -0.255 OA
BRANCH  19  21
HETATM   21  C27 UNL     1      11.481  17.784  14.919  1.00  0.00     0.193 C 
HETATM   22  C28 UNL     1      12.369  18.337  13.861  1.00  0.00     0.040 C 
HETATM   23  C29 UNL     1      11.543  19.357  13.073  1.00  0.00     0.025 C 
HETATM   24  C30 UNL     1      10.542  18.558  12.254  1.00  0.00     0.024 C 
HETATM   25  C32 UNL     1      10.740  20.164  14.074  1.00  0.00     0.079 C 
HETATM   26  C31 UNL     1       9.866  17.585  13.183  1.00  0.00     0.122 C 
HETATM   27  N6  UNL     1      10.119  18.008  14.557  1.00  0.00    -0.181 NA
HETATM   28  O4  UNL     1       9.852  19.327  14.715  1.00  0.00    -0.292 OA
HETATM   29  C33 UNL     1      11.701  20.862  15.010  1.00  0.00     0.048 C 
HETATM   30  C34 UNL     1       9.987  21.267  13.311  1.00  0.00     0.048 C 
ENDBRANCH  19  21
ENDBRANCH  17  18
ENDBRANCH  16  17
ENDBRANCH  14  16
ENDBRANCH  11  12
ENDBRANCH  10  11
ENDBRANCH   9  10
ENDBRANCH   5   9
BRANCH   3  31
HETATM   31  C4  UNL     1      18.427  21.128  19.162  1.00  0.00     0.086 C 
BRANCH  31  32
HETATM   32  C5  UNL     1      18.398  22.363  20.046  1.00  0.00     0.156 C 
BRANCH  32  33
HETATM   33  N1  UNL     1      18.690  23.585  19.349  1.00  0.00    -0.287 N 
HETATM   34  C6  UNL     1      19.968  24.052  19.201  1.00  0.00     0.138 A 
HETATM   35  C7  UNL     1      19.962  25.235  18.498  1.00  0.00     0.045 A 
HETATM   36  N2  UNL     1      18.666  25.467  18.227  1.00  0.00    -0.289 N 
HETATM   37  N3  UNL     1      17.942  24.475  18.744  1.00  0.00    -0.241 N 
ATOM     38  H2  UNL     1      18.299  26.267  17.713  1.00  0.00     0.188 HD
ATOM     39  H3  UNL     1      16.927  24.414  18.675  1.00  0.00     0.208 HD
BRANCH  35  40
HETATM   40  C8  UNL     1      21.106  26.068  18.136  1.00  0.00     0.069 C 
BRANCH  40  41
HETATM   41  C9  UNL     1      21.466  26.087  16.685  1.00  0.00    -0.034 C 
HETATM   42  C10 UNL     1      20.778  24.981  15.908  1.00  0.00     0.014 C 
HETATM   43  C11 UNL     1      21.254  25.011  14.494  1.00  0.00    -0.013 C 
HETATM   44  C12 UNL     1      22.741  24.771  14.436  1.00  0.00     0.009 C 
HETATM   45  C16 UNL     1      20.864  26.313  13.858  1.00  0.00     0.009 C 
HETATM   46  C13 UNL     1      23.421  25.930  15.125  1.00  0.00    -0.013 C 
HETATM   47  C14 UNL     1      23.035  27.236  14.493  1.00  0.00     0.009 C 
HETATM   48  C18 UNL     1      22.978  25.940  16.570  1.00  0.00     0.014 C 
HETATM   49  C15 UNL     1      21.555  27.435  14.614  1.00  0.00    -0.013 C 
HETATM   50  C17 UNL     1      21.091  27.403  16.055  1.00  0.00     0.014 C 
ENDBRANCH  40  41
ENDBRANCH  35  40
ENDBRANCH  32  33
ENDBRANCH  31  32
ENDBRANCH   3  31
TORSDOF 13
ENDMDL
MODEL 3
REMARK VINA RESULT: -10.639187389      1.396      2.411
REMARK  13 active torsions:
REMARK  status: ('A' for Active; 'I' for Inactive)
REMARK    1  A    between atoms: C3_3  and  C4_4 
REMARK    2  A    between atoms: C4_4  and  C5_5 
REMARK    3  A    between atoms: C5_5  and  N1_6 
REMARK    4  A    between atoms: C7_8  and  C8_9 
REMARK    5  A    between atoms: C8_9  and  C9_10 
REMARK    6  A    between atoms: C19_25  and  C20_26 
REMARK    7  A    between atoms: C20_26  and  C21_27 
REMARK    8  A    between atoms: C21_27  and  C22_28 
REMARK    9  A    between atoms: C22_28  and  C23_29 
REMARK       I    between atoms: C23_29  and  N4_31 
REMARK   10  A    between atoms: N4_31  and  C24_33 
REMARK   11  A    between atoms: C24_33  and  C25_34 
REMARK   12  A    between atoms: C25_34  and  N5_35 
REMARK       I    between atoms: N5_35  and  C26_36 
REMARK   13  A    between atoms: C26_36  and  C27_38 
ROOT
HETATM    1  C1  UNL     1      20.170  22.575  16.774  1.00  0.00     0.046 C 
HETATM    2  C2  UNL     1      18.854  22.747  17.411  1.00  0.00    -0.054 C 
HETATM    3  C3  UNL     1      18.720  22.284  18.654  1.00  0.00     0.050 C 
HETATM    4  O1  UNL     1      17.493  22.388  19.362  1.00  0.00    -0.350 OA
HETATM    5  C19 UNL     1      16.156  22.246  18.746  1.00  0.00     0.128 C 
HETATM    6  C35 UNL     1      15.853  23.631  18.280  1.00  0.00     0.033 C 
HETATM    7  C36 UNL     1      17.086  24.345  17.692  1.00  0.00     0.007 C 
HETATM    8  C37 UNL     1      17.760  23.461  16.631  1.00  0.00     0.036 C 
ENDROOT
BRANCH   5   9
HETATM    9  C20 UNL     1      15.278  21.630  19.759  1.00  0.00     0.033 C 
BRANCH   9  10
HETATM   10  C21 UNL     1      15.799  20.400  20.398  1.00  0.00     0.012 C 
BRANCH  10  11
HETATM   11  C22 UNL     1      14.966  19.614  21.312  1.00  0.00     0.103 C 
BRANCH  11  12
HETATM   12  C23 UNL     1      14.177  18.582  20.558  1.00  0.00     0.217 C 
HETATM   13  O2  UNL     1      14.724  17.955  19.646  1.00  0.00    -0.274 OA
HETATM   14  N4  UNL     1      12.853  18.381  20.939  1.00  0.00    -0.355 N 
ATOM     15  H4  UNL     1      12.539  18.952  21.723  1.00  0.00     0.162 HD
BRANCH  14  16
HETATM   16  C24 UNL     1      11.875  17.505  20.405  1.00  0.00     0.182 C 
BRANCH  16  17
HETATM   17  C25 UNL     1      11.331  17.712  19.065  1.00  0.00     0.178 C 
BRANCH  17  18
HETATM   18  N5  UNL     1      11.770  18.649  18.157  1.00  0.00    -0.385 NA
HETATM   19  C26 UNL     1      12.205  19.568  17.272  1.00  0.00     0.311 C 
HETATM   20  O3  UNL     1      13.303  20.228  17.345  1.00  0.00    -0.255 OA
BRANCH  19  21
HETATM   21  C27 UNL     1      11.379  19.926  16.039  1.00  0.00     0.193 C 
HETATM   22  C28 UNL     1      12.257  20.571  15.026  1.00  0.00     0.040 C 
HETATM   23  C29 UNL     1      11.783  20.089  13.653  1.00  0.00     0.025 C 
HETATM   24  C30 UNL     1      12.199  18.631  13.543  1.00  0.00     0.024 C 
HETATM   25  C32 UNL     1      10.267  20.109  13.661  1.00  0.00     0.079 C 
HETATM   26  C31 UNL     1      11.742  17.930  14.795  1.00  0.00     0.122 C 
HETATM   27  N6  UNL     1      10.758  18.777  15.464  1.00  0.00    -0.181 NA
HETATM   28  O4  UNL     1       9.812  19.201  14.592  1.00  0.00    -0.292 OA
HETATM   29  C33 UNL     1       9.807  21.527  13.919  1.00  0.00     0.048 C 
HETATM   30  C34 UNL     1       9.773  19.733  12.254  1.00  0.00     0.048 C 
ENDBRANCH  19  21
ENDBRANCH  17  18
ENDBRANCH  16  17
ENDBRANCH  14  16
ENDBRANCH  11  12
ENDBRANCH  10  11
ENDBRANCH   9  10
ENDBRANCH   5   9
BRANCH   3  31
HETATM   31  C4  UNL     1      19.858  21.649  19.305  1.00  0.00     0.086 C 
BRANCH  31  32
HETATM   32  C5  UNL     1      20.313  22.366  20.564  1.00  0.00     0.156 C 
BRANCH  32  33
HETATM   33  N1  UNL     1      20.669  23.743  20.354  1.00  0.00    -0.287 N 
HETATM   34  C6  UNL     1      21.555  24.127  19.385  1.00  0.00     0.138 A 
HETATM   35  C7  UNL     1      21.712  25.494  19.402  1.00  0.00     0.045 A 
HETATM   36  N2  UNL     1      20.909  25.920  20.391  1.00  0.00    -0.289 N 
HETATM   37  N3  UNL     1      20.308  24.862  20.933  1.00  0.00    -0.241 N 
ATOM     38  H2  UNL     1      20.782  26.890  20.679  1.00  0.00     0.188 HD
ATOM     39  H3  UNL     1      19.645  24.916  21.706  1.00  0.00     0.208 HD
BRANCH  35  40
HETATM   40  C8  UNL     1      22.574  26.307  18.547  1.00  0.00     0.069 C 
BRANCH  40  41
HETATM   41  C9  UNL     1      22.148  26.428  17.119  1.00  0.00    -0.034 C 
HETATM   42  C10 UNL     1      22.895  25.468  16.214  1.00  0.00     0.014 C 
HETATM   43  C11 UNL     1      22.481  25.709  14.801  1.00  0.00    -0.013 C 
HETATM   44  C12 UNL     1      22.831  27.114  14.384  1.00  0.00     0.009 C 
HETATM   45  C16 UNL     1      21.017  25.420  14.647  1.00  0.00     0.009 C 
HETATM   46  C13 UNL     1      22.007  28.061  15.223  1.00  0.00    -0.013 C 
HETATM   47  C14 UNL     1      20.539  27.778  15.074  1.00  0.00     0.009 C 
HETATM   48  C18 UNL     1      22.394  27.863  16.671  1.00  0.00     0.014 C 
HETATM   49  C15 UNL     1      20.248  26.382  15.536  1.00  0.00    -0.013 C 
HETATM   50  C17 UNL     1      20.674  26.156  16.972  1.00  0.00     0.014 C 
ENDBRANCH  40  41
ENDBRANCH  35  40
ENDBRANCH  32  33
ENDBRANCH  31  32
ENDBRANCH   3  31
TORSDOF 13
ENDMDL
MODEL 4
REMARK VINA RESULT: -10.495553313      1.938      3.125
REMARK  13 active torsions:
REMARK  status: ('A' for Active; 'I' for Inactive)
REMARK    1  A    between atoms: C3_3  and  C4_4 
REMARK    2  A    between atoms: C4_4  and  C5_5 
REMARK    3  A    between atoms: C5_5  and  N1_6 
REMARK    4  A    between atoms: C7_8  and  C8_9 
REMARK    5  A    between atoms: C8_9  and  C9_10 
REMARK    6  A    between atoms: C19_25  and  C20_26 
REMARK    7  A    between atoms: C20_26  and  C21_27 
REMARK    8  A    between atoms: C21_27  and  C22_28 
REMARK    9  A    between atoms: C22_28  and  C23_29 
REMARK       I    between atoms: C23_29  and  N4_31 
REMARK   10  A    between atoms: N4_31  and  C24_33 
REMARK   11  A    between atoms: C24_33  and  C25_34 
REMARK   12  A    between atoms: C25_34  and  N5_35 
REMARK       I    between atoms: N5_35  and  C26_36 
REMARK   13  A    between atoms: C26_36  and  C27_38 
ROOT
HETATM    1  C1  UNL     1      16.697  22.465  14.236  1.00  0.00     0.046 C 
HETATM    2  C2  UNL     1      15.674  21.824  15.079  1.00  0.00    -0.054 C 
HETATM    3  C3  UNL     1      15.533  22.294  16.318  1.00  0.00     0.050 C 
HETATM    4  O1  UNL     1      14.584  21.746  17.222  1.00  0.00    -0.350 OA
HETATM    5  C19 UNL     1      14.240  20.310  17.307  1.00  0.00     0.128 C 
HETATM    6  C35 UNL     1      13.161  20.163  16.287  1.00  0.00     0.033 C 
HETATM    7  C36 UNL     1      13.426  20.990  15.014  1.00  0.00     0.007 C 
HETATM    8  C37 UNL     1      14.837  20.706  14.476  1.00  0.00     0.036 C 
ENDROOT
BRANCH   5   9
HETATM    9  C20 UNL     1      13.927  20.025  18.720  1.00  0.00     0.033 C 
BRANCH   9  10
HETATM   10  C21 UNL     1      14.489  18.765  19.260  1.00  0.00     0.012 C 
BRANCH  10  11
HETATM   11  C22 UNL     1      13.754  17.976  20.252  1.00  0.00     0.103 C 
BRANCH  11  12
HETATM   12  C23 UNL     1      12.412  17.566  19.717  1.00  0.00     0.217 C 
HETATM   13  O2  UNL     1      11.393  17.882  20.339  1.00  0.00    -0.274 OA
HETATM   14  N4  UNL     1      12.388  16.845  18.526  1.00  0.00    -0.355 N 
ATOM     15  H4  UNL     1      13.303  16.673  18.108  1.00  0.00     0.162 HD
BRANCH  14  16
HETATM   16  C24 UNL     1      11.291  16.313  17.805  1.00  0.00     0.182 C 
BRANCH  16  17
HETATM   17  C25 UNL     1      11.498  15.494  16.613  1.00  0.00     0.178 C 
BRANCH  17  18
HETATM   18  N5  UNL     1      11.732  15.973  15.344  1.00  0.00    -0.385 NA
HETATM   19  C26 UNL     1      11.964  16.438  14.100  1.00  0.00     0.311 C 
HETATM   20  O3  UNL     1      12.791  15.945  13.251  1.00  0.00    -0.255 OA
BRANCH  19  21
HETATM   21  C27 UNL     1      11.226  17.662  13.566  1.00  0.00     0.193 C 
HETATM   22  C28 UNL     1      12.164  18.498  12.771  1.00  0.00     0.040 C 
HETATM   23  C29 UNL     1      11.369  19.065  11.593  1.00  0.00     0.025 C 
HETATM   24  C30 UNL     1      11.111  17.902  10.648  1.00  0.00     0.024 C 
HETATM   25  C32 UNL     1      10.017  19.502  12.124  1.00  0.00     0.079 C 
HETATM   26  C31 UNL     1      10.556  16.766  11.465  1.00  0.00     0.122 C 
HETATM   27  N6  UNL     1      10.112  17.297  12.751  1.00  0.00    -0.181 NA
HETATM   28  O4  UNL     1       9.337  18.395  12.581  1.00  0.00    -0.292 OA
HETATM   29  C33 UNL     1      10.236  20.561  13.182  1.00  0.00     0.048 C 
HETATM   30  C34 UNL     1       9.244  20.176  10.978  1.00  0.00     0.048 C 
ENDBRANCH  19  21
ENDBRANCH  17  18
ENDBRANCH  16  17
ENDBRANCH  14  16
ENDBRANCH  11  12
ENDBRANCH  10  11
ENDBRANCH   9  10
ENDBRANCH   5   9
BRANCH   3  31
HETATM   31  C4  UNL     1      16.377  23.395  16.764  1.00  0.00     0.086 C 
BRANCH  31  32
HETATM   32  C5  UNL     1      16.380  23.582  18.271  1.00  0.00     0.156 C 
BRANCH  32  33
HETATM   33  N1  UNL     1      17.644  24.015  18.802  1.00  0.00    -0.287 N 
HETATM   34  C6  UNL     1      18.803  23.940  18.078  1.00  0.00     0.138 A 
HETATM   35  C7  UNL     1      19.857  24.419  18.822  1.00  0.00     0.045 A 
HETATM   36  N2  UNL     1      19.313  24.782  19.996  1.00  0.00    -0.289 N 
HETATM   37  N3  UNL     1      18.006  24.530  19.951  1.00  0.00    -0.241 N 
ATOM     38  H2  UNL     1      19.816  25.182  20.787  1.00  0.00     0.188 HD
ATOM     39  H3  UNL     1      17.362  24.717  20.721  1.00  0.00     0.208 HD
BRANCH  35  40
HETATM   40  C8  UNL     1      21.262  24.503  18.433  1.00  0.00     0.069 C 
BRANCH  40  41
HETATM   41  C9  UNL     1      21.545  25.242  17.164  1.00  0.00    -0.034 C 
HETATM   42  C10 UNL     1      20.511  26.314  16.882  1.00  0.00     0.014 C 
HETATM   43  C11 UNL     1      20.811  26.944  15.563  1.00  0.00    -0.013 C 
HETATM   44  C12 UNL     1      20.735  25.918  14.462  1.00  0.00     0.009 C 
HETATM   45  C16 UNL     1      22.150  27.619  15.618  1.00  0.00     0.009 C 
HETATM   46  C13 UNL     1      21.834  24.909  14.697  1.00  0.00    -0.013 C 
HETATM   47  C14 UNL     1      23.177  25.578  14.753  1.00  0.00     0.009 C 
HETATM   48  C18 UNL     1      21.573  24.233  16.024  1.00  0.00     0.014 C 
HETATM   49  C15 UNL     1      23.204  26.558  15.886  1.00  0.00    -0.013 C 
HETATM   50  C17 UNL     1      22.899  25.901  17.216  1.00  0.00     0.014 C 
ENDBRANCH  40  41
ENDBRANCH  35  40
ENDBRANCH  32  33
ENDBRANCH  31  32
ENDBRANCH   3  31
TORSDOF 13
ENDMDL
MODEL 5
REMARK VINA RESULT: -10.479447019      2.456      9.948
REMARK  13 active torsions:
REMARK  status: ('A' for Active; 'I' for Inactive)
REMARK    1  A    between atoms: C3_3  and  C4_4 
REMARK    2  A    between atoms: C4_4  and  C5_5 
REMARK    3  A    between atoms: C5_5  and  N1_6 
REMARK    4  A    between atoms: C7_8  and  C8_9 
REMARK    5  A    between atoms: C8_9  and  C9_10 
REMARK    6  A    between atoms: C19_25  and  C20_26 
REMARK    7  A    between atoms: C20_26  and  C21_27 
REMARK    8  A    between atoms: C21_27  and  C22_28 
REMARK    9  A    between atoms: C22_28  and  C23_29 
REMARK       I    between atoms: C23_29  and  N4_31 
REMARK   10  A    between atoms: N4_31  and  C24_33 
REMARK   11  A    between atoms: C24_33  and  C25_34 
REMARK   12  A    between atoms: C25_34  and  N5_35 
REMARK       I    between atoms: N5_35  and  C26_36 
REMARK   13  A    between atoms: C26_36  and  C27_38 
ROOT
HETATM    1  C1  UNL     1      11.193  14.518  13.398  1.00  0.00     0.046 C 
HETATM    2  C2  UNL     1      11.346  15.978  13.281  1.00  0.00    -0.054 C 
HETATM    3  C3  UNL     1      11.627  16.646  14.400  1.00  0.00     0.050 C 
HETATM    4  O1  UNL     1      11.788  18.057  14.407  1.00  0.00    -0.350 OA
HETATM    5  C19 UNL     1      10.997  18.994  13.580  1.00  0.00     0.128 C 
HETATM    6  C35 UNL     1      11.765  19.044  12.303  1.00  0.00     0.033 C 
HETATM    7  C36 UNL     1      12.323  17.668  11.888  1.00  0.00     0.007 C 
HETATM    8  C37 UNL     1      11.208  16.612  11.906  1.00  0.00     0.036 C 
ENDROOT
BRANCH   5   9
HETATM    9  C20 UNL     1      10.841  20.234  14.364  1.00  0.00     0.033 C 
BRANCH   9  10
HETATM   10  C21 UNL     1      11.966  20.570  15.267  1.00  0.00     0.012 C 
BRANCH  10  11
HETATM   11  C22 UNL     1      12.794  21.756  15.031  1.00  0.00     0.103 C 
BRANCH  11  12
HETATM   12  C23 UNL     1      14.157  21.362  14.537  1.00  0.00     0.217 C 
HETATM   13  O2  UNL     1      14.350  20.200  14.166  1.00  0.00    -0.274 OA
HETATM   14  N4  UNL     1      15.142  22.345  14.518  1.00  0.00    -0.355 N 
ATOM     15  H4  UNL     1      14.838  23.267  14.831  1.00  0.00     0.162 HD
BRANCH  14  16
HETATM   16  C24 UNL     1      16.503  22.263  14.130  1.00  0.00     0.182 C 
BRANCH  16  17
HETATM   17  C25 UNL     1      17.537  22.997  14.854  1.00  0.00     0.178 C 
BRANCH  17  18
HETATM   18  N5  UNL     1      18.277  22.510  15.908  1.00  0.00    -0.385 NA
HETATM   19  C26 UNL     1      19.003  22.027  16.936  1.00  0.00     0.311 C 
HETATM   20  O3  UNL     1      19.574  20.880  16.986  1.00  0.00    -0.255 OA
BRANCH  19  21
HETATM   21  C27 UNL     1      19.216  22.851  18.204  1.00  0.00     0.193 C 
HETATM   22  C28 UNL     1      20.027  22.066  19.173  1.00  0.00     0.040 C 
HETATM   23  C29 UNL     1      20.954  23.056  19.882  1.00  0.00     0.025 C 
HETATM   24  C30 UNL     1      22.002  23.472  18.862  1.00  0.00     0.024 C 
HETATM   25  C32 UNL     1      20.141  24.295  20.200  1.00  0.00     0.079 C 
HETATM   26  C31 UNL     1      21.278  23.874  17.604  1.00  0.00     0.122 C 
HETATM   27  N6  UNL     1      19.871  24.088  17.930  1.00  0.00    -0.181 NA
HETATM   28  O4  UNL     1      19.742  24.884  19.019  1.00  0.00    -0.292 OA
HETATM   29  C33 UNL     1      18.992  23.898  21.100  1.00  0.00     0.048 C 
HETATM   30  C34 UNL     1      21.024  25.258  21.011  1.00  0.00     0.048 C 
ENDBRANCH  19  21
ENDBRANCH  17  18
ENDBRANCH  16  17
ENDBRANCH  14  16
ENDBRANCH  11  12
ENDBRANCH  10  11
ENDBRANCH   9  10
ENDBRANCH   5   9
BRANCH   3  31
HETATM   31  C4  UNL     1      11.769  15.913  15.652  1.00  0.00     0.086 C 
BRANCH  31  32
HETATM   32  C5  UNL     1      10.630  16.158  16.627  1.00  0.00     0.156 C 
BRANCH  32  33
HETATM   33  N1  UNL     1      11.062  16.532  17.946  1.00  0.00    -0.287 N 
HETATM   34  C6  UNL     1      12.363  16.852  18.223  1.00  0.00     0.138 A 
HETATM   35  C7  UNL     1      12.499  17.171  19.555  1.00  0.00     0.045 A 
HETATM   36  N2  UNL     1      11.264  17.039  20.067  1.00  0.00    -0.289 N 
HETATM   37  N3  UNL     1      10.440  16.661  19.091  1.00  0.00    -0.241 N 
ATOM     38  H2  UNL     1      11.002  17.201  21.039  1.00  0.00     0.188 HD
ATOM     39  H3  UNL     1       9.442  16.493  19.221  1.00  0.00     0.208 HD
BRANCH  35  40
HETATM   40  C8  UNL     1      13.717  17.553  20.265  1.00  0.00     0.069 C 
BRANCH  40  41
HETATM   41  C9  UNL     1      14.445  18.740  19.719  1.00  0.00    -0.034 C 
HETATM   42  C10 UNL     1      13.576  19.571  18.795  1.00  0.00     0.014 C 
HETATM   43  C11 UNL     1      14.395  20.681  18.225  1.00  0.00    -0.013 C 
HETATM   44  C12 UNL     1      15.541  20.127  17.419  1.00  0.00     0.009 C 
HETATM   45  C16 UNL     1      14.861  21.583  19.330  1.00  0.00     0.009 C 
HETATM   46  C13 UNL     1      16.453  19.385  18.367  1.00  0.00    -0.013 C 
HETATM   47  C14 UNL     1      16.925  20.283  19.475  1.00  0.00     0.009 C 
HETATM   48  C18 UNL     1      15.672  18.240  18.969  1.00  0.00     0.014 C 
HETATM   49  C15 UNL     1      15.746  20.772  20.261  1.00  0.00    -0.013 C 
HETATM   50  C17 UNL     1      14.928  19.633  20.832  1.00  0.00     0.014 C 
ENDBRANCH  40  41
ENDBRANCH  35  40
ENDBRANCH  32  33
ENDBRANCH  31  32
ENDBRANCH   3  31
TORSDOF 13
ENDMDL
