MODEL 1
REMARK VINA RESULT: -8.966605472      0.000      0.000
REMARK  15 active torsions:
REMARK  status: ('A' for Active; 'I' for Inactive)
REMARK    1  A    between atoms: C2_2  and  C3_3 
REMARK    2  A    between atoms: C3_3  and  C4_4 
REMARK    3  A    between atoms: C8_9  and  C9_10 
REMARK    4  A    between atoms: C9_10  and  C10_11 
REMARK    5  A    between atoms: C10_11  and  C11_12 
REMARK    6  A    between atoms: N1_21  and  C17_22 
REMARK    7  A    between atoms: C17_22  and  C18_23 
REMARK       I    between atoms: C18_23  and  N2_25 
REMARK    8  A    between atoms: N2_25  and  C19_27 
REMARK    9  A    between atoms: C19_27  and  C20_28 
REMARK   10  A    between atoms: C19_27  and  C23_33 
REMARK   11  A    between atoms: C20_28  and  C21_29 
REMARK   12  A    between atoms: C21_29  and  C22_30 
REMARK   13  A    between atoms: C23_33  and  O6_34 
REMARK   14  A    between atoms: C23_33  and  N3_36 
REMARK   15  A    between atoms: N4_39  and  C26_40 
ROOT
HETATM    1  C18 UNL     1      20.512  23.876  16.875  1.00  0.00     0.240 C 
HETATM    2  O3  UNL     1      20.097  22.659  16.843  1.00  0.00    -0.271 OA
HETATM    3  N2  UNL     1      19.991  24.740  17.823  1.00  0.00    -0.325 N 
ATOM      4  H2  UNL     1      20.363  25.690  17.835  1.00  0.00     0.168 HD
ENDROOT
BRANCH   1   5
HETATM    5  C17 UNL     1      21.515  24.205  15.871  1.00  0.00     0.232 C 
BRANCH   5   6
HETATM    6  N1  UNL     1      21.813  25.601  15.683  1.00  0.00    -0.301 N 
HETATM    7  C7  UNL     1      22.900  26.272  16.351  1.00  0.00     0.196 C 
HETATM    8  C6  UNL     1      24.069  26.210  15.391  1.00  0.00     0.078 C 
HETATM    9  O1  UNL     1      23.144  25.702  17.559  1.00  0.00    -0.314 OA
HETATM   10  S2  UNL     1      22.282  27.969  16.448  1.00  0.00    -0.099 SA
HETATM   11  C5  UNL     1      25.159  27.040  16.030  1.00  0.00     0.042 C 
HETATM   12  C4  UNL     1      25.456  26.343  17.359  1.00  0.00    -0.050 C 
HETATM   13  C8  UNL     1      24.273  26.136  18.231  1.00  0.00     0.053 C 
HETATM   14  C15 UNL     1      20.827  27.791  15.375  1.00  0.00     0.181 C 
HETATM   15  C16 UNL     1      21.094  26.457  14.795  1.00  0.00     0.232 C 
HETATM   16  O2  UNL     1      20.701  26.149  13.617  1.00  0.00    -0.272 OA
BRANCH  12  17
HETATM   17  C3  UNL     1      26.701  26.822  17.982  1.00  0.00     0.036 C 
BRANCH  17  18
HETATM   18  C2  UNL     1      27.703  25.831  18.427  1.00  0.00    -0.000 C 
HETATM   19  C1  UNL     1      27.648  24.648  17.441  1.00  0.00     0.005 C 
ENDBRANCH  17  18
ENDBRANCH  12  17
BRANCH  13  20
HETATM   20  C9  UNL     1      23.982  27.183  19.249  1.00  0.00     0.069 C 
BRANCH  20  21
HETATM   21  C10 UNL     1      22.688  26.887  19.987  1.00  0.00     0.045 C 
BRANCH  21  22
HETATM   22  C11 UNL     1      23.029  26.810  21.461  1.00  0.00    -0.051 A 
HETATM   23  C12 UNL     1      22.211  27.210  22.442  1.00  0.00     0.014 A 
HETATM   24  C13 UNL     1      22.653  27.080  23.730  1.00  0.00     0.050 A 
HETATM   25  S1  UNL     1      24.205  26.400  23.535  1.00  0.00    -0.113 SA
HETATM   26  C14 UNL     1      24.247  26.301  21.832  1.00  0.00     0.056 A 
ENDBRANCH  21  22
ENDBRANCH  20  21
ENDBRANCH  13  20
ENDBRANCH   5   6
ENDBRANCH   1   5
BRANCH   3  27
HETATM   27  C19 UNL     1      18.943  24.417  18.827  1.00  0.00     0.063 C 
BRANCH  27  28
HETATM   28  C20 UNL     1      19.380  23.420  19.775  1.00  0.00     0.072 C 
BRANCH  28  29
HETATM   29  C21 UNL     1      20.620  23.661  20.548  1.00  0.00     0.119 C 
BRANCH  29  30
HETATM   30  C22 UNL     1      21.655  22.584  20.264  1.00  0.00     0.172 C 
HETATM   31  O4  UNL     1      22.865  22.940  20.259  1.00  0.00    -0.648 OA
HETATM   32  O5  UNL     1      21.205  21.313  20.038  1.00  0.00    -0.648 OA
ENDBRANCH  29  30
ENDBRANCH  28  29
ENDBRANCH  27  28
BRANCH  27  33
HETATM   33  C23 UNL     1      17.646  24.494  18.170  1.00  0.00     0.161 C 
BRANCH  33  34
HETATM   34  O6  UNL     1      17.251  25.800  18.058  1.00  0.00    -0.345 OA
ATOM     35  H6  UNL     1      16.643  26.018  18.754  1.00  0.00     0.219 HD
ENDBRANCH  33  34
BRANCH  33  36
HETATM   36  N3  UNL     1      16.701  23.669  17.619  1.00  0.00    -0.357 N 
HETATM   37  C24 UNL     1      16.781  22.639  16.631  1.00  0.00     0.155 C 
HETATM   38  C25 UNL     1      16.262  21.346  17.196  1.00  0.00     0.292 C 
HETATM   39  N4  UNL     1      15.057  21.420  17.934  1.00  0.00     0.096 N 
HETATM   40  C32 UNL     1      14.835  22.574  18.727  1.00  0.00     0.292 C 
HETATM   41  C33 UNL     1      15.286  23.849  18.092  1.00  0.00     0.155 C 
BRANCH  39  42
HETATM   42  C26 UNL     1      14.880  20.229  18.728  1.00  0.00     0.223 C 
HETATM   43  C27 UNL     1      15.402  18.977  18.089  1.00  0.00     0.036 C 
HETATM   44  C28 UNL     1      15.615  17.879  19.112  1.00  0.00     0.002 C 
HETATM   45  C29 UNL     1      14.684  18.061  20.305  1.00  0.00     0.000 C 
HETATM   46  C30 UNL     1      14.965  19.359  21.019  1.00  0.00     0.002 C 
HETATM   47  C31 UNL     1      15.592  20.359  20.071  1.00  0.00     0.036 C 
ENDBRANCH  39  42
ENDBRANCH  33  36
ENDBRANCH  27  33
ENDBRANCH   3  27
TORSDOF 15
ENDMDL
MODEL 2
REMARK VINA RESULT: -8.832685863      4.425      6.708
REMARK  15 active torsions:
REMARK  status: ('A' for Active; 'I' for Inactive)
REMARK    1  A    between atoms: C2_2  and  C3_3 
REMARK    2  A    between atoms: C3_3  and  C4_4 
REMARK    3  A    between atoms: C8_9  and  C9_10 
REMARK    4  A    between atoms: C9_10  and  C10_11 
REMARK    5  A    between atoms: C10_11  and  C11_12 
REMARK    6  A    between atoms: N1_21  and  C17_22 
REMARK    7  A    between atoms: C17_22  and  C18_23 
REMARK       I    between atoms: C18_23  and  N2_25 
REMARK    8  A    between atoms: N2_25  and  C19_27 
REMARK    9  A    between atoms: C19_27  and  C20_28 
REMARK   10  A    between atoms: C19_27  and  C23_33 
REMARK   11  A    between atoms: C20_28  and  C21_29 
REMARK   12  A    between atoms: C21_29  and  C22_30 
REMARK   13  A    between atoms: C23_33  and  O6_34 
REMARK   14  A    between atoms: C23_33  and  N3_36 
REMARK   15  A    between atoms: N4_39  and  C26_40 
ROOT
HETATM    1  C18 UNL     1      16.090  20.575  18.211  1.00  0.00     0.240 C 
HETATM    2  O3  UNL     1      16.158  20.545  19.494  1.00  0.00    -0.271 OA
HETATM    3  N2  UNL     1      14.988  20.022  17.582  1.00  0.00    -0.325 N 
ATOM      4  H2  UNL     1      14.956  20.087  16.564  1.00  0.00     0.168 HD
ENDROOT
BRANCH   1   5
HETATM    5  C17 UNL     1      17.225  21.211  17.554  1.00  0.00     0.232 C 
BRANCH   5   6
HETATM    6  N1  UNL     1      17.240  22.651  17.532  1.00  0.00    -0.301 N 
HETATM    7  C7  UNL     1      18.420  23.421  17.232  1.00  0.00     0.196 C 
HETATM    8  C6  UNL     1      18.355  23.707  15.746  1.00  0.00     0.078 C 
HETATM    9  O1  UNL     1      19.538  22.756  17.620  1.00  0.00    -0.314 OA
HETATM   10  S2  UNL     1      18.112  24.945  18.157  1.00  0.00    -0.099 SA
HETATM   11  C5  UNL     1      19.513  24.636  15.464  1.00  0.00     0.042 C 
HETATM   12  C4  UNL     1      20.760  23.841  15.852  1.00  0.00    -0.050 C 
HETATM   13  C8  UNL     1      20.750  23.304  17.235  1.00  0.00     0.053 C 
HETATM   14  C15 UNL     1      16.382  24.637  18.618  1.00  0.00     0.181 C 
HETATM   15  C16 UNL     1      16.091  23.464  17.766  1.00  0.00     0.232 C 
HETATM   16  O2  UNL     1      14.915  23.244  17.310  1.00  0.00    -0.272 OA
BRANCH  12  17
HETATM   17  C3  UNL     1      22.002  24.461  15.359  1.00  0.00     0.036 C 
BRANCH  17  18
HETATM   18  C2  UNL     1      21.913  25.498  14.310  1.00  0.00    -0.000 C 
HETATM   19  C1  UNL     1      22.851  26.650  14.722  1.00  0.00     0.005 C 
ENDBRANCH  17  18
ENDBRANCH  12  17
BRANCH  13  20
HETATM   20  C9  UNL     1      21.379  24.135  18.297  1.00  0.00     0.069 C 
BRANCH  20  21
HETATM   21  C10 UNL     1      21.471  23.374  19.609  1.00  0.00     0.045 C 
BRANCH  21  22
HETATM   22  C11 UNL     1      22.072  24.322  20.628  1.00  0.00    -0.051 A 
HETATM   23  C12 UNL     1      23.301  24.192  21.139  1.00  0.00     0.014 A 
HETATM   24  C13 UNL     1      23.712  25.125  22.051  1.00  0.00     0.050 A 
HETATM   25  S1  UNL     1      22.363  26.162  22.170  1.00  0.00    -0.113 SA
HETATM   26  C14 UNL     1      21.323  25.385  21.063  1.00  0.00     0.056 A 
ENDBRANCH  21  22
ENDBRANCH  20  21
ENDBRANCH  13  20
ENDBRANCH   5   6
ENDBRANCH   1   5
BRANCH   3  27
HETATM   27  C19 UNL     1      13.844  19.341  18.246  1.00  0.00     0.063 C 
BRANCH  27  28
HETATM   28  C20 UNL     1      14.218  18.063  18.806  1.00  0.00     0.072 C 
BRANCH  28  29
HETATM   29  C21 UNL     1      14.262  17.913  20.279  1.00  0.00     0.119 C 
BRANCH  29  30
HETATM   30  C22 UNL     1      12.872  17.658  20.841  1.00  0.00     0.172 C 
HETATM   31  O4  UNL     1      12.082  18.640  20.881  1.00  0.00    -0.648 OA
HETATM   32  O5  UNL     1      12.579  16.391  21.261  1.00  0.00    -0.648 OA
ENDBRANCH  29  30
ENDBRANCH  28  29
ENDBRANCH  27  28
BRANCH  27  33
HETATM   33  C23 UNL     1      12.635  19.651  17.499  1.00  0.00     0.161 C 
BRANCH  33  34
HETATM   34  O6  UNL     1      11.533  19.481  18.294  1.00  0.00    -0.345 OA
ATOM     35  H6  UNL     1      11.740  19.711  19.192  1.00  0.00     0.219 HD
ENDBRANCH  33  34
BRANCH  33  36
HETATM   36  N3  UNL     1      12.253  20.069  16.251  1.00  0.00    -0.357 N 
HETATM   37  C24 UNL     1      12.980  20.654  15.168  1.00  0.00     0.155 C 
HETATM   38  C25 UNL     1      12.828  19.810  13.933  1.00  0.00     0.292 C 
HETATM   39  N4  UNL     1      11.522  19.350  13.641  1.00  0.00     0.096 N 
HETATM   40  C32 UNL     1      10.680  19.011  14.730  1.00  0.00     0.292 C 
HETATM   41  C33 UNL     1      10.798  19.927  15.905  1.00  0.00     0.155 C 
BRANCH  39  42
HETATM   42  C26 UNL     1      11.570  18.266  12.692  1.00  0.00     0.223 C 
HETATM   43  C27 UNL     1      11.215  18.656  11.288  1.00  0.00     0.036 C 
HETATM   44  C28 UNL     1      11.718  17.638  10.285  1.00  0.00     0.002 C 
HETATM   45  C29 UNL     1      11.835  16.259  10.924  1.00  0.00     0.000 C 
HETATM   46  C30 UNL     1      12.836  16.266  12.051  1.00  0.00     0.002 C 
HETATM   47  C31 UNL     1      12.969  17.657  12.632  1.00  0.00     0.036 C 
ENDBRANCH  39  42
ENDBRANCH  33  36
ENDBRANCH  27  33
ENDBRANCH   3  27
TORSDOF 15
ENDMDL
MODEL 3
REMARK VINA RESULT: -8.817921977      2.474      5.208
REMARK  15 active torsions:
REMARK  status: ('A' for Active; 'I' for Inactive)
REMARK    1  A    between atoms: C2_2  and  C3_3 
REMARK    2  A    between atoms: C3_3  and  C4_4 
REMARK    3  A    between atoms: C8_9  and  C9_10 
REMARK    4  A    between atoms: C9_10  and  C10_11 
REMARK    5  A    between atoms: C10_11  and  C11_12 
REMARK    6  A    between atoms: N1_21  and  C17_22 
REMARK    7  A    between atoms: C17_22  and  C18_23 
REMARK       I    between atoms: C18_23  and  N2_25 
REMARK    8  A    between atoms: N2_25  and  C19_27 
REMARK    9  A    between atoms: C19_27  and  C20_28 
REMARK   10  A    between atoms: C19_27  and  C23_33 
REMARK   11  A    between atoms: C20_28  and  C21_29 
REMARK   12  A    between atoms: C21_29  and  C22_30 
REMARK   13  A    between atoms: C23_33  and  O6_34 
REMARK   14  A    between atoms: C23_33  and  N3_36 
REMARK   15  A    between atoms: N4_39  and  C26_40 
ROOT
HETATM    1  C18 UNL     1      19.754  22.449  18.147  1.00  0.00     0.240 C 
HETATM    2  O3  UNL     1      20.044  21.591  17.234  1.00  0.00    -0.271 OA
HETATM    3  N2  UNL     1      18.466  22.952  18.213  1.00  0.00    -0.325 N 
ATOM      4  H2  UNL     1      18.266  23.610  18.966  1.00  0.00     0.168 HD
ENDROOT
BRANCH   1   5
HETATM    5  C17 UNL     1      20.860  22.798  19.030  1.00  0.00     0.232 C 
BRANCH   5   6
HETATM    6  N1  UNL     1      20.912  24.158  19.499  1.00  0.00    -0.301 N 
HETATM    7  C7  UNL     1      21.474  25.237  18.726  1.00  0.00     0.196 C 
HETATM    8  C6  UNL     1      20.308  25.861  17.988  1.00  0.00     0.078 C 
HETATM    9  O1  UNL     1      22.462  24.780  17.914  1.00  0.00    -0.314 OA
HETATM   10  S2  UNL     1      22.046  26.361  20.021  1.00  0.00    -0.099 SA
HETATM   11  C5  UNL     1      20.876  27.080  17.296  1.00  0.00     0.042 C 
HETATM   12  C4  UNL     1      21.942  26.532  16.347  1.00  0.00    -0.050 C 
HETATM   13  C8  UNL     1      22.970  25.679  16.991  1.00  0.00     0.053 C 
HETATM   14  C15 UNL     1      21.272  25.546  21.449  1.00  0.00     0.181 C 
HETATM   15  C16 UNL     1      20.385  24.590  20.753  1.00  0.00     0.232 C 
HETATM   16  O2  UNL     1      19.272  24.218  21.262  1.00  0.00    -0.272 OA
BRANCH  12  17
HETATM   17  C3  UNL     1      22.390  27.532  15.363  1.00  0.00     0.036 C 
BRANCH  17  18
HETATM   18  C2  UNL     1      21.880  27.448  13.978  1.00  0.00    -0.000 C 
HETATM   19  C1  UNL     1      20.941  26.228  13.908  1.00  0.00     0.005 C 
ENDBRANCH  17  18
ENDBRANCH  12  17
BRANCH  13  20
HETATM   20  C9  UNL     1      24.221  26.342  17.449  1.00  0.00     0.069 C 
BRANCH  20  21
HETATM   21  C10 UNL     1      25.330  26.196  16.420  1.00  0.00     0.045 C 
BRANCH  21  22
HETATM   22  C11 UNL     1      26.012  27.545  16.312  1.00  0.00    -0.051 A 
HETATM   23  C12 UNL     1      25.684  28.612  17.049  1.00  0.00     0.014 A 
HETATM   24  C13 UNL     1      26.389  29.766  16.843  1.00  0.00     0.050 A 
HETATM   25  S1  UNL     1      27.494  29.327  15.620  1.00  0.00    -0.113 SA
HETATM   26  C14 UNL     1      27.032  27.698  15.408  1.00  0.00     0.056 A 
ENDBRANCH  21  22
ENDBRANCH  20  21
ENDBRANCH  13  20
ENDBRANCH   5   6
ENDBRANCH   1   5
BRANCH   3  27
HETATM   27  C19 UNL     1      17.344  22.624  17.293  1.00  0.00     0.063 C 
BRANCH  27  28
HETATM   28  C20 UNL     1      17.132  23.650  16.300  1.00  0.00     0.072 C 
BRANCH  28  29
HETATM   29  C21 UNL     1      17.329  23.315  14.871  1.00  0.00     0.119 C 
BRANCH  29  30
HETATM   30  C22 UNL     1      16.164  22.494  14.340  1.00  0.00     0.172 C 
HETATM   31  O4  UNL     1      15.006  22.856  14.682  1.00  0.00    -0.648 OA
HETATM   32  O5  UNL     1      16.453  21.428  13.535  1.00  0.00    -0.648 OA
ENDBRANCH  29  30
ENDBRANCH  28  29
ENDBRANCH  27  28
BRANCH  27  33
HETATM   33  C23 UNL     1      16.325  21.916  18.054  1.00  0.00     0.161 C 
BRANCH  33  34
HETATM   34  O6  UNL     1      15.091  22.455  17.804  1.00  0.00    -0.345 OA
ATOM     35  H6  UNL     1      14.825  23.010  18.527  1.00  0.00     0.219 HD
ENDBRANCH  33  34
BRANCH  33  36
HETATM   36  N3  UNL     1      16.211  20.873  18.934  1.00  0.00    -0.357 N 
HETATM   37  C24 UNL     1      15.623  20.769  20.233  1.00  0.00     0.155 C 
HETATM   38  C25 UNL     1      14.573  19.692  20.236  1.00  0.00     0.292 C 
HETATM   39  N4  UNL     1      14.918  18.476  19.600  1.00  0.00     0.096 N 
HETATM   40  C32 UNL     1      15.735  18.540  18.443  1.00  0.00     0.292 C 
HETATM   41  C33 UNL     1      16.821  19.564  18.517  1.00  0.00     0.155 C 
BRANCH  39  42
HETATM   42  C26 UNL     1      13.735  17.695  19.332  1.00  0.00     0.223 C 
HETATM   43  C27 UNL     1      12.937  17.343  20.551  1.00  0.00     0.036 C 
HETATM   44  C28 UNL     1      11.518  16.950  20.191  1.00  0.00     0.002 C 
HETATM   45  C29 UNL     1      11.453  16.389  18.776  1.00  0.00     0.000 C 
HETATM   46  C30 UNL     1      11.871  17.423  17.762  1.00  0.00     0.002 C 
HETATM   47  C31 UNL     1      12.790  18.445  18.396  1.00  0.00     0.036 C 
ENDBRANCH  39  42
ENDBRANCH  33  36
ENDBRANCH  27  33
ENDBRANCH   3  27
TORSDOF 15
ENDMDL
MODEL 4
REMARK VINA RESULT: -8.709400635      4.218      7.098
REMARK  15 active torsions:
REMARK  status: ('A' for Active; 'I' for Inactive)
REMARK    1  A    between atoms: C2_2  and  C3_3 
REMARK    2  A    between atoms: C3_3  and  C4_4 
REMARK    3  A    between atoms: C8_9  and  C9_10 
REMARK    4  A    between atoms: C9_10  and  C10_11 
REMARK    5  A    between atoms: C10_11  and  C11_12 
REMARK    6  A    between atoms: N1_21  and  C17_22 
REMARK    7  A    between atoms: C17_22  and  C18_23 
REMARK       I    between atoms: C18_23  and  N2_25 
REMARK    8  A    between atoms: N2_25  and  C19_27 
REMARK    9  A    between atoms: C19_27  and  C20_28 
REMARK   10  A    between atoms: C19_27  and  C23_33 
REMARK   11  A    between atoms: C20_28  and  C21_29 
REMARK   12  A    between atoms: C21_29  and  C22_30 
REMARK   13  A    between atoms: C23_33  and  O6_34 
REMARK   14  A    between atoms: C23_33  and  N3_36 
REMARK   15  A    between atoms: N4_39  and  C26_40 
ROOT
HETATM    1  C18 UNL     1      15.678  21.848  19.353  1.00  0.00     0.240 C 
HETATM    2  O3  UNL     1      14.881  22.672  18.772  1.00  0.00    -0.271 OA
HETATM    3  N2  UNL     1      15.271  20.538  19.544  1.00  0.00    -0.325 N 
ATOM      4  H2  UNL     1      15.940  19.907  19.984  1.00  0.00     0.168 HD
ENDROOT
BRANCH   1   5
HETATM    5  C17 UNL     1      16.959  22.416  19.752  1.00  0.00     0.232 C 
BRANCH   5   6
HETATM    6  N1  UNL     1      18.114  22.016  18.991  1.00  0.00    -0.301 N 
HETATM    7  C7  UNL     1      19.389  22.681  19.088  1.00  0.00     0.196 C 
HETATM    8  C6  UNL     1      20.180  21.901  20.116  1.00  0.00     0.078 C 
HETATM    9  O1  UNL     1      19.223  23.993  19.394  1.00  0.00    -0.314 OA
HETATM   10  S2  UNL     1      20.081  22.391  17.442  1.00  0.00    -0.099 SA
HETATM   11  C5  UNL     1      21.564  22.509  20.106  1.00  0.00     0.042 C 
HETATM   12  C4  UNL     1      21.355  23.968  20.514  1.00  0.00    -0.050 C 
HETATM   13  C8  UNL     1      20.371  24.710  19.687  1.00  0.00     0.053 C 
HETATM   14  C15 UNL     1      18.854  21.196  16.837  1.00  0.00     0.181 C 
HETATM   15  C16 UNL     1      18.133  20.906  18.095  1.00  0.00     0.232 C 
HETATM   16  O2  UNL     1      17.598  19.764  18.311  1.00  0.00    -0.272 OA
BRANCH  12  17
HETATM   17  C3  UNL     1      22.617  24.644  20.861  1.00  0.00     0.036 C 
BRANCH  17  18
HETATM   18  C2  UNL     1      23.842  23.831  21.015  1.00  0.00    -0.000 C 
HETATM   19  C1  UNL     1      24.533  24.285  22.316  1.00  0.00     0.005 C 
ENDBRANCH  17  18
ENDBRANCH  12  17
BRANCH  13  20
HETATM   20  C9  UNL     1      20.894  25.477  18.524  1.00  0.00     0.069 C 
BRANCH  20  21
HETATM   21  C10 UNL     1      19.776  25.855  17.567  1.00  0.00     0.045 C 
BRANCH  21  22
HETATM   22  C11 UNL     1      20.430  26.249  16.258  1.00  0.00    -0.051 A 
HETATM   23  C12 UNL     1      20.331  25.541  15.127  1.00  0.00     0.014 A 
HETATM   24  C13 UNL     1      20.976  26.019  14.020  1.00  0.00     0.050 A 
HETATM   25  S1  UNL     1      21.706  27.451  14.592  1.00  0.00    -0.113 SA
HETATM   26  C14 UNL     1      21.173  27.400  16.212  1.00  0.00     0.056 A 
ENDBRANCH  21  22
ENDBRANCH  20  21
ENDBRANCH  13  20
ENDBRANCH   5   6
ENDBRANCH   1   5
BRANCH   3  27
HETATM   27  C19 UNL     1      13.952  19.963  19.168  1.00  0.00     0.063 C 
BRANCH  27  28
HETATM   28  C20 UNL     1      13.481  18.996  20.132  1.00  0.00     0.072 C 
BRANCH  28  29
HETATM   29  C21 UNL     1      13.444  17.565  19.751  1.00  0.00     0.119 C 
BRANCH  29  30
HETATM   30  C22 UNL     1      12.012  17.091  19.557  1.00  0.00     0.172 C 
HETATM   31  O4  UNL     1      11.795  16.310  18.591  1.00  0.00    -0.648 OA
HETATM   32  O5  UNL     1      11.068  17.543  20.436  1.00  0.00    -0.648 OA
ENDBRANCH  29  30
ENDBRANCH  28  29
ENDBRANCH  27  28
BRANCH  27  33
HETATM   33  C23 UNL     1      13.902  19.851  17.718  1.00  0.00     0.161 C 
BRANCH  33  34
HETATM   34  O6  UNL     1      15.100  19.393  17.239  1.00  0.00    -0.345 OA
ATOM     35  H6  UNL     1      14.955  18.724  16.581  1.00  0.00     0.219 HD
ENDBRANCH  33  34
BRANCH  33  36
HETATM   36  N3  UNL     1      13.028  20.050  16.682  1.00  0.00    -0.357 N 
HETATM   37  C24 UNL     1      13.161  20.722  15.427  1.00  0.00     0.155 C 
HETATM   38  C25 UNL     1      12.853  19.774  14.302  1.00  0.00     0.292 C 
HETATM   39  N4  UNL     1      11.709  18.957  14.462  1.00  0.00     0.096 N 
HETATM   40  C32 UNL     1      11.406  18.489  15.766  1.00  0.00     0.292 C 
HETATM   41  C33 UNL     1      11.642  19.493  16.847  1.00  0.00     0.155 C 
BRANCH  39  42
HETATM   42  C26 UNL     1      11.745  17.854  13.533  1.00  0.00     0.223 C 
HETATM   43  C27 UNL     1      12.937  17.850  12.624  1.00  0.00     0.036 C 
HETATM   44  C28 UNL     1      13.167  16.480  12.018  1.00  0.00     0.002 C 
HETATM   45  C29 UNL     1      11.863  15.697  11.934  1.00  0.00     0.000 C 
HETATM   46  C30 UNL     1      11.286  15.456  13.306  1.00  0.00     0.002 C 
HETATM   47  C31 UNL     1      11.760  16.519  14.273  1.00  0.00     0.036 C 
ENDBRANCH  39  42
ENDBRANCH  33  36
ENDBRANCH  27  33
ENDBRANCH   3  27
TORSDOF 15
ENDMDL
MODEL 5
REMARK VINA RESULT: -8.629333560      0.981      1.238
REMARK  15 active torsions:
REMARK  status: ('A' for Active; 'I' for Inactive)
REMARK    1  A    between atoms: C2_2  and  C3_3 
REMARK    2  A    between atoms: C3_3  and  C4_4 
REMARK    3  A    between atoms: C8_9  and  C9_10 
REMARK    4  A    between atoms: C9_10  and  C10_11 
REMARK    5  A    between atoms: C10_11  and  C11_12 
REMARK    6  A    between atoms: N1_21  and  C17_22 
REMARK    7  A    between atoms: C17_22  and  C18_23 
REMARK       I    between atoms: C18_23  and  N2_25 
REMARK    8  A    between atoms: N2_25  and  C19_27 
REMARK    9  A    between atoms: C19_27  and  C20_28 
REMARK   10  A    between atoms: C19_27  and  C23_33 
REMARK   11  A    between atoms: C20_28  and  C21_29 
REMARK   12  A    between atoms: C21_29  and  C22_30 
REMARK   13  A    between atoms: C23_33  and  O6_34 
REMARK   14  A    between atoms: C23_33  and  N3_36 
REMARK   15  A    between atoms: N4_39  and  C26_40 
ROOT
HETATM    1  C18 UNL     1      20.534  23.974  16.943  1.00  0.00     0.240 C 
HETATM    2  O3  UNL     1      20.010  22.837  16.651  1.00  0.00    -0.271 OA
HETATM    3  N2  UNL     1      20.018  24.701  18.002  1.00  0.00    -0.325 N 
ATOM      4  H2  UNL     1      20.475  25.586  18.220  1.00  0.00     0.168 HD
ENDROOT
BRANCH   1   5
HETATM    5  C17 UNL     1      21.647  24.370  16.090  1.00  0.00     0.232 C 
BRANCH   5   6
HETATM    6  N1  UNL     1      22.083  25.739  16.183  1.00  0.00    -0.301 N 
HETATM    7  C7  UNL     1      23.014  26.203  17.180  1.00  0.00     0.196 C 
HETATM    8  C6  UNL     1      24.379  26.137  16.527  1.00  0.00     0.078 C 
HETATM    9  O1  UNL     1      22.908  25.466  18.315  1.00  0.00    -0.314 OA
HETATM   10  S2  UNL     1      22.517  27.931  17.375  1.00  0.00    -0.099 SA
HETATM   11  C5  UNL     1      25.332  26.761  17.520  1.00  0.00     0.042 C 
HETATM   12  C4  UNL     1      25.237  25.878  18.764  1.00  0.00    -0.050 C 
HETATM   13  C8  UNL     1      23.863  25.691  19.292  1.00  0.00     0.053 C 
HETATM   14  C15 UNL     1      21.366  28.042  15.974  1.00  0.00     0.181 C 
HETATM   15  C16 UNL     1      21.672  26.770  15.286  1.00  0.00     0.232 C 
HETATM   16  O2  UNL     1      21.564  26.653  14.016  1.00  0.00    -0.272 OA
BRANCH  12  17
HETATM   17  C3  UNL     1      26.319  26.142  19.728  1.00  0.00     0.036 C 
BRANCH  17  18
HETATM   18  C2  UNL     1      27.350  25.105  19.944  1.00  0.00    -0.000 C 
HETATM   19  C1  UNL     1      26.791  23.779  19.392  1.00  0.00     0.005 C 
ENDBRANCH  17  18
ENDBRANCH  12  17
BRANCH  13  20
HETATM   20  C9  UNL     1      23.404  26.628  20.353  1.00  0.00     0.069 C 
BRANCH  20  21
HETATM   21  C10 UNL     1      22.755  25.880  21.505  1.00  0.00     0.045 C 
BRANCH  21  22
HETATM   22  C11 UNL     1      23.850  25.575  22.506  1.00  0.00    -0.051 A 
HETATM   23  C12 UNL     1      24.561  24.442  22.518  1.00  0.00     0.014 A 
HETATM   24  C13 UNL     1      25.521  24.304  23.483  1.00  0.00     0.050 A 
HETATM   25  S1  UNL     1      25.403  25.768  24.351  1.00  0.00    -0.113 SA
HETATM   26  C14 UNL     1      24.145  26.508  23.467  1.00  0.00     0.056 A 
ENDBRANCH  21  22
ENDBRANCH  20  21
ENDBRANCH  13  20
ENDBRANCH   5   6
ENDBRANCH   1   5
BRANCH   3  27
HETATM   27  C19 UNL     1      18.860  24.317  18.852  1.00  0.00     0.063 C 
BRANCH  27  28
HETATM   28  C20 UNL     1      19.181  23.241  19.760  1.00  0.00     0.072 C 
BRANCH  28  29
HETATM   29  C21 UNL     1      20.398  23.349  20.597  1.00  0.00     0.119 C 
BRANCH  29  30
HETATM   30  C22 UNL     1      21.397  22.258  20.246  1.00  0.00     0.172 C 
HETATM   31  O4  UNL     1      22.619  22.566  20.286  1.00  0.00    -0.648 OA
HETATM   32  O5  UNL     1      20.904  21.027  19.913  1.00  0.00    -0.648 OA
ENDBRANCH  29  30
ENDBRANCH  28  29
ENDBRANCH  27  28
BRANCH  27  33
HETATM   33  C23 UNL     1      17.647  24.465  18.062  1.00  0.00     0.161 C 
BRANCH  33  34
HETATM   34  O6  UNL     1      17.499  25.767  17.665  1.00  0.00    -0.345 OA
ATOM     35  H6  UNL     1      16.980  25.809  16.871  1.00  0.00     0.219 HD
ENDBRANCH  33  34
BRANCH  33  36
HETATM   36  N3  UNL     1      16.611  23.708  17.581  1.00  0.00    -0.357 N 
HETATM   37  C24 UNL     1      16.531  22.745  16.527  1.00  0.00     0.155 C 
HETATM   38  C25 UNL     1      16.037  21.432  17.068  1.00  0.00     0.292 C 
HETATM   39  N4  UNL     1      14.935  21.491  17.954  1.00  0.00     0.096 N 
HETATM   40  C32 UNL     1      14.855  22.595  18.840  1.00  0.00     0.292 C 
HETATM   41  C33 UNL     1      15.272  23.896  18.237  1.00  0.00     0.155 C 
BRANCH  39  42
HETATM   42  C26 UNL     1      14.811  20.254  18.686  1.00  0.00     0.223 C 
HETATM   43  C27 UNL     1      15.435  19.070  18.009  1.00  0.00     0.036 C 
HETATM   44  C28 UNL     1      15.687  17.941  18.988  1.00  0.00     0.002 C 
HETATM   45  C29 UNL     1      14.710  18.006  20.154  1.00  0.00     0.000 C 
HETATM   46  C30 UNL     1      14.881  19.283  20.936  1.00  0.00     0.002 C 
HETATM   47  C31 UNL     1      15.470  20.366  20.058  1.00  0.00     0.036 C 
ENDBRANCH  39  42
ENDBRANCH  33  36
ENDBRANCH  27  33
ENDBRANCH   3  27
TORSDOF 15
ENDMDL
