MODEL 1
REMARK VINA RESULT: -8.628878810      0.000      0.000
REMARK  14 active torsions:
REMARK  status: ('A' for Active; 'I' for Inactive)
REMARK    1  A    between atoms: O1_2  and  C2_3 
REMARK    2  A    between atoms: C9_10  and  C10_11 
REMARK       I    between atoms: C10_11  and  N1_13 
REMARK    3  A    between atoms: N1_13  and  C11_14 
REMARK    4  A    between atoms: C11_14  and  C12_15 
REMARK    5  A    between atoms: C11_14  and  C20_25 
REMARK    6  A    between atoms: C12_15  and  C13_16 
REMARK    7  A    between atoms: C13_16  and  C14_17 
REMARK    8  A    between atoms: C14_17  and  C15_18 
REMARK    9  A    between atoms: C15_18  and  N2_19 
REMARK   10  A    between atoms: C25_30  and  C26_31 
REMARK       I    between atoms: C26_31  and  N3_33 
REMARK   11  A    between atoms: N3_33  and  C27_35 
REMARK   12  A    between atoms: C29_38  and  C30_39 
REMARK   13  A    between atoms: C30_39  and  O6_41 
REMARK   14  A    between atoms: O6_41  and  C31_42 
ROOT
HETATM    1  C27 UNL     1      14.649  20.192  13.899  1.00  0.00     0.247 C 
HETATM    2  C28 UNL     1      13.269  20.194  14.323  1.00  0.00     0.078 C 
HETATM    3  N4  UNL     1      12.171  20.221  14.665  1.00  0.00    -0.196 NA
ENDROOT
BRANCH   1   4
HETATM    4  N3  UNL     1      15.510  20.500  15.011  1.00  0.00    -0.348 N 
HETATM    5  C26 UNL     1      16.304  21.699  14.931  1.00  0.00     0.223 C 
HETATM    6  O4  UNL     1      16.164  22.381  13.906  1.00  0.00    -0.273 OA
ATOM      7  H3  UNL     1      15.555  19.890  15.827  1.00  0.00     0.163 HD
BRANCH   5   8
HETATM    8  C25 UNL     1      17.207  21.994  16.082  1.00  0.00     0.097 C 
HETATM    9  C24 UNL     1      17.809  23.329  15.838  1.00  0.00     0.031 C 
HETATM   10  C9  UNL     1      18.892  23.685  16.883  1.00  0.00     0.105 C 
HETATM   11  C8  UNL     1      18.546  23.321  18.263  1.00  0.00     0.004 C 
HETATM   12  C2  UNL     1      18.897  24.257  19.377  1.00  0.00     0.131 C 
HETATM   13  C7  UNL     1      19.399  22.074  18.681  1.00  0.00     0.014 C 
HETATM   14  C37 UNL     1      17.134  22.850  18.459  1.00  0.00     0.017 C 
HETATM   15  C3  UNL     1      20.341  24.706  19.399  1.00  0.00     0.037 C 
HETATM   16  C4  UNL     1      21.338  23.610  19.269  1.00  0.00    -0.016 C 
HETATM   17  C5  UNL     1      22.010  23.319  20.625  1.00  0.00     0.010 C 
HETATM   18  C6  UNL     1      20.855  22.345  18.697  1.00  0.00     0.005 C 
HETATM   19  C29 UNL     1      16.602  21.879  17.425  1.00  0.00     0.064 C 
HETATM   20  C36 UNL     1      16.067  23.862  18.585  1.00  0.00     0.007 C 
HETATM   21  C34 UNL     1      15.112  22.120  17.448  1.00  0.00     0.021 C 
HETATM   22  C35 UNL     1      14.869  22.878  18.793  1.00  0.00     0.002 C 
BRANCH  10  23
HETATM   23  C10 UNL     1      19.076  25.158  16.558  1.00  0.00     0.296 C 
HETATM   24  O2  UNL     1      17.995  25.769  16.542  1.00  0.00    -0.257 OA
HETATM   25  N1  UNL     1      20.316  25.697  16.312  1.00  0.00    -0.379 NA
BRANCH  25  26
HETATM   26  C11 UNL     1      21.550  26.234  16.067  1.00  0.00     0.073 C 
BRANCH  26  27
HETATM   27  C12 UNL     1      22.634  26.266  17.129  1.00  0.00     0.069 C 
BRANCH  27  28
HETATM   28  C13 UNL     1      22.611  27.348  18.111  1.00  0.00     0.008 C 
BRANCH  28  29
HETATM   29  C14 UNL     1      23.784  27.300  19.042  1.00  0.00     0.030 C 
BRANCH  29  30
HETATM   30  C15 UNL     1      24.954  26.487  18.706  1.00  0.00     0.272 C 
BRANCH  30  31
HETATM   31  N2  UNL     1      26.140  27.094  18.240  1.00  0.00     0.092 N 
HETATM   32  C16 UNL     1      26.119  27.509  16.862  1.00  0.00     0.298 C 
HETATM   33  C17 UNL     1      26.178  26.380  15.870  1.00  0.00     0.198 C 
HETATM   34  O3  UNL     1      27.365  25.714  16.060  1.00  0.00    -0.388 OA
HETATM   35  C18 UNL     1      27.271  25.087  17.325  1.00  0.00     0.198 C 
HETATM   36  C19 UNL     1      27.237  26.152  18.380  1.00  0.00     0.298 C 
ENDBRANCH  30  31
ENDBRANCH  29  30
ENDBRANCH  28  29
ENDBRANCH  27  28
ENDBRANCH  26  27
BRANCH  26  37
HETATM   37  C20 UNL     1      22.117  26.075  14.659  1.00  0.00     0.001 C 
HETATM   38  C21 UNL     1      20.899  26.136  13.722  1.00  0.00     0.022 C 
HETATM   39  C22 UNL     1      22.763  24.757  14.398  1.00  0.00     0.022 C 
HETATM   40  C23 UNL     1      22.980  27.249  14.337  1.00  0.00     0.022 C 
ENDBRANCH  26  37
ENDBRANCH  25  26
ENDBRANCH  10  23
BRANCH  12  41
HETATM   41  O1  UNL     1      18.792  23.512  20.580  1.00  0.00    -0.390 OA
HETATM   42  C1  UNL     1      18.638  24.209  21.726  1.00  0.00     0.202 C 
ENDBRANCH  12  41
BRANCH  19  43
HETATM   43  C30 UNL     1      16.801  20.452  17.885  1.00  0.00     0.269 C 
HETATM   44  O5  UNL     1      17.951  19.997  17.940  1.00  0.00    -0.264 OA
BRANCH  43  45
HETATM   45  O6  UNL     1      15.722  19.675  18.235  1.00  0.00    -0.316 OA
BRANCH  45  46
HETATM   46  C31 UNL     1      15.579  18.898  19.387  1.00  0.00     0.123 C 
HETATM   47  C32 UNL     1      15.254  19.694  20.610  1.00  0.00     0.040 C 
HETATM   48  C33 UNL     1      14.434  17.922  19.125  1.00  0.00     0.040 C 
ENDBRANCH  45  46
ENDBRANCH  43  45
ENDBRANCH  19  43
ENDBRANCH   5   8
ENDBRANCH   1   4
TORSDOF 14
ENDMDL
MODEL 2
REMARK VINA RESULT: -8.545560591      1.284      1.605
REMARK  14 active torsions:
REMARK  status: ('A' for Active; 'I' for Inactive)
REMARK    1  A    between atoms: O1_2  and  C2_3 
REMARK    2  A    between atoms: C9_10  and  C10_11 
REMARK       I    between atoms: C10_11  and  N1_13 
REMARK    3  A    between atoms: N1_13  and  C11_14 
REMARK    4  A    between atoms: C11_14  and  C12_15 
REMARK    5  A    between atoms: C11_14  and  C20_25 
REMARK    6  A    between atoms: C12_15  and  C13_16 
REMARK    7  A    between atoms: C13_16  and  C14_17 
REMARK    8  A    between atoms: C14_17  and  C15_18 
REMARK    9  A    between atoms: C15_18  and  N2_19 
REMARK   10  A    between atoms: C25_30  and  C26_31 
REMARK       I    between atoms: C26_31  and  N3_33 
REMARK   11  A    between atoms: N3_33  and  C27_35 
REMARK   12  A    between atoms: C29_38  and  C30_39 
REMARK   13  A    between atoms: C30_39  and  O6_41 
REMARK   14  A    between atoms: O6_41  and  C31_42 
ROOT
HETATM    1  C27 UNL     1      14.649  20.174  13.886  1.00  0.00     0.247 C 
HETATM    2  C28 UNL     1      13.269  20.195  14.310  1.00  0.00     0.078 C 
HETATM    3  N4  UNL     1      12.172  20.237  14.653  1.00  0.00    -0.196 NA
ENDROOT
BRANCH   1   4
HETATM    4  N3  UNL     1      15.513  20.485  14.994  1.00  0.00    -0.348 N 
HETATM    5  C26 UNL     1      16.284  21.700  14.921  1.00  0.00     0.223 C 
HETATM    6  O4  UNL     1      16.121  22.390  13.906  1.00  0.00    -0.273 OA
ATOM      7  H3  UNL     1      15.578  19.866  15.803  1.00  0.00     0.163 HD
BRANCH   5   8
HETATM    8  C25 UNL     1      17.191  21.999  16.068  1.00  0.00     0.097 C 
HETATM    9  C24 UNL     1      17.768  23.346  15.832  1.00  0.00     0.031 C 
HETATM   10  C9  UNL     1      18.854  23.710  16.872  1.00  0.00     0.105 C 
HETATM   11  C8  UNL     1      18.525  23.326  18.252  1.00  0.00     0.004 C 
HETATM   12  C2  UNL     1      18.870  24.257  19.372  1.00  0.00     0.131 C 
HETATM   13  C7  UNL     1      19.403  22.089  18.650  1.00  0.00     0.014 C 
HETATM   14  C37 UNL     1      17.124  22.829  18.454  1.00  0.00     0.017 C 
HETATM   15  C3  UNL     1      20.306  24.730  19.387  1.00  0.00     0.037 C 
HETATM   16  C4  UNL     1      21.321  23.652  19.238  1.00  0.00    -0.016 C 
HETATM   17  C5  UNL     1      22.008  23.359  20.585  1.00  0.00     0.010 C 
HETATM   18  C6  UNL     1      20.855  22.385  18.657  1.00  0.00     0.005 C 
HETATM   19  C29 UNL     1      16.600  21.860  17.414  1.00  0.00     0.064 C 
HETATM   20  C36 UNL     1      16.041  23.822  18.599  1.00  0.00     0.007 C 
HETATM   21  C34 UNL     1      15.106  22.075  17.452  1.00  0.00     0.021 C 
HETATM   22  C35 UNL     1      14.861  22.816  18.806  1.00  0.00     0.002 C 
BRANCH  10  23
HETATM   23  C10 UNL     1      19.010  25.189  16.561  1.00  0.00     0.296 C 
HETATM   24  O2  UNL     1      17.918  25.778  16.542  1.00  0.00    -0.257 OA
HETATM   25  N1  UNL     1      20.241  25.755  16.327  1.00  0.00    -0.379 NA
BRANCH  25  26
HETATM   26  C11 UNL     1      21.465  26.318  16.094  1.00  0.00     0.073 C 
BRANCH  26  27
HETATM   27  C12 UNL     1      22.504  26.457  17.193  1.00  0.00     0.069 C 
BRANCH  27  28
HETATM   28  C13 UNL     1      22.400  27.594  18.105  1.00  0.00     0.008 C 
BRANCH  28  29
HETATM   29  C14 UNL     1      23.239  27.418  19.335  1.00  0.00     0.030 C 
BRANCH  29  30
HETATM   30  C15 UNL     1      24.022  26.195  19.519  1.00  0.00     0.272 C 
BRANCH  30  31
HETATM   31  N2  UNL     1      25.363  26.261  19.955  1.00  0.00     0.092 N 
HETATM   32  C16 UNL     1      26.188  25.143  19.579  1.00  0.00     0.298 C 
HETATM   33  C17 UNL     1      25.894  23.872  20.326  1.00  0.00     0.198 C 
HETATM   34  O3  UNL     1      26.131  24.102  21.660  1.00  0.00    -0.388 OA
HETATM   35  C18 UNL     1      25.140  25.017  22.088  1.00  0.00     0.198 C 
HETATM   36  C19 UNL     1      25.383  26.330  21.407  1.00  0.00     0.298 C 
ENDBRANCH  30  31
ENDBRANCH  29  30
ENDBRANCH  28  29
ENDBRANCH  27  28
ENDBRANCH  26  27
BRANCH  26  37
HETATM   37  C20 UNL     1      22.093  26.089  14.723  1.00  0.00     0.001 C 
HETATM   38  C21 UNL     1      20.931  26.193  13.722  1.00  0.00     0.022 C 
HETATM   39  C22 UNL     1      22.676  24.730  14.528  1.00  0.00     0.022 C 
HETATM   40  C23 UNL     1      23.038  27.204  14.419  1.00  0.00     0.022 C 
ENDBRANCH  26  37
ENDBRANCH  25  26
ENDBRANCH  10  23
BRANCH  12  41
HETATM   41  O1  UNL     1      18.788  23.497  20.568  1.00  0.00    -0.390 OA
HETATM   42  C1  UNL     1      18.623  24.180  21.722  1.00  0.00     0.202 C 
ENDBRANCH  12  41
BRANCH  19  43
HETATM   43  C30 UNL     1      16.827  20.431  17.859  1.00  0.00     0.269 C 
HETATM   44  O5  UNL     1      17.986  20.001  17.915  1.00  0.00    -0.264 OA
BRANCH  43  45
HETATM   45  O6  UNL     1      15.762  19.627  18.193  1.00  0.00    -0.316 OA
BRANCH  45  46
HETATM   46  C31 UNL     1      15.627  18.837  19.335  1.00  0.00     0.123 C 
HETATM   47  C32 UNL     1      15.297  19.615  20.568  1.00  0.00     0.040 C 
HETATM   48  C33 UNL     1      14.491  17.853  19.064  1.00  0.00     0.040 C 
ENDBRANCH  45  46
ENDBRANCH  43  45
ENDBRANCH  19  43
ENDBRANCH   5   8
ENDBRANCH   1   4
TORSDOF 14
ENDMDL
MODEL 3
REMARK VINA RESULT: -8.176957280      3.969      9.250
REMARK  14 active torsions:
REMARK  status: ('A' for Active; 'I' for Inactive)
REMARK    1  A    between atoms: O1_2  and  C2_3 
REMARK    2  A    between atoms: C9_10  and  C10_11 
REMARK       I    between atoms: C10_11  and  N1_13 
REMARK    3  A    between atoms: N1_13  and  C11_14 
REMARK    4  A    between atoms: C11_14  and  C12_15 
REMARK    5  A    between atoms: C11_14  and  C20_25 
REMARK    6  A    between atoms: C12_15  and  C13_16 
REMARK    7  A    between atoms: C13_16  and  C14_17 
REMARK    8  A    between atoms: C14_17  and  C15_18 
REMARK    9  A    between atoms: C15_18  and  N2_19 
REMARK   10  A    between atoms: C25_30  and  C26_31 
REMARK       I    between atoms: C26_31  and  N3_33 
REMARK   11  A    between atoms: N3_33  and  C27_35 
REMARK   12  A    between atoms: C29_38  and  C30_39 
REMARK   13  A    between atoms: C30_39  and  O6_41 
REMARK   14  A    between atoms: O6_41  and  C31_42 
ROOT
HETATM    1  C27 UNL     1      27.320  20.893  18.625  1.00  0.00     0.247 C 
HETATM    2  C28 UNL     1      27.696  19.950  19.651  1.00  0.00     0.078 C 
HETATM    3  N4  UNL     1      27.972  19.190  20.469  1.00  0.00    -0.196 NA
ENDROOT
BRANCH   1   4
HETATM    4  N3  UNL     1      26.417  21.876  19.163  1.00  0.00    -0.348 N 
HETATM    5  C26 UNL     1      26.848  23.251  19.166  1.00  0.00     0.223 C 
HETATM    6  O4  UNL     1      27.967  23.474  18.683  1.00  0.00    -0.273 OA
ATOM      7  H3  UNL     1      25.503  21.609  19.529  1.00  0.00     0.163 HD
BRANCH   5   8
HETATM    8  C25 UNL     1      25.910  24.257  19.745  1.00  0.00     0.097 C 
HETATM    9  C24 UNL     1      24.548  23.669  19.692  1.00  0.00     0.031 C 
HETATM   10  C9  UNL     1      23.456  24.679  20.117  1.00  0.00     0.105 C 
HETATM   11  C8  UNL     1      23.812  25.504  21.279  1.00  0.00     0.004 C 
HETATM   12  C2  UNL     1      22.769  25.803  22.311  1.00  0.00     0.131 C 
HETATM   13  C7  UNL     1      24.124  26.959  20.783  1.00  0.00     0.014 C 
HETATM   14  C37 UNL     1      25.078  25.102  21.977  1.00  0.00     0.017 C 
HETATM   15  C3  UNL     1      21.476  26.363  21.765  1.00  0.00     0.037 C 
HETATM   16  C4  UNL     1      21.637  27.490  20.807  1.00  0.00    -0.016 C 
HETATM   17  C5  UNL     1      21.265  28.829  21.472  1.00  0.00     0.010 C 
HETATM   18  C6  UNL     1      22.953  27.626  20.167  1.00  0.00     0.005 C 
HETATM   19  C29 UNL     1      26.257  24.769  21.086  1.00  0.00     0.064 C 
HETATM   20  C36 UNL     1      25.026  23.984  22.939  1.00  0.00     0.007 C 
HETATM   21  C34 UNL     1      27.068  23.805  21.919  1.00  0.00     0.021 C 
HETATM   22  C35 UNL     1      26.528  24.010  23.372  1.00  0.00     0.002 C 
BRANCH  10  23
HETATM   23  C10 UNL     1      22.278  23.728  20.251  1.00  0.00     0.296 C 
HETATM   24  O2  UNL     1      22.563  22.725  20.924  1.00  0.00    -0.257 OA
HETATM   25  N1  UNL     1      21.062  23.994  19.667  1.00  0.00    -0.379 NA
BRANCH  25  26
HETATM   26  C11 UNL     1      19.852  24.257  19.087  1.00  0.00     0.073 C 
BRANCH  26  27
HETATM   27  C12 UNL     1      19.723  24.545  17.601  1.00  0.00     0.069 C 
BRANCH  27  28
HETATM   28  C13 UNL     1      20.399  23.654  16.661  1.00  0.00     0.008 C 
BRANCH  28  29
HETATM   29  C14 UNL     1      21.707  24.210  16.184  1.00  0.00     0.030 C 
BRANCH  29  30
HETATM   30  C15 UNL     1      21.746  25.081  15.008  1.00  0.00     0.272 C 
BRANCH  30  31
HETATM   31  N2  UNL     1      22.594  26.209  14.979  1.00  0.00     0.092 N 
HETATM   32  C16 UNL     1      22.825  26.840  16.253  1.00  0.00     0.298 C 
HETATM   33  C17 UNL     1      21.647  27.604  16.791  1.00  0.00     0.198 C 
HETATM   34  O3  UNL     1      21.356  28.611  15.903  1.00  0.00    -0.388 OA
HETATM   35  C18 UNL     1      20.879  27.981  14.730  1.00  0.00     0.198 C 
HETATM   36  C19 UNL     1      22.010  27.216  14.110  1.00  0.00     0.298 C 
ENDBRANCH  30  31
ENDBRANCH  29  30
ENDBRANCH  28  29
ENDBRANCH  27  28
ENDBRANCH  26  27
BRANCH  26  37
HETATM   37  C20 UNL     1      18.632  23.534  19.648  1.00  0.00     0.001 C 
HETATM   38  C21 UNL     1      18.540  23.976  21.118  1.00  0.00     0.022 C 
HETATM   39  C22 UNL     1      18.753  22.048  19.679  1.00  0.00     0.022 C 
HETATM   40  C23 UNL     1      17.403  24.029  18.961  1.00  0.00     0.022 C 
ENDBRANCH  26  37
ENDBRANCH  25  26
ENDBRANCH  10  23
BRANCH  12  41
HETATM   41  O1  UNL     1      23.266  26.884  23.085  1.00  0.00    -0.390 OA
HETATM   42  C1  UNL     1      22.715  27.074  24.304  1.00  0.00     0.202 C 
ENDBRANCH  12  41
BRANCH  19  43
HETATM   43  C30 UNL     1      27.133  25.987  20.888  1.00  0.00     0.269 C 
HETATM   44  O5  UNL     1      27.570  26.577  21.885  1.00  0.00    -0.264 OA
BRANCH  43  45
HETATM   45  O6  UNL     1      27.437  26.430  19.622  1.00  0.00    -0.316 OA
BRANCH  45  46
HETATM   46  C31 UNL     1      27.197  27.698  19.091  1.00  0.00     0.123 C 
HETATM   47  C32 UNL     1      28.438  28.419  18.674  1.00  0.00     0.040 C 
HETATM   48  C33 UNL     1      26.313  27.505  17.861  1.00  0.00     0.040 C 
ENDBRANCH  45  46
ENDBRANCH  43  45
ENDBRANCH  19  43
ENDBRANCH   5   8
ENDBRANCH   1   4
TORSDOF 14
ENDMDL
MODEL 4
REMARK VINA RESULT: -7.569766720      2.548      9.974
REMARK  14 active torsions:
REMARK  status: ('A' for Active; 'I' for Inactive)
REMARK    1  A    between atoms: O1_2  and  C2_3 
REMARK    2  A    between atoms: C9_10  and  C10_11 
REMARK       I    between atoms: C10_11  and  N1_13 
REMARK    3  A    between atoms: N1_13  and  C11_14 
REMARK    4  A    between atoms: C11_14  and  C12_15 
REMARK    5  A    between atoms: C11_14  and  C20_25 
REMARK    6  A    between atoms: C12_15  and  C13_16 
REMARK    7  A    between atoms: C13_16  and  C14_17 
REMARK    8  A    between atoms: C14_17  and  C15_18 
REMARK    9  A    between atoms: C15_18  and  N2_19 
REMARK   10  A    between atoms: C25_30  and  C26_31 
REMARK       I    between atoms: C26_31  and  N3_33 
REMARK   11  A    between atoms: N3_33  and  C27_35 
REMARK   12  A    between atoms: C29_38  and  C30_39 
REMARK   13  A    between atoms: C30_39  and  O6_41 
REMARK   14  A    between atoms: O6_41  and  C31_42 
ROOT
HETATM    1  C27 UNL     1      27.905  22.729  20.941  1.00  0.00     0.247 C 
HETATM    2  C28 UNL     1      28.102  21.301  20.866  1.00  0.00     0.078 C 
HETATM    3  N4  UNL     1      28.270  20.166  20.784  1.00  0.00    -0.196 NA
ENDROOT
BRANCH   1   4
HETATM    4  N3  UNL     1      26.990  23.158  19.915  1.00  0.00    -0.348 N 
HETATM    5  C26 UNL     1      25.956  24.089  20.287  1.00  0.00     0.223 C 
HETATM    6  O4  UNL     1      25.953  24.460  21.469  1.00  0.00    -0.273 OA
ATOM      7  H3  UNL     1      27.071  22.814  18.958  1.00  0.00     0.163 HD
BRANCH   5   8
HETATM    8  C25 UNL     1      25.003  24.509  19.219  1.00  0.00     0.097 C 
HETATM    9  C24 UNL     1      23.648  24.543  19.825  1.00  0.00     0.031 C 
HETATM   10  C9  UNL     1      22.542  24.809  18.778  1.00  0.00     0.105 C 
HETATM   11  C8  UNL     1      22.884  25.835  17.782  1.00  0.00     0.004 C 
HETATM   12  C2  UNL     1      21.834  26.809  17.346  1.00  0.00     0.131 C 
HETATM   13  C7  UNL     1      23.179  25.126  16.415  1.00  0.00     0.014 C 
HETATM   14  C37 UNL     1      24.152  26.587  18.058  1.00  0.00     0.017 C 
HETATM   15  C3  UNL     1      20.535  26.183  16.891  1.00  0.00     0.037 C 
HETATM   16  C4  UNL     1      20.685  25.067  15.919  1.00  0.00    -0.016 C 
HETATM   17  C5  UNL     1      20.294  25.522  14.500  1.00  0.00     0.010 C 
HETATM   18  C6  UNL     1      22.002  24.416  15.863  1.00  0.00     0.005 C 
HETATM   19  C29 UNL     1      25.339  25.759  18.506  1.00  0.00     0.064 C 
HETATM   20  C36 UNL     1      24.111  27.706  19.020  1.00  0.00     0.007 C 
HETATM   21  C34 UNL     1      26.159  26.728  19.323  1.00  0.00     0.021 C 
HETATM   22  C35 UNL     1      25.612  28.133  18.910  1.00  0.00     0.002 C 
BRANCH  10  23
HETATM   23  C10 UNL     1      21.376  25.083  19.713  1.00  0.00     0.296 C 
HETATM   24  O2  UNL     1      21.555  26.105  20.394  1.00  0.00    -0.257 OA
HETATM   25  N1  UNL     1      20.278  24.258  19.763  1.00  0.00    -0.379 NA
BRANCH  25  26
HETATM   26  C11 UNL     1      19.185  23.437  19.813  1.00  0.00     0.073 C 
BRANCH  26  27
HETATM   27  C12 UNL     1      17.795  23.931  19.453  1.00  0.00     0.069 C 
BRANCH  27  28
HETATM   28  C13 UNL     1      17.668  24.932  18.396  1.00  0.00     0.008 C 
BRANCH  28  29
HETATM   29  C14 UNL     1      17.272  24.330  17.082  1.00  0.00     0.030 C 
BRANCH  29  30
HETATM   30  C15 UNL     1      16.393  23.160  17.049  1.00  0.00     0.272 C 
BRANCH  30  31
HETATM   31  N2  UNL     1      15.325  23.090  16.128  1.00  0.00     0.092 N 
HETATM   32  C16 UNL     1      14.517  21.902  16.210  1.00  0.00     0.298 C 
HETATM   33  C17 UNL     1      15.185  20.657  15.695  1.00  0.00     0.198 C 
HETATM   34  O3  UNL     1      15.464  20.849  14.363  1.00  0.00    -0.388 OA
HETATM   35  C18 UNL     1      16.462  21.851  14.307  1.00  0.00     0.198 C 
HETATM   36  C19 UNL     1      15.863  23.142  14.779  1.00  0.00     0.298 C 
ENDBRANCH  30  31
ENDBRANCH  29  30
ENDBRANCH  28  29
ENDBRANCH  27  28
ENDBRANCH  26  27
BRANCH  26  37
HETATM   37  C20 UNL     1      19.393  21.969  19.454  1.00  0.00     0.001 C 
HETATM   38  C21 UNL     1      19.925  21.977  18.011  1.00  0.00     0.022 C 
HETATM   39  C22 UNL     1      18.144  21.156  19.421  1.00  0.00     0.022 C 
HETATM   40  C23 UNL     1      20.468  21.395  20.316  1.00  0.00     0.022 C 
ENDBRANCH  26  37
ENDBRANCH  25  26
ENDBRANCH  10  23
BRANCH  12  41
HETATM   41  O1  UNL     1      22.314  27.413  16.154  1.00  0.00    -0.390 OA
HETATM   42  C1  UNL     1      21.688  28.533  15.735  1.00  0.00     0.202 C 
ENDBRANCH  12  41
BRANCH  19  43
HETATM   43  C30 UNL     1      26.200  25.381  17.320  1.00  0.00     0.269 C 
HETATM   44  O5  UNL     1      27.074  24.517  17.469  1.00  0.00    -0.264 OA
BRANCH  43  45
HETATM   45  O6  UNL     1      26.014  25.989  16.101  1.00  0.00    -0.316 OA
BRANCH  45  46
HETATM   46  C31 UNL     1      26.848  26.927  15.489  1.00  0.00     0.123 C 
HETATM   47  C32 UNL     1      26.255  28.297  15.414  1.00  0.00     0.040 C 
HETATM   48  C33 UNL     1      28.125  26.997  16.323  1.00  0.00     0.040 C 
ENDBRANCH  45  46
ENDBRANCH  43  45
ENDBRANCH  19  43
ENDBRANCH   5   8
ENDBRANCH   1   4
TORSDOF 14
ENDMDL
MODEL 5
REMARK VINA RESULT: -7.540488586      3.355     10.070
REMARK  14 active torsions:
REMARK  status: ('A' for Active; 'I' for Inactive)
REMARK    1  A    between atoms: O1_2  and  C2_3 
REMARK    2  A    between atoms: C9_10  and  C10_11 
REMARK       I    between atoms: C10_11  and  N1_13 
REMARK    3  A    between atoms: N1_13  and  C11_14 
REMARK    4  A    between atoms: C11_14  and  C12_15 
REMARK    5  A    between atoms: C11_14  and  C20_25 
REMARK    6  A    between atoms: C12_15  and  C13_16 
REMARK    7  A    between atoms: C13_16  and  C14_17 
REMARK    8  A    between atoms: C14_17  and  C15_18 
REMARK    9  A    between atoms: C15_18  and  N2_19 
REMARK   10  A    between atoms: C25_30  and  C26_31 
REMARK       I    between atoms: C26_31  and  N3_33 
REMARK   11  A    between atoms: N3_33  and  C27_35 
REMARK   12  A    between atoms: C29_38  and  C30_39 
REMARK   13  A    between atoms: C30_39  and  O6_41 
REMARK   14  A    between atoms: O6_41  and  C31_42 
ROOT
HETATM    1  C27 UNL     1      27.389  20.895  18.680  1.00  0.00     0.247 C 
HETATM    2  C28 UNL     1      27.908  20.078  19.750  1.00  0.00     0.078 C 
HETATM    3  N4  UNL     1      28.298  19.417  20.607  1.00  0.00    -0.196 NA
ENDROOT
BRANCH   1   4
HETATM    4  N3  UNL     1      26.471  21.872  19.203  1.00  0.00    -0.348 N 
HETATM    5  C26 UNL     1      26.895  23.249  19.218  1.00  0.00     0.223 C 
HETATM    6  O4  UNL     1      28.021  23.479  18.757  1.00  0.00    -0.273 OA
ATOM      7  H3  UNL     1      25.551  21.599  19.550  1.00  0.00     0.163 HD
BRANCH   5   8
HETATM    8  C25 UNL     1      25.940  24.248  19.781  1.00  0.00     0.097 C 
HETATM    9  C24 UNL     1      24.592  23.628  19.763  1.00  0.00     0.031 C 
HETATM   10  C9  UNL     1      23.481  24.624  20.173  1.00  0.00     0.105 C 
HETATM   11  C8  UNL     1      23.832  25.489  21.307  1.00  0.00     0.004 C 
HETATM   12  C2  UNL     1      22.796  25.791  22.345  1.00  0.00     0.131 C 
HETATM   13  C7  UNL     1      24.104  26.936  20.767  1.00  0.00     0.014 C 
HETATM   14  C37 UNL     1      25.116  25.136  22.000  1.00  0.00     0.017 C 
HETATM   15  C3  UNL     1      21.483  26.306  21.800  1.00  0.00     0.037 C 
HETATM   16  C4  UNL     1      21.605  27.409  20.810  1.00  0.00    -0.016 C 
HETATM   17  C5  UNL     1      21.210  28.757  21.442  1.00  0.00     0.010 C 
HETATM   18  C6  UNL     1      22.910  27.558  20.149  1.00  0.00     0.005 C 
HETATM   19  C29 UNL     1      26.292  24.806  21.103  1.00  0.00     0.064 C 
HETATM   20  C36 UNL     1      25.102  24.043  22.992  1.00  0.00     0.007 C 
HETATM   21  C34 UNL     1      27.135  23.885  21.951  1.00  0.00     0.021 C 
HETATM   22  C35 UNL     1      26.609  24.116  23.405  1.00  0.00     0.002 C 
BRANCH  10  23
HETATM   23  C10 UNL     1      22.328  23.650  20.349  1.00  0.00     0.296 C 
HETATM   24  O2  UNL     1      22.613  22.726  21.129  1.00  0.00    -0.257 OA
HETATM   25  N1  UNL     1      21.132  23.816  19.691  1.00  0.00    -0.379 NA
BRANCH  25  26
HETATM   26  C11 UNL     1      19.943  23.980  19.036  1.00  0.00     0.073 C 
BRANCH  26  27
HETATM   27  C12 UNL     1      18.635  24.162  19.786  1.00  0.00     0.069 C 
BRANCH  27  28
HETATM   28  C13 UNL     1      17.909  22.968  20.213  1.00  0.00     0.008 C 
BRANCH  28  29
HETATM   29  C14 UNL     1      18.285  21.755  19.417  1.00  0.00     0.030 C 
BRANCH  29  30
HETATM   30  C15 UNL     1      17.247  20.828  18.963  1.00  0.00     0.272 C 
BRANCH  30  31
HETATM   31  N2  UNL     1      16.961  20.690  17.587  1.00  0.00     0.092 N 
HETATM   32  C16 UNL     1      16.941  21.918  16.836  1.00  0.00     0.298 C 
HETATM   33  C17 UNL     1      15.750  22.795  17.107  1.00  0.00     0.198 C 
HETATM   34  O3  UNL     1      14.622  22.097  16.747  1.00  0.00    -0.388 OA
HETATM   35  C18 UNL     1      14.506  21.027  17.665  1.00  0.00     0.198 C 
HETATM   36  C19 UNL     1      15.649  20.083  17.438  1.00  0.00     0.298 C 
ENDBRANCH  30  31
ENDBRANCH  29  30
ENDBRANCH  28  29
ENDBRANCH  27  28
ENDBRANCH  26  27
BRANCH  26  37
HETATM   37  C20 UNL     1      19.969  24.743  17.715  1.00  0.00     0.001 C 
HETATM   38  C21 UNL     1      20.348  23.699  16.651  1.00  0.00     0.022 C 
HETATM   39  C22 UNL     1      21.014  25.803  17.633  1.00  0.00     0.022 C 
HETATM   40  C23 UNL     1      18.593  25.221  17.392  1.00  0.00     0.022 C 
ENDBRANCH  26  37
ENDBRANCH  25  26
ENDBRANCH  10  23
BRANCH  12  41
HETATM   41  O1  UNL     1      23.277  26.905  23.082  1.00  0.00    -0.390 OA
HETATM   42  C1  UNL     1      22.782  27.081  24.327  1.00  0.00     0.202 C 
ENDBRANCH  12  41
BRANCH  19  43
HETATM   43  C30 UNL     1      27.136  26.038  20.860  1.00  0.00     0.269 C 
HETATM   44  O5  UNL     1      27.564  26.669  21.834  1.00  0.00    -0.264 OA
BRANCH  43  45
HETATM   45  O6  UNL     1      27.421  26.447  19.578  1.00  0.00    -0.316 OA
BRANCH  45  46
HETATM   46  C31 UNL     1      27.415  27.755  19.089  1.00  0.00     0.123 C 
HETATM   47  C32 UNL     1      28.706  28.164  18.457  1.00  0.00     0.040 C 
HETATM   48  C33 UNL     1      26.314  27.829  18.033  1.00  0.00     0.040 C 
ENDBRANCH  45  46
ENDBRANCH  43  45
ENDBRANCH  19  43
ENDBRANCH   5   8
ENDBRANCH   1   4
TORSDOF 14
ENDMDL
