MODEL 1
REMARK VINA RESULT: -7.414673759      0.000      0.000
REMARK  15 active torsions:
REMARK  status: ('A' for Active; 'I' for Inactive)
REMARK    1  A    between atoms: C2_2  and  C3_3 
REMARK    2  A    between atoms: C3_3  and  C4_4 
REMARK    3  A    between atoms: C4_4  and  C5_5 
REMARK    4  A    between atoms: C5_5  and  C6_6 
REMARK    5  A    between atoms: C6_6  and  C7_7 
REMARK    6  A    between atoms: C7_7  and  C8_8 
REMARK    7  A    between atoms: C14_14  and  N1_15 
REMARK    8  A    between atoms: C17_19  and  N2_20 
REMARK    9  A    between atoms: C27_35  and  O2_36 
REMARK   10  A    between atoms: C29_38  and  O3_39 
REMARK   11  A    between atoms: C30_41  and  C31_42 
REMARK   12  A    between atoms: C31_42  and  O4_43 
REMARK   13  A    between atoms: C31_42  and  N5_45 
REMARK   14  A    between atoms: C35_49  and  C36_50 
REMARK   15  A    between atoms: C36_50  and  C37_51 
ROOT
HETATM    1  C8  UNL     1      20.070  24.247  16.826  1.00  0.00     0.083 C 
HETATM    2  C9  UNL     1      20.181  22.984  17.599  1.00  0.00    -0.018 C 
HETATM    3  C10 UNL     1      19.776  22.856  18.974  1.00  0.00    -0.025 C 
HETATM    4  C11 UNL     1      19.458  23.995  19.850  1.00  0.00     0.066 C 
HETATM    5  C12 UNL     1      20.576  24.947  19.918  1.00  0.00    -0.038 A 
HETATM    6  C13 UNL     1      20.926  25.370  21.179  1.00  0.00     0.040 A 
HETATM    7  C14 UNL     1      21.968  26.263  21.285  1.00  0.00     0.069 A 
HETATM    8  C22 UNL     1      22.693  26.759  20.210  1.00  0.00     0.109 A 
HETATM    9  C23 UNL     1      22.311  26.284  18.951  1.00  0.00     0.026 A 
HETATM   10  C24 UNL     1      21.285  25.428  18.793  1.00  0.00     0.031 A 
HETATM   11  C25 UNL     1      20.771  25.388  17.424  1.00  0.00     0.168 C 
HETATM   12  O1  UNL     1      20.961  26.429  16.781  1.00  0.00    -0.292 OA
HETATM   13  C26 UNL     1      23.371  26.606  17.968  1.00  0.00     0.027 C 
HETATM   14  C27 UNL     1      23.782  26.196  16.808  1.00  0.00     0.108 C 
HETATM   15  C29 UNL     1      24.905  26.930  16.118  1.00  0.00     0.089 C 
HETATM   16  C30 UNL     1      25.170  28.238  16.738  1.00  0.00     0.122 C 
HETATM   17  C34 UNL     1      25.251  28.187  18.226  1.00  0.00     0.063 C 
HETATM   18  C35 UNL     1      24.425  27.190  18.872  1.00  0.00     0.103 C 
HETATM   19  O5  UNL     1      23.708  27.640  20.001  1.00  0.00    -0.332 OA
ENDROOT
BRANCH   7  20
HETATM   20  N1  UNL     1      22.377  26.758  22.582  1.00  0.00    -0.340 N 
HETATM   21  C15 UNL     1      23.443  26.292  23.137  1.00  0.00     0.110 A 
HETATM   22  C16 UNL     1      23.846  26.759  24.381  1.00  0.00     0.097 A 
HETATM   23  N4  UNL     1      24.206  25.356  22.563  1.00  0.00    -0.332 N 
HETATM   24  C17 UNL     1      24.982  26.277  24.994  1.00  0.00     0.107 A 
HETATM   25  N3  UNL     1      25.698  25.332  24.349  1.00  0.00    -0.332 N 
HETATM   26  C20 UNL     1      25.322  24.868  23.142  1.00  0.00     0.080 A 
ATOM     27  H3  UNL     1      26.543  24.960  24.785  1.00  0.00     0.168 HD
HETATM   28  C21 UNL     1      26.085  23.836  22.411  1.00  0.00     0.089 C 
ATOM     29  H4  UNL     1      23.933  24.997  21.649  1.00  0.00     0.168 HD
ATOM     30  H1  UNL     1      21.824  27.473  23.055  1.00  0.00     0.167 HD
BRANCH  24  31
HETATM   31  N2  UNL     1      25.382  26.764  26.267  1.00  0.00    -0.376 N 
HETATM   32  C18 UNL     1      24.470  27.582  27.024  1.00  0.00     0.150 C 
HETATM   33  C19 UNL     1      26.705  26.440  26.809  1.00  0.00     0.150 C 
ENDBRANCH  24  31
ENDBRANCH   7  20
BRANCH  18  34
HETATM   34  C36 UNL     1      25.173  26.026  19.552  1.00  0.00     0.070 C 
BRANCH  34  35
HETATM   35  C37 UNL     1      26.575  25.870  19.352  1.00  0.00    -0.033 C 
HETATM   36  C38 UNL     1      27.055  24.843  18.608  1.00  0.00     0.007 C 
ENDBRANCH  34  35
ENDBRANCH  18  34
BRANCH  14  37
HETATM   37  O2  UNL     1      23.248  25.125  16.099  1.00  0.00    -0.353 OA
HETATM   38  C28 UNL     1      23.052  25.172  14.736  1.00  0.00     0.210 C 
ENDBRANCH  14  37
BRANCH   1  39
HETATM   39  C7  UNL     1      18.657  24.598  16.409  1.00  0.00     0.016 C 
BRANCH  39  40
HETATM   40  C6  UNL     1      18.126  23.610  15.428  1.00  0.00     0.001 C 
BRANCH  40  41
HETATM   41  C5  UNL     1      16.769  23.062  15.839  1.00  0.00     0.000 C 
BRANCH  41  42
HETATM   42  C4  UNL     1      16.523  23.509  17.266  1.00  0.00     0.004 C 
BRANCH  42  43
HETATM   43  C3  UNL     1      16.189  22.332  18.160  1.00  0.00     0.026 C 
BRANCH  43  44
HETATM   44  C2  UNL     1      16.664  21.052  17.600  1.00  0.00    -0.037 C 
HETATM   45  C1  UNL     1      17.314  20.129  18.309  1.00  0.00     0.007 C 
ENDBRANCH  43  44
ENDBRANCH  42  43
ENDBRANCH  41  42
ENDBRANCH  40  41
ENDBRANCH  39  40
ENDBRANCH   1  39
BRANCH  15  46
HETATM   46  O3  UNL     1      25.870  26.198  15.546  1.00  0.00    -0.361 OA
ATOM     47  H3  UNL     1      26.470  26.640  14.956  1.00  0.00     0.217 HD
ENDBRANCH  15  46
BRANCH  16  48
HETATM   48  C31 UNL     1      26.262  28.962  16.120  1.00  0.00     0.123 C 
BRANCH  48  49
HETATM   49  O4  UNL     1      26.288  28.906  14.804  1.00  0.00    -0.349 OA
ATOM     50  H4  UNL     1      27.110  29.173  14.410  1.00  0.00     0.219 HD
ENDBRANCH  48  49
BRANCH  48  51
HETATM   51  N5  UNL     1      27.309  29.717  16.639  1.00  0.00    -0.374 N 
HETATM   52  C32 UNL     1      27.272  31.093  16.993  1.00  0.00     0.150 C 
HETATM   53  C33 UNL     1      28.611  29.048  16.859  1.00  0.00     0.150 C 
ENDBRANCH  48  51
ENDBRANCH  16  48
TORSDOF 15
ENDMDL
MODEL 2
REMARK VINA RESULT: -7.384919849      0.905      1.244
REMARK  15 active torsions:
REMARK  status: ('A' for Active; 'I' for Inactive)
REMARK    1  A    between atoms: C2_2  and  C3_3 
REMARK    2  A    between atoms: C3_3  and  C4_4 
REMARK    3  A    between atoms: C4_4  and  C5_5 
REMARK    4  A    between atoms: C5_5  and  C6_6 
REMARK    5  A    between atoms: C6_6  and  C7_7 
REMARK    6  A    between atoms: C7_7  and  C8_8 
REMARK    7  A    between atoms: C14_14  and  N1_15 
REMARK    8  A    between atoms: C17_19  and  N2_20 
REMARK    9  A    between atoms: C27_35  and  O2_36 
REMARK   10  A    between atoms: C29_38  and  O3_39 
REMARK   11  A    between atoms: C30_41  and  C31_42 
REMARK   12  A    between atoms: C31_42  and  O4_43 
REMARK   13  A    between atoms: C31_42  and  N5_45 
REMARK   14  A    between atoms: C35_49  and  C36_50 
REMARK   15  A    between atoms: C36_50  and  C37_51 
ROOT
HETATM    1  C8  UNL     1      20.135  24.545  17.098  1.00  0.00     0.083 C 
HETATM    2  C9  UNL     1      20.240  23.242  17.802  1.00  0.00    -0.018 C 
HETATM    3  C10 UNL     1      19.920  23.063  19.194  1.00  0.00    -0.025 C 
HETATM    4  C11 UNL     1      19.711  24.170  20.141  1.00  0.00     0.066 C 
HETATM    5  C12 UNL     1      20.873  25.070  20.178  1.00  0.00    -0.038 A 
HETATM    6  C13 UNL     1      21.323  25.416  21.431  1.00  0.00     0.040 A 
HETATM    7  C14 UNL     1      22.408  26.259  21.508  1.00  0.00     0.069 A 
HETATM    8  C22 UNL     1      23.083  26.777  20.411  1.00  0.00     0.109 A 
HETATM    9  C23 UNL     1      22.598  26.380  19.160  1.00  0.00     0.026 A 
HETATM   10  C24 UNL     1      21.528  25.577  19.032  1.00  0.00     0.031 A 
HETATM   11  C25 UNL     1      20.924  25.625  17.700  1.00  0.00     0.168 C 
HETATM   12  O1  UNL     1      21.118  26.688  17.095  1.00  0.00    -0.292 OA
HETATM   13  C26 UNL     1      23.605  26.707  18.124  1.00  0.00     0.027 C 
HETATM   14  C27 UNL     1      23.922  26.337  16.921  1.00  0.00     0.108 C 
HETATM   15  C29 UNL     1      25.029  27.057  16.191  1.00  0.00     0.089 C 
HETATM   16  C30 UNL     1      25.391  28.321  16.852  1.00  0.00     0.122 C 
HETATM   17  C34 UNL     1      25.567  28.193  18.328  1.00  0.00     0.063 C 
HETATM   18  C35 UNL     1      24.742  27.200  18.981  1.00  0.00     0.103 C 
HETATM   19  O5  UNL     1      24.121  27.624  20.176  1.00  0.00    -0.332 OA
ENDROOT
BRANCH   7  20
HETATM   20  N1  UNL     1      22.923  26.672  22.796  1.00  0.00    -0.340 N 
HETATM   21  C15 UNL     1      23.996  26.129  23.260  1.00  0.00     0.110 A 
HETATM   22  C16 UNL     1      24.500  26.516  24.494  1.00  0.00     0.097 A 
HETATM   23  N4  UNL     1      24.673  25.185  22.597  1.00  0.00    -0.332 N 
HETATM   24  C17 UNL     1      25.646  25.952  25.010  1.00  0.00     0.107 A 
HETATM   25  N3  UNL     1      26.270  25.004  24.279  1.00  0.00    -0.332 N 
HETATM   26  C20 UNL     1      25.796  24.617  23.080  1.00  0.00     0.080 A 
ATOM     27  H3  UNL     1      27.120  24.572  24.643  1.00  0.00     0.168 HD
HETATM   28  C21 UNL     1      26.457  23.584  22.256  1.00  0.00     0.089 C 
ATOM     29  H4  UNL     1      24.324  24.883  21.688  1.00  0.00     0.168 HD
ATOM     30  H1  UNL     1      22.438  27.390  23.335  1.00  0.00     0.167 HD
BRANCH  24  31
HETATM   31  N2  UNL     1      26.149  26.358  26.275  1.00  0.00    -0.376 N 
HETATM   32  C18 UNL     1      25.495  27.431  26.980  1.00  0.00     0.150 C 
HETATM   33  C19 UNL     1      27.319  25.697  26.861  1.00  0.00     0.150 C 
ENDBRANCH  24  31
ENDBRANCH   7  20
BRANCH  18  34
HETATM   34  C36 UNL     1      25.479  25.975  19.554  1.00  0.00     0.070 C 
BRANCH  34  35
HETATM   35  C37 UNL     1      26.848  25.754  19.228  1.00  0.00    -0.033 C 
HETATM   36  C38 UNL     1      27.209  24.715  18.434  1.00  0.00     0.007 C 
ENDBRANCH  34  35
ENDBRANCH  18  34
BRANCH  14  37
HETATM   37  O2  UNL     1      23.295  25.326  16.200  1.00  0.00    -0.353 OA
HETATM   38  C28 UNL     1      23.060  25.427  14.847  1.00  0.00     0.210 C 
ENDBRANCH  14  37
BRANCH   1  39
HETATM   39  C7  UNL     1      18.715  24.975  16.793  1.00  0.00     0.016 C 
BRANCH  39  40
HETATM   40  C6  UNL     1      18.087  24.074  15.786  1.00  0.00     0.001 C 
BRANCH  40  41
HETATM   41  C5  UNL     1      16.791  23.459  16.291  1.00  0.00     0.000 C 
BRANCH  41  42
HETATM   42  C4  UNL     1      15.865  23.333  15.098  1.00  0.00     0.004 C 
BRANCH  42  43
HETATM   43  C3  UNL     1      16.618  22.876  13.865  1.00  0.00     0.026 C 
BRANCH  43  44
HETATM   44  C2  UNL     1      16.162  21.555  13.390  1.00  0.00    -0.037 C 
HETATM   45  C1  UNL     1      15.390  20.737  14.105  1.00  0.00     0.007 C 
ENDBRANCH  43  44
ENDBRANCH  42  43
ENDBRANCH  41  42
ENDBRANCH  40  41
ENDBRANCH  39  40
ENDBRANCH   1  39
BRANCH  15  46
HETATM   46  O3  UNL     1      25.920  26.315  15.522  1.00  0.00    -0.361 OA
ATOM     47  H3  UNL     1      26.840  26.437  15.727  1.00  0.00     0.217 HD
ENDBRANCH  15  46
BRANCH  16  48
HETATM   48  C31 UNL     1      26.472  29.029  16.197  1.00  0.00     0.123 C 
BRANCH  48  49
HETATM   49  O4  UNL     1      26.431  29.003  14.880  1.00  0.00    -0.349 OA
ATOM     50  H4  UNL     1      26.349  29.854  14.467  1.00  0.00     0.219 HD
ENDBRANCH  48  49
BRANCH  48  51
HETATM   51  N5  UNL     1      27.564  29.742  16.679  1.00  0.00    -0.374 N 
HETATM   52  C32 UNL     1      27.568  31.088  17.136  1.00  0.00     0.150 C 
HETATM   53  C33 UNL     1      28.876  29.058  16.737  1.00  0.00     0.150 C 
ENDBRANCH  48  51
ENDBRANCH  16  48
TORSDOF 15
ENDMDL
MODEL 3
REMARK VINA RESULT: -7.292066641      0.755      1.009
REMARK  15 active torsions:
REMARK  status: ('A' for Active; 'I' for Inactive)
REMARK    1  A    between atoms: C2_2  and  C3_3 
REMARK    2  A    between atoms: C3_3  and  C4_4 
REMARK    3  A    between atoms: C4_4  and  C5_5 
REMARK    4  A    between atoms: C5_5  and  C6_6 
REMARK    5  A    between atoms: C6_6  and  C7_7 
REMARK    6  A    between atoms: C7_7  and  C8_8 
REMARK    7  A    between atoms: C14_14  and  N1_15 
REMARK    8  A    between atoms: C17_19  and  N2_20 
REMARK    9  A    between atoms: C27_35  and  O2_36 
REMARK   10  A    between atoms: C29_38  and  O3_39 
REMARK   11  A    between atoms: C30_41  and  C31_42 
REMARK   12  A    between atoms: C31_42  and  O4_43 
REMARK   13  A    between atoms: C31_42  and  N5_45 
REMARK   14  A    between atoms: C35_49  and  C36_50 
REMARK   15  A    between atoms: C36_50  and  C37_51 
ROOT
HETATM    1  C8  UNL     1      19.918  24.574  17.486  1.00  0.00     0.083 C 
HETATM    2  C9  UNL     1      20.025  23.271  18.192  1.00  0.00    -0.018 C 
HETATM    3  C10 UNL     1      19.784  23.109  19.601  1.00  0.00    -0.025 C 
HETATM    4  C11 UNL     1      19.665  24.226  20.552  1.00  0.00     0.066 C 
HETATM    5  C12 UNL     1      20.853  25.092  20.513  1.00  0.00    -0.038 A 
HETATM    6  C13 UNL     1      21.387  25.429  21.735  1.00  0.00     0.040 A 
HETATM    7  C14 UNL     1      22.500  26.239  21.742  1.00  0.00     0.069 A 
HETATM    8  C22 UNL     1      23.123  26.731  20.603  1.00  0.00     0.109 A 
HETATM    9  C23 UNL     1      22.554  26.344  19.386  1.00  0.00     0.026 A 
HETATM   10  C24 UNL     1      21.454  25.572  19.327  1.00  0.00     0.031 A 
HETATM   11  C25 UNL     1      20.773  25.632  18.033  1.00  0.00     0.168 C 
HETATM   12  O1  UNL     1      20.963  26.686  17.410  1.00  0.00    -0.292 OA
HETATM   13  C26 UNL     1      23.507  26.634  18.290  1.00  0.00     0.027 C 
HETATM   14  C27 UNL     1      23.740  26.249  17.073  1.00  0.00     0.108 C 
HETATM   15  C29 UNL     1      24.823  26.931  16.274  1.00  0.00     0.089 C 
HETATM   16  C30 UNL     1      25.262  28.187  16.904  1.00  0.00     0.122 C 
HETATM   17  C34 UNL     1      25.521  28.061  18.367  1.00  0.00     0.063 C 
HETATM   18  C35 UNL     1      24.706  27.097  19.075  1.00  0.00     0.103 C 
HETATM   19  O5  UNL     1      24.170  27.546  20.301  1.00  0.00    -0.332 OA
ENDROOT
BRANCH   7  20
HETATM   20  N1  UNL     1      23.102  26.643  22.994  1.00  0.00    -0.340 N 
HETATM   21  C15 UNL     1      24.180  26.064  23.402  1.00  0.00     0.110 A 
HETATM   22  C16 UNL     1      24.768  26.442  24.601  1.00  0.00     0.097 A 
HETATM   23  N4  UNL     1      24.782  25.090  22.711  1.00  0.00    -0.332 N 
HETATM   24  C17 UNL     1      25.919  25.839  25.057  1.00  0.00     0.107 A 
HETATM   25  N3  UNL     1      26.466  24.863  24.301  1.00  0.00    -0.332 N 
HETATM   26  C20 UNL     1      25.910  24.484  23.134  1.00  0.00     0.080 A 
ATOM     27  H3  UNL     1      27.319  24.402  24.620  1.00  0.00     0.168 HD
HETATM   28  C21 UNL     1      26.484  23.421  22.285  1.00  0.00     0.089 C 
ATOM     29  H4  UNL     1      24.371  24.794  21.826  1.00  0.00     0.168 HD
ATOM     30  H1  UNL     1      22.676  27.382  23.552  1.00  0.00     0.167 HD
BRANCH  24  31
HETATM   31  N2  UNL     1      26.509  26.236  26.287  1.00  0.00    -0.376 N 
HETATM   32  C18 UNL     1      25.967  27.369  26.992  1.00  0.00     0.150 C 
HETATM   33  C19 UNL     1      27.655  25.505  26.836  1.00  0.00     0.150 C 
ENDBRANCH  24  31
ENDBRANCH   7  20
BRANCH  18  34
HETATM   34  C36 UNL     1      25.440  25.853  19.612  1.00  0.00     0.070 C 
BRANCH  34  35
HETATM   35  C37 UNL     1      26.812  25.645  19.291  1.00  0.00    -0.033 C 
HETATM   36  C38 UNL     1      27.178  24.670  18.423  1.00  0.00     0.007 C 
ENDBRANCH  34  35
ENDBRANCH  18  34
BRANCH  14  37
HETATM   37  O2  UNL     1      23.041  25.254  16.397  1.00  0.00    -0.353 OA
HETATM   38  C28 UNL     1      22.770  25.334  15.049  1.00  0.00     0.210 C 
ENDBRANCH  14  37
BRANCH   1  39
HETATM   39  C7  UNL     1      18.496  25.045  17.263  1.00  0.00     0.016 C 
BRANCH  39  40
HETATM   40  C6  UNL     1      17.558  23.891  17.170  1.00  0.00     0.001 C 
BRANCH  40  41
HETATM   41  C5  UNL     1      16.436  23.976  18.194  1.00  0.00     0.000 C 
BRANCH  41  42
HETATM   42  C4  UNL     1      15.761  22.619  18.226  1.00  0.00     0.004 C 
BRANCH  42  43
HETATM   43  C3  UNL     1      16.049  21.894  19.525  1.00  0.00     0.026 C 
BRANCH  43  44
HETATM   44  C2  UNL     1      17.027  20.803  19.351  1.00  0.00    -0.037 C 
HETATM   45  C1  UNL     1      17.390  20.316  18.164  1.00  0.00     0.007 C 
ENDBRANCH  43  44
ENDBRANCH  42  43
ENDBRANCH  41  42
ENDBRANCH  40  41
ENDBRANCH  39  40
ENDBRANCH   1  39
BRANCH  15  46
HETATM   46  O3  UNL     1      25.650  26.160  15.558  1.00  0.00    -0.361 OA
ATOM     47  H3  UNL     1      26.370  26.583  15.105  1.00  0.00     0.217 HD
ENDBRANCH  15  46
BRANCH  16  48
HETATM   48  C31 UNL     1      26.322  28.859  16.181  1.00  0.00     0.123 C 
BRANCH  48  49
HETATM   49  O4  UNL     1      26.163  28.894  14.873  1.00  0.00    -0.349 OA
ATOM     50  H4  UNL     1      26.958  29.056  14.379  1.00  0.00     0.219 HD
ENDBRANCH  48  49
BRANCH  48  51
HETATM   51  N5  UNL     1      27.496  29.483  16.589  1.00  0.00    -0.374 N 
HETATM   52  C32 UNL     1      28.774  28.880  16.735  1.00  0.00     0.150 C 
HETATM   53  C33 UNL     1      27.444  30.927  16.913  1.00  0.00     0.150 C 
ENDBRANCH  48  51
ENDBRANCH  16  48
TORSDOF 15
ENDMDL
MODEL 4
REMARK VINA RESULT: -6.842864116      2.031      2.820
REMARK  15 active torsions:
REMARK  status: ('A' for Active; 'I' for Inactive)
REMARK    1  A    between atoms: C2_2  and  C3_3 
REMARK    2  A    between atoms: C3_3  and  C4_4 
REMARK    3  A    between atoms: C4_4  and  C5_5 
REMARK    4  A    between atoms: C5_5  and  C6_6 
REMARK    5  A    between atoms: C6_6  and  C7_7 
REMARK    6  A    between atoms: C7_7  and  C8_8 
REMARK    7  A    between atoms: C14_14  and  N1_15 
REMARK    8  A    between atoms: C17_19  and  N2_20 
REMARK    9  A    between atoms: C27_35  and  O2_36 
REMARK   10  A    between atoms: C29_38  and  O3_39 
REMARK   11  A    between atoms: C30_41  and  C31_42 
REMARK   12  A    between atoms: C31_42  and  O4_43 
REMARK   13  A    between atoms: C31_42  and  N5_45 
REMARK   14  A    between atoms: C35_49  and  C36_50 
REMARK   15  A    between atoms: C36_50  and  C37_51 
ROOT
HETATM    1  C8  UNL     1      20.267  25.082  17.033  1.00  0.00     0.083 C 
HETATM    2  C9  UNL     1      20.509  23.620  16.942  1.00  0.00    -0.018 C 
HETATM    3  C10 UNL     1      20.579  22.752  18.089  1.00  0.00    -0.025 C 
HETATM    4  C11 UNL     1      20.684  23.228  19.477  1.00  0.00     0.066 C 
HETATM    5  C12 UNL     1      21.847  24.111  19.654  1.00  0.00    -0.038 A 
HETATM    6  C13 UNL     1      22.639  23.845  20.747  1.00  0.00     0.040 A 
HETATM    7  C14 UNL     1      23.737  24.651  20.949  1.00  0.00     0.069 A 
HETATM    8  C22 UNL     1      24.103  25.705  20.123  1.00  0.00     0.109 A 
HETATM    9  C23 UNL     1      23.277  25.921  19.015  1.00  0.00     0.026 A 
HETATM   10  C24 UNL     1      22.180  25.177  18.787  1.00  0.00     0.031 A 
HETATM   11  C25 UNL     1      21.235  25.806  17.865  1.00  0.00     0.168 C 
HETATM   12  O1  UNL     1      21.298  27.043  17.842  1.00  0.00    -0.292 OA
HETATM   13  C26 UNL     1      23.971  26.814  18.059  1.00  0.00     0.027 C 
HETATM   14  C27 UNL     1      23.928  27.113  16.797  1.00  0.00     0.108 C 
HETATM   15  C29 UNL     1      24.819  28.207  16.263  1.00  0.00     0.089 C 
HETATM   16  C30 UNL     1      25.401  29.018  17.345  1.00  0.00     0.122 C 
HETATM   17  C34 UNL     1      25.972  28.205  18.458  1.00  0.00     0.063 C 
HETATM   18  C35 UNL     1      25.319  26.941  18.720  1.00  0.00     0.103 C 
HETATM   19  O5  UNL     1      25.069  26.661  20.080  1.00  0.00    -0.332 OA
ENDROOT
BRANCH   7  20
HETATM   20  N1  UNL     1      24.603  24.433  22.087  1.00  0.00    -0.340 N 
HETATM   21  C15 UNL     1      25.738  23.842  21.925  1.00  0.00     0.110 A 
HETATM   22  C16 UNL     1      26.578  23.628  23.009  1.00  0.00     0.097 A 
HETATM   23  N4  UNL     1      26.163  23.412  20.732  1.00  0.00    -0.332 N 
HETATM   24  C17 UNL     1      27.794  23.000  22.860  1.00  0.00     0.107 A 
HETATM   25  N3  UNL     1      28.152  22.595  21.622  1.00  0.00    -0.332 N 
HETATM   26  C20 UNL     1      27.349  22.795  20.560  1.00  0.00     0.080 A 
ATOM     27  H3  UNL     1      29.048  22.126  21.489  1.00  0.00     0.168 HD
HETATM   28  C21 UNL     1      27.712  22.364  19.194  1.00  0.00     0.089 C 
ATOM     29  H4  UNL     1      25.565  23.557  19.919  1.00  0.00     0.168 HD
ATOM     30  H1  UNL     1      24.317  24.747  23.015  1.00  0.00     0.167 HD
BRANCH  24  31
HETATM   31  N2  UNL     1      28.643  22.787  23.979  1.00  0.00    -0.376 N 
HETATM   32  C18 UNL     1      29.547  21.665  23.971  1.00  0.00     0.150 C 
HETATM   33  C19 UNL     1      28.604  23.694  25.130  1.00  0.00     0.150 C 
ENDBRANCH  24  31
ENDBRANCH   7  20
BRANCH  18  34
HETATM   34  C36 UNL     1      26.136  25.675  18.394  1.00  0.00     0.070 C 
BRANCH  34  35
HETATM   35  C37 UNL     1      27.420  25.796  17.791  1.00  0.00    -0.033 C 
HETATM   36  C38 UNL     1      27.598  25.491  16.481  1.00  0.00     0.007 C 
ENDBRANCH  34  35
ENDBRANCH  18  34
BRANCH  14  37
HETATM   37  O2  UNL     1      23.086  26.523  15.860  1.00  0.00    -0.353 OA
HETATM   38  C28 UNL     1      23.489  25.467  15.073  1.00  0.00     0.210 C 
ENDBRANCH  14  37
BRANCH   1  39
HETATM   39  C7  UNL     1      18.837  25.456  17.363  1.00  0.00     0.016 C 
BRANCH  39  40
HETATM   40  C6  UNL     1      17.876  24.700  16.512  1.00  0.00     0.001 C 
BRANCH  40  41
HETATM   41  C5  UNL     1      16.910  23.863  17.337  1.00  0.00     0.000 C 
BRANCH  41  42
HETATM   42  C4  UNL     1      16.858  22.489  16.701  1.00  0.00     0.004 C 
BRANCH  42  43
HETATM   43  C3  UNL     1      17.478  22.500  15.318  1.00  0.00     0.026 C 
BRANCH  43  44
HETATM   44  C2  UNL     1      16.515  22.108  14.270  1.00  0.00    -0.037 C 
HETATM   45  C1  UNL     1      16.376  22.755  13.113  1.00  0.00     0.007 C 
ENDBRANCH  43  44
ENDBRANCH  42  43
ENDBRANCH  41  42
ENDBRANCH  40  41
ENDBRANCH  39  40
ENDBRANCH   1  39
BRANCH  15  46
HETATM   46  O3  UNL     1      25.460  27.983  15.110  1.00  0.00    -0.361 OA
ATOM     47  H3  UNL     1      26.072  27.257  15.077  1.00  0.00     0.217 HD
ENDBRANCH  15  46
BRANCH  16  48
HETATM   48  C31 UNL     1      26.287  30.063  16.875  1.00  0.00     0.123 C 
BRANCH  48  49
HETATM   49  O4  UNL     1      25.688  31.194  16.558  1.00  0.00    -0.349 OA
ATOM     50  H4  UNL     1      26.201  31.776  16.010  1.00  0.00     0.219 HD
ENDBRANCH  48  49
BRANCH  48  51
HETATM   51  N5  UNL     1      27.663  30.120  16.682  1.00  0.00    -0.374 N 
HETATM   52  C32 UNL     1      28.449  29.239  15.890  1.00  0.00     0.150 C 
HETATM   53  C33 UNL     1      28.420  31.198  17.357  1.00  0.00     0.150 C 
ENDBRANCH  48  51
ENDBRANCH  16  48
TORSDOF 15
ENDMDL
MODEL 5
REMARK VINA RESULT: -6.779792491      1.445      2.195
REMARK  15 active torsions:
REMARK  status: ('A' for Active; 'I' for Inactive)
REMARK    1  A    between atoms: C2_2  and  C3_3 
REMARK    2  A    between atoms: C3_3  and  C4_4 
REMARK    3  A    between atoms: C4_4  and  C5_5 
REMARK    4  A    between atoms: C5_5  and  C6_6 
REMARK    5  A    between atoms: C6_6  and  C7_7 
REMARK    6  A    between atoms: C7_7  and  C8_8 
REMARK    7  A    between atoms: C14_14  and  N1_15 
REMARK    8  A    between atoms: C17_19  and  N2_20 
REMARK    9  A    between atoms: C27_35  and  O2_36 
REMARK   10  A    between atoms: C29_38  and  O3_39 
REMARK   11  A    between atoms: C30_41  and  C31_42 
REMARK   12  A    between atoms: C31_42  and  O4_43 
REMARK   13  A    between atoms: C31_42  and  N5_45 
REMARK   14  A    between atoms: C35_49  and  C36_50 
REMARK   15  A    between atoms: C36_50  and  C37_51 
ROOT
HETATM    1  C8  UNL     1      20.312  25.063  17.246  1.00  0.00     0.083 C 
HETATM    2  C9  UNL     1      20.527  23.602  17.089  1.00  0.00    -0.018 C 
HETATM    3  C10 UNL     1      20.648  22.693  18.199  1.00  0.00    -0.025 C 
HETATM    4  C11 UNL     1      20.838  23.118  19.595  1.00  0.00     0.066 C 
HETATM    5  C12 UNL     1      22.021  23.979  19.738  1.00  0.00    -0.038 A 
HETATM    6  C13 UNL     1      22.869  23.665  20.774  1.00  0.00     0.040 A 
HETATM    7  C14 UNL     1      23.988  24.449  20.942  1.00  0.00     0.069 A 
HETATM    8  C22 UNL     1      24.323  25.527  20.134  1.00  0.00     0.109 A 
HETATM    9  C23 UNL     1      23.439  25.794  19.083  1.00  0.00     0.026 A 
HETATM   10  C24 UNL     1      22.321  25.071  18.891  1.00  0.00     0.031 A 
HETATM   11  C25 UNL     1      21.334  25.745  18.046  1.00  0.00     0.168 C 
HETATM   12  O1  UNL     1      21.413  26.981  18.063  1.00  0.00    -0.292 OA
HETATM   13  C26 UNL     1      24.091  26.711  18.121  1.00  0.00     0.027 C 
HETATM   14  C27 UNL     1      23.982  27.056  16.875  1.00  0.00     0.108 C 
HETATM   15  C29 UNL     1      24.858  28.158  16.331  1.00  0.00     0.089 C 
HETATM   16  C30 UNL     1      25.511  28.922  17.406  1.00  0.00     0.122 C 
HETATM   17  C34 UNL     1      26.131  28.063  18.456  1.00  0.00     0.063 C 
HETATM   18  C35 UNL     1      25.476  26.798  18.709  1.00  0.00     0.103 C 
HETATM   19  O5  UNL     1      25.298  26.473  20.071  1.00  0.00    -0.332 OA
ENDROOT
BRANCH   7  20
HETATM   20  N1  UNL     1      24.913  24.180  22.022  1.00  0.00    -0.340 N 
HETATM   21  C15 UNL     1      24.844  24.868  23.110  1.00  0.00     0.110 A 
HETATM   22  C16 UNL     1      25.725  24.620  24.153  1.00  0.00     0.097 A 
HETATM   23  N4  UNL     1      23.941  25.837  23.296  1.00  0.00    -0.332 N 
HETATM   24  C17 UNL     1      25.670  25.342  25.326  1.00  0.00     0.107 A 
HETATM   25  N3  UNL     1      24.729  26.304  25.434  1.00  0.00    -0.332 N 
HETATM   26  C20 UNL     1      23.865  26.557  24.433  1.00  0.00     0.080 A 
ATOM     27  H3  UNL     1      24.671  26.851  26.294  1.00  0.00     0.168 HD
HETATM   28  C21 UNL     1      22.825  27.602  24.522  1.00  0.00     0.089 C 
ATOM     29  H4  UNL     1      23.281  26.039  22.545  1.00  0.00     0.168 HD
ATOM     30  H1  UNL     1      25.617  23.449  21.922  1.00  0.00     0.167 HD
BRANCH  24  31
HETATM   31  N2  UNL     1      26.579  25.077  26.384  1.00  0.00    -0.376 N 
HETATM   32  C18 UNL     1      27.361  26.158  26.926  1.00  0.00     0.150 C 
HETATM   33  C19 UNL     1      26.724  23.721  26.923  1.00  0.00     0.150 C 
ENDBRANCH  24  31
ENDBRANCH   7  20
BRANCH  18  34
HETATM   34  C36 UNL     1      26.255  25.535  18.294  1.00  0.00     0.070 C 
BRANCH  34  35
HETATM   35  C37 UNL     1      27.576  25.655  17.775  1.00  0.00    -0.033 C 
HETATM   36  C38 UNL     1      27.850  25.291  16.498  1.00  0.00     0.007 C 
ENDBRANCH  34  35
ENDBRANCH  18  34
BRANCH  14  37
HETATM   37  O2  UNL     1      23.081  26.511  15.967  1.00  0.00    -0.353 OA
HETATM   38  C28 UNL     1      23.421  25.469  15.132  1.00  0.00     0.210 C 
ENDBRANCH  14  37
BRANCH   1  39
HETATM   39  C7  UNL     1      18.908  25.443  17.668  1.00  0.00     0.016 C 
BRANCH  39  40
HETATM   40  C6  UNL     1      17.892  24.817  16.775  1.00  0.00     0.001 C 
BRANCH  40  41
HETATM   41  C5  UNL     1      16.966  23.873  17.527  1.00  0.00     0.000 C 
BRANCH  41  42
HETATM   42  C4  UNL     1      16.420  22.887  16.514  1.00  0.00     0.004 C 
BRANCH  42  43
HETATM   43  C3  UNL     1      17.258  22.874  15.253  1.00  0.00     0.026 C 
BRANCH  43  44
HETATM   44  C2  UNL     1      16.432  22.940  14.031  1.00  0.00    -0.037 C 
HETATM   45  C1  UNL     1      16.480  22.032  13.056  1.00  0.00     0.007 C 
ENDBRANCH  43  44
ENDBRANCH  42  43
ENDBRANCH  41  42
ENDBRANCH  40  41
ENDBRANCH  39  40
ENDBRANCH   1  39
BRANCH  15  46
HETATM   46  O3  UNL     1      25.431  27.967  15.136  1.00  0.00    -0.361 OA
ATOM     47  H3  UNL     1      24.871  27.991  14.368  1.00  0.00     0.217 HD
ENDBRANCH  15  46
BRANCH  16  48
HETATM   48  C31 UNL     1      26.384  29.972  16.923  1.00  0.00     0.123 C 
BRANCH  48  49
HETATM   49  O4  UNL     1      25.777  31.106  16.634  1.00  0.00    -0.349 OA
ATOM     50  H4  UNL     1      25.063  31.336  17.216  1.00  0.00     0.219 HD
ENDBRANCH  48  49
BRANCH  48  51
HETATM   51  N5  UNL     1      27.754  30.032  16.696  1.00  0.00    -0.374 N 
HETATM   52  C32 UNL     1      28.649  31.040  17.147  1.00  0.00     0.150 C 
HETATM   53  C33 UNL     1      28.380  28.949  15.904  1.00  0.00     0.150 C 
ENDBRANCH  48  51
ENDBRANCH  16  48
TORSDOF 15
ENDMDL
