MODEL 1
REMARK VINA RESULT: -5.420398357      0.000      0.000
REMARK  18 active torsions:
REMARK  status: ('A' for Active; 'I' for Inactive)
REMARK    1  A    between atoms: C2_2  and  C3_3 
REMARK    2  A    between atoms: C3_3  and  C4_4 
REMARK    3  A    between atoms: C5_5  and  C6_6 
REMARK    4  A    between atoms: C6_6  and  C7_7 
REMARK    5  A    between atoms: C9_11  and  C10_12 
REMARK    6  A    between atoms: C10_12  and  C12_14 
REMARK    7  A    between atoms: C14_17  and  O4_18 
REMARK    8  A    between atoms: C15_20  and  C16_21 
REMARK    9  A    between atoms: C16_21  and  C18_23 
REMARK   10  A    between atoms: C23_31  and  C24_32 
REMARK   11  A    between atoms: C24_32  and  O6_33 
REMARK   12  A    between atoms: C24_32  and  N2_35 
REMARK   13  A    between atoms: N2_35  and  C25_36 
REMARK   14  A    between atoms: N2_35  and  C28_39 
REMARK   15  A    between atoms: C28_39  and  N3_41 
REMARK   16  A    between atoms: C28_39  and  C30_45 
REMARK   17  A    between atoms: C32_47  and  O7_48 
REMARK   18  A    between atoms: O7_48  and  C33_49 
ROOT
HETATM    1  C7  UNL     1      25.191  27.543  18.097  1.00  0.00     0.165 C 
HETATM    2  O1  UNL     1      24.123  26.715  18.216  1.00  0.00    -0.311 OA
HETATM    3  C8  UNL     1      22.929  26.388  17.797  1.00  0.00     0.289 C 
HETATM    4  O2  UNL     1      21.899  27.087  17.613  1.00  0.00    -0.262 OA
HETATM    5  C9  UNL     1      22.631  24.933  17.453  1.00  0.00     0.228 C 
HETATM    6  O3  UNL     1      22.393  24.261  18.573  1.00  0.00    -0.344 OA
HETATM    7  C14 UNL     1      22.496  23.621  19.672  1.00  0.00     0.280 C 
HETATM    8  C15 UNL     1      22.317  24.193  21.025  1.00  0.00     0.143 C 
HETATM    9  N1  UNL     1      23.517  24.493  21.751  1.00  0.00    -0.351 N 
ATOM     10  H1  UNL     1      23.396  24.385  22.757  1.00  0.00     0.163 HD
HETATM   11  C20 UNL     1      24.797  24.891  21.418  1.00  0.00     0.222 C 
HETATM   12  O5  UNL     1      25.721  24.031  21.618  1.00  0.00    -0.273 OA
HETATM   13  C21 UNL     1      25.317  26.172  20.861  1.00  0.00     0.088 C 
HETATM   14  C22 UNL     1      25.949  26.878  22.015  1.00  0.00     0.021 C 
HETATM   15  C23 UNL     1      26.221  25.887  19.675  1.00  0.00     0.104 C 
HETATM   16  C32 UNL     1      26.474  27.157  18.852  1.00  0.00     0.165 C 
ENDROOT
BRANCH  15  17
HETATM   17  C24 UNL     1      27.383  25.078  19.993  1.00  0.00     0.123 C 
BRANCH  17  18
HETATM   18  O6  UNL     1      27.935  25.266  21.167  1.00  0.00    -0.349 OA
ATOM     19  H6  UNL     1      28.565  24.617  21.456  1.00  0.00     0.219 HD
ENDBRANCH  17  18
BRANCH  17  20
HETATM   20  N2  UNL     1      28.066  24.081  19.248  1.00  0.00    -0.329 N 
BRANCH  20  21
HETATM   21  C25 UNL     1      28.957  24.246  18.143  1.00  0.00     0.080 C 
HETATM   22  C26 UNL     1      28.343  24.824  16.885  1.00  0.00     0.032 C 
HETATM   23  C27 UNL     1      30.243  24.984  18.464  1.00  0.00     0.032 C 
ENDBRANCH  20  21
BRANCH  20  24
HETATM   24  C28 UNL     1      27.835  22.695  19.723  1.00  0.00     0.195 C 
HETATM   25  C29 UNL     1      28.977  21.883  19.151  1.00  0.00     0.070 C 
BRANCH  24  26
HETATM   26  N3  UNL     1      27.941  22.596  21.169  1.00  0.00    -0.053 N 
ATOM     27  H33 UNL     1      28.489  23.366  21.555  1.00  0.00     0.277 HD
ATOM     28  H32 UNL     1      27.048  22.794  21.621  1.00  0.00     0.277 HD
ATOM     29  H31 UNL     1      28.314  21.693  21.460  1.00  0.00     0.277 HD
ENDBRANCH  24  26
BRANCH  24  30
HETATM   30  C30 UNL     1      26.551  22.102  19.250  1.00  0.00     0.056 C 
HETATM   31  C31 UNL     1      26.865  20.727  18.632  1.00  0.00     0.009 C 
ENDBRANCH  24  30
ENDBRANCH  20  24
ENDBRANCH  17  20
ENDBRANCH  15  17
BRANCH  16  32
HETATM   32  O7  UNL     1      26.921  28.157  19.616  1.00  0.00    -0.373 OA
BRANCH  32  33
HETATM   33  C33 UNL     1      27.910  28.988  19.530  1.00  0.00     0.051 C 
HETATM   34  C34 UNL     1      28.808  29.206  20.764  1.00  0.00     0.045 C 
HETATM   35  C35 UNL     1      27.760  30.349  18.890  1.00  0.00     0.045 C 
HETATM   36  C36 UNL     1      28.949  28.306  18.550  1.00  0.00     0.045 C 
ENDBRANCH  32  33
ENDBRANCH  16  32
BRANCH   1  37
HETATM   37  C6  UNL     1      25.342  28.062  16.708  1.00  0.00     0.062 C 
BRANCH  37  38
HETATM   38  C5  UNL     1      26.265  27.374  15.825  1.00  0.00    -0.028 C 
HETATM   39  C4  UNL     1      27.217  27.940  15.159  1.00  0.00    -0.031 C 
BRANCH  39  40
HETATM   40  C3  UNL     1      27.577  29.365  15.134  1.00  0.00     0.026 C 
BRANCH  40  41
HETATM   41  C2  UNL     1      29.086  29.563  15.019  1.00  0.00    -0.001 C 
HETATM   42  C1  UNL     1      29.718  28.223  14.741  1.00  0.00     0.005 C 
ENDBRANCH  40  41
ENDBRANCH  39  40
ENDBRANCH  37  38
ENDBRANCH   1  37
BRANCH   8  43
HETATM   43  C16 UNL     1      21.305  25.325  21.093  1.00  0.00     0.009 C 
HETATM   44  C17 UNL     1      21.711  26.319  22.187  1.00  0.00     0.012 C 
BRANCH  43  45
HETATM   45  C18 UNL     1      19.930  24.816  21.470  1.00  0.00     0.002 C 
HETATM   46  C19 UNL     1      19.262  24.133  20.325  1.00  0.00     0.005 C 
ENDBRANCH  43  45
ENDBRANCH   8  43
BRANCH   7  47
HETATM   47  O4  UNL     1      22.780  22.352  19.696  1.00  0.00    -0.369 OA
ATOM     48  H4  UNL     1      23.337  21.980  20.370  1.00  0.00     0.212 HD
ENDBRANCH   7  47
BRANCH   5  49
HETATM   49  C10 UNL     1      21.528  24.821  16.418  1.00  0.00     0.020 C 
HETATM   50  C11 UNL     1      21.991  24.705  15.013  1.00  0.00     0.013 C 
BRANCH  49  51
HETATM   51  C12 UNL     1      20.728  23.589  16.779  1.00  0.00     0.003 C 
HETATM   52  C13 UNL     1      19.317  23.626  16.240  1.00  0.00     0.005 C 
ENDBRANCH  49  51
ENDBRANCH   5  49
TORSDOF 18
ENDMDL
MODEL 2
REMARK VINA RESULT: -5.350465900      2.043      5.783
REMARK  18 active torsions:
REMARK  status: ('A' for Active; 'I' for Inactive)
REMARK    1  A    between atoms: C2_2  and  C3_3 
REMARK    2  A    between atoms: C3_3  and  C4_4 
REMARK    3  A    between atoms: C5_5  and  C6_6 
REMARK    4  A    between atoms: C6_6  and  C7_7 
REMARK    5  A    between atoms: C9_11  and  C10_12 
REMARK    6  A    between atoms: C10_12  and  C12_14 
REMARK    7  A    between atoms: C14_17  and  O4_18 
REMARK    8  A    between atoms: C15_20  and  C16_21 
REMARK    9  A    between atoms: C16_21  and  C18_23 
REMARK   10  A    between atoms: C23_31  and  C24_32 
REMARK   11  A    between atoms: C24_32  and  O6_33 
REMARK   12  A    between atoms: C24_32  and  N2_35 
REMARK   13  A    between atoms: N2_35  and  C25_36 
REMARK   14  A    between atoms: N2_35  and  C28_39 
REMARK   15  A    between atoms: C28_39  and  N3_41 
REMARK   16  A    between atoms: C28_39  and  C30_45 
REMARK   17  A    between atoms: C32_47  and  O7_48 
REMARK   18  A    between atoms: O7_48  and  C33_49 
ROOT
HETATM    1  C7  UNL     1      26.101  24.542  19.707  1.00  0.00     0.165 C 
HETATM    2  O1  UNL     1      24.797  24.747  19.394  1.00  0.00    -0.311 OA
HETATM    3  C8  UNL     1      23.554  24.370  19.543  1.00  0.00     0.289 C 
HETATM    4  O2  UNL     1      23.019  23.236  19.442  1.00  0.00    -0.262 OA
HETATM    5  C9  UNL     1      22.496  25.408  19.897  1.00  0.00     0.228 C 
HETATM    6  O3  UNL     1      22.139  26.058  18.795  1.00  0.00    -0.344 OA
HETATM    7  C14 UNL     1      22.081  26.842  17.791  1.00  0.00     0.280 C 
HETATM    8  C15 UNL     1      22.454  26.497  16.401  1.00  0.00     0.143 C 
HETATM    9  N1  UNL     1      23.738  26.953  15.957  1.00  0.00    -0.351 N 
ATOM     10  H1  UNL     1      23.751  27.157  14.958  1.00  0.00     0.163 HD
HETATM   11  C20 UNL     1      24.963  27.182  16.553  1.00  0.00     0.222 C 
HETATM   12  O5  UNL     1      25.330  28.405  16.625  1.00  0.00    -0.273 OA
HETATM   13  C21 UNL     1      25.967  26.247  17.137  1.00  0.00     0.088 C 
HETATM   14  C22 UNL     1      27.055  26.150  16.119  1.00  0.00     0.021 C 
HETATM   15  C23 UNL     1      26.379  26.732  18.515  1.00  0.00     0.104 C 
HETATM   16  C32 UNL     1      27.107  25.629  19.295  1.00  0.00     0.165 C 
ENDROOT
BRANCH  15  17
HETATM   17  C24 UNL     1      26.992  28.047  18.525  1.00  0.00     0.123 C 
BRANCH  17  18
HETATM   18  O6  UNL     1      26.206  29.067  18.771  1.00  0.00    -0.349 OA
ATOM     19  H6  UNL     1      26.300  29.828  18.211  1.00  0.00     0.219 HD
ENDBRANCH  17  18
BRANCH  17  20
HETATM   20  N2  UNL     1      28.333  28.460  18.311  1.00  0.00    -0.329 N 
BRANCH  20  21
HETATM   21  C25 UNL     1      29.001  28.717  17.074  1.00  0.00     0.080 C 
HETATM   22  C26 UNL     1      29.489  27.496  16.325  1.00  0.00     0.032 C 
HETATM   23  C27 UNL     1      28.252  29.630  16.122  1.00  0.00     0.032 C 
ENDBRANCH  20  21
BRANCH  20  24
HETATM   24  C28 UNL     1      29.112  28.681  19.554  1.00  0.00     0.195 C 
HETATM   25  C29 UNL     1      29.257  30.183  19.670  1.00  0.00     0.070 C 
BRANCH  24  26
HETATM   26  N3  UNL     1      28.382  28.244  20.732  1.00  0.00    -0.053 N 
ATOM     27  H33 UNL     1      27.373  28.311  20.591  1.00  0.00     0.277 HD
ATOM     28  H32 UNL     1      28.458  27.235  20.863  1.00  0.00     0.277 HD
ATOM     29  H31 UNL     1      28.674  28.751  21.567  1.00  0.00     0.277 HD
ENDBRANCH  24  26
BRANCH  24  30
HETATM   30  C30 UNL     1      30.474  28.075  19.527  1.00  0.00     0.056 C 
HETATM   31  C31 UNL     1      31.093  28.242  20.927  1.00  0.00     0.009 C 
ENDBRANCH  24  30
ENDBRANCH  20  24
ENDBRANCH  17  20
ENDBRANCH  15  17
BRANCH  16  32
HETATM   32  O7  UNL     1      28.127  25.124  18.596  1.00  0.00    -0.373 OA
BRANCH  32  33
HETATM   33  C33 UNL     1      29.260  24.584  18.913  1.00  0.00     0.051 C 
HETATM   34  C34 UNL     1      29.802  24.776  20.343  1.00  0.00     0.045 C 
HETATM   35  C35 UNL     1      30.467  24.663  18.006  1.00  0.00     0.045 C 
HETATM   36  C36 UNL     1      28.994  23.024  18.926  1.00  0.00     0.045 C 
ENDBRANCH  32  33
ENDBRANCH  16  32
BRANCH   1  37
HETATM   37  C6  UNL     1      26.261  23.935  21.059  1.00  0.00     0.062 C 
BRANCH  37  38
HETATM   38  C5  UNL     1      26.712  24.795  22.138  1.00  0.00    -0.028 C 
HETATM   39  C4  UNL     1      25.937  25.438  22.947  1.00  0.00    -0.031 C 
BRANCH  39  40
HETATM   40  C3  UNL     1      24.467  25.455  22.968  1.00  0.00     0.026 C 
BRANCH  40  41
HETATM   41  C2  UNL     1      23.928  26.596  23.827  1.00  0.00    -0.001 C 
HETATM   42  C1  UNL     1      24.688  26.606  25.129  1.00  0.00     0.005 C 
ENDBRANCH  40  41
ENDBRANCH  39  40
ENDBRANCH  37  38
ENDBRANCH   1  37
BRANCH   8  43
HETATM   43  C16 UNL     1      22.197  25.045  16.032  1.00  0.00     0.009 C 
HETATM   44  C17 UNL     1      22.744  24.763  14.628  1.00  0.00     0.012 C 
BRANCH  43  45
HETATM   45  C18 UNL     1      20.716  24.740  15.980  1.00  0.00     0.002 C 
HETATM   46  C19 UNL     1      20.027  25.528  14.917  1.00  0.00     0.005 C 
ENDBRANCH  43  45
ENDBRANCH   8  43
BRANCH   7  47
HETATM   47  O4  UNL     1      21.669  28.071  17.911  1.00  0.00    -0.369 OA
ATOM     48  H4  UNL     1      22.099  28.785  17.455  1.00  0.00     0.212 HD
ENDBRANCH   7  47
BRANCH   5  49
HETATM   49  C10 UNL     1      21.338  24.787  20.653  1.00  0.00     0.020 C 
HETATM   50  C11 UNL     1      20.861  25.563  21.824  1.00  0.00     0.013 C 
BRANCH  49  51
HETATM   51  C12 UNL     1      20.206  24.647  19.659  1.00  0.00     0.003 C 
HETATM   52  C13 UNL     1      18.985  23.980  20.248  1.00  0.00     0.005 C 
ENDBRANCH  49  51
ENDBRANCH   5  49
TORSDOF 18
ENDMDL
MODEL 3
REMARK VINA RESULT: -5.340536382      1.646      2.928
REMARK  18 active torsions:
REMARK  status: ('A' for Active; 'I' for Inactive)
REMARK    1  A    between atoms: C2_2  and  C3_3 
REMARK    2  A    between atoms: C3_3  and  C4_4 
REMARK    3  A    between atoms: C5_5  and  C6_6 
REMARK    4  A    between atoms: C6_6  and  C7_7 
REMARK    5  A    between atoms: C9_11  and  C10_12 
REMARK    6  A    between atoms: C10_12  and  C12_14 
REMARK    7  A    between atoms: C14_17  and  O4_18 
REMARK    8  A    between atoms: C15_20  and  C16_21 
REMARK    9  A    between atoms: C16_21  and  C18_23 
REMARK   10  A    between atoms: C23_31  and  C24_32 
REMARK   11  A    between atoms: C24_32  and  O6_33 
REMARK   12  A    between atoms: C24_32  and  N2_35 
REMARK   13  A    between atoms: N2_35  and  C25_36 
REMARK   14  A    between atoms: N2_35  and  C28_39 
REMARK   15  A    between atoms: C28_39  and  N3_41 
REMARK   16  A    between atoms: C28_39  and  C30_45 
REMARK   17  A    between atoms: C32_47  and  O7_48 
REMARK   18  A    between atoms: O7_48  and  C33_49 
ROOT
HETATM    1  C7  UNL     1      25.768  27.852  18.568  1.00  0.00     0.165 C 
HETATM    2  O1  UNL     1      24.863  27.199  19.339  1.00  0.00    -0.311 OA
HETATM    3  C8  UNL     1      23.609  26.897  19.553  1.00  0.00     0.289 C 
HETATM    4  O2  UNL     1      22.585  27.625  19.614  1.00  0.00    -0.262 OA
HETATM    5  C9  UNL     1      23.221  25.442  19.784  1.00  0.00     0.228 C 
HETATM    6  O3  UNL     1      23.486  25.116  21.045  1.00  0.00    -0.344 OA
HETATM    7  C14 UNL     1      24.051  24.781  22.138  1.00  0.00     0.280 C 
HETATM    8  C15 UNL     1      24.446  25.705  23.225  1.00  0.00     0.143 C 
HETATM    9  N1  UNL     1      25.834  26.059  23.283  1.00  0.00    -0.351 N 
ATOM     10  H1  UNL     1      26.148  26.233  24.238  1.00  0.00     0.163 HD
HETATM   11  C20 UNL     1      26.849  26.223  22.362  1.00  0.00     0.222 C 
HETATM   12  O5  UNL     1      27.787  25.356  22.402  1.00  0.00    -0.273 OA
HETATM   13  C21 UNL     1      27.065  27.252  21.304  1.00  0.00     0.088 C 
HETATM   14  C22 UNL     1      28.109  28.168  21.852  1.00  0.00     0.021 C 
HETATM   15  C23 UNL     1      27.394  26.573  19.987  1.00  0.00     0.104 C 
HETATM   16  C32 UNL     1      27.255  27.549  18.811  1.00  0.00     0.165 C 
ENDROOT
BRANCH  15  17
HETATM   17  C24 UNL     1      28.596  25.762  20.019  1.00  0.00     0.123 C 
BRANCH  17  18
HETATM   18  O6  UNL     1      29.546  26.140  20.839  1.00  0.00    -0.349 OA
ATOM     19  H6  UNL     1      29.655  25.632  21.635  1.00  0.00     0.219 HD
ENDBRANCH  17  18
BRANCH  17  20
HETATM   20  N2  UNL     1      28.958  24.590  19.304  1.00  0.00    -0.329 N 
BRANCH  20  21
HETATM   21  C25 UNL     1      29.477  24.478  17.977  1.00  0.00     0.080 C 
HETATM   22  C26 UNL     1      28.525  24.862  16.866  1.00  0.00     0.032 C 
HETATM   23  C27 UNL     1      30.815  25.157  17.756  1.00  0.00     0.032 C 
ENDBRANCH  20  21
BRANCH  20  24
HETATM   24  C28 UNL     1      28.801  23.331  20.073  1.00  0.00     0.195 C 
HETATM   25  C29 UNL     1      29.509  22.274  19.253  1.00  0.00     0.070 C 
BRANCH  24  26
HETATM   26  N3  UNL     1      29.487  23.391  21.352  1.00  0.00    -0.053 N 
ATOM     27  H33 UNL     1      30.463  23.106  21.264  1.00  0.00     0.277 HD
ATOM     28  H32 UNL     1      29.628  24.355  21.653  1.00  0.00     0.277 HD
ATOM     29  H31 UNL     1      29.004  22.845  22.066  1.00  0.00     0.277 HD
ENDBRANCH  24  26
BRANCH  24  30
HETATM   30  C30 UNL     1      27.381  22.912  20.258  1.00  0.00     0.056 C 
HETATM   31  C31 UNL     1      27.027  21.931  19.126  1.00  0.00     0.009 C 
ENDBRANCH  24  30
ENDBRANCH  20  24
ENDBRANCH  17  20
ENDBRANCH  15  17
BRANCH  16  32
HETATM   32  O7  UNL     1      27.964  28.664  19.011  1.00  0.00    -0.373 OA
BRANCH  32  33
HETATM   33  C33 UNL     1      28.954  29.228  18.397  1.00  0.00     0.051 C 
HETATM   34  C34 UNL     1      30.382  29.018  18.939  1.00  0.00     0.045 C 
HETATM   35  C35 UNL     1      28.899  30.668  17.942  1.00  0.00     0.045 C 
HETATM   36  C36 UNL     1      29.073  28.477  17.010  1.00  0.00     0.045 C 
ENDBRANCH  32  33
ENDBRANCH  16  32
BRANCH   1  37
HETATM   37  C6  UNL     1      25.314  27.969  17.153  1.00  0.00     0.062 C 
BRANCH  37  38
HETATM   38  C5  UNL     1      25.306  26.765  16.343  1.00  0.00    -0.028 C 
HETATM   39  C4  UNL     1      24.361  26.422  15.532  1.00  0.00    -0.031 C 
BRANCH  39  40
HETATM   40  C3  UNL     1      23.110  27.142  15.247  1.00  0.00     0.026 C 
BRANCH  40  41
HETATM   41  C2  UNL     1      22.088  26.244  14.556  1.00  0.00    -0.001 C 
HETATM   42  C1  UNL     1      22.654  24.849  14.486  1.00  0.00     0.005 C 
ENDBRANCH  40  41
ENDBRANCH  39  40
ENDBRANCH  37  38
ENDBRANCH   1  37
BRANCH   8  43
HETATM   43  C16 UNL     1      23.535  26.912  23.377  1.00  0.00     0.009 C 
HETATM   44  C17 UNL     1      23.499  27.353  24.844  1.00  0.00     0.012 C 
BRANCH  43  45
HETATM   45  C18 UNL     1      22.108  26.579  22.998  1.00  0.00     0.002 C 
HETATM   46  C19 UNL     1      21.370  27.784  22.519  1.00  0.00     0.005 C 
ENDBRANCH  43  45
ENDBRANCH   8  43
BRANCH   7  47
HETATM   47  O4  UNL     1      24.342  23.540  22.401  1.00  0.00    -0.369 OA
ATOM     48  H4  UNL     1      24.678  23.279  23.250  1.00  0.00     0.212 HD
ENDBRANCH   7  47
BRANCH   5  49
HETATM   49  C10 UNL     1      21.788  25.175  19.365  1.00  0.00     0.020 C 
HETATM   50  C11 UNL     1      21.615  24.734  17.959  1.00  0.00     0.013 C 
BRANCH  49  51
HETATM   51  C12 UNL     1      21.267  24.097  20.289  1.00  0.00     0.003 C 
HETATM   52  C13 UNL     1      19.866  24.374  20.785  1.00  0.00     0.005 C 
ENDBRANCH  49  51
ENDBRANCH   5  49
TORSDOF 18
ENDMDL
MODEL 4
REMARK VINA RESULT: -5.231555116      2.194      4.359
REMARK  18 active torsions:
REMARK  status: ('A' for Active; 'I' for Inactive)
REMARK    1  A    between atoms: C2_2  and  C3_3 
REMARK    2  A    between atoms: C3_3  and  C4_4 
REMARK    3  A    between atoms: C5_5  and  C6_6 
REMARK    4  A    between atoms: C6_6  and  C7_7 
REMARK    5  A    between atoms: C9_11  and  C10_12 
REMARK    6  A    between atoms: C10_12  and  C12_14 
REMARK    7  A    between atoms: C14_17  and  O4_18 
REMARK    8  A    between atoms: C15_20  and  C16_21 
REMARK    9  A    between atoms: C16_21  and  C18_23 
REMARK   10  A    between atoms: C23_31  and  C24_32 
REMARK   11  A    between atoms: C24_32  and  O6_33 
REMARK   12  A    between atoms: C24_32  and  N2_35 
REMARK   13  A    between atoms: N2_35  and  C25_36 
REMARK   14  A    between atoms: N2_35  and  C28_39 
REMARK   15  A    between atoms: C28_39  and  N3_41 
REMARK   16  A    between atoms: C28_39  and  C30_45 
REMARK   17  A    between atoms: C32_47  and  O7_48 
REMARK   18  A    between atoms: O7_48  and  C33_49 
ROOT
HETATM    1  C7  UNL     1      25.605  28.280  18.094  1.00  0.00     0.165 C 
HETATM    2  O1  UNL     1      25.203  27.342  18.988  1.00  0.00    -0.311 OA
HETATM    3  C8  UNL     1      24.210  26.680  19.521  1.00  0.00     0.289 C 
HETATM    4  O2  UNL     1      23.119  27.077  20.005  1.00  0.00    -0.262 OA
HETATM    5  C9  UNL     1      24.295  25.161  19.622  1.00  0.00     0.228 C 
HETATM    6  O3  UNL     1      25.040  24.837  20.673  1.00  0.00    -0.344 OA
HETATM    7  C14 UNL     1      26.003  24.601  21.475  1.00  0.00     0.280 C 
HETATM    8  C15 UNL     1      26.498  25.519  22.525  1.00  0.00     0.143 C 
HETATM    9  N1  UNL     1      27.691  26.251  22.216  1.00  0.00    -0.351 N 
ATOM     10  H1  UNL     1      28.254  26.440  23.046  1.00  0.00     0.163 HD
HETATM   11  C20 UNL     1      28.264  26.764  21.069  1.00  0.00     0.222 C 
HETATM   12  O5  UNL     1      29.345  26.201  20.683  1.00  0.00    -0.273 OA
HETATM   13  C21 UNL     1      27.851  27.884  20.176  1.00  0.00     0.088 C 
HETATM   14  C22 UNL     1      28.757  29.019  20.521  1.00  0.00     0.021 C 
HETATM   15  C23 UNL     1      27.876  27.423  18.729  1.00  0.00     0.104 C 
HETATM   16  C32 UNL     1      27.114  28.399  17.823  1.00  0.00     0.165 C 
ENDROOT
BRANCH  15  17
HETATM   17  C24 UNL     1      29.181  26.989  18.265  1.00  0.00     0.123 C 
BRANCH  17  18
HETATM   18  O6  UNL     1      30.213  27.706  18.639  1.00  0.00    -0.349 OA
ATOM     19  H6  UNL     1      30.832  27.294  19.229  1.00  0.00     0.219 HD
ENDBRANCH  17  18
BRANCH  17  20
HETATM   20  N2  UNL     1      29.572  25.895  17.450  1.00  0.00    -0.329 N 
BRANCH  20  21
HETATM   21  C25 UNL     1      29.745  24.525  17.817  1.00  0.00     0.080 C 
HETATM   22  C26 UNL     1      30.966  24.219  18.657  1.00  0.00     0.032 C 
HETATM   23  C27 UNL     1      28.525  23.873  18.439  1.00  0.00     0.032 C 
ENDBRANCH  20  21
BRANCH  20  24
HETATM   24  C28 UNL     1      29.791  26.241  16.024  1.00  0.00     0.195 C 
HETATM   25  C29 UNL     1      28.484  25.919  15.332  1.00  0.00     0.070 C 
BRANCH  24  26
HETATM   26  N3  UNL     1      30.014  27.666  15.843  1.00  0.00    -0.053 N 
ATOM     27  H33 UNL     1      29.175  28.133  15.498  1.00  0.00     0.277 HD
ATOM     28  H32 UNL     1      30.105  28.144  16.740  1.00  0.00     0.277 HD
ATOM     29  H31 UNL     1      30.816  27.849  15.240  1.00  0.00     0.277 HD
ENDBRANCH  24  26
BRANCH  24  30
HETATM   30  C30 UNL     1      30.877  25.454  15.372  1.00  0.00     0.056 C 
HETATM   31  C31 UNL     1      31.704  26.419  14.503  1.00  0.00     0.009 C 
ENDBRANCH  24  30
ENDBRANCH  20  24
ENDBRANCH  17  20
ENDBRANCH  15  17
BRANCH  16  32
HETATM   32  O7  UNL     1      27.550  29.653  17.976  1.00  0.00    -0.373 OA
BRANCH  32  33
HETATM   33  C33 UNL     1      27.979  30.566  17.164  1.00  0.00     0.051 C 
HETATM   34  C34 UNL     1      27.612  30.466  15.671  1.00  0.00     0.045 C 
HETATM   35  C35 UNL     1      29.406  31.064  17.201  1.00  0.00     0.045 C 
HETATM   36  C36 UNL     1      27.190  31.880  17.554  1.00  0.00     0.045 C 
ENDBRANCH  32  33
ENDBRANCH  16  32
BRANCH   1  37
HETATM   37  C6  UNL     1      24.689  28.362  16.922  1.00  0.00     0.062 C 
BRANCH  37  38
HETATM   38  C5  UNL     1      24.858  27.386  15.861  1.00  0.00    -0.028 C 
HETATM   39  C4  UNL     1      23.895  26.823  15.210  1.00  0.00    -0.031 C 
BRANCH  39  40
HETATM   40  C3  UNL     1      22.449  27.027  15.382  1.00  0.00     0.026 C 
BRANCH  40  41
HETATM   41  C2  UNL     1      21.638  25.973  14.634  1.00  0.00    -0.001 C 
HETATM   42  C1  UNL     1      22.474  24.724  14.523  1.00  0.00     0.005 C 
ENDBRANCH  40  41
ENDBRANCH  39  40
ENDBRANCH  37  38
ENDBRANCH   1  37
BRANCH   8  43
HETATM   43  C16 UNL     1      25.422  26.401  23.138  1.00  0.00     0.009 C 
HETATM   44  C17 UNL     1      25.760  26.689  24.605  1.00  0.00     0.012 C 
BRANCH  43  45
HETATM   45  C18 UNL     1      24.075  25.710  23.139  1.00  0.00     0.002 C 
HETATM   46  C19 UNL     1      22.958  26.681  23.329  1.00  0.00     0.005 C 
ENDBRANCH  43  45
ENDBRANCH   8  43
BRANCH   7  47
HETATM   47  O4  UNL     1      26.663  23.480  21.435  1.00  0.00    -0.369 OA
ATOM     48  H4  UNL     1      26.865  22.995  22.226  1.00  0.00     0.212 HD
ENDBRANCH   7  47
BRANCH   5  49
HETATM   49  C10 UNL     1      22.918  24.526  19.620  1.00  0.00     0.020 C 
HETATM   50  C11 UNL     1      22.287  24.394  18.283  1.00  0.00     0.013 C 
BRANCH  49  51
HETATM   51  C12 UNL     1      23.082  23.150  20.227  1.00  0.00     0.003 C 
HETATM   52  C13 UNL     1      21.778  22.393  20.328  1.00  0.00     0.005 C 
ENDBRANCH  49  51
ENDBRANCH   5  49
TORSDOF 18
ENDMDL
MODEL 5
REMARK VINA RESULT: -5.044266084      2.622      6.478
REMARK  18 active torsions:
REMARK  status: ('A' for Active; 'I' for Inactive)
REMARK    1  A    between atoms: C2_2  and  C3_3 
REMARK    2  A    between atoms: C3_3  and  C4_4 
REMARK    3  A    between atoms: C5_5  and  C6_6 
REMARK    4  A    between atoms: C6_6  and  C7_7 
REMARK    5  A    between atoms: C9_11  and  C10_12 
REMARK    6  A    between atoms: C10_12  and  C12_14 
REMARK    7  A    between atoms: C14_17  and  O4_18 
REMARK    8  A    between atoms: C15_20  and  C16_21 
REMARK    9  A    between atoms: C16_21  and  C18_23 
REMARK   10  A    between atoms: C23_31  and  C24_32 
REMARK   11  A    between atoms: C24_32  and  O6_33 
REMARK   12  A    between atoms: C24_32  and  N2_35 
REMARK   13  A    between atoms: N2_35  and  C25_36 
REMARK   14  A    between atoms: N2_35  and  C28_39 
REMARK   15  A    between atoms: C28_39  and  N3_41 
REMARK   16  A    between atoms: C28_39  and  C30_45 
REMARK   17  A    between atoms: C32_47  and  O7_48 
REMARK   18  A    between atoms: O7_48  and  C33_49 
ROOT
HETATM    1  C7  UNL     1      27.026  25.665  19.082  1.00  0.00     0.165 C 
HETATM    2  O1  UNL     1      25.698  25.859  18.886  1.00  0.00    -0.311 OA
HETATM    3  C8  UNL     1      24.477  25.606  19.276  1.00  0.00     0.289 C 
HETATM    4  O2  UNL     1      23.903  24.517  19.538  1.00  0.00    -0.262 OA
HETATM    5  C9  UNL     1      23.501  26.761  19.472  1.00  0.00     0.228 C 
HETATM    6  O3  UNL     1      23.019  27.127  18.289  1.00  0.00    -0.344 OA
HETATM    7  C14 UNL     1      22.849  27.632  17.130  1.00  0.00     0.280 C 
HETATM    8  C15 UNL     1      23.027  26.921  15.844  1.00  0.00     0.143 C 
HETATM    9  N1  UNL     1      24.254  27.173  15.145  1.00  0.00    -0.351 N 
ATOM     10  H1  UNL     1      24.141  27.115  14.134  1.00  0.00     0.163 HD
HETATM   11  C20 UNL     1      25.552  27.475  15.509  1.00  0.00     0.222 C 
HETATM   12  O5  UNL     1      25.956  28.651  15.216  1.00  0.00    -0.273 OA
HETATM   13  C21 UNL     1      26.599  26.662  16.191  1.00  0.00     0.088 C 
HETATM   14  C22 UNL     1      27.542  26.245  15.111  1.00  0.00     0.021 C 
HETATM   15  C23 UNL     1      27.201  27.458  17.336  1.00  0.00     0.104 C 
HETATM   16  C32 UNL     1      27.997  26.550  18.283  1.00  0.00     0.165 C 
ENDROOT
BRANCH  15  17
HETATM   17  C24 UNL     1      27.844  28.694  16.929  1.00  0.00     0.123 C 
BRANCH  17  18
HETATM   18  O6  UNL     1      28.326  28.739  15.711  1.00  0.00    -0.349 OA
ATOM     19  H6  UNL     1      28.812  29.519  15.469  1.00  0.00     0.219 HD
ENDBRANCH  17  18
BRANCH  17  20
HETATM   20  N2  UNL     1      28.060  29.913  17.623  1.00  0.00    -0.329 N 
BRANCH  20  21
HETATM   21  C25 UNL     1      29.037  30.210  18.622  1.00  0.00     0.080 C 
HETATM   22  C26 UNL     1      28.829  29.543  19.964  1.00  0.00     0.032 C 
HETATM   23  C27 UNL     1      30.476  30.024  18.181  1.00  0.00     0.032 C 
ENDBRANCH  20  21
BRANCH  20  24
HETATM   24  C28 UNL     1      27.161  31.019  17.212  1.00  0.00     0.195 C 
HETATM   25  C29 UNL     1      27.670  31.463  15.857  1.00  0.00     0.070 C 
BRANCH  24  26
HETATM   26  N3  UNL     1      25.797  30.559  17.010  1.00  0.00    -0.053 N 
ATOM     27  H33 UNL     1      25.231  31.266  16.542  1.00  0.00     0.277 HD
ATOM     28  H32 UNL     1      25.753  29.825  16.303  1.00  0.00     0.277 HD
ATOM     29  H31 UNL     1      25.366  30.258  17.885  1.00  0.00     0.277 HD
ENDBRANCH  24  26
BRANCH  24  30
HETATM   30  C30 UNL     1      27.187  32.191  18.134  1.00  0.00     0.056 C 
HETATM   31  C31 UNL     1      26.131  33.200  17.646  1.00  0.00     0.009 C 
ENDBRANCH  24  30
ENDBRANCH  20  24
ENDBRANCH  17  20
ENDBRANCH  15  17
BRANCH  16  32
HETATM   32  O7  UNL     1      28.903  25.824  17.623  1.00  0.00    -0.373 OA
BRANCH  32  33
HETATM   33  C33 UNL     1      30.105  25.420  17.886  1.00  0.00     0.051 C 
HETATM   34  C34 UNL     1      31.193  25.567  16.805  1.00  0.00     0.045 C 
HETATM   35  C35 UNL     1      30.375  24.094  18.559  1.00  0.00     0.045 C 
HETATM   36  C36 UNL     1      30.659  26.428  18.972  1.00  0.00     0.045 C 
ENDBRANCH  32  33
ENDBRANCH  16  32
BRANCH   1  37
HETATM   37  C6  UNL     1      27.347  25.415  20.516  1.00  0.00     0.062 C 
BRANCH  37  38
HETATM   38  C5  UNL     1      27.504  24.038  20.944  1.00  0.00    -0.028 C 
HETATM   39  C4  UNL     1      27.121  23.566  22.084  1.00  0.00    -0.031 C 
BRANCH  39  40
HETATM   40  C3  UNL     1      26.459  24.286  23.182  1.00  0.00     0.026 C 
BRANCH  40  41
HETATM   41  C2  UNL     1      24.953  24.397  22.956  1.00  0.00    -0.001 C 
HETATM   42  C1  UNL     1      24.512  25.776  23.377  1.00  0.00     0.005 C 
ENDBRANCH  40  41
ENDBRANCH  39  40
ENDBRANCH  37  38
ENDBRANCH   1  37
BRANCH   8  43
HETATM   43  C16 UNL     1      22.688  25.441  15.899  1.00  0.00     0.009 C 
HETATM   44  C17 UNL     1      22.906  24.807  14.521  1.00  0.00     0.012 C 
BRANCH  43  45
HETATM   45  C18 UNL     1      21.231  25.220  16.243  1.00  0.00     0.002 C 
HETATM   46  C19 UNL     1      20.354  25.355  15.043  1.00  0.00     0.005 C 
ENDBRANCH  43  45
ENDBRANCH   8  43
BRANCH   7  47
HETATM   47  O4  UNL     1      22.489  28.873  16.974  1.00  0.00    -0.369 OA
ATOM     48  H4  UNL     1      22.547  29.499  17.686  1.00  0.00     0.212 HD
ENDBRANCH   7  47
BRANCH   5  49
HETATM   49  C10 UNL     1      22.436  26.423  20.497  1.00  0.00     0.020 C 
HETATM   50  C11 UNL     1      21.960  27.567  21.312  1.00  0.00     0.013 C 
BRANCH  49  51
HETATM   51  C12 UNL     1      21.269  25.846  19.725  1.00  0.00     0.003 C 
HETATM   52  C13 UNL     1      20.592  24.705  20.448  1.00  0.00     0.005 C 
ENDBRANCH  49  51
ENDBRANCH   5  49
TORSDOF 18
ENDMDL
