MODEL 1
REMARK VINA RESULT: -8.148369143      0.000      0.000
REMARK  17 active torsions:
REMARK  status: ('A' for Active; 'I' for Inactive)
REMARK    1  A    between atoms: O1_2  and  C2_3 
REMARK    2  A    between atoms: C3_6  and  N2_7 
REMARK    3  A    between atoms: N2_7  and  S1_9 
REMARK    4  A    between atoms: S1_9  and  O4_12 
REMARK    5  A    between atoms: O4_12  and  C4_13 
REMARK    6  A    between atoms: C4_13  and  C5_14 
REMARK    7  A    between atoms: C5_14  and  C6_15 
REMARK    8  A    between atoms: C6_15  and  N3_16 
REMARK    9  A    between atoms: N3_16  and  N4_18 
REMARK   10  A    between atoms: N4_18  and  N5_19 
REMARK   11  A    between atoms: C7_23  and  N6_24 
REMARK   12  A    between atoms: C11_32  and  N9_33 
REMARK   13  A    between atoms: C14_41  and  O8_42 
REMARK   14  A    between atoms: C15_44  and  O9_45 
REMARK   15  A    between atoms: C17_48  and  S2_49 
REMARK   16  A    between atoms: S2_49  and  C18_50 
REMARK   17  A    between atoms: C18_50  and  C19_51 
ROOT
HETATM    1  C5  UNL     1      -6.072  -8.832 -25.482  1.00  0.00     0.133 C 
HETATM    2  O5  UNL     1      -6.438  -7.632 -24.986  1.00  0.00    -0.346 OA
HETATM    3  C7  UNL     1      -7.418  -7.621 -24.145  1.00  0.00     0.265 C 
HETATM    4  C14 UNL     1      -7.618  -9.090 -23.777  1.00  0.00     0.199 C 
HETATM    5  C15 UNL     1      -6.392  -9.769 -24.356  1.00  0.00     0.189 C 
ENDROOT
BRANCH   1   6
HETATM    6  C4  UNL     1      -6.813  -9.291 -26.717  1.00  0.00     0.234 C 
BRANCH   6   7
HETATM    7  O4  UNL     1      -7.477  -8.231 -27.329  1.00  0.00    -0.256 OA
BRANCH   7   8
HETATM    8  S1  UNL     1      -7.207  -8.140 -28.955  1.00  0.00     0.363 S 
HETATM    9  O2  UNL     1      -7.477  -9.446 -29.651  1.00  0.00    -0.175 OA
HETATM   10  O3  UNL     1      -8.031  -7.025 -29.583  1.00  0.00    -0.175 OA
BRANCH   8  11
HETATM   11  N2  UNL     1      -5.552  -7.730 -29.220  1.00  0.00    -0.247 N 
ATOM     12  H2  UNL     1      -4.933  -8.356 -29.736  1.00  0.00     0.182 HD
BRANCH  11  13
HETATM   13  C3  UNL     1      -5.121  -6.613 -28.750  1.00  0.00     0.122 A 
HETATM   14  N1  UNL     1      -5.763  -5.970 -27.764  1.00  0.00    -0.307 N 
HETATM   15  C2  UNL     1      -5.344  -4.805 -27.249  1.00  0.00     0.225 A 
ATOM     16  H1  UNL     1      -6.614  -6.388 -27.387  1.00  0.00     0.171 HD
HETATM   17  N15 UNL     1      -4.239  -4.263 -27.740  1.00  0.00    -0.316 N 
HETATM   18  C17 UNL     1      -3.500  -4.810 -28.733  1.00  0.00     0.076 A 
ATOM     19  H15 UNL     1      -3.926  -3.376 -27.345  1.00  0.00     0.170 HD
HETATM   20  C16 UNL     1      -3.972  -6.018 -29.236  1.00  0.00     0.086 A 
BRANCH  15  21
HETATM   21  O1  UNL     1      -6.056  -4.208 -26.240  1.00  0.00    -0.327 OA
HETATM   22  C1  UNL     1      -7.444  -4.449 -26.135  1.00  0.00     0.213 C 
ENDBRANCH  15  21
BRANCH  18  23
HETATM   23  S2  UNL     1      -2.017  -4.042 -29.363  1.00  0.00    -0.104 SA
BRANCH  23  24
HETATM   24  C18 UNL     1      -1.547  -4.880 -30.882  1.00  0.00     0.160 C 
BRANCH  24  25
HETATM   25  C19 UNL     1      -1.266  -3.922 -31.982  1.00  0.00     0.122 A 
HETATM   26  N11 UNL     1      -2.165  -3.596 -32.922  1.00  0.00    -0.272 N 
HETATM   27  N12 UNL     1      -1.630  -2.734 -33.754  1.00  0.00    -0.227 N 
ATOM     28  H11 UNL     1      -3.117  -3.961 -32.981  1.00  0.00     0.190 HD
HETATM   29  N13 UNL     1      -0.396  -2.518 -33.338  1.00  0.00    -0.227 N 
ATOM     30  H12 UNL     1      -2.080  -2.312 -34.566  1.00  0.00     0.210 HD
HETATM   31  N14 UNL     1      -0.157  -3.237 -32.256  1.00  0.00    -0.272 N 
ATOM     32  H13 UNL     1       0.272  -1.890 -33.785  1.00  0.00     0.210 HD
ATOM     33  H14 UNL     1       0.714  -3.263 -31.728  1.00  0.00     0.190 HD
ENDBRANCH  24  25
ENDBRANCH  23  24
ENDBRANCH  18  23
ENDBRANCH  11  13
ENDBRANCH   8  11
ENDBRANCH   7   8
ENDBRANCH   6   7
ENDBRANCH   1   6
BRANCH   1  34
HETATM   34  C6  UNL     1      -4.610  -8.829 -25.849  1.00  0.00     0.198 C 
BRANCH  34  35
HETATM   35  N3  UNL     1      -3.811  -7.856 -25.191  1.00  0.00    -0.250 N 
ATOM     36  H3  UNL     1      -3.896  -6.888 -25.501  1.00  0.00     0.197 HD
BRANCH  35  37
HETATM   37  N4  UNL     1      -3.022  -8.092 -24.272  1.00  0.00    -0.248 NA
BRANCH  37  38
HETATM   38  N5  UNL     1      -2.586  -8.513 -23.196  1.00  0.00    -0.261 N 
ATOM     39  H52 UNL     1      -1.916  -9.175 -23.589  1.00  0.00     0.193 HD
ATOM     40  H51 UNL     1      -2.462  -8.626 -22.190  1.00  0.00     0.193 HD
ENDBRANCH  37  38
ENDBRANCH  35  37
ENDBRANCH  34  35
ENDBRANCH   1  34
BRANCH   5  41
HETATM   41  O9  UNL     1      -5.416  -9.767 -23.363  1.00  0.00    -0.390 OA
ATOM     42  H9  UNL     1      -5.563 -10.435 -22.704  1.00  0.00     0.210 HD
ENDBRANCH   5  41
BRANCH   3  43
HETATM   43  N6  UNL     1      -7.533  -6.863 -22.968  1.00  0.00    -0.261 N 
HETATM   44  C8  UNL     1      -6.455  -6.568 -22.209  1.00  0.00     0.333 A 
HETATM   45  O6  UNL     1      -5.226  -6.881 -22.369  1.00  0.00    -0.246 OA
HETATM   46  N7  UNL     1      -6.820  -5.840 -21.152  1.00  0.00    -0.287 N 
HETATM   47  C9  UNL     1      -5.934  -5.324 -20.096  1.00  0.00     0.163 C 
HETATM   48  C10 UNL     1      -8.128  -5.635 -21.180  1.00  0.00     0.159 A 
HETATM   49  N8  UNL     1      -8.947  -4.987 -20.365  1.00  0.00    -0.174 N 
HETATM   50  C13 UNL     1      -8.567  -6.287 -22.333  1.00  0.00     0.155 A 
HETATM   51  C11 UNL     1     -10.260  -4.971 -20.684  1.00  0.00     0.680 A 
ATOM     52  H8  UNL     1      -8.600  -4.518 -19.528  1.00  0.00     0.186 HD
HETATM   53  N10 UNL     1     -10.727  -5.588 -21.788  1.00  0.00    -0.154 N 
HETATM   54  C12 UNL     1      -9.885  -6.246 -22.613  1.00  0.00     0.290 A 
ATOM     55  H10 UNL     1     -11.723  -5.557 -22.002  1.00  0.00     0.187 HD
HETATM   56  O7  UNL     1     -10.354  -6.788 -23.595  1.00  0.00    -0.265 OA
BRANCH  51  57
HETATM   57  N9  UNL     1     -11.052  -4.332 -19.879  1.00  0.00    -0.234 N 
ATOM     58  H92 UNL     1     -10.701  -3.617 -19.243  1.00  0.00     0.174 HD
ATOM     59  H91 UNL     1     -12.041  -4.580 -19.912  1.00  0.00     0.174 HD
ENDBRANCH  51  57
ENDBRANCH   3  43
BRANCH   4  60
HETATM   60  O8  UNL     1      -8.789  -9.613 -24.295  1.00  0.00    -0.388 OA
ATOM     61  H8  UNL     1      -8.755 -10.557 -24.393  1.00  0.00     0.210 HD
ENDBRANCH   4  60
TORSDOF 17
ENDMDL
MODEL 2
REMARK VINA RESULT: -8.066772287      2.206      3.446
REMARK  17 active torsions:
REMARK  status: ('A' for Active; 'I' for Inactive)
REMARK    1  A    between atoms: O1_2  and  C2_3 
REMARK    2  A    between atoms: C3_6  and  N2_7 
REMARK    3  A    between atoms: N2_7  and  S1_9 
REMARK    4  A    between atoms: S1_9  and  O4_12 
REMARK    5  A    between atoms: O4_12  and  C4_13 
REMARK    6  A    between atoms: C4_13  and  C5_14 
REMARK    7  A    between atoms: C5_14  and  C6_15 
REMARK    8  A    between atoms: C6_15  and  N3_16 
REMARK    9  A    between atoms: N3_16  and  N4_18 
REMARK   10  A    between atoms: N4_18  and  N5_19 
REMARK   11  A    between atoms: C7_23  and  N6_24 
REMARK   12  A    between atoms: C11_32  and  N9_33 
REMARK   13  A    between atoms: C14_41  and  O8_42 
REMARK   14  A    between atoms: C15_44  and  O9_45 
REMARK   15  A    between atoms: C17_48  and  S2_49 
REMARK   16  A    between atoms: S2_49  and  C18_50 
REMARK   17  A    between atoms: C18_50  and  C19_51 
ROOT
HETATM    1  C5  UNL     1      -8.124  -5.385 -25.546  1.00  0.00     0.133 C 
HETATM    2  O5  UNL     1      -9.242  -5.130 -24.834  1.00  0.00    -0.346 OA
HETATM    3  C7  UNL     1      -9.592  -6.013 -23.959  1.00  0.00     0.265 C 
HETATM    4  C14 UNL     1      -8.378  -6.932 -23.841  1.00  0.00     0.199 C 
HETATM    5  C15 UNL     1      -7.292  -6.180 -24.584  1.00  0.00     0.189 C 
ENDROOT
BRANCH   1   6
HETATM    6  C4  UNL     1      -8.315  -6.198 -26.806  1.00  0.00     0.234 C 
BRANCH   6   7
HETATM    7  O4  UNL     1      -7.279  -7.112 -26.979  1.00  0.00    -0.256 OA
BRANCH   7   8
HETATM    8  S1  UNL     1      -6.995  -7.488 -28.561  1.00  0.00     0.363 S 
HETATM    9  O2  UNL     1      -6.461  -8.885 -28.727  1.00  0.00    -0.175 OA
HETATM   10  O3  UNL     1      -8.249  -7.296 -29.400  1.00  0.00    -0.175 OA
BRANCH   8  11
HETATM   11  N2  UNL     1      -5.818  -6.393 -29.189  1.00  0.00    -0.247 N 
ATOM     12  H2  UNL     1      -6.070  -5.701 -29.895  1.00  0.00     0.182 HD
BRANCH  11  13
HETATM   13  C3  UNL     1      -4.615  -6.472 -28.741  1.00  0.00     0.122 A 
HETATM   14  N1  UNL     1      -4.298  -7.276 -27.715  1.00  0.00    -0.307 N 
HETATM   15  C2  UNL     1      -3.056  -7.386 -27.222  1.00  0.00     0.225 A 
ATOM     16  H1  UNL     1      -5.039  -7.833 -27.289  1.00  0.00     0.171 HD
HETATM   17  N15 UNL     1      -2.094  -6.661 -27.776  1.00  0.00    -0.316 N 
HETATM   18  C17 UNL     1      -2.283  -5.814 -28.813  1.00  0.00     0.076 A 
ATOM     19  H15 UNL     1      -1.152  -6.748 -27.395  1.00  0.00     0.170 HD
HETATM   20  C16 UNL     1      -3.586  -5.733 -29.293  1.00  0.00     0.086 A 
BRANCH  15  21
HETATM   21  O1  UNL     1      -2.810  -8.231 -26.170  1.00  0.00    -0.327 OA
HETATM   22  C1  UNL     1      -1.580  -8.925 -26.112  1.00  0.00     0.213 C 
ENDBRANCH  15  21
BRANCH  18  23
HETATM   23  S2  UNL     1      -0.955  -4.858 -29.527  1.00  0.00    -0.104 SA
BRANCH  23  24
HETATM   24  C18 UNL     1      -0.793  -5.317 -31.257  1.00  0.00     0.160 C 
BRANCH  24  25
HETATM   25  C19 UNL     1      -0.867  -4.137 -32.156  1.00  0.00     0.122 A 
HETATM   26  N11 UNL     1      -1.934  -3.857 -32.919  1.00  0.00    -0.272 N 
HETATM   27  N12 UNL     1      -1.705  -2.759 -33.600  1.00  0.00    -0.227 N 
ATOM     28  H11 UNL     1      -2.790  -4.411 -32.963  1.00  0.00     0.190 HD
HETATM   29  N13 UNL     1      -0.496  -2.349 -33.266  1.00  0.00    -0.227 N 
ATOM     30  H12 UNL     1      -2.338  -2.310 -34.261  1.00  0.00     0.210 HD
HETATM   31  N14 UNL     1       0.031  -3.180 -32.385  1.00  0.00    -0.272 N 
ATOM     32  H13 UNL     1      -0.037  -1.515 -33.634  1.00  0.00     0.210 HD
ATOM     33  H14 UNL     1       0.954  -3.103 -31.958  1.00  0.00     0.190 HD
ENDBRANCH  24  25
ENDBRANCH  23  24
ENDBRANCH  18  23
ENDBRANCH  11  13
ENDBRANCH   8  11
ENDBRANCH   7   8
ENDBRANCH   6   7
ENDBRANCH   1   6
BRANCH   1  34
HETATM   34  C6  UNL     1      -7.465  -4.099 -25.974  1.00  0.00     0.198 C 
BRANCH  34  35
HETATM   35  N3  UNL     1      -7.780  -2.955 -25.194  1.00  0.00    -0.250 N 
ATOM     36  H3  UNL     1      -8.688  -2.516 -25.346  1.00  0.00     0.197 HD
BRANCH  35  37
HETATM   37  N4  UNL     1      -7.039  -2.451 -24.346  1.00  0.00    -0.248 NA
BRANCH  37  38
HETATM   38  N5  UNL     1      -6.306  -2.350 -23.358  1.00  0.00    -0.261 N 
ATOM     39  H52 UNL     1      -6.629  -1.429 -23.062  1.00  0.00     0.193 HD
ATOM     40  H51 UNL     1      -5.601  -2.584 -22.658  1.00  0.00     0.193 HD
ENDBRANCH  37  38
ENDBRANCH  35  37
ENDBRANCH  34  35
ENDBRANCH   1  34
BRANCH   5  41
HETATM   41  O9  UNL     1      -6.638  -5.378 -23.652  1.00  0.00    -0.390 OA
ATOM     42  H9  UNL     1      -5.696  -5.494 -23.668  1.00  0.00     0.210 HD
ENDBRANCH   5  41
BRANCH   3  43
HETATM   43  N6  UNL     1     -10.092  -5.790 -22.665  1.00  0.00    -0.261 N 
HETATM   44  C8  UNL     1      -9.701  -4.726 -21.930  1.00  0.00     0.333 A 
HETATM   45  O6  UNL     1      -8.878  -3.790 -22.211  1.00  0.00    -0.246 OA
HETATM   46  N7  UNL     1     -10.314  -4.734 -20.745  1.00  0.00    -0.287 N 
HETATM   47  C9  UNL     1     -10.151  -3.743 -19.668  1.00  0.00     0.163 C 
HETATM   48  C10 UNL     1     -11.115  -5.785 -20.662  1.00  0.00     0.159 A 
HETATM   49  N8  UNL     1     -11.916  -6.223 -19.703  1.00  0.00    -0.174 N 
HETATM   50  C13 UNL     1     -10.965  -6.445 -21.882  1.00  0.00     0.155 A 
HETATM   51  C11 UNL     1     -12.609  -7.360 -19.938  1.00  0.00     0.680 A 
ATOM     52  H8  UNL     1     -12.008  -5.721 -18.819  1.00  0.00     0.186 HD
HETATM   53  N10 UNL     1     -12.494  -8.028 -21.103  1.00  0.00    -0.154 N 
HETATM   54  C12 UNL     1     -11.674  -7.575 -22.075  1.00  0.00     0.290 A 
ATOM     55  H10 UNL     1     -13.030  -8.883 -21.251  1.00  0.00     0.187 HD
HETATM   56  O7  UNL     1     -11.603  -8.215 -23.107  1.00  0.00    -0.265 OA
BRANCH  51  57
HETATM   57  N9  UNL     1     -13.391  -7.777 -18.991  1.00  0.00    -0.234 N 
ATOM     58  H92 UNL     1     -14.221  -7.253 -18.716  1.00  0.00     0.174 HD
ATOM     59  H91 UNL     1     -13.136  -8.654 -18.535  1.00  0.00     0.174 HD
ENDBRANCH  51  57
ENDBRANCH   3  43
BRANCH   4  60
HETATM   60  O8  UNL     1      -8.604  -8.183 -24.386  1.00  0.00    -0.388 OA
ATOM     61  H8  UNL     1      -7.813  -8.578 -24.734  1.00  0.00     0.210 HD
ENDBRANCH   4  60
TORSDOF 17
ENDMDL
MODEL 3
REMARK VINA RESULT: -7.986597823      2.537      4.615
REMARK  17 active torsions:
REMARK  status: ('A' for Active; 'I' for Inactive)
REMARK    1  A    between atoms: O1_2  and  C2_3 
REMARK    2  A    between atoms: C3_6  and  N2_7 
REMARK    3  A    between atoms: N2_7  and  S1_9 
REMARK    4  A    between atoms: S1_9  and  O4_12 
REMARK    5  A    between atoms: O4_12  and  C4_13 
REMARK    6  A    between atoms: C4_13  and  C5_14 
REMARK    7  A    between atoms: C5_14  and  C6_15 
REMARK    8  A    between atoms: C6_15  and  N3_16 
REMARK    9  A    between atoms: N3_16  and  N4_18 
REMARK   10  A    between atoms: N4_18  and  N5_19 
REMARK   11  A    between atoms: C7_23  and  N6_24 
REMARK   12  A    between atoms: C11_32  and  N9_33 
REMARK   13  A    between atoms: C14_41  and  O8_42 
REMARK   14  A    between atoms: C15_44  and  O9_45 
REMARK   15  A    between atoms: C17_48  and  S2_49 
REMARK   16  A    between atoms: S2_49  and  C18_50 
REMARK   17  A    between atoms: C18_50  and  C19_51 
ROOT
HETATM    1  C5  UNL     1      -6.273  -5.703 -26.657  1.00  0.00     0.133 C 
HETATM    2  O5  UNL     1      -6.464  -6.431 -25.537  1.00  0.00    -0.346 OA
HETATM    3  C7  UNL     1      -7.587  -6.271 -24.920  1.00  0.00     0.265 C 
HETATM    4  C14 UNL     1      -8.454  -5.491 -25.906  1.00  0.00     0.199 C 
HETATM    5  C15 UNL     1      -7.664  -5.556 -27.199  1.00  0.00     0.189 C 
ENDROOT
BRANCH   1   6
HETATM    6  C4  UNL     1      -5.685  -4.325 -26.456  1.00  0.00     0.234 C 
BRANCH   6   7
HETATM    7  O4  UNL     1      -4.293  -4.362 -26.487  1.00  0.00    -0.256 OA
BRANCH   7   8
HETATM    8  S1  UNL     1      -3.600  -4.165 -25.002  1.00  0.00     0.363 S 
HETATM    9  O2  UNL     1      -4.213  -3.026 -24.233  1.00  0.00    -0.175 OA
HETATM   10  O3  UNL     1      -3.673  -5.451 -24.192  1.00  0.00    -0.175 OA
BRANCH   8  11
HETATM   11  N2  UNL     1      -1.923  -3.819 -25.214  1.00  0.00    -0.247 N 
ATOM     12  H2  UNL     1      -1.470  -3.075 -24.683  1.00  0.00     0.182 HD
BRANCH  11  13
HETATM   13  C3  UNL     1      -1.260  -4.526 -26.060  1.00  0.00     0.122 A 
HETATM   14  N1  UNL     1      -0.905  -5.791 -25.794  1.00  0.00    -0.307 N 
HETATM   15  C2  UNL     1      -0.214  -6.558 -26.651  1.00  0.00     0.225 A 
ATOM     16  H1  UNL     1      -1.173  -6.191 -24.895  1.00  0.00     0.171 HD
HETATM   17  N15 UNL     1       0.135  -6.037 -27.819  1.00  0.00    -0.316 N 
HETATM   18  C17 UNL     1      -0.161  -4.776 -28.207  1.00  0.00     0.076 A 
ATOM     19  H15 UNL     1       0.662  -6.624 -28.465  1.00  0.00     0.170 HD
HETATM   20  C16 UNL     1      -0.879  -4.017 -27.288  1.00  0.00     0.086 A 
BRANCH  15  21
HETATM   21  O1  UNL     1       0.112  -7.845 -26.307  1.00  0.00    -0.327 OA
HETATM   22  C1  UNL     1      -0.882  -8.848 -26.350  1.00  0.00     0.213 C 
ENDBRANCH  15  21
BRANCH  18  23
HETATM   23  S2  UNL     1       0.331  -4.117 -29.791  1.00  0.00    -0.104 SA
BRANCH  23  24
HETATM   24  C18 UNL     1      -0.773  -4.777 -31.047  1.00  0.00     0.160 C 
BRANCH  24  25
HETATM   25  C19 UNL     1      -0.966  -3.828 -32.174  1.00  0.00     0.122 A 
HETATM   26  N11 UNL     1      -0.025  -2.961 -32.576  1.00  0.00    -0.272 N 
HETATM   27  N12 UNL     1      -0.484  -2.259 -33.585  1.00  0.00    -0.227 N 
ATOM     28  H11 UNL     1       0.902  -2.862 -32.161  1.00  0.00     0.190 HD
HETATM   29  N13 UNL     1      -1.712  -2.685 -33.818  1.00  0.00    -0.227 N 
ATOM     30  H12 UNL     1       0.011  -1.526 -34.091  1.00  0.00     0.210 HD
HETATM   31  N14 UNL     1      -2.022  -3.644 -32.964  1.00  0.00    -0.272 N 
ATOM     32  H13 UNL     1      -2.328  -2.327 -34.548  1.00  0.00     0.210 HD
ATOM     33  H14 UNL     1      -2.906  -4.149 -32.918  1.00  0.00     0.190 HD
ENDBRANCH  24  25
ENDBRANCH  23  24
ENDBRANCH  18  23
ENDBRANCH  11  13
ENDBRANCH   8  11
ENDBRANCH   7   8
ENDBRANCH   6   7
ENDBRANCH   1   6
BRANCH   1  34
HETATM   34  C6  UNL     1      -5.344  -6.421 -27.602  1.00  0.00     0.198 C 
BRANCH  34  35
HETATM   35  N3  UNL     1      -5.484  -7.834 -27.650  1.00  0.00    -0.250 N 
ATOM     36  H3  UNL     1      -5.154  -8.367 -26.845  1.00  0.00     0.197 HD
BRANCH  35  37
HETATM   37  N4  UNL     1      -5.973  -8.465 -28.590  1.00  0.00    -0.248 NA
BRANCH  37  38
HETATM   38  N5  UNL     1      -6.669  -8.725 -29.577  1.00  0.00    -0.261 N 
ATOM     39  H52 UNL     1      -5.904  -8.997 -30.195  1.00  0.00     0.193 HD
ATOM     40  H51 UNL     1      -7.495  -8.842 -30.164  1.00  0.00     0.193 HD
ENDBRANCH  37  38
ENDBRANCH  35  37
ENDBRANCH  34  35
ENDBRANCH   1  34
BRANCH   5  41
HETATM   41  O9  UNL     1      -8.094  -6.689 -27.885  1.00  0.00    -0.390 OA
ATOM     42  H9  UNL     1      -9.040  -6.757 -27.921  1.00  0.00     0.210 HD
ENDBRANCH   5  41
BRANCH   3  43
HETATM   43  N6  UNL     1      -8.391  -7.260 -24.328  1.00  0.00    -0.261 N 
HETATM   44  C8  UNL     1      -8.221  -8.570 -24.606  1.00  0.00     0.333 A 
HETATM   45  O6  UNL     1      -7.387  -9.143 -25.387  1.00  0.00    -0.246 OA
HETATM   46  N7  UNL     1      -9.099  -9.306 -23.922  1.00  0.00    -0.287 N 
HETATM   47  C9  UNL     1      -9.228 -10.772 -23.956  1.00  0.00     0.163 C 
HETATM   48  C10 UNL     1      -9.864  -8.517 -23.183  1.00  0.00     0.159 A 
HETATM   49  N8  UNL     1     -10.863  -8.768 -22.350  1.00  0.00    -0.174 N 
HETATM   50  C13 UNL     1      -9.406  -7.225 -23.448  1.00  0.00     0.155 A 
HETATM   51  C11 UNL     1     -11.450  -7.712 -21.744  1.00  0.00     0.680 A 
ATOM     52  H8  UNL     1     -11.178  -9.722 -22.173  1.00  0.00     0.186 HD
HETATM   53  N10 UNL     1     -11.040  -6.448 -21.973  1.00  0.00    -0.154 N 
HETATM   54  C12 UNL     1     -10.021  -6.202 -22.823  1.00  0.00     0.290 A 
ATOM     55  H10 UNL     1     -11.503  -5.672 -21.500  1.00  0.00     0.187 HD
HETATM   56  O7  UNL     1      -9.689  -5.045 -22.997  1.00  0.00    -0.265 OA
BRANCH  51  57
HETATM   57  N9  UNL     1     -12.427  -7.971 -20.931  1.00  0.00    -0.234 N 
ATOM     58  H92 UNL     1     -12.667  -8.928 -20.675  1.00  0.00     0.174 HD
ATOM     59  H91 UNL     1     -12.943  -7.172 -20.560  1.00  0.00     0.174 HD
ENDBRANCH  51  57
ENDBRANCH   3  43
BRANCH   4  60
HETATM   60  O8  UNL     1      -8.676  -4.188 -25.503  1.00  0.00    -0.388 OA
ATOM     61  H8  UNL     1      -8.332  -3.551 -26.119  1.00  0.00     0.210 HD
ENDBRANCH   4  60
TORSDOF 17
ENDMDL
MODEL 4
REMARK VINA RESULT: -7.908412391      3.727     10.567
REMARK  17 active torsions:
REMARK  status: ('A' for Active; 'I' for Inactive)
REMARK    1  A    between atoms: O1_2  and  C2_3 
REMARK    2  A    between atoms: C3_6  and  N2_7 
REMARK    3  A    between atoms: N2_7  and  S1_9 
REMARK    4  A    between atoms: S1_9  and  O4_12 
REMARK    5  A    between atoms: O4_12  and  C4_13 
REMARK    6  A    between atoms: C4_13  and  C5_14 
REMARK    7  A    between atoms: C5_14  and  C6_15 
REMARK    8  A    between atoms: C6_15  and  N3_16 
REMARK    9  A    between atoms: N3_16  and  N4_18 
REMARK   10  A    between atoms: N4_18  and  N5_19 
REMARK   11  A    between atoms: C7_23  and  N6_24 
REMARK   12  A    between atoms: C11_32  and  N9_33 
REMARK   13  A    between atoms: C14_41  and  O8_42 
REMARK   14  A    between atoms: C15_44  and  O9_45 
REMARK   15  A    between atoms: C17_48  and  S2_49 
REMARK   16  A    between atoms: S2_49  and  C18_50 
REMARK   17  A    between atoms: C18_50  and  C19_51 
ROOT
HETATM    1  C5  UNL     1      -7.749  -8.891 -23.108  1.00  0.00     0.133 C 
HETATM    2  O5  UNL     1      -7.115  -9.151 -24.270  1.00  0.00    -0.346 OA
HETATM    3  C7  UNL     1      -6.761  -8.134 -24.983  1.00  0.00     0.265 C 
HETATM    4  C14 UNL     1      -6.939  -6.937 -24.051  1.00  0.00     0.199 C 
HETATM    5  C15 UNL     1      -7.160  -7.577 -22.693  1.00  0.00     0.189 C 
ENDROOT
BRANCH   1   6
HETATM    6  C4  UNL     1      -9.252  -8.741 -23.195  1.00  0.00     0.234 C 
BRANCH   6   7
HETATM    7  O4  UNL     1      -9.746  -7.996 -22.128  1.00  0.00    -0.256 OA
BRANCH   7   8
HETATM    8  S1  UNL     1     -11.112  -7.147 -22.500  1.00  0.00     0.363 S 
HETATM    9  O2  UNL     1     -10.807  -5.870 -23.234  1.00  0.00    -0.175 OA
HETATM   10  O3  UNL     1     -12.083  -8.001 -23.303  1.00  0.00    -0.175 OA
BRANCH   8  11
HETATM   11  N2  UNL     1     -11.925  -6.735 -21.035  1.00  0.00    -0.247 N 
ATOM     12  H2  UNL     1     -12.835  -7.138 -20.809  1.00  0.00     0.182 HD
BRANCH  11  13
HETATM   13  C3  UNL     1     -11.353  -5.906 -20.235  1.00  0.00     0.122 A 
HETATM   14  N1  UNL     1     -10.198  -5.303 -20.556  1.00  0.00    -0.307 N 
HETATM   15  C2  UNL     1      -9.572  -4.434 -19.749  1.00  0.00     0.225 A 
ATOM     16  H1  UNL     1      -9.775  -5.517 -21.459  1.00  0.00     0.171 HD
HETATM   17  N15 UNL     1     -10.123  -4.158 -18.575  1.00  0.00    -0.316 N 
HETATM   18  C17 UNL     1     -11.283  -4.698 -18.134  1.00  0.00     0.076 A 
ATOM     19  H15 UNL     1      -9.641  -3.497 -17.965  1.00  0.00     0.170 HD
HETATM   20  C16 UNL     1     -11.897  -5.593 -19.004  1.00  0.00     0.086 A 
BRANCH  15  21
HETATM   21  O1  UNL     1      -8.394  -3.857 -20.148  1.00  0.00    -0.327 OA
HETATM   22  C1  UNL     1      -7.980  -3.985 -21.493  1.00  0.00     0.213 C 
ENDBRANCH  15  21
BRANCH  18  23
HETATM   23  S2  UNL     1     -11.987  -4.296 -16.544  1.00  0.00    -0.104 SA
BRANCH  23  24
HETATM   24  C18 UNL     1     -12.937  -5.711 -15.971  1.00  0.00     0.160 C 
BRANCH  24  25
HETATM   25  C19 UNL     1     -14.380  -5.582 -16.301  1.00  0.00     0.122 A 
HETATM   26  N11 UNL     1     -15.301  -5.156 -15.423  1.00  0.00    -0.272 N 
HETATM   27  N12 UNL     1     -16.479  -5.149 -16.000  1.00  0.00    -0.227 N 
ATOM     28  H11 UNL     1     -15.114  -4.880 -14.459  1.00  0.00     0.190 HD
HETATM   29  N13 UNL     1     -16.300  -5.570 -17.238  1.00  0.00    -0.227 N 
ATOM     30  H12 UNL     1     -17.363  -4.873 -15.574  1.00  0.00     0.210 HD
HETATM   31  N14 UNL     1     -15.023  -5.839 -17.438  1.00  0.00    -0.272 N 
ATOM     32  H13 UNL     1     -17.038  -5.672 -17.935  1.00  0.00     0.210 HD
ATOM     33  H14 UNL     1     -14.606  -6.181 -18.304  1.00  0.00     0.190 HD
ENDBRANCH  24  25
ENDBRANCH  23  24
ENDBRANCH  18  23
ENDBRANCH  11  13
ENDBRANCH   8  11
ENDBRANCH   7   8
ENDBRANCH   6   7
ENDBRANCH   1   6
BRANCH   1  34
HETATM   34  C6  UNL     1      -7.496  -9.993 -22.110  1.00  0.00     0.198 C 
BRANCH  34  35
HETATM   35  N3  UNL     1      -6.261 -10.680 -22.250  1.00  0.00    -0.250 N 
ATOM     36  H3  UNL     1      -6.168 -11.327 -23.034  1.00  0.00     0.197 HD
BRANCH  35  37
HETATM   37  N4  UNL     1      -5.293 -10.555 -21.497  1.00  0.00    -0.248 NA
BRANCH  37  38
HETATM   38  N5  UNL     1      -4.216 -10.151 -21.048  1.00  0.00    -0.261 N 
ATOM     39  H52 UNL     1      -4.151  -9.313 -21.627  1.00  0.00     0.193 HD
ATOM     40  H51 UNL     1      -3.365 -10.110 -20.485  1.00  0.00     0.193 HD
ENDBRANCH  37  38
ENDBRANCH  35  37
ENDBRANCH  34  35
ENDBRANCH   1  34
BRANCH   5  41
HETATM   41  O9  UNL     1      -5.909  -7.714 -22.098  1.00  0.00    -0.390 OA
ATOM     42  H9  UNL     1      -5.951  -8.148 -21.254  1.00  0.00     0.210 HD
ENDBRANCH   5  41
BRANCH   3  43
HETATM   43  N6  UNL     1      -5.559  -7.955 -25.688  1.00  0.00    -0.261 N 
HETATM   44  C8  UNL     1      -4.368  -8.308 -25.158  1.00  0.00     0.333 A 
HETATM   45  O6  UNL     1      -4.096  -8.823 -24.020  1.00  0.00    -0.246 OA
HETATM   46  N7  UNL     1      -3.383  -8.043 -26.017  1.00  0.00    -0.287 N 
HETATM   47  C9  UNL     1      -1.946  -8.286 -25.805  1.00  0.00     0.163 C 
HETATM   48  C10 UNL     1      -3.884  -7.514 -27.123  1.00  0.00     0.159 A 
HETATM   49  N8  UNL     1      -3.320  -7.089 -28.243  1.00  0.00    -0.174 N 
HETATM   50  C13 UNL     1      -5.261  -7.464 -26.903  1.00  0.00     0.155 A 
HETATM   51  C11 UNL     1      -4.133  -6.586 -29.199  1.00  0.00     0.680 A 
ATOM     52  H8  UNL     1      -2.310  -7.137 -28.380  1.00  0.00     0.186 HD
HETATM   53  N10 UNL     1      -5.469  -6.519 -29.027  1.00  0.00    -0.154 N 
HETATM   54  C12 UNL     1      -6.034  -6.955 -27.882  1.00  0.00     0.290 A 
ATOM     55  H10 UNL     1      -6.055  -6.135 -29.768  1.00  0.00     0.187 HD
HETATM   56  O7  UNL     1      -7.243  -6.871 -27.774  1.00  0.00    -0.265 OA
BRANCH  51  57
HETATM   57  N9  UNL     1      -3.568  -6.173 -30.292  1.00  0.00    -0.234 N 
ATOM     58  H92 UNL     1      -2.560  -6.034 -30.351  1.00  0.00     0.174 HD
ATOM     59  H91 UNL     1      -4.181  -5.993 -31.088  1.00  0.00     0.174 HD
ENDBRANCH  51  57
ENDBRANCH   3  43
BRANCH   4  60
HETATM   60  O8  UNL     1      -8.001  -6.131 -24.419  1.00  0.00    -0.388 OA
ATOM     61  H8  UNL     1      -8.637  -6.023 -23.721  1.00  0.00     0.210 HD
ENDBRANCH   4  60
TORSDOF 17
ENDMDL
MODEL 5
REMARK VINA RESULT: -7.821395862      3.668      6.108
REMARK  17 active torsions:
REMARK  status: ('A' for Active; 'I' for Inactive)
REMARK    1  A    between atoms: O1_2  and  C2_3 
REMARK    2  A    between atoms: C3_6  and  N2_7 
REMARK    3  A    between atoms: N2_7  and  S1_9 
REMARK    4  A    between atoms: S1_9  and  O4_12 
REMARK    5  A    between atoms: O4_12  and  C4_13 
REMARK    6  A    between atoms: C4_13  and  C5_14 
REMARK    7  A    between atoms: C5_14  and  C6_15 
REMARK    8  A    between atoms: C6_15  and  N3_16 
REMARK    9  A    between atoms: N3_16  and  N4_18 
REMARK   10  A    between atoms: N4_18  and  N5_19 
REMARK   11  A    between atoms: C7_23  and  N6_24 
REMARK   12  A    between atoms: C11_32  and  N9_33 
REMARK   13  A    between atoms: C14_41  and  O8_42 
REMARK   14  A    between atoms: C15_44  and  O9_45 
REMARK   15  A    between atoms: C17_48  and  S2_49 
REMARK   16  A    between atoms: S2_49  and  C18_50 
REMARK   17  A    between atoms: C18_50  and  C19_51 
ROOT
HETATM    1  C5  UNL     1      -8.322  -5.334 -25.559  1.00  0.00     0.133 C 
HETATM    2  O5  UNL     1      -9.403  -5.091 -24.789  1.00  0.00    -0.346 OA
HETATM    3  C7  UNL     1      -9.755  -6.022 -23.966  1.00  0.00     0.265 C 
HETATM    4  C14 UNL     1      -8.573  -6.989 -23.959  1.00  0.00     0.199 C 
HETATM    5  C15 UNL     1      -7.486  -6.224 -24.689  1.00  0.00     0.189 C 
ENDROOT
BRANCH   1   6
HETATM    6  C4  UNL     1      -8.588  -6.048 -26.865  1.00  0.00     0.234 C 
BRANCH   6   7
HETATM    7  O4  UNL     1      -7.907  -7.260 -26.925  1.00  0.00    -0.256 OA
BRANCH   7   8
HETATM    8  S1  UNL     1      -6.905  -7.384 -28.231  1.00  0.00     0.363 S 
HETATM    9  O2  UNL     1      -7.453  -8.309 -29.284  1.00  0.00    -0.175 OA
HETATM   10  O3  UNL     1      -6.616  -6.015 -28.828  1.00  0.00    -0.175 OA
BRANCH   8  11
HETATM   11  N2  UNL     1      -5.388  -8.016 -27.708  1.00  0.00    -0.247 N 
ATOM     12  H2  UNL     1      -4.603  -8.098 -28.355  1.00  0.00     0.182 HD
BRANCH  11  13
HETATM   13  C3  UNL     1      -5.273  -8.382 -26.480  1.00  0.00     0.122 A 
HETATM   14  N1  UNL     1      -6.065  -9.327 -25.951  1.00  0.00    -0.307 N 
HETATM   15  C2  UNL     1      -5.976  -9.734 -24.677  1.00  0.00     0.225 A 
ATOM     16  H1  UNL     1      -6.771  -9.757 -26.548  1.00  0.00     0.171 HD
HETATM   17  N15 UNL     1      -5.058  -9.173 -23.901  1.00  0.00    -0.316 N 
HETATM   18  C17 UNL     1      -4.200  -8.212 -24.313  1.00  0.00     0.076 A 
ATOM     19  H15 UNL     1      -4.996  -9.486 -22.932  1.00  0.00     0.170 HD
HETATM   20  C16 UNL     1      -4.329  -7.821 -25.641  1.00  0.00     0.086 A 
BRANCH  15  21
HETATM   21  O1  UNL     1      -6.822 -10.706 -24.208  1.00  0.00    -0.327 OA
HETATM   22  C1  UNL     1      -7.188 -10.707 -22.843  1.00  0.00     0.213 C 
ENDBRANCH  15  21
BRANCH  18  23
HETATM   23  S2  UNL     1      -2.980  -7.485 -23.231  1.00  0.00    -0.104 SA
BRANCH  23  24
HETATM   24  C18 UNL     1      -3.550  -7.662 -21.535  1.00  0.00     0.160 C 
BRANCH  24  25
HETATM   25  C19 UNL     1      -4.799  -6.897 -21.285  1.00  0.00     0.122 A 
HETATM   26  N11 UNL     1      -4.843  -5.558 -21.225  1.00  0.00    -0.272 N 
HETATM   27  N12 UNL     1      -6.076  -5.175 -20.992  1.00  0.00    -0.227 N 
ATOM     28  H11 UNL     1      -4.044  -4.935 -21.342  1.00  0.00     0.190 HD
HETATM   29  N13 UNL     1      -6.807  -6.271 -20.906  1.00  0.00    -0.227 N 
ATOM     30  H12 UNL     1      -6.407  -4.215 -20.896  1.00  0.00     0.210 HD
HETATM   31  N14 UNL     1      -6.041  -7.333 -21.083  1.00  0.00    -0.272 N 
ATOM     32  H13 UNL     1      -7.811  -6.294 -20.730  1.00  0.00     0.210 HD
ATOM     33  H14 UNL     1      -6.345  -8.305 -21.067  1.00  0.00     0.190 HD
ENDBRANCH  24  25
ENDBRANCH  23  24
ENDBRANCH  18  23
ENDBRANCH  11  13
ENDBRANCH   8  11
ENDBRANCH   7   8
ENDBRANCH   6   7
ENDBRANCH   1   6
BRANCH   1  34
HETATM   34  C6  UNL     1      -7.630  -4.044 -25.921  1.00  0.00     0.198 C 
BRANCH  34  35
HETATM   35  N3  UNL     1      -7.851  -2.956 -25.035  1.00  0.00    -0.250 N 
ATOM     36  H3  UNL     1      -8.757  -2.491 -25.076  1.00  0.00     0.197 HD
BRANCH  35  37
HETATM   37  N4  UNL     1      -7.028  -2.531 -24.219  1.00  0.00    -0.248 NA
BRANCH  37  38
HETATM   38  N5  UNL     1      -6.335  -2.459 -23.199  1.00  0.00    -0.261 N 
ATOM     39  H52 UNL     1      -6.872  -1.721 -22.742  1.00  0.00     0.193 HD
ATOM     40  H51 UNL     1      -5.590  -2.653 -22.530  1.00  0.00     0.193 HD
ENDBRANCH  37  38
ENDBRANCH  35  37
ENDBRANCH  34  35
ENDBRANCH   1  34
BRANCH   5  41
HETATM   41  O9  UNL     1      -6.770  -5.515 -23.728  1.00  0.00    -0.390 OA
ATOM     42  H9  UNL     1      -6.179  -6.068 -23.231  1.00  0.00     0.210 HD
ENDBRANCH   5  41
BRANCH   3  43
HETATM   43  N6  UNL     1     -10.199  -5.875 -22.640  1.00  0.00    -0.261 N 
HETATM   44  C8  UNL     1      -9.719  -4.900 -21.838  1.00  0.00     0.333 A 
HETATM   45  O6  UNL     1      -8.848  -3.995 -22.074  1.00  0.00    -0.246 OA
HETATM   46  N7  UNL     1     -10.295  -4.966 -20.636  1.00  0.00    -0.287 N 
HETATM   47  C9  UNL     1     -10.037  -4.078 -19.491  1.00  0.00     0.163 C 
HETATM   48  C10 UNL     1     -11.158  -5.971 -20.608  1.00  0.00     0.159 A 
HETATM   49  N8  UNL     1     -11.955  -6.435 -19.659  1.00  0.00    -0.174 N 
HETATM   50  C13 UNL     1     -11.088  -6.537 -21.881  1.00  0.00     0.155 A 
HETATM   51  C11 UNL     1     -12.726  -7.505 -19.958  1.00  0.00     0.680 A 
ATOM     52  H8  UNL     1     -11.988  -6.002 -18.735  1.00  0.00     0.186 HD
HETATM   53  N10 UNL     1     -12.689  -8.082 -21.176  1.00  0.00    -0.154 N 
HETATM   54  C12 UNL     1     -11.872  -7.602 -22.138  1.00  0.00     0.290 A 
ATOM     55  H10 UNL     1     -13.282  -8.888 -21.372  1.00  0.00     0.187 HD
HETATM   56  O7  UNL     1     -11.874  -8.159 -23.219  1.00  0.00    -0.265 OA
BRANCH  51  57
HETATM   57  N9  UNL     1     -13.503  -7.949 -19.020  1.00  0.00    -0.234 N 
ATOM     58  H92 UNL     1     -13.902  -7.326 -18.319  1.00  0.00     0.174 HD
ATOM     59  H91 UNL     1     -13.695  -8.952 -19.016  1.00  0.00     0.174 HD
ENDBRANCH  51  57
ENDBRANCH   3  43
BRANCH   4  60
HETATM   60  O8  UNL     1      -8.866  -8.189 -24.581  1.00  0.00    -0.388 OA
ATOM     61  H8  UNL     1      -8.426  -8.927 -24.176  1.00  0.00     0.210 HD
ENDBRANCH   4  60
TORSDOF 17
ENDMDL
