MODEL 1
REMARK VINA RESULT: -8.280670436      0.000      0.000
REMARK  16 active torsions:
REMARK  status: ('A' for Active; 'I' for Inactive)
REMARK    1  A    between atoms: O1_2  and  C2_3 
REMARK    2  A    between atoms: C3_5  and  C4_6 
REMARK    3  A    between atoms: C4_6  and  C5_11 
REMARK    4  A    between atoms: N1_7  and  O3_9 
REMARK    5  A    between atoms: C5_11  and  O4_12 
REMARK    6  A    between atoms: C5_11  and  C6_14 
REMARK    7  A    between atoms: C6_14  and  O5_16 
REMARK    8  A    between atoms: C8_18  and  O6_19 
REMARK    9  A    between atoms: O6_19  and  C9_20 
REMARK   10  A    between atoms: C14_27  and  O9_28 
REMARK   11  A    between atoms: C15_30  and  O10_31 
REMARK   12  A    between atoms: O10_31  and  S1_32 
REMARK   13  A    between atoms: C16_36  and  O14_37 
REMARK   14  A    between atoms: O14_37  and  S2_38 
REMARK   15  A    between atoms: C17_42  and  O18_43 
REMARK   16  A    between atoms: O18_43  and  S3_44 
ROOT
HETATM    1  C2  UNL     1      -1.053  -5.748 -28.494  1.00  0.00     0.293 C 
HETATM    2  O2  UNL     1      -1.595  -4.579 -29.018  1.00  0.00    -0.345 OA
HETATM    3  C3  UNL     1      -2.927  -4.759 -29.469  1.00  0.00     0.206 C 
HETATM    4  C8  UNL     1      -3.659  -5.442 -28.338  1.00  0.00     0.190 C 
HETATM    5  C16 UNL     1      -2.899  -5.139 -27.076  1.00  0.00     0.212 C 
HETATM    6  C17 UNL     1      -1.674  -6.074 -27.123  1.00  0.00     0.233 C 
ENDROOT
BRANCH   4   7
HETATM    7  O6  UNL     1      -4.959  -5.103 -28.199  1.00  0.00    -0.372 OA
BRANCH   7   8
HETATM    8  C9  UNL     1      -5.935  -6.021 -28.509  1.00  0.00     0.157 C 
HETATM    9  C10 UNL     1      -7.239  -5.366 -27.982  1.00  0.00     0.069 C 
HETATM   10  C11 UNL     1      -7.163  -5.498 -26.510  1.00  0.00     0.158 C 
HETATM   11  O7  UNL     1      -8.071  -4.830 -25.746  1.00  0.00    -0.359 OA
HETATM   12  C13 UNL     1      -7.635  -6.933 -26.235  1.00  0.00     0.184 C 
HETATM   13  C12 UNL     1      -8.012  -5.548 -24.534  1.00  0.00     0.339 C 
HETATM   14  O8  UNL     1      -7.618  -6.863 -24.853  1.00  0.00    -0.356 OA
HETATM   15  C14 UNL     1      -6.706  -7.846 -26.894  1.00  0.00     0.182 C 
HETATM   16  C15 UNL     1      -5.638  -7.290 -27.780  1.00  0.00     0.205 C 
BRANCH  15  17
HETATM   17  O9  UNL     1      -6.040  -8.573 -25.869  1.00  0.00    -0.390 OA
ATOM     18  H9  UNL     1      -5.360  -8.007 -25.524  1.00  0.00     0.210 HD
ENDBRANCH  15  17
BRANCH  16  19
HETATM   19  O10 UNL     1      -5.431  -8.289 -28.774  1.00  0.00    -0.246 OA
BRANCH  19  20
HETATM   20  S1  UNL     1      -6.785  -9.168 -29.118  1.00  0.00     0.252 S 
HETATM   21  O11 UNL     1      -7.889  -8.257 -29.650  1.00  0.00    -0.572 OA
HETATM   22  O12 UNL     1      -6.491 -10.117 -30.245  1.00  0.00    -0.572 OA
HETATM   23  O13 UNL     1      -7.355 -10.065 -27.823  1.00  0.00    -0.572 OA
ENDBRANCH  19  20
ENDBRANCH  16  19
ENDBRANCH   7   8
ENDBRANCH   4   7
BRANCH   3  24
HETATM   24  C4  UNL     1      -2.791  -5.594 -30.687  1.00  0.00     0.072 C 
HETATM   25  N1  UNL     1      -3.491  -6.708 -30.713  1.00  0.00    -0.272 N 
ATOM     26  H1  UNL     1      -4.084  -6.950 -29.918  1.00  0.00     0.193 HD
BRANCH  25  27
HETATM   27  O3  UNL     1      -3.432  -7.538 -31.786  1.00  0.00    -0.290 OA
ATOM     28  H3  UNL     1      -3.808  -8.409 -31.745  1.00  0.00     0.244 HD
ENDBRANCH  25  27
BRANCH  24  29
HETATM   29  C5  UNL     1      -1.952  -5.285 -31.828  1.00  0.00     0.196 C 
BRANCH  29  30
HETATM   30  O4  UNL     1      -0.731  -5.997 -31.789  1.00  0.00    -0.387 OA
ATOM     31  H4  UNL     1      -0.717  -6.707 -32.420  1.00  0.00     0.210 HD
ENDBRANCH  29  30
BRANCH  29  32
HETATM   32  C6  UNL     1      -1.679  -3.848 -32.126  1.00  0.00     0.148 C 
HETATM   33  C7  UNL     1      -0.202  -3.588 -32.150  1.00  0.00     0.042 C 
BRANCH  32  34
HETATM   34  O5  UNL     1      -2.140  -3.583 -33.446  1.00  0.00    -0.393 OA
ATOM     35  H5  UNL     1      -2.313  -2.650 -33.511  1.00  0.00     0.210 HD
ENDBRANCH  32  34
ENDBRANCH  29  32
ENDBRANCH  24  29
ENDBRANCH   3  24
BRANCH   5  36
HETATM   36  O14 UNL     1      -3.634  -5.275 -25.940  1.00  0.00    -0.246 OA
BRANCH  36  37
HETATM   37  S2  UNL     1      -3.606  -3.898 -24.971  1.00  0.00     0.252 S 
HETATM   38  O15 UNL     1      -2.789  -4.242 -23.752  1.00  0.00    -0.572 OA
HETATM   39  O16 UNL     1      -4.978  -3.529 -24.486  1.00  0.00    -0.572 OA
HETATM   40  O17 UNL     1      -2.897  -2.649 -25.841  1.00  0.00    -0.572 OA
ENDBRANCH  36  37
ENDBRANCH   5  36
BRANCH   6  41
HETATM   41  O18 UNL     1      -0.802  -5.786 -26.088  1.00  0.00    -0.244 OA
BRANCH  41  42
HETATM   42  S3  UNL     1      -0.234  -7.121 -25.288  1.00  0.00     0.252 S 
HETATM   43  O19 UNL     1       1.102  -6.852 -24.620  1.00  0.00    -0.572 OA
HETATM   44  O20 UNL     1      -1.168  -7.578 -24.183  1.00  0.00    -0.572 OA
HETATM   45  O21 UNL     1       0.013  -8.418 -26.335  1.00  0.00    -0.572 OA
ENDBRANCH  41  42
ENDBRANCH   6  41
BRANCH   1  46
HETATM   46  O1  UNL     1       0.293  -5.485 -28.248  1.00  0.00    -0.363 OA
HETATM   47  C1  UNL     1       0.726  -4.302 -28.792  1.00  0.00     0.204 C 
ENDBRANCH   1  46
TORSDOF 16
ENDMDL
MODEL 2
REMARK VINA RESULT: -8.150675507      3.799      5.691
REMARK  16 active torsions:
REMARK  status: ('A' for Active; 'I' for Inactive)
REMARK    1  A    between atoms: O1_2  and  C2_3 
REMARK    2  A    between atoms: C3_5  and  C4_6 
REMARK    3  A    between atoms: C4_6  and  C5_11 
REMARK    4  A    between atoms: N1_7  and  O3_9 
REMARK    5  A    between atoms: C5_11  and  O4_12 
REMARK    6  A    between atoms: C5_11  and  C6_14 
REMARK    7  A    between atoms: C6_14  and  O5_16 
REMARK    8  A    between atoms: C8_18  and  O6_19 
REMARK    9  A    between atoms: O6_19  and  C9_20 
REMARK   10  A    between atoms: C14_27  and  O9_28 
REMARK   11  A    between atoms: C15_30  and  O10_31 
REMARK   12  A    between atoms: O10_31  and  S1_32 
REMARK   13  A    between atoms: C16_36  and  O14_37 
REMARK   14  A    between atoms: O14_37  and  S2_38 
REMARK   15  A    between atoms: C17_42  and  O18_43 
REMARK   16  A    between atoms: O18_43  and  S3_44 
ROOT
HETATM    1  C2  UNL     1      -3.792  -8.151 -23.879  1.00  0.00     0.293 C 
HETATM    2  O2  UNL     1      -3.863  -6.849 -24.363  1.00  0.00    -0.345 OA
HETATM    3  C3  UNL     1      -5.152  -6.530 -24.860  1.00  0.00     0.206 C 
HETATM    4  C8  UNL     1      -6.126  -6.946 -23.783  1.00  0.00     0.190 C 
HETATM    5  C16 UNL     1      -5.364  -6.975 -22.487  1.00  0.00     0.212 C 
HETATM    6  C17 UNL     1      -4.547  -8.281 -22.542  1.00  0.00     0.233 C 
ENDROOT
BRANCH   4   7
HETATM    7  O6  UNL     1      -7.227  -6.173 -23.666  1.00  0.00    -0.372 OA
BRANCH   7   8
HETATM    8  C9  UNL     1      -8.407  -6.583 -24.242  1.00  0.00     0.157 C 
HETATM    9  C10 UNL     1      -9.351  -5.366 -24.058  1.00  0.00     0.069 C 
HETATM   10  C11 UNL     1      -9.704  -5.372 -22.620  1.00  0.00     0.158 C 
HETATM   11  O7  UNL     1     -10.362  -4.298 -22.104  1.00  0.00    -0.359 OA
HETATM   12  C13 UNL     1     -10.831  -6.410 -22.514  1.00  0.00     0.184 C 
HETATM   13  C12 UNL     1     -10.934  -4.844 -20.936  1.00  0.00     0.339 C 
HETATM   14  O8  UNL     1     -11.121  -6.220 -21.174  1.00  0.00    -0.356 OA
HETATM   15  C14 UNL     1     -10.293  -7.702 -22.931  1.00  0.00     0.182 C 
HETATM   16  C15 UNL     1      -8.911  -7.772 -23.493  1.00  0.00     0.205 C 
BRANCH  15  17
HETATM   17  O9  UNL     1     -10.305  -8.546 -21.786  1.00  0.00    -0.390 OA
ATOM     18  H9  UNL     1     -10.932  -9.239 -21.959  1.00  0.00     0.210 HD
ENDBRANCH  15  17
BRANCH  16  19
HETATM   19  O10 UNL     1      -8.948  -8.850 -24.424  1.00  0.00    -0.246 OA
BRANCH  19  20
HETATM   20  S1  UNL     1      -8.252 -10.235 -23.856  1.00  0.00     0.252 S 
HETATM   21  O11 UNL     1      -7.029 -10.597 -24.695  1.00  0.00    -0.572 OA
HETATM   22  O12 UNL     1      -7.714  -9.993 -22.473  1.00  0.00    -0.572 OA
HETATM   23  O13 UNL     1      -9.302 -11.538 -23.781  1.00  0.00    -0.572 OA
ENDBRANCH  19  20
ENDBRANCH  16  19
ENDBRANCH   7   8
ENDBRANCH   4   7
BRANCH   3  24
HETATM   24  C4  UNL     1      -5.267  -7.318 -26.111  1.00  0.00     0.072 C 
HETATM   25  N1  UNL     1      -6.197  -8.248 -26.132  1.00  0.00    -0.272 N 
ATOM     26  H1  UNL     1      -6.787  -8.391 -25.312  1.00  0.00     0.193 HD
BRANCH  25  27
HETATM   27  O3  UNL     1      -6.379  -9.020 -27.234  1.00  0.00    -0.290 OA
ATOM     28  H3  UNL     1      -7.229  -9.069 -27.656  1.00  0.00     0.244 HD
ENDBRANCH  25  27
BRANCH  24  29
HETATM   29  C5  UNL     1      -4.440  -7.147 -27.290  1.00  0.00     0.196 C 
BRANCH  29  30
HETATM   30  O4  UNL     1      -3.081  -6.955 -26.952  1.00  0.00    -0.387 OA
ATOM     31  H4  UNL     1      -2.601  -6.530 -27.652  1.00  0.00     0.210 HD
ENDBRANCH  29  30
BRANCH  29  32
HETATM   32  C6  UNL     1      -4.853  -6.121 -28.291  1.00  0.00     0.148 C 
HETATM   33  C7  UNL     1      -3.847  -6.035 -29.400  1.00  0.00     0.042 C 
BRANCH  32  34
HETATM   34  O5  UNL     1      -6.062  -6.567 -28.897  1.00  0.00    -0.393 OA
ATOM     35  H5  UNL     1      -6.338  -5.901 -29.516  1.00  0.00     0.210 HD
ENDBRANCH  32  34
ENDBRANCH  29  32
ENDBRANCH  24  29
ENDBRANCH   3  24
BRANCH   5  36
HETATM   36  O14 UNL     1      -6.147  -6.879 -21.380  1.00  0.00    -0.246 OA
BRANCH  36  37
HETATM   37  S2  UNL     1      -5.776  -5.543 -20.425  1.00  0.00     0.252 S 
HETATM   38  O15 UNL     1      -4.776  -4.722 -21.199  1.00  0.00    -0.572 OA
HETATM   39  O16 UNL     1      -5.111  -5.943 -19.141  1.00  0.00    -0.572 OA
HETATM   40  O17 UNL     1      -7.187  -4.675 -20.152  1.00  0.00    -0.572 OA
ENDBRANCH  36  37
ENDBRANCH   5  36
BRANCH   6  41
HETATM   41  O18 UNL     1      -3.675  -8.357 -21.471  1.00  0.00    -0.244 OA
BRANCH  41  42
HETATM   42  S3  UNL     1      -3.940  -9.649 -20.470  1.00  0.00     0.252 S 
HETATM   43  O19 UNL     1      -4.415  -9.210 -19.097  1.00  0.00    -0.572 OA
HETATM   44  O20 UNL     1      -5.008 -10.586 -21.000  1.00  0.00    -0.572 OA
HETATM   45  O21 UNL     1      -2.534 -10.544 -20.220  1.00  0.00    -0.572 OA
ENDBRANCH  41  42
ENDBRANCH   6  41
BRANCH   1  46
HETATM   46  O1  UNL     1      -2.452  -8.391 -23.583  1.00  0.00    -0.363 OA
HETATM   47  C1  UNL     1      -1.616  -7.378 -23.980  1.00  0.00     0.204 C 
ENDBRANCH   1  46
TORSDOF 16
ENDMDL
MODEL 3
REMARK VINA RESULT: -8.145835024      2.886      6.458
REMARK  16 active torsions:
REMARK  status: ('A' for Active; 'I' for Inactive)
REMARK    1  A    between atoms: O1_2  and  C2_3 
REMARK    2  A    between atoms: C3_5  and  C4_6 
REMARK    3  A    between atoms: C4_6  and  C5_11 
REMARK    4  A    between atoms: N1_7  and  O3_9 
REMARK    5  A    between atoms: C5_11  and  O4_12 
REMARK    6  A    between atoms: C5_11  and  C6_14 
REMARK    7  A    between atoms: C6_14  and  O5_16 
REMARK    8  A    between atoms: C8_18  and  O6_19 
REMARK    9  A    between atoms: O6_19  and  C9_20 
REMARK   10  A    between atoms: C14_27  and  O9_28 
REMARK   11  A    between atoms: C15_30  and  O10_31 
REMARK   12  A    between atoms: O10_31  and  S1_32 
REMARK   13  A    between atoms: C16_36  and  O14_37 
REMARK   14  A    between atoms: O14_37  and  S2_38 
REMARK   15  A    between atoms: C17_42  and  O18_43 
REMARK   16  A    between atoms: O18_43  and  S3_44 
ROOT
HETATM    1  C2  UNL     1      -3.280  -7.394 -27.379  1.00  0.00     0.293 C 
HETATM    2  O2  UNL     1      -2.942  -6.295 -26.597  1.00  0.00    -0.345 OA
HETATM    3  C3  UNL     1      -2.529  -5.186 -27.378  1.00  0.00     0.206 C 
HETATM    4  C8  UNL     1      -3.590  -5.009 -28.439  1.00  0.00     0.190 C 
HETATM    5  C16 UNL     1      -4.847  -5.648 -27.916  1.00  0.00     0.212 C 
HETATM    6  C17 UNL     1      -4.622  -7.162 -28.100  1.00  0.00     0.233 C 
ENDROOT
BRANCH   4   7
HETATM    7  O6  UNL     1      -3.829  -3.734 -28.813  1.00  0.00    -0.372 OA
BRANCH   7   8
HETATM    8  C9  UNL     1      -2.809  -2.813 -28.769  1.00  0.00     0.157 C 
HETATM    9  C10 UNL     1      -3.384  -1.664 -27.899  1.00  0.00     0.069 C 
HETATM   10  C11 UNL     1      -4.364  -0.981 -28.772  1.00  0.00     0.158 C 
HETATM   11  O7  UNL     1      -5.191  -0.049 -28.222  1.00  0.00    -0.359 OA
HETATM   12  C13 UNL     1      -3.508  -0.048 -29.643  1.00  0.00     0.184 C 
HETATM   13  C12 UNL     1      -5.588   0.690 -29.356  1.00  0.00     0.339 C 
HETATM   14  O8  UNL     1      -4.549   0.584 -30.301  1.00  0.00    -0.356 OA
HETATM   15  C14 UNL     1      -2.595  -0.877 -30.424  1.00  0.00     0.182 C 
HETATM   16  C15 UNL     1      -2.533  -2.346 -30.160  1.00  0.00     0.205 C 
BRANCH  15  17
HETATM   17  O9  UNL     1      -2.963  -0.728 -31.789  1.00  0.00    -0.390 OA
ATOM     18  H9  UNL     1      -2.573   0.082 -32.096  1.00  0.00     0.210 HD
ENDBRANCH  15  17
BRANCH  16  19
HETATM   19  O10 UNL     1      -1.187  -2.714 -30.450  1.00  0.00    -0.246 OA
BRANCH  19  20
HETATM   20  S1  UNL     1      -1.029  -3.595 -31.837  1.00  0.00     0.252 S 
HETATM   21  O11 UNL     1       0.329  -4.292 -31.871  1.00  0.00    -0.572 OA
HETATM   22  O12 UNL     1      -2.036  -4.711 -31.837  1.00  0.00    -0.572 OA
HETATM   23  O13 UNL     1      -1.250  -2.700 -33.236  1.00  0.00    -0.572 OA
ENDBRANCH  19  20
ENDBRANCH  16  19
ENDBRANCH   7   8
ENDBRANCH   4   7
BRANCH   3  24
HETATM   24  C4  UNL     1      -1.205  -5.588 -27.913  1.00  0.00     0.072 C 
HETATM   25  N1  UNL     1      -1.124  -5.736 -29.218  1.00  0.00    -0.272 N 
ATOM     26  H1  UNL     1      -1.948  -5.575 -29.798  1.00  0.00     0.193 HD
BRANCH  25  27
HETATM   27  O3  UNL     1       0.047  -6.102 -29.801  1.00  0.00    -0.290 OA
ATOM     28  H3  UNL     1       0.382  -5.626 -30.552  1.00  0.00     0.244 HD
ENDBRANCH  25  27
BRANCH  24  29
HETATM   29  C5  UNL     1      -0.018  -5.834 -27.119  1.00  0.00     0.196 C 
BRANCH  29  30
HETATM   30  O4  UNL     1       0.258  -7.216 -27.004  1.00  0.00    -0.387 OA
ATOM     31  H4  UNL     1      -0.162  -7.596 -26.241  1.00  0.00     0.210 HD
ENDBRANCH  29  30
BRANCH  29  32
HETATM   32  C6  UNL     1       0.066  -5.197 -25.772  1.00  0.00     0.148 C 
HETATM   33  C7  UNL     1       0.421  -6.216 -24.730  1.00  0.00     0.042 C 
BRANCH  32  34
HETATM   34  O5  UNL     1       1.149  -4.273 -25.795  1.00  0.00    -0.393 OA
ATOM     35  H5  UNL     1       0.805  -3.418 -25.566  1.00  0.00     0.210 HD
ENDBRANCH  32  34
ENDBRANCH  29  32
ENDBRANCH  24  29
ENDBRANCH   3  24
BRANCH   5  36
HETATM   36  O14 UNL     1      -5.985  -5.199 -28.508  1.00  0.00    -0.246 OA
BRANCH  36  37
HETATM   37  S2  UNL     1      -7.080  -4.539 -27.412  1.00  0.00     0.252 S 
HETATM   38  O15 UNL     1      -6.728  -3.080 -27.272  1.00  0.00    -0.572 OA
HETATM   39  O16 UNL     1      -6.944  -5.153 -26.049  1.00  0.00    -0.572 OA
HETATM   40  O17 UNL     1      -8.631  -4.730 -28.028  1.00  0.00    -0.572 OA
ENDBRANCH  36  37
ENDBRANCH   5  36
BRANCH   6  41
HETATM   41  O18 UNL     1      -5.647  -7.882 -27.512  1.00  0.00    -0.244 OA
BRANCH  41  42
HETATM   42  S3  UNL     1      -6.638  -8.656 -28.590  1.00  0.00     0.252 S 
HETATM   43  O19 UNL     1      -7.924  -7.885 -28.824  1.00  0.00    -0.572 OA
HETATM   44  O20 UNL     1      -5.997  -8.821 -29.954  1.00  0.00    -0.572 OA
HETATM   45  O21 UNL     1      -7.094 -10.180 -28.036  1.00  0.00    -0.572 OA
ENDBRANCH  41  42
ENDBRANCH   6  41
BRANCH   1  46
HETATM   46  O1  UNL     1      -3.501  -8.453 -26.500  1.00  0.00    -0.363 OA
HETATM   47  C1  UNL     1      -2.638  -8.464 -25.433  1.00  0.00     0.204 C 
ENDBRANCH   1  46
TORSDOF 16
ENDMDL
MODEL 4
REMARK VINA RESULT: -8.020904961      2.599      5.153
REMARK  16 active torsions:
REMARK  status: ('A' for Active; 'I' for Inactive)
REMARK    1  A    between atoms: O1_2  and  C2_3 
REMARK    2  A    between atoms: C3_5  and  C4_6 
REMARK    3  A    between atoms: C4_6  and  C5_11 
REMARK    4  A    between atoms: N1_7  and  O3_9 
REMARK    5  A    between atoms: C5_11  and  O4_12 
REMARK    6  A    between atoms: C5_11  and  C6_14 
REMARK    7  A    between atoms: C6_14  and  O5_16 
REMARK    8  A    between atoms: C8_18  and  O6_19 
REMARK    9  A    between atoms: O6_19  and  C9_20 
REMARK   10  A    between atoms: C14_27  and  O9_28 
REMARK   11  A    between atoms: C15_30  and  O10_31 
REMARK   12  A    between atoms: O10_31  and  S1_32 
REMARK   13  A    between atoms: C16_36  and  O14_37 
REMARK   14  A    between atoms: O14_37  and  S2_38 
REMARK   15  A    between atoms: C17_42  and  O18_43 
REMARK   16  A    between atoms: O18_43  and  S3_44 
ROOT
HETATM    1  C2  UNL     1      -3.854  -3.741 -28.291  1.00  0.00     0.293 C 
HETATM    2  O2  UNL     1      -3.831  -3.512 -26.919  1.00  0.00    -0.345 OA
HETATM    3  C3  UNL     1      -4.876  -4.191 -26.243  1.00  0.00     0.206 C 
HETATM    4  C8  UNL     1      -4.826  -5.619 -26.730  1.00  0.00     0.190 C 
HETATM    5  C16 UNL     1      -3.431  -5.863 -27.237  1.00  0.00     0.212 C 
HETATM    6  C17 UNL     1      -3.390  -5.174 -28.616  1.00  0.00     0.233 C 
ENDROOT
BRANCH   4   7
HETATM    7  O6  UNL     1      -5.166  -6.555 -25.818  1.00  0.00    -0.372 OA
BRANCH   7   8
HETATM    8  C9  UNL     1      -6.485  -6.924 -25.687  1.00  0.00     0.157 C 
HETATM    9  C10 UNL     1      -6.694  -7.011 -24.152  1.00  0.00     0.069 C 
HETATM   10  C11 UNL     1      -5.996  -8.251 -23.743  1.00  0.00     0.158 C 
HETATM   11  O7  UNL     1      -5.824  -8.496 -22.415  1.00  0.00    -0.359 OA
HETATM   12  C13 UNL     1      -6.999  -9.370 -24.060  1.00  0.00     0.184 C 
HETATM   13  C12 UNL     1      -5.605  -9.889 -22.405  1.00  0.00     0.339 C 
HETATM   14  O8  UNL     1      -6.267 -10.418 -23.529  1.00  0.00    -0.356 OA
HETATM   15  C14 UNL     1      -7.249  -9.356 -25.498  1.00  0.00     0.182 C 
HETATM   16  C15 UNL     1      -6.669  -8.259 -26.331  1.00  0.00     0.205 C 
BRANCH  15  17
HETATM   17  O9  UNL     1      -6.733 -10.574 -26.021  1.00  0.00    -0.390 OA
ATOM     18  H9  UNL     1      -7.110 -11.278 -25.507  1.00  0.00     0.210 HD
ENDBRANCH  15  17
BRANCH  16  19
HETATM   19  O10 UNL     1      -7.602  -8.072 -27.391  1.00  0.00    -0.246 OA
BRANCH  19  20
HETATM   20  S1  UNL     1      -7.055  -8.609 -28.853  1.00  0.00     0.252 S 
HETATM   21  O11 UNL     1      -7.873  -7.992 -29.985  1.00  0.00    -0.572 OA
HETATM   22  O12 UNL     1      -5.654  -8.114 -29.074  1.00  0.00    -0.572 OA
HETATM   23  O13 UNL     1      -7.042 -10.278 -28.997  1.00  0.00    -0.572 OA
ENDBRANCH  19  20
ENDBRANCH  16  19
ENDBRANCH   7   8
ENDBRANCH   4   7
BRANCH   3  24
HETATM   24  C4  UNL     1      -6.104  -3.462 -26.644  1.00  0.00     0.072 C 
HETATM   25  N1  UNL     1      -6.920  -4.097 -27.457  1.00  0.00    -0.272 N 
ATOM     26  H1  UNL     1      -6.686  -5.038 -27.774  1.00  0.00     0.193 HD
BRANCH  25  27
HETATM   27  O3  UNL     1      -8.070  -3.511 -27.879  1.00  0.00    -0.290 OA
ATOM     28  H3  UNL     1      -8.552  -3.867 -28.617  1.00  0.00     0.244 HD
ENDBRANCH  25  27
BRANCH  24  29
HETATM   29  C5  UNL     1      -6.462  -2.122 -26.220  1.00  0.00     0.196 C 
BRANCH  29  30
HETATM   30  O4  UNL     1      -5.370  -1.230 -26.330  1.00  0.00    -0.387 OA
ATOM     31  H4  UNL     1      -4.925  -1.115 -25.498  1.00  0.00     0.210 HD
ENDBRANCH  29  30
BRANCH  29  32
HETATM   32  C6  UNL     1      -7.104  -1.960 -24.883  1.00  0.00     0.148 C 
HETATM   33  C7  UNL     1      -7.714  -0.596 -24.755  1.00  0.00     0.042 C 
BRANCH  32  34
HETATM   34  O5  UNL     1      -8.189  -2.878 -24.808  1.00  0.00    -0.393 OA
ATOM     35  H5  UNL     1      -8.031  -3.454 -24.068  1.00  0.00     0.210 HD
ENDBRANCH  32  34
ENDBRANCH  29  32
ENDBRANCH  24  29
ENDBRANCH   3  24
BRANCH   5  36
HETATM   36  O14 UNL     1      -3.078  -7.175 -27.283  1.00  0.00    -0.246 OA
BRANCH  36  37
HETATM   37  S2  UNL     1      -1.696  -7.516 -26.385  1.00  0.00     0.252 S 
HETATM   38  O15 UNL     1      -1.635  -6.495 -25.278  1.00  0.00    -0.572 OA
HETATM   39  O16 UNL     1      -0.446  -7.351 -27.200  1.00  0.00    -0.572 OA
HETATM   40  O17 UNL     1      -1.833  -9.071 -25.766  1.00  0.00    -0.572 OA
ENDBRANCH  36  37
ENDBRANCH   5  36
BRANCH   6  41
HETATM   41  O18 UNL     1      -2.106  -5.188 -29.130  1.00  0.00    -0.244 OA
BRANCH  41  42
HETATM   42  S3  UNL     1      -1.955  -6.019 -30.554  1.00  0.00     0.252 S 
HETATM   43  O19 UNL     1      -0.538  -6.522 -30.765  1.00  0.00    -0.572 OA
HETATM   44  O20 UNL     1      -2.844  -7.246 -30.609  1.00  0.00    -0.572 OA
HETATM   45  O21 UNL     1      -2.315  -5.050 -31.884  1.00  0.00    -0.572 OA
ENDBRANCH  41  42
ENDBRANCH   6  41
BRANCH   1  46
HETATM   46  O1  UNL     1      -2.897  -2.896 -28.850  1.00  0.00    -0.363 OA
HETATM   47  C1  UNL     1      -3.400  -1.679 -29.234  1.00  0.00     0.204 C 
ENDBRANCH   1  46
TORSDOF 16
ENDMDL
MODEL 5
REMARK VINA RESULT: -7.897632896      2.967      6.932
REMARK  16 active torsions:
REMARK  status: ('A' for Active; 'I' for Inactive)
REMARK    1  A    between atoms: O1_2  and  C2_3 
REMARK    2  A    between atoms: C3_5  and  C4_6 
REMARK    3  A    between atoms: C4_6  and  C5_11 
REMARK    4  A    between atoms: N1_7  and  O3_9 
REMARK    5  A    between atoms: C5_11  and  O4_12 
REMARK    6  A    between atoms: C5_11  and  C6_14 
REMARK    7  A    between atoms: C6_14  and  O5_16 
REMARK    8  A    between atoms: C8_18  and  O6_19 
REMARK    9  A    between atoms: O6_19  and  C9_20 
REMARK   10  A    between atoms: C14_27  and  O9_28 
REMARK   11  A    between atoms: C15_30  and  O10_31 
REMARK   12  A    between atoms: O10_31  and  S1_32 
REMARK   13  A    between atoms: C16_36  and  O14_37 
REMARK   14  A    between atoms: O14_37  and  S2_38 
REMARK   15  A    between atoms: C17_42  and  O18_43 
REMARK   16  A    between atoms: O18_43  and  S3_44 
ROOT
HETATM    1  C2  UNL     1      -7.931  -8.350 -25.249  1.00  0.00     0.293 C 
HETATM    2  O2  UNL     1      -6.810  -9.157 -25.093  1.00  0.00    -0.345 OA
HETATM    3  C3  UNL     1      -5.761  -8.797 -25.976  1.00  0.00     0.206 C 
HETATM    4  C8  UNL     1      -5.590  -7.304 -25.831  1.00  0.00     0.190 C 
HETATM    5  C16 UNL     1      -6.147  -6.926 -24.486  1.00  0.00     0.212 C 
HETATM    6  C17 UNL     1      -7.677  -6.941 -24.676  1.00  0.00     0.233 C 
ENDROOT
BRANCH   4   7
HETATM    7  O6  UNL     1      -4.326  -6.848 -25.963  1.00  0.00    -0.372 OA
BRANCH   7   8
HETATM    8  C9  UNL     1      -3.311  -7.737 -26.229  1.00  0.00     0.157 C 
HETATM    9  C10 UNL     1      -2.762  -8.102 -24.825  1.00  0.00     0.069 C 
HETATM   10  C11 UNL     1      -2.004  -6.907 -24.391  1.00  0.00     0.158 C 
HETATM   11  O7  UNL     1      -1.571  -6.840 -23.102  1.00  0.00    -0.359 OA
HETATM   12  C13 UNL     1      -0.643  -7.049 -25.088  1.00  0.00     0.184 C 
HETATM   13  C12 UNL     1      -0.537  -5.886 -23.194  1.00  0.00     0.339 C 
HETATM   14  O8  UNL     1      -0.031  -5.952 -24.507  1.00  0.00    -0.356 OA
HETATM   15  C14 UNL     1      -0.873  -7.033 -26.530  1.00  0.00     0.182 C 
HETATM   16  C15 UNL     1      -2.274  -7.041 -27.047  1.00  0.00     0.205 C 
BRANCH  15  17
HETATM   17  O9  UNL     1      -0.264  -5.851 -27.034  1.00  0.00    -0.390 OA
ATOM     18  H9  UNL     1       0.276  -5.497 -26.337  1.00  0.00     0.210 HD
ENDBRANCH  15  17
BRANCH  16  19
HETATM   19  O10 UNL     1      -2.203  -7.738 -28.288  1.00  0.00    -0.246 OA
BRANCH  19  20
HETATM   20  S1  UNL     1      -2.191  -6.741 -29.604  1.00  0.00     0.252 S 
HETATM   21  O11 UNL     1      -3.016  -7.347 -30.736  1.00  0.00    -0.572 OA
HETATM   22  O12 UNL     1      -2.889  -5.455 -29.262  1.00  0.00    -0.572 OA
HETATM   23  O13 UNL     1      -0.653  -6.364 -30.152  1.00  0.00    -0.572 OA
ENDBRANCH  19  20
ENDBRANCH  16  19
ENDBRANCH   7   8
ENDBRANCH   4   7
BRANCH   3  24
HETATM   24  C4  UNL     1      -6.246  -9.220 -27.312  1.00  0.00     0.072 C 
HETATM   25  N1  UNL     1      -6.616 -10.478 -27.427  1.00  0.00    -0.272 N 
ATOM     26  H1  UNL     1      -6.557 -11.098 -26.619  1.00  0.00     0.193 HD
BRANCH  25  27
HETATM   27  O3  UNL     1      -7.075 -10.958 -28.611  1.00  0.00    -0.290 OA
ATOM     28  H3  UNL     1      -6.533 -11.526 -29.146  1.00  0.00     0.244 HD
ENDBRANCH  25  27
BRANCH  24  29
HETATM   29  C5  UNL     1      -6.334  -8.369 -28.482  1.00  0.00     0.196 C 
BRANCH  29  30
HETATM   30  O4  UNL     1      -5.234  -7.485 -28.570  1.00  0.00    -0.387 OA
ATOM     31  H4  UNL     1      -5.333  -6.741 -27.989  1.00  0.00     0.210 HD
ENDBRANCH  29  30
BRANCH  29  32
HETATM   32  C6  UNL     1      -7.600  -7.609 -28.700  1.00  0.00     0.148 C 
HETATM   33  C7  UNL     1      -7.364  -6.137 -28.533  1.00  0.00     0.042 C 
BRANCH  32  34
HETATM   34  O5  UNL     1      -7.986  -7.788 -30.059  1.00  0.00    -0.393 OA
ATOM     35  H5  UNL     1      -7.206  -7.697 -30.595  1.00  0.00     0.210 HD
ENDBRANCH  32  34
ENDBRANCH  29  32
ENDBRANCH  24  29
ENDBRANCH   3  24
BRANCH   5  36
HETATM   36  O14 UNL     1      -5.679  -5.744 -24.004  1.00  0.00    -0.246 OA
BRANCH  36  37
HETATM   37  S2  UNL     1      -5.123  -5.854 -22.418  1.00  0.00     0.252 S 
HETATM   38  O15 UNL     1      -6.239  -5.363 -21.532  1.00  0.00    -0.572 OA
HETATM   39  O16 UNL     1      -3.946  -4.956 -22.176  1.00  0.00    -0.572 OA
HETATM   40  O17 UNL     1      -4.757  -7.461 -22.093  1.00  0.00    -0.572 OA
ENDBRANCH  36  37
ENDBRANCH   5  36
BRANCH   6  41
HETATM   41  O18 UNL     1      -8.321  -6.761 -23.465  1.00  0.00    -0.244 OA
BRANCH  41  42
HETATM   42  S3  UNL     1      -9.542  -5.643 -23.506  1.00  0.00     0.252 S 
HETATM   43  O19 UNL     1      -9.713  -5.048 -24.892  1.00  0.00    -0.572 OA
HETATM   44  O20 UNL     1     -10.888  -6.238 -23.139  1.00  0.00    -0.572 OA
HETATM   45  O21 UNL     1      -9.239  -4.350 -22.469  1.00  0.00    -0.572 OA
ENDBRANCH  41  42
ENDBRANCH   6  41
BRANCH   1  46
HETATM   46  O1  UNL     1      -8.934  -8.905 -24.457  1.00  0.00    -0.363 OA
HETATM   47  C1  UNL     1      -8.695 -10.211 -24.111  1.00  0.00     0.204 C 
ENDBRANCH   1  46
TORSDOF 16
ENDMDL
