MODEL 1
REMARK VINA RESULT: -7.791138791      0.000      0.000
REMARK  16 active torsions:
REMARK  status: ('A' for Active; 'I' for Inactive)
REMARK    1  A    between atoms: C2_2  and  O2_4 
REMARK    2  A    between atoms: O2_4  and  C3_5 
REMARK    3  A    between atoms: C4_6  and  C5_7 
REMARK    4  A    between atoms: C5_7  and  N1_8 
REMARK    5  A    between atoms: N2_14  and  C7_15 
REMARK    6  A    between atoms: C7_15  and  C8_16 
REMARK    7  A    between atoms: C9_17  and  C10_18 
REMARK    8  A    between atoms: C13_27  and  N5_28 
REMARK    9  A    between atoms: N5_28  and  C14_30 
REMARK   10  A    between atoms: C16_33  and  N6_34 
REMARK   11  A    between atoms: C18_40  and  C19_41 
REMARK   12  A    between atoms: C19_41  and  O5_42 
REMARK   13  A    between atoms: C19_41  and  C22_46 
REMARK   14  A    between atoms: O5_42  and  C20_43 
REMARK   15  A    between atoms: N8_48  and  O7_50 
REMARK   16  A    between atoms: C24_54  and  C25_55 
ROOT
HETATM    1  C8  UNL     1      -2.157  -5.260 -28.141  1.00  0.00     0.004 C 
HETATM    2  C9  UNL     1      -1.926  -5.723 -26.935  1.00  0.00     0.116 C 
HETATM    3  N3  UNL     1      -2.576  -6.906 -26.356  1.00  0.00    -0.337 N 
HETATM    4  C11 UNL     1      -1.756  -7.866 -25.628  1.00  0.00     0.285 C 
HETATM    5  C12 UNL     1      -0.409  -8.150 -26.227  1.00  0.00     0.063 C 
HETATM    6  N4  UNL     1      -2.513  -9.122 -25.813  1.00  0.00    -0.032 N 
ATOM      7  H41 UNL     1      -2.263  -9.870 -25.166  1.00  0.00     0.282 HD
ATOM      8  H42 UNL     1      -2.282  -9.639 -26.661  1.00  0.00     0.282 HD
HETATM    9  C13 UNL     1      -3.907  -8.680 -25.726  1.00  0.00     0.313 C 
HETATM   10  C17 UNL     1      -3.954  -7.333 -26.359  1.00  0.00     0.162 C 
HETATM   11  C18 UNL     1      -4.634  -7.275 -27.710  1.00  0.00     0.139 C 
HETATM   12  N9  UNL     1      -4.374  -6.017 -28.324  1.00  0.00    -0.396 N 
ATOM     13  H9  UNL     1      -5.044  -5.257 -28.204  1.00  0.00     0.155 HD
HETATM   14  C24 UNL     1      -3.220  -5.799 -29.090  1.00  0.00     0.213 C 
ENDROOT
BRANCH   1  15
HETATM   15  C7  UNL     1      -1.453  -4.137 -28.650  1.00  0.00     0.170 C 
BRANCH  15  16
HETATM   16  N2  UNL     1      -2.272  -2.935 -28.999  1.00  0.00    -0.326 N 
HETATM   17  C3  UNL     1      -2.117  -2.240 -30.108  1.00  0.00     0.169 A 
HETATM   18  C4  UNL     1      -2.983  -1.184 -30.305  1.00  0.00     0.061 A 
HETATM   19  S1  UNL     1      -3.956  -1.243 -28.910  1.00  0.00    -0.083 SA
HETATM   20  C6  UNL     1      -3.242  -2.574 -28.149  1.00  0.00     0.144 A 
BRANCH  17  21
HETATM   21  O2  UNL     1      -1.142  -2.463 -31.113  1.00  0.00    -0.260 OA
BRANCH  21  22
HETATM   22  C2  UNL     1      -1.298  -3.078 -32.310  1.00  0.00     0.261 C 
HETATM   23  C1  UNL     1      -2.240  -4.264 -32.377  1.00  0.00     0.126 C 
HETATM   24  O1  UNL     1      -0.711  -2.720 -33.349  1.00  0.00    -0.265 OA
ENDBRANCH  21  22
ENDBRANCH  17  21
BRANCH  18  25
HETATM   25  C5  UNL     1      -3.074  -0.190 -31.414  1.00  0.00     0.280 C 
BRANCH  25  26
HETATM   26  N1  UNL     1      -1.755   0.413 -31.579  1.00  0.00    -0.075 N 
ATOM     27  H13 UNL     1      -1.005  -0.163 -31.197  1.00  0.00     0.274 HD
ATOM     28  H12 UNL     1      -1.440   0.419 -32.549  1.00  0.00     0.274 HD
ATOM     29  H11 UNL     1      -1.788   1.345 -31.166  1.00  0.00     0.274 HD
ENDBRANCH  25  26
ENDBRANCH  18  25
ENDBRANCH  15  16
ENDBRANCH   1  15
BRANCH   2  30
HETATM   30  C10 UNL     1      -0.964  -5.095 -26.105  1.00  0.00     0.227 C 
HETATM   31  O3  UNL     1      -1.285  -4.420 -25.054  1.00  0.00    -0.643 OA
HETATM   32  O4  UNL     1       0.389  -5.104 -26.281  1.00  0.00    -0.643 OA
ENDBRANCH   2  30
BRANCH  14  33
HETATM   33  C25 UNL     1      -2.663  -6.869 -29.881  1.00  0.00     0.201 C 
HETATM   34  O8  UNL     1      -3.319  -7.289 -30.901  1.00  0.00    -0.646 OA
HETATM   35  O9  UNL     1      -1.470  -7.518 -29.669  1.00  0.00    -0.646 OA
ENDBRANCH  14  33
BRANCH  11  36
HETATM   36  C19 UNL     1      -6.141  -7.311 -27.559  1.00  0.00     0.203 C 
BRANCH  36  37
HETATM   37  O5  UNL     1      -6.666  -7.301 -26.286  1.00  0.00    -0.308 OA
BRANCH  37  38
HETATM   38  C20 UNL     1      -7.909  -6.800 -25.913  1.00  0.00     0.255 C 
HETATM   39  C21 UNL     1      -8.515  -5.598 -26.538  1.00  0.00     0.126 C 
HETATM   40  O6  UNL     1      -8.463  -7.456 -25.006  1.00  0.00    -0.266 OA
ENDBRANCH  37  38
ENDBRANCH  36  37
BRANCH  36  41
HETATM   41  C22 UNL     1      -6.733  -8.429 -28.388  1.00  0.00     0.037 C 
HETATM   42  C23 UNL     1      -6.463  -9.861 -28.111  1.00  0.00     0.068 C 
HETATM   43  N8  UNL     1      -7.511  -8.184 -29.388  1.00  0.00    -0.275 N 
ATOM     44  H8  UNL     1      -7.889  -8.968 -29.921  1.00  0.00     0.193 HD
BRANCH  43  45
HETATM   45  O7  UNL     1      -7.844  -6.924 -29.753  1.00  0.00    -0.290 OA
ATOM     46  H7  UNL     1      -7.305  -6.173 -29.531  1.00  0.00     0.244 HD
ENDBRANCH  43  45
ENDBRANCH  36  41
ENDBRANCH  11  36
BRANCH   9  47
HETATM   47  N5  UNL     1      -4.175  -8.642 -24.302  1.00  0.00    -0.346 N 
ATOM     48  H5  UNL     1      -3.525  -8.138 -23.700  1.00  0.00     0.163 HD
BRANCH  47  49
HETATM   49  C14 UNL     1      -5.312  -9.280 -23.696  1.00  0.00     0.111 A 
HETATM   50  C15 UNL     1      -5.304  -9.496 -22.331  1.00  0.00     0.101 A 
HETATM   51  S2  UNL     1      -6.813 -10.246 -22.073  1.00  0.00    -0.062 SA
HETATM   52  C16 UNL     1      -7.364 -10.247 -23.683  1.00  0.00     0.143 A 
HETATM   53  N7  UNL     1      -6.370  -9.673 -24.349  1.00  0.00    -0.323 N 
ATOM     54  H7  UNL     1      -6.432  -9.540 -25.358  1.00  0.00     0.169 HD
BRANCH  52  55
HETATM   55  N6  UNL     1      -8.497 -10.699 -24.183  1.00  0.00    -0.380 N 
ATOM     56  H62 UNL     1      -9.045 -11.491 -23.846  1.00  0.00     0.158 HD
ATOM     57  H61 UNL     1      -9.036 -10.361 -24.980  1.00  0.00     0.158 HD
ENDBRANCH  52  55
ENDBRANCH  47  49
ENDBRANCH   9  47
TORSDOF 16
ENDMDL
MODEL 2
REMARK VINA RESULT: -7.684310650      3.202      8.782
REMARK  16 active torsions:
REMARK  status: ('A' for Active; 'I' for Inactive)
REMARK    1  A    between atoms: C2_2  and  O2_4 
REMARK    2  A    between atoms: O2_4  and  C3_5 
REMARK    3  A    between atoms: C4_6  and  C5_7 
REMARK    4  A    between atoms: C5_7  and  N1_8 
REMARK    5  A    between atoms: N2_14  and  C7_15 
REMARK    6  A    between atoms: C7_15  and  C8_16 
REMARK    7  A    between atoms: C9_17  and  C10_18 
REMARK    8  A    between atoms: C13_27  and  N5_28 
REMARK    9  A    between atoms: N5_28  and  C14_30 
REMARK   10  A    between atoms: C16_33  and  N6_34 
REMARK   11  A    between atoms: C18_40  and  C19_41 
REMARK   12  A    between atoms: C19_41  and  O5_42 
REMARK   13  A    between atoms: C19_41  and  C22_46 
REMARK   14  A    between atoms: O5_42  and  C20_43 
REMARK   15  A    between atoms: N8_48  and  O7_50 
REMARK   16  A    between atoms: C24_54  and  C25_55 
ROOT
HETATM    1  C8  UNL     1      -7.503  -7.063 -25.476  1.00  0.00     0.004 C 
HETATM    2  C9  UNL     1      -7.269  -6.374 -26.569  1.00  0.00     0.116 C 
HETATM    3  N3  UNL     1      -6.046  -6.480 -27.375  1.00  0.00    -0.337 N 
HETATM    4  C11 UNL     1      -6.171  -6.543 -28.825  1.00  0.00     0.285 C 
HETATM    5  C12 UNL     1      -7.308  -7.378 -29.341  1.00  0.00     0.063 C 
HETATM    6  N4  UNL     1      -4.958  -7.296 -29.209  1.00  0.00    -0.032 N 
ATOM      7  H41 UNL     1      -4.706  -7.226 -30.194  1.00  0.00     0.282 HD
ATOM      8  H42 UNL     1      -5.066  -8.311 -29.203  1.00  0.00     0.282 HD
HETATM    9  C13 UNL     1      -3.948  -6.782 -28.281  1.00  0.00     0.313 C 
HETATM   10  C17 UNL     1      -4.656  -6.531 -26.995  1.00  0.00     0.162 C 
HETATM   11  C18 UNL     1      -4.337  -7.504 -25.880  1.00  0.00     0.139 C 
HETATM   12  N9  UNL     1      -5.264  -7.330 -24.814  1.00  0.00    -0.396 N 
ATOM     13  H9  UNL     1      -5.023  -6.711 -24.040  1.00  0.00     0.155 HD
HETATM   14  C24 UNL     1      -6.501  -7.991 -24.802  1.00  0.00     0.213 C 
ENDROOT
BRANCH   1  15
HETATM   15  C7  UNL     1      -8.732  -6.942 -24.774  1.00  0.00     0.170 C 
BRANCH  15  16
HETATM   16  N2  UNL     1      -8.767  -5.955 -23.651  1.00  0.00    -0.326 N 
HETATM   17  C3  UNL     1      -9.851  -5.676 -22.956  1.00  0.00     0.169 A 
HETATM   18  C4  UNL     1      -9.709  -4.775 -21.920  1.00  0.00     0.061 A 
HETATM   19  S1  UNL     1      -8.055  -4.384 -21.999  1.00  0.00    -0.083 SA
HETATM   20  C6  UNL     1      -7.619  -5.355 -23.313  1.00  0.00     0.144 A 
BRANCH  17  21
HETATM   21  O2  UNL     1     -11.151  -6.198 -23.175  1.00  0.00    -0.260 OA
BRANCH  21  22
HETATM   22  C2  UNL     1     -11.660  -7.380 -22.749  1.00  0.00     0.261 C 
HETATM   23  C1  UNL     1     -10.710  -8.365 -22.098  1.00  0.00     0.126 C 
HETATM   24  O1  UNL     1     -12.861  -7.693 -22.867  1.00  0.00    -0.265 OA
ENDBRANCH  21  22
ENDBRANCH  17  21
BRANCH  18  25
HETATM   25  C5  UNL     1     -10.712  -4.221 -20.963  1.00  0.00     0.280 C 
BRANCH  25  26
HETATM   26  N1  UNL     1     -11.134  -5.309 -20.086  1.00  0.00    -0.075 N 
ATOM     27  H13 UNL     1     -11.805  -5.937 -20.527  1.00  0.00     0.274 HD
ATOM     28  H12 UNL     1     -10.397  -5.994 -19.920  1.00  0.00     0.274 HD
ATOM     29  H11 UNL     1     -11.490  -4.891 -19.226  1.00  0.00     0.274 HD
ENDBRANCH  25  26
ENDBRANCH  18  25
ENDBRANCH  15  16
ENDBRANCH   1  15
BRANCH   2  30
HETATM   30  C10 UNL     1      -8.247  -5.478 -27.067  1.00  0.00     0.227 C 
HETATM   31  O3  UNL     1      -8.211  -4.210 -26.839  1.00  0.00    -0.643 OA
HETATM   32  O4  UNL     1      -9.331  -5.804 -27.830  1.00  0.00    -0.643 OA
ENDBRANCH   2  30
BRANCH  14  33
HETATM   33  C25 UNL     1      -6.619  -9.317 -25.360  1.00  0.00     0.201 C 
HETATM   34  O8  UNL     1      -6.354 -10.326 -24.614  1.00  0.00    -0.646 OA
HETATM   35  O9  UNL     1      -6.995  -9.642 -26.642  1.00  0.00    -0.646 OA
ENDBRANCH  14  33
BRANCH  11  36
HETATM   36  C19 UNL     1      -2.991  -7.191 -25.257  1.00  0.00     0.203 C 
BRANCH  36  37
HETATM   37  O5  UNL     1      -2.369  -6.015 -25.613  1.00  0.00    -0.308 OA
BRANCH  37  38
HETATM   38  C20 UNL     1      -1.598  -5.210 -24.782  1.00  0.00     0.255 C 
HETATM   39  C21 UNL     1      -1.582  -5.354 -23.306  1.00  0.00     0.126 C 
HETATM   40  O6  UNL     1      -0.923  -4.357 -25.396  1.00  0.00    -0.266 OA
ENDBRANCH  37  38
ENDBRANCH  36  37
BRANCH  36  41
HETATM   41  C22 UNL     1      -2.055  -8.371 -25.393  1.00  0.00     0.037 C 
HETATM   42  C23 UNL     1      -1.440  -8.760 -26.686  1.00  0.00     0.068 C 
HETATM   43  N8  UNL     1      -1.743  -9.102 -24.377  1.00  0.00    -0.275 N 
ATOM     44  H8  UNL     1      -1.108  -9.889 -24.513  1.00  0.00     0.193 HD
BRANCH  43  45
HETATM   45  O7  UNL     1      -2.231  -8.861 -23.137  1.00  0.00    -0.290 OA
ATOM     46  H7  UNL     1      -2.094  -9.461 -22.413  1.00  0.00     0.244 HD
ENDBRANCH  43  45
ENDBRANCH  36  41
ENDBRANCH  11  36
BRANCH   9  47
HETATM   47  N5  UNL     1      -3.479  -5.565 -28.912  1.00  0.00    -0.346 N 
ATOM     48  H5  UNL     1      -4.171  -4.899 -29.256  1.00  0.00     0.163 HD
BRANCH  47  49
HETATM   49  C14 UNL     1      -2.087  -5.248 -29.080  1.00  0.00     0.111 A 
HETATM   50  C15 UNL     1      -1.683  -4.622 -30.244  1.00  0.00     0.101 A 
HETATM   51  S2  UNL     1      -0.005  -4.445 -29.998  1.00  0.00    -0.062 SA
HETATM   52  C16 UNL     1       0.093  -5.162 -28.457  1.00  0.00     0.143 A 
HETATM   53  N7  UNL     1      -1.163  -5.506 -28.198  1.00  0.00    -0.323 N 
ATOM     54  H7  UNL     1      -1.401  -5.967 -27.319  1.00  0.00     0.169 HD
BRANCH  52  55
HETATM   55  N6  UNL     1       1.143  -5.348 -27.681  1.00  0.00    -0.380 N 
ATOM     56  H62 UNL     1       2.069  -5.665 -27.967  1.00  0.00     0.158 HD
ATOM     57  H61 UNL     1       1.238  -5.217 -26.675  1.00  0.00     0.158 HD
ENDBRANCH  52  55
ENDBRANCH  47  49
ENDBRANCH   9  47
TORSDOF 16
ENDMDL
MODEL 3
REMARK VINA RESULT: -7.536278514      1.109      1.263
REMARK  16 active torsions:
REMARK  status: ('A' for Active; 'I' for Inactive)
REMARK    1  A    between atoms: C2_2  and  O2_4 
REMARK    2  A    between atoms: O2_4  and  C3_5 
REMARK    3  A    between atoms: C4_6  and  C5_7 
REMARK    4  A    between atoms: C5_7  and  N1_8 
REMARK    5  A    between atoms: N2_14  and  C7_15 
REMARK    6  A    between atoms: C7_15  and  C8_16 
REMARK    7  A    between atoms: C9_17  and  C10_18 
REMARK    8  A    between atoms: C13_27  and  N5_28 
REMARK    9  A    between atoms: N5_28  and  C14_30 
REMARK   10  A    between atoms: C16_33  and  N6_34 
REMARK   11  A    between atoms: C18_40  and  C19_41 
REMARK   12  A    between atoms: C19_41  and  O5_42 
REMARK   13  A    between atoms: C19_41  and  C22_46 
REMARK   14  A    between atoms: O5_42  and  C20_43 
REMARK   15  A    between atoms: N8_48  and  O7_50 
REMARK   16  A    between atoms: C24_54  and  C25_55 
ROOT
HETATM    1  C8  UNL     1      -2.425  -5.133 -27.650  1.00  0.00     0.004 C 
HETATM    2  C9  UNL     1      -2.503  -5.495 -26.390  1.00  0.00     0.116 C 
HETATM    3  N3  UNL     1      -3.274  -6.644 -25.899  1.00  0.00    -0.337 N 
HETATM    4  C11 UNL     1      -2.660  -7.524 -24.913  1.00  0.00     0.285 C 
HETATM    5  C12 UNL     1      -1.204  -7.822 -25.130  1.00  0.00     0.063 C 
HETATM    6  N4  UNL     1      -3.341  -8.809 -25.179  1.00  0.00    -0.032 N 
ATOM      7  H41 UNL     1      -3.259  -9.498 -24.431  1.00  0.00     0.282 HD
ATOM      8  H42 UNL     1      -2.902  -9.385 -25.897  1.00  0.00     0.282 HD
HETATM    9  C13 UNL     1      -4.713  -8.395 -25.480  1.00  0.00     0.313 C 
HETATM   10  C17 UNL     1      -4.605  -7.103 -26.212  1.00  0.00     0.162 C 
HETATM   11  C18 UNL     1      -4.924  -7.167 -27.690  1.00  0.00     0.139 C 
HETATM   12  N9  UNL     1      -4.522  -5.955 -28.320  1.00  0.00    -0.396 N 
ATOM     13  H9  UNL     1      -5.203  -5.204 -28.433  1.00  0.00     0.155 HD
HETATM   14  C24 UNL     1      -3.213  -5.769 -28.788  1.00  0.00     0.213 C 
ENDROOT
BRANCH   1  15
HETATM   15  C7  UNL     1      -1.620  -4.036 -28.057  1.00  0.00     0.170 C 
BRANCH  15  16
HETATM   16  N2  UNL     1      -2.330  -2.880 -28.686  1.00  0.00    -0.326 N 
HETATM   17  C3  UNL     1      -2.081  -2.442 -29.903  1.00  0.00     0.169 A 
HETATM   18  C4  UNL     1      -2.856  -1.394 -30.356  1.00  0.00     0.061 A 
HETATM   19  S1  UNL     1      -3.881  -1.096 -29.031  1.00  0.00    -0.083 SA
HETATM   20  C6  UNL     1      -3.301  -2.286 -27.979  1.00  0.00     0.144 A 
BRANCH  17  21
HETATM   21  O2  UNL     1      -1.090  -2.933 -30.789  1.00  0.00    -0.260 OA
BRANCH  21  22
HETATM   22  C2  UNL     1      -1.074  -4.112 -31.457  1.00  0.00     0.261 C 
HETATM   23  C1  UNL     1      -2.202  -4.386 -32.433  1.00  0.00     0.126 C 
HETATM   24  O1  UNL     1      -0.186  -4.974 -31.311  1.00  0.00    -0.265 OA
ENDBRANCH  21  22
ENDBRANCH  17  21
BRANCH  18  25
HETATM   25  C5  UNL     1      -2.829  -0.647 -31.648  1.00  0.00     0.280 C 
BRANCH  25  26
HETATM   26  N1  UNL     1      -1.522  -0.009 -31.764  1.00  0.00    -0.075 N 
ATOM     27  H13 UNL     1      -1.054   0.104 -30.865  1.00  0.00     0.274 HD
ATOM     28  H12 UNL     1      -0.824  -0.609 -32.204  1.00  0.00     0.274 HD
ATOM     29  H11 UNL     1      -1.652   0.874 -32.257  1.00  0.00     0.274 HD
ENDBRANCH  25  26
ENDBRANCH  18  25
ENDBRANCH  15  16
ENDBRANCH   1  15
BRANCH   2  30
HETATM   30  C10 UNL     1      -1.783  -4.780 -25.400  1.00  0.00     0.227 C 
HETATM   31  O3  UNL     1      -2.362  -4.048 -24.511  1.00  0.00    -0.643 OA
HETATM   32  O4  UNL     1      -0.428  -4.757 -25.242  1.00  0.00    -0.643 OA
ENDBRANCH   2  30
BRANCH  14  33
HETATM   33  C25 UNL     1      -2.471  -6.884 -29.325  1.00  0.00     0.201 C 
HETATM   34  O8  UNL     1      -2.721  -7.273 -30.521  1.00  0.00    -0.646 OA
HETATM   35  O9  UNL     1      -1.491  -7.607 -28.687  1.00  0.00    -0.646 OA
ENDBRANCH  14  33
BRANCH  11  36
HETATM   36  C19 UNL     1      -6.420  -7.227 -27.919  1.00  0.00     0.203 C 
BRANCH  36  37
HETATM   37  O5  UNL     1      -7.249  -6.806 -26.903  1.00  0.00    -0.308 OA
BRANCH  37  38
HETATM   38  C20 UNL     1      -8.341  -5.954 -27.033  1.00  0.00     0.255 C 
HETATM   39  C21 UNL     1      -8.912  -5.193 -25.894  1.00  0.00     0.126 C 
HETATM   40  O6  UNL     1      -8.794  -5.892 -28.195  1.00  0.00    -0.266 OA
ENDBRANCH  37  38
ENDBRANCH  36  37
BRANCH  36  41
HETATM   41  C22 UNL     1      -6.827  -8.591 -28.429  1.00  0.00     0.037 C 
HETATM   42  C23 UNL     1      -6.461  -9.848 -27.733  1.00  0.00     0.068 C 
HETATM   43  N8  UNL     1      -7.520  -8.725 -29.510  1.00  0.00    -0.275 N 
ATOM     44  H8  UNL     1      -7.772  -9.664 -29.819  1.00  0.00     0.193 HD
BRANCH  43  45
HETATM   45  O7  UNL     1      -7.923  -7.663 -30.246  1.00  0.00    -0.290 OA
ATOM     46  H7  UNL     1      -8.271  -7.758 -31.125  1.00  0.00     0.244 HD
ENDBRANCH  43  45
ENDBRANCH  36  41
ENDBRANCH  11  36
BRANCH   9  47
HETATM   47  N5  UNL     1      -5.331  -8.253 -24.177  1.00  0.00    -0.346 N 
ATOM     48  H5  UNL     1      -4.765  -7.895 -23.408  1.00  0.00     0.163 HD
BRANCH  47  49
HETATM   49  C14 UNL     1      -6.703  -8.591 -23.912  1.00  0.00     0.111 A 
HETATM   50  C15 UNL     1      -7.548  -7.612 -23.427  1.00  0.00     0.101 A 
HETATM   51  S2  UNL     1      -9.026  -8.447 -23.279  1.00  0.00    -0.062 SA
HETATM   52  C16 UNL     1      -8.503  -9.970 -23.830  1.00  0.00     0.143 A 
HETATM   53  N7  UNL     1      -7.219  -9.773 -24.104  1.00  0.00    -0.323 N 
ATOM     54  H7  UNL     1      -6.644 -10.536 -24.461  1.00  0.00     0.169 HD
BRANCH  52  55
HETATM   55  N6  UNL     1      -9.180 -11.094 -23.965  1.00  0.00    -0.380 N 
ATOM     56  H62 UNL     1     -10.185 -11.223 -23.850  1.00  0.00     0.158 HD
ATOM     57  H61 UNL     1      -8.847 -12.028 -24.202  1.00  0.00     0.158 HD
ENDBRANCH  52  55
ENDBRANCH  47  49
ENDBRANCH   9  47
TORSDOF 16
ENDMDL
MODEL 4
REMARK VINA RESULT: -7.514801642      1.331      1.831
REMARK  16 active torsions:
REMARK  status: ('A' for Active; 'I' for Inactive)
REMARK    1  A    between atoms: C2_2  and  O2_4 
REMARK    2  A    between atoms: O2_4  and  C3_5 
REMARK    3  A    between atoms: C4_6  and  C5_7 
REMARK    4  A    between atoms: C5_7  and  N1_8 
REMARK    5  A    between atoms: N2_14  and  C7_15 
REMARK    6  A    between atoms: C7_15  and  C8_16 
REMARK    7  A    between atoms: C9_17  and  C10_18 
REMARK    8  A    between atoms: C13_27  and  N5_28 
REMARK    9  A    between atoms: N5_28  and  C14_30 
REMARK   10  A    between atoms: C16_33  and  N6_34 
REMARK   11  A    between atoms: C18_40  and  C19_41 
REMARK   12  A    between atoms: C19_41  and  O5_42 
REMARK   13  A    between atoms: C19_41  and  C22_46 
REMARK   14  A    between atoms: O5_42  and  C20_43 
REMARK   15  A    between atoms: N8_48  and  O7_50 
REMARK   16  A    between atoms: C24_54  and  C25_55 
ROOT
HETATM    1  C8  UNL     1      -2.361  -4.900 -27.754  1.00  0.00     0.004 C 
HETATM    2  C9  UNL     1      -2.092  -5.478 -26.607  1.00  0.00     0.116 C 
HETATM    3  N3  UNL     1      -2.674  -6.748 -26.156  1.00  0.00    -0.337 N 
HETATM    4  C11 UNL     1      -1.798  -7.736 -25.541  1.00  0.00     0.285 C 
HETATM    5  C12 UNL     1      -0.445  -7.884 -26.174  1.00  0.00     0.063 C 
HETATM    6  N4  UNL     1      -2.492  -9.004 -25.855  1.00  0.00    -0.032 N 
ATOM      7  H41 UNL     1      -2.196  -9.802 -25.294  1.00  0.00     0.282 HD
ATOM      8  H42 UNL     1      -2.244  -9.414 -26.756  1.00  0.00     0.282 HD
HETATM    9  C13 UNL     1      -3.905  -8.646 -25.713  1.00  0.00     0.313 C 
HETATM   10  C17 UNL     1      -4.028  -7.243 -26.196  1.00  0.00     0.162 C 
HETATM   11  C18 UNL     1      -4.726  -7.076 -27.529  1.00  0.00     0.139 C 
HETATM   12  N9  UNL     1      -4.538  -5.748 -28.005  1.00  0.00    -0.396 N 
ATOM     13  H9  UNL     1      -5.244  -5.041 -27.800  1.00  0.00     0.155 HD
HETATM   14  C24 UNL     1      -3.405  -5.388 -28.750  1.00  0.00     0.213 C 
ENDROOT
BRANCH   1  15
HETATM   15  C7  UNL     1      -1.721  -3.693 -28.144  1.00  0.00     0.170 C 
BRANCH  15  16
HETATM   16  N2  UNL     1      -1.221  -3.624 -29.551  1.00  0.00    -0.326 N 
HETATM   17  C3  UNL     1      -1.813  -2.935 -30.506  1.00  0.00     0.169 A 
HETATM   18  C4  UNL     1      -1.201  -2.935 -31.742  1.00  0.00     0.061 A 
HETATM   19  S1  UNL     1       0.169  -3.908 -31.473  1.00  0.00    -0.083 SA
HETATM   20  C6  UNL     1      -0.083  -4.269 -29.840  1.00  0.00     0.144 A 
BRANCH  17  21
HETATM   21  O2  UNL     1      -3.023  -2.206 -30.392  1.00  0.00    -0.260 OA
BRANCH  21  22
HETATM   22  C2  UNL     1      -3.192  -0.924 -29.986  1.00  0.00     0.261 C 
HETATM   23  C1  UNL     1      -4.578  -0.501 -29.541  1.00  0.00     0.126 C 
HETATM   24  O1  UNL     1      -2.273  -0.083 -29.963  1.00  0.00    -0.265 OA
ENDBRANCH  21  22
ENDBRANCH  17  21
BRANCH  18  25
HETATM   25  C5  UNL     1      -1.601  -2.296 -33.030  1.00  0.00     0.280 C 
BRANCH  25  26
HETATM   26  N1  UNL     1      -0.388  -2.072 -33.810  1.00  0.00    -0.075 N 
ATOM     27  H13 UNL     1       0.365  -2.715 -33.566  1.00  0.00     0.274 HD
ATOM     28  H12 UNL     1      -0.488  -2.347 -34.787  1.00  0.00     0.274 HD
ATOM     29  H11 UNL     1      -0.124  -1.093 -33.698  1.00  0.00     0.274 HD
ENDBRANCH  25  26
ENDBRANCH  18  25
ENDBRANCH  15  16
ENDBRANCH   1  15
BRANCH   2  30
HETATM   30  C10 UNL     1      -1.154  -4.893 -25.719  1.00  0.00     0.227 C 
HETATM   31  O3  UNL     1      -1.492  -4.386 -24.583  1.00  0.00    -0.643 OA
HETATM   32  O4  UNL     1       0.191  -4.778 -25.921  1.00  0.00    -0.643 OA
ENDBRANCH   2  30
BRANCH  14  33
HETATM   33  C25 UNL     1      -2.804  -6.337 -29.656  1.00  0.00     0.201 C 
HETATM   34  O8  UNL     1      -3.154  -6.320 -30.889  1.00  0.00    -0.646 OA
HETATM   35  O9  UNL     1      -1.864  -7.292 -29.346  1.00  0.00    -0.646 OA
ENDBRANCH  14  33
BRANCH  11  36
HETATM   36  C19 UNL     1      -6.228  -7.206 -27.374  1.00  0.00     0.203 C 
BRANCH  36  37
HETATM   37  O5  UNL     1      -6.743  -7.298 -26.100  1.00  0.00    -0.308 OA
BRANCH  37  38
HETATM   38  C20 UNL     1      -7.951  -6.765 -25.662  1.00  0.00     0.255 C 
HETATM   39  C21 UNL     1      -8.536  -5.522 -26.222  1.00  0.00     0.126 C 
HETATM   40  O6  UNL     1      -8.493  -7.432 -24.755  1.00  0.00    -0.266 OA
ENDBRANCH  37  38
ENDBRANCH  36  37
BRANCH  36  41
HETATM   41  C22 UNL     1      -6.761  -8.308 -28.262  1.00  0.00     0.037 C 
HETATM   42  C23 UNL     1      -6.473  -9.743 -28.019  1.00  0.00     0.068 C 
HETATM   43  N8  UNL     1      -7.502  -8.047 -29.286  1.00  0.00    -0.275 N 
ATOM     44  H8  UNL     1      -7.841  -8.819 -29.859  1.00  0.00     0.193 HD
BRANCH  43  45
HETATM   45  O7  UNL     1      -7.845  -6.781 -29.625  1.00  0.00    -0.290 OA
ATOM     46  H7  UNL     1      -8.729  -6.548 -29.884  1.00  0.00     0.244 HD
ENDBRANCH  43  45
ENDBRANCH  36  41
ENDBRANCH  11  36
BRANCH   9  47
HETATM   47  N5  UNL     1      -4.159  -8.776 -24.292  1.00  0.00    -0.346 N 
ATOM     48  H5  UNL     1      -3.464  -8.412 -23.640  1.00  0.00     0.163 HD
BRANCH  47  49
HETATM   49  C14 UNL     1      -5.340  -9.393 -23.754  1.00  0.00     0.111 A 
HETATM   50  C15 UNL     1      -5.404  -9.635 -22.395  1.00  0.00     0.101 A 
HETATM   51  S2  UNL     1      -6.944 -10.347 -22.224  1.00  0.00    -0.062 SA
HETATM   52  C16 UNL     1      -7.417 -10.301 -23.859  1.00  0.00     0.143 A 
HETATM   53  N7  UNL     1      -6.376  -9.743 -24.464  1.00  0.00    -0.323 N 
ATOM     54  H7  UNL     1      -6.386  -9.589 -25.473  1.00  0.00     0.169 HD
BRANCH  52  55
HETATM   55  N6  UNL     1      -8.536 -10.711 -24.422  1.00  0.00    -0.380 N 
ATOM     56  H62 UNL     1      -9.088 -11.530 -24.167  1.00  0.00     0.158 HD
ATOM     57  H61 UNL     1      -9.059 -10.306 -25.198  1.00  0.00     0.158 HD
ENDBRANCH  52  55
ENDBRANCH  47  49
ENDBRANCH   9  47
TORSDOF 16
ENDMDL
MODEL 5
REMARK VINA RESULT: -7.404261113      3.157      8.930
REMARK  16 active torsions:
REMARK  status: ('A' for Active; 'I' for Inactive)
REMARK    1  A    between atoms: C2_2  and  O2_4 
REMARK    2  A    between atoms: O2_4  and  C3_5 
REMARK    3  A    between atoms: C4_6  and  C5_7 
REMARK    4  A    between atoms: C5_7  and  N1_8 
REMARK    5  A    between atoms: N2_14  and  C7_15 
REMARK    6  A    between atoms: C7_15  and  C8_16 
REMARK    7  A    between atoms: C9_17  and  C10_18 
REMARK    8  A    between atoms: C13_27  and  N5_28 
REMARK    9  A    between atoms: N5_28  and  C14_30 
REMARK   10  A    between atoms: C16_33  and  N6_34 
REMARK   11  A    between atoms: C18_40  and  C19_41 
REMARK   12  A    between atoms: C19_41  and  O5_42 
REMARK   13  A    between atoms: C19_41  and  C22_46 
REMARK   14  A    between atoms: O5_42  and  C20_43 
REMARK   15  A    between atoms: N8_48  and  O7_50 
REMARK   16  A    between atoms: C24_54  and  C25_55 
ROOT
HETATM    1  C8  UNL     1      -7.433  -6.966 -25.182  1.00  0.00     0.004 C 
HETATM    2  C9  UNL     1      -7.253  -6.115 -26.165  1.00  0.00     0.116 C 
HETATM    3  N3  UNL     1      -6.070  -6.086 -27.036  1.00  0.00    -0.337 N 
HETATM    4  C11 UNL     1      -6.265  -5.926 -28.470  1.00  0.00     0.285 C 
HETATM    5  C12 UNL     1      -7.423  -6.682 -29.054  1.00  0.00     0.063 C 
HETATM    6  N4  UNL     1      -5.070  -6.601 -29.022  1.00  0.00    -0.032 N 
ATOM      7  H41 UNL     1      -4.866  -6.379 -29.996  1.00  0.00     0.282 HD
ATOM      8  H42 UNL     1      -5.176  -7.606 -29.167  1.00  0.00     0.282 HD
HETATM    9  C13 UNL     1      -4.018  -6.227 -28.075  1.00  0.00     0.313 C 
HETATM   10  C17 UNL     1      -4.663  -6.182 -26.734  1.00  0.00     0.162 C 
HETATM   11  C18 UNL     1      -4.290  -7.311 -25.797  1.00  0.00     0.139 C 
HETATM   12  N9  UNL     1      -5.165  -7.312 -24.675  1.00  0.00    -0.396 N 
ATOM     13  H9  UNL     1      -4.888  -6.816 -23.828  1.00  0.00     0.155 HD
HETATM   14  C24 UNL     1      -6.399  -7.978 -24.706  1.00  0.00     0.213 C 
ENDROOT
BRANCH   1  15
HETATM   15  C7  UNL     1      -8.627  -6.965 -24.412  1.00  0.00     0.170 C 
BRANCH  15  16
HETATM   16  N2  UNL     1      -8.718  -5.951 -23.317  1.00  0.00    -0.326 N 
HETATM   17  C3  UNL     1      -9.843  -5.619 -22.717  1.00  0.00     0.169 A 
HETATM   18  C4  UNL     1      -9.752  -4.699 -21.692  1.00  0.00     0.061 A 
HETATM   19  S1  UNL     1      -8.084  -4.364 -21.647  1.00  0.00    -0.083 SA
HETATM   20  C6  UNL     1      -7.579  -5.381 -22.901  1.00  0.00     0.144 A 
BRANCH  17  21
HETATM   21  O2  UNL     1     -11.138  -6.104 -23.027  1.00  0.00    -0.260 OA
BRANCH  21  22
HETATM   22  C2  UNL     1     -11.693  -7.290 -22.679  1.00  0.00     0.261 C 
HETATM   23  C1  UNL     1     -10.854  -8.250 -21.859  1.00  0.00     0.126 C 
HETATM   24  O1  UNL     1     -12.850  -7.627 -22.997  1.00  0.00    -0.265 OA
ENDBRANCH  21  22
ENDBRANCH  17  21
BRANCH  18  25
HETATM   25  C5  UNL     1     -10.807  -4.090 -20.831  1.00  0.00     0.280 C 
BRANCH  25  26
HETATM   26  N1  UNL     1     -11.322  -5.138 -19.954  1.00  0.00    -0.075 N 
ATOM     27  H13 UNL     1     -10.924  -6.055 -20.154  1.00  0.00     0.274 HD
ATOM     28  H12 UNL     1     -10.987  -5.052 -18.994  1.00  0.00     0.274 HD
ATOM     29  H11 UNL     1     -12.340  -5.125 -20.021  1.00  0.00     0.274 HD
ENDBRANCH  25  26
ENDBRANCH  18  25
ENDBRANCH  15  16
ENDBRANCH   1  15
BRANCH   2  30
HETATM   30  C10 UNL     1      -8.255  -5.162 -26.474  1.00  0.00     0.227 C 
HETATM   31  O3  UNL     1      -8.129  -3.907 -26.205  1.00  0.00    -0.643 OA
HETATM   32  O4  UNL     1      -9.455  -5.412 -27.073  1.00  0.00    -0.643 OA
ENDBRANCH   2  30
BRANCH  14  33
HETATM   33  C25 UNL     1      -6.542  -9.203 -25.455  1.00  0.00     0.201 C 
HETATM   34  O8  UNL     1      -6.292 -10.317 -24.871  1.00  0.00    -0.646 OA
HETATM   35  O9  UNL     1      -6.929  -9.327 -26.769  1.00  0.00    -0.646 OA
ENDBRANCH  14  33
BRANCH  11  36
HETATM   36  C19 UNL     1      -2.917  -7.087 -25.198  1.00  0.00     0.203 C 
BRANCH  36  37
HETATM   37  O5  UNL     1      -2.250  -5.925 -25.521  1.00  0.00    -0.308 OA
BRANCH  37  38
HETATM   38  C20 UNL     1      -1.142  -5.404 -24.861  1.00  0.00     0.255 C 
HETATM   39  C21 UNL     1      -0.291  -4.333 -25.436  1.00  0.00     0.126 C 
HETATM   40  O6  UNL     1      -0.934  -5.922 -23.744  1.00  0.00    -0.266 OA
ENDBRANCH  37  38
ENDBRANCH  36  37
BRANCH  36  41
HETATM   41  C22 UNL     1      -2.038  -8.300 -25.409  1.00  0.00     0.037 C 
HETATM   42  C23 UNL     1      -1.498  -8.676 -26.738  1.00  0.00     0.068 C 
HETATM   43  N8  UNL     1      -1.714  -9.074 -24.429  1.00  0.00    -0.275 N 
ATOM     44  H8  UNL     1      -1.120  -9.882 -24.615  1.00  0.00     0.193 HD
BRANCH  43  45
HETATM   45  O7  UNL     1      -2.136  -8.850 -23.162  1.00  0.00    -0.290 OA
ATOM     46  H7  UNL     1      -1.920  -9.434 -22.445  1.00  0.00     0.244 HD
ENDBRANCH  43  45
ENDBRANCH  36  41
ENDBRANCH  11  36
BRANCH   9  47
HETATM   47  N5  UNL     1      -3.581  -4.923 -28.533  1.00  0.00    -0.346 N 
ATOM     48  H5  UNL     1      -4.205  -4.128 -28.398  1.00  0.00     0.163 HD
BRANCH  47  49
HETATM   49  C14 UNL     1      -2.312  -4.693 -29.169  1.00  0.00     0.111 A 
HETATM   50  C15 UNL     1      -1.243  -5.501 -28.832  1.00  0.00     0.101 A 
HETATM   51  S2  UNL     1       0.005  -4.881 -29.813  1.00  0.00    -0.062 SA
HETATM   52  C16 UNL     1      -0.880  -3.650 -30.586  1.00  0.00     0.143 A 
HETATM   53  N7  UNL     1      -2.093  -3.767 -30.060  1.00  0.00    -0.323 N 
ATOM     54  H7  UNL     1      -2.844  -3.141 -30.349  1.00  0.00     0.169 HD
BRANCH  52  55
HETATM   55  N6  UNL     1      -0.489  -2.775 -31.491  1.00  0.00    -0.380 N 
ATOM     56  H62 UNL     1       0.450  -2.667 -31.876  1.00  0.00     0.158 HD
ATOM     57  H61 UNL     1      -1.026  -2.055 -31.973  1.00  0.00     0.158 HD
ENDBRANCH  52  55
ENDBRANCH  47  49
ENDBRANCH   9  47
TORSDOF 16
ENDMDL
