MODEL 1
REMARK VINA RESULT: -9.030430423      0.000      0.000
REMARK  17 active torsions:
REMARK  status: ('A' for Active; 'I' for Inactive)
REMARK    1  A    between atoms: C2_2  and  O2_4 
REMARK    2  A    between atoms: O2_4  and  C3_5 
REMARK    3  A    between atoms: C3_5  and  N1_6 
REMARK    4  A    between atoms: C3_5  and  C21_52 
REMARK    5  A    between atoms: N1_6  and  N2_8 
REMARK    6  A    between atoms: C5_11  and  N3_12 
REMARK    7  A    between atoms: C6_17  and  C7_18 
REMARK       I    between atoms: C7_18  and  N6_20 
REMARK    8  A    between atoms: N6_20  and  C8_22 
REMARK    9  A    between atoms: C8_22  and  C9_23 
REMARK   10  A    between atoms: C8_22  and  C10_26 
REMARK   11  A    between atoms: C10_26  and  O6_27 
REMARK   12  A    between atoms: C10_26  and  O7_29 
REMARK   13  A    between atoms: C11_31  and  O8_32 
REMARK   14  A    between atoms: C14_38  and  C15_39 
REMARK   15  A    between atoms: C19_43  and  O11_44 
REMARK   16  A    between atoms: O11_44  and  S2_45 
REMARK   17  A    between atoms: S2_45  and  N7_46 
ROOT
HETATM    1  N2  UNL     1      -6.089  -6.803 -22.774  1.00  0.00    -0.224 N 
HETATM    2  S1  UNL     1      -7.276  -6.864 -21.525  1.00  0.00     0.015 SA
HETATM    3  C4  UNL     1      -8.640  -6.347 -22.379  1.00  0.00     0.095 A 
HETATM    4  C5  UNL     1     -10.009  -6.051 -22.445  1.00  0.00     0.196 A 
HETATM    5  O9  UNL     1     -10.280  -5.701 -23.640  1.00  0.00    -0.254 OA
HETATM    6  C12 UNL     1      -9.212  -5.723 -24.429  1.00  0.00     0.303 A 
HETATM    7  O10 UNL     1      -9.330  -5.410 -25.633  1.00  0.00    -0.259 OA
HETATM    8  C13 UNL     1      -8.083  -6.129 -23.700  1.00  0.00     0.093 A 
HETATM    9  C14 UNL     1      -6.754  -6.386 -23.832  1.00  0.00     0.092 A 
ENDROOT
BRANCH   4  10
HETATM   10  N3  UNL     1     -10.863  -6.153 -21.324  1.00  0.00    -0.193 N 
HETATM   11  N4  UNL     1     -11.027  -5.280 -20.348  1.00  0.00    -0.231 N 
HETATM   12  N5  UNL     1     -11.891  -5.688 -19.471  1.00  0.00    -0.277 N 
ATOM     13  H4  UNL     1     -10.533  -4.389 -20.291  1.00  0.00     0.209 HD
HETATM   14  C6  UNL     1     -12.350  -6.898 -19.851  1.00  0.00     0.170 A 
ATOM     15  H5  UNL     1     -12.175  -5.179 -18.635  1.00  0.00     0.189 HD
HETATM   16  C11 UNL     1     -11.700  -7.190 -21.021  1.00  0.00     0.199 A 
BRANCH  14  17
HETATM   17  C7  UNL     1     -13.337  -7.672 -19.112  1.00  0.00     0.275 C 
HETATM   18  O3  UNL     1     -14.069  -8.486 -19.769  1.00  0.00    -0.266 OA
HETATM   19  N6  UNL     1     -13.529  -7.575 -17.716  1.00  0.00    -0.337 N 
ATOM     20  H6  UNL     1     -12.960  -6.933 -17.163  1.00  0.00     0.164 HD
BRANCH  19  21
HETATM   21  C8  UNL     1     -14.554  -8.403 -17.067  1.00  0.00     0.241 C 
BRANCH  21  22
HETATM   22  C9  UNL     1     -14.097  -8.789 -15.727  1.00  0.00     0.201 C 
HETATM   23  O4  UNL     1     -13.484  -9.871 -15.561  1.00  0.00    -0.646 OA
HETATM   24  O5  UNL     1     -14.315  -7.996 -14.613  1.00  0.00    -0.646 OA
ENDBRANCH  21  22
BRANCH  21  25
HETATM   25  C10 UNL     1     -15.833  -7.597 -17.042  1.00  0.00     0.287 C 
BRANCH  25  26
HETATM   26  O6  UNL     1     -15.788  -6.740 -18.165  1.00  0.00    -0.369 OA
ATOM     27  H6  UNL     1     -14.942  -6.308 -18.139  1.00  0.00     0.212 HD
ENDBRANCH  25  26
BRANCH  25  28
HETATM   28  O7  UNL     1     -16.882  -8.510 -17.290  1.00  0.00    -0.369 OA
ATOM     29  H7  UNL     1     -16.661  -8.958 -18.098  1.00  0.00     0.212 HD
ENDBRANCH  25  28
ENDBRANCH  21  25
ENDBRANCH  19  21
ENDBRANCH  14  17
BRANCH  16  30
HETATM   30  O8  UNL     1     -11.834  -8.333 -21.806  1.00  0.00    -0.343 OA
ATOM     31  H8  UNL     1     -12.038  -9.193 -21.458  1.00  0.00     0.219 HD
ENDBRANCH  16  30
ENDBRANCH   4  10
BRANCH   1  32
HETATM   32  N1  UNL     1      -4.750  -7.125 -22.530  1.00  0.00    -0.287 N 
ATOM     33  H1  UNL     1      -4.126  -6.433 -22.114  1.00  0.00     0.184 HD
BRANCH  32  34
HETATM   34  C3  UNL     1      -4.250  -8.440 -22.868  1.00  0.00     0.316 C 
BRANCH  34  35
HETATM   35  O2  UNL     1      -2.926  -8.350 -23.386  1.00  0.00    -0.287 OA
BRANCH  35  36
HETATM   36  C2  UNL     1      -2.259  -7.158 -23.560  1.00  0.00     0.257 C 
HETATM   37  C1  UNL     1      -2.160  -6.615 -24.960  1.00  0.00     0.126 C 
HETATM   38  O1  UNL     1      -1.774  -6.591 -22.571  1.00  0.00    -0.266 OA
ENDBRANCH  35  36
ENDBRANCH  34  35
BRANCH  34  39
HETATM   39  C21 UNL     1      -4.249  -9.293 -21.639  1.00  0.00     0.173 C 
HETATM   40  C22 UNL     1      -5.262 -10.337 -21.388  1.00  0.00     0.096 C 
HETATM   41  O14 UNL     1      -3.379  -9.117 -20.815  1.00  0.00    -0.294 OA
ENDBRANCH  34  39
ENDBRANCH  32  34
ENDBRANCH   1  32
BRANCH   9  42
HETATM   42  C15 UNL     1      -6.041  -6.078 -25.111  1.00  0.00    -0.003 A 
HETATM   43  C16 UNL     1      -5.552  -4.826 -25.364  1.00  0.00     0.014 A 
HETATM   44  C17 UNL     1      -4.995  -4.498 -26.590  1.00  0.00     0.004 A 
HETATM   45  C18 UNL     1      -4.927  -5.448 -27.581  1.00  0.00     0.038 A 
HETATM   46  C19 UNL     1      -5.411  -6.714 -27.353  1.00  0.00     0.091 A 
HETATM   47  C20 UNL     1      -5.963  -7.022 -26.129  1.00  0.00     0.052 A 
BRANCH  46  48
HETATM   48  O11 UNL     1      -5.316  -7.629 -28.385  1.00  0.00    -0.217 OA
BRANCH  48  49
HETATM   49  S2  UNL     1      -6.678  -8.406 -29.056  1.00  0.00     0.360 S 
HETATM   50  O12 UNL     1      -6.231  -9.148 -30.266  1.00  0.00    -0.176 OA
HETATM   51  O13 UNL     1      -7.229  -9.403 -28.060  1.00  0.00    -0.176 OA
BRANCH  49  52
HETATM   52  N7  UNL     1      -7.915  -7.291 -29.441  1.00  0.00    -0.305 N 
ATOM     53  H72 UNL     1      -8.385  -6.713 -28.745  1.00  0.00     0.171 HD
ATOM     54  H71 UNL     1      -8.118  -7.283 -30.441  1.00  0.00     0.171 HD
ENDBRANCH  49  52
ENDBRANCH  48  49
ENDBRANCH  46  48
ENDBRANCH   9  42
TORSDOF 17
ENDMDL
MODEL 2
REMARK VINA RESULT: -9.014982313      0.968      1.974
REMARK  17 active torsions:
REMARK  status: ('A' for Active; 'I' for Inactive)
REMARK    1  A    between atoms: C2_2  and  O2_4 
REMARK    2  A    between atoms: O2_4  and  C3_5 
REMARK    3  A    between atoms: C3_5  and  N1_6 
REMARK    4  A    between atoms: C3_5  and  C21_52 
REMARK    5  A    between atoms: N1_6  and  N2_8 
REMARK    6  A    between atoms: C5_11  and  N3_12 
REMARK    7  A    between atoms: C6_17  and  C7_18 
REMARK       I    between atoms: C7_18  and  N6_20 
REMARK    8  A    between atoms: N6_20  and  C8_22 
REMARK    9  A    between atoms: C8_22  and  C9_23 
REMARK   10  A    between atoms: C8_22  and  C10_26 
REMARK   11  A    between atoms: C10_26  and  O6_27 
REMARK   12  A    between atoms: C10_26  and  O7_29 
REMARK   13  A    between atoms: C11_31  and  O8_32 
REMARK   14  A    between atoms: C14_38  and  C15_39 
REMARK   15  A    between atoms: C19_43  and  O11_44 
REMARK   16  A    between atoms: O11_44  and  S2_45 
REMARK   17  A    between atoms: S2_45  and  N7_46 
ROOT
HETATM    1  N2  UNL     1      -6.338  -7.778 -23.040  1.00  0.00    -0.224 N 
HETATM    2  S1  UNL     1      -7.524  -7.764 -21.789  1.00  0.00     0.015 SA
HETATM    3  C4  UNL     1      -8.689  -6.757 -22.488  1.00  0.00     0.095 A 
HETATM    4  C5  UNL     1      -9.932  -6.109 -22.455  1.00  0.00     0.196 A 
HETATM    5  O9  UNL     1     -10.078  -5.481 -23.554  1.00  0.00    -0.254 OA
HETATM    6  C12 UNL     1      -9.037  -5.630 -24.366  1.00  0.00     0.303 A 
HETATM    7  O10 UNL     1      -9.046  -5.074 -25.484  1.00  0.00    -0.259 OA
HETATM    8  C13 UNL     1      -8.068  -6.446 -23.761  1.00  0.00     0.093 A 
HETATM    9  C14 UNL     1      -6.850  -7.009 -23.979  1.00  0.00     0.092 A 
ENDROOT
BRANCH   4  10
HETATM   10  N3  UNL     1     -10.805  -6.196 -21.347  1.00  0.00    -0.193 N 
HETATM   11  N4  UNL     1     -10.988  -5.309 -20.388  1.00  0.00    -0.231 N 
HETATM   12  N5  UNL     1     -11.866  -5.706 -19.520  1.00  0.00    -0.277 N 
ATOM     13  H4  UNL     1     -10.497  -4.416 -20.335  1.00  0.00     0.209 HD
HETATM   14  C6  UNL     1     -12.315  -6.923 -19.890  1.00  0.00     0.170 A 
ATOM     15  H5  UNL     1     -12.166  -5.185 -18.697  1.00  0.00     0.189 HD
HETATM   16  C11 UNL     1     -11.644  -7.231 -21.044  1.00  0.00     0.199 A 
BRANCH  14  17
HETATM   17  C7  UNL     1     -13.313  -7.689 -19.157  1.00  0.00     0.275 C 
HETATM   18  O3  UNL     1     -14.023  -8.523 -19.811  1.00  0.00    -0.266 OA
HETATM   19  N6  UNL     1     -13.539  -7.561 -17.768  1.00  0.00    -0.337 N 
ATOM     20  H6  UNL     1     -12.989  -6.902 -17.216  1.00  0.00     0.164 HD
BRANCH  19  21
HETATM   21  C8  UNL     1     -14.572  -8.383 -17.124  1.00  0.00     0.241 C 
BRANCH  21  22
HETATM   22  C9  UNL     1     -14.104  -8.813 -15.801  1.00  0.00     0.201 C 
HETATM   23  O4  UNL     1     -13.497  -9.904 -15.674  1.00  0.00    -0.646 OA
HETATM   24  O5  UNL     1     -14.305  -8.052 -14.661  1.00  0.00    -0.646 OA
ENDBRANCH  21  22
BRANCH  21  25
HETATM   25  C10 UNL     1     -15.833  -7.550 -17.060  1.00  0.00     0.287 C 
BRANCH  25  26
HETATM   26  O6  UNL     1     -15.812  -6.706 -18.192  1.00  0.00    -0.369 OA
ATOM     27  H6  UNL     1     -16.159  -7.217 -18.914  1.00  0.00     0.212 HD
ENDBRANCH  25  26
BRANCH  25  28
HETATM   28  O7  UNL     1     -16.909  -8.443 -17.258  1.00  0.00    -0.369 OA
ATOM     29  H7  UNL     1     -17.694  -7.909 -17.307  1.00  0.00     0.212 HD
ENDBRANCH  25  28
ENDBRANCH  21  25
ENDBRANCH  19  21
ENDBRANCH  14  17
BRANCH  16  30
HETATM   30  O8  UNL     1     -11.761  -8.386 -21.814  1.00  0.00    -0.343 OA
ATOM     31  H8  UNL     1     -11.020  -8.892 -22.125  1.00  0.00     0.219 HD
ENDBRANCH  16  30
ENDBRANCH   4  10
BRANCH   1  32
HETATM   32  N1  UNL     1      -5.134  -8.477 -22.902  1.00  0.00    -0.287 N 
ATOM     33  H1  UNL     1      -5.075  -9.454 -23.193  1.00  0.00     0.184 HD
BRANCH  32  34
HETATM   34  C3  UNL     1      -3.973  -7.814 -22.349  1.00  0.00     0.316 C 
BRANCH  34  35
HETATM   35  O2  UNL     1      -3.403  -8.600 -21.308  1.00  0.00    -0.287 OA
BRANCH  35  36
HETATM   36  C2  UNL     1      -4.148  -9.220 -20.328  1.00  0.00     0.257 C 
HETATM   37  C1  UNL     1      -4.183  -8.574 -18.969  1.00  0.00     0.126 C 
HETATM   38  O1  UNL     1      -4.747 -10.268 -20.603  1.00  0.00    -0.266 OA
ENDBRANCH  35  36
ENDBRANCH  34  35
BRANCH  34  39
HETATM   39  C21 UNL     1      -2.963  -7.613 -23.433  1.00  0.00     0.173 C 
HETATM   40  C22 UNL     1      -1.898  -6.593 -23.356  1.00  0.00     0.096 C 
HETATM   41  O14 UNL     1      -3.022  -8.317 -24.417  1.00  0.00    -0.294 OA
ENDBRANCH  34  39
ENDBRANCH  32  34
ENDBRANCH   1  32
BRANCH   9  42
HETATM   42  C15 UNL     1      -6.056  -6.660 -25.200  1.00  0.00    -0.003 A 
HETATM   43  C16 UNL     1      -5.435  -5.447 -25.316  1.00  0.00     0.014 A 
HETATM   44  C17 UNL     1      -4.796  -5.067 -26.485  1.00  0.00     0.004 A 
HETATM   45  C18 UNL     1      -4.781  -5.925 -27.560  1.00  0.00     0.038 A 
HETATM   46  C19 UNL     1      -5.397  -7.149 -27.470  1.00  0.00     0.091 A 
HETATM   47  C20 UNL     1      -6.029  -7.511 -26.299  1.00  0.00     0.052 A 
BRANCH  46  48
HETATM   48  O11 UNL     1      -5.350  -7.972 -28.580  1.00  0.00    -0.217 OA
BRANCH  48  49
HETATM   49  S2  UNL     1      -6.630  -9.012 -29.012  1.00  0.00     0.360 S 
HETATM   50  O12 UNL     1      -7.864  -8.191 -29.140  1.00  0.00    -0.176 OA
HETATM   51  O13 UNL     1      -6.333  -9.643 -30.355  1.00  0.00    -0.176 OA
BRANCH  49  52
HETATM   52  N7  UNL     1      -6.842 -10.263 -27.866  1.00  0.00    -0.305 N 
ATOM     53  H72 UNL     1      -6.173 -10.460 -27.121  1.00  0.00     0.171 HD
ATOM     54  H71 UNL     1      -7.708 -10.777 -28.023  1.00  0.00     0.171 HD
ENDBRANCH  49  52
ENDBRANCH  48  49
ENDBRANCH  46  48
ENDBRANCH   9  42
TORSDOF 17
ENDMDL
MODEL 3
REMARK VINA RESULT: -8.739210460      2.724      4.687
REMARK  17 active torsions:
REMARK  status: ('A' for Active; 'I' for Inactive)
REMARK    1  A    between atoms: C2_2  and  O2_4 
REMARK    2  A    between atoms: O2_4  and  C3_5 
REMARK    3  A    between atoms: C3_5  and  N1_6 
REMARK    4  A    between atoms: C3_5  and  C21_52 
REMARK    5  A    between atoms: N1_6  and  N2_8 
REMARK    6  A    between atoms: C5_11  and  N3_12 
REMARK    7  A    between atoms: C6_17  and  C7_18 
REMARK       I    between atoms: C7_18  and  N6_20 
REMARK    8  A    between atoms: N6_20  and  C8_22 
REMARK    9  A    between atoms: C8_22  and  C9_23 
REMARK   10  A    between atoms: C8_22  and  C10_26 
REMARK   11  A    between atoms: C10_26  and  O6_27 
REMARK   12  A    between atoms: C10_26  and  O7_29 
REMARK   13  A    between atoms: C11_31  and  O8_32 
REMARK   14  A    between atoms: C14_38  and  C15_39 
REMARK   15  A    between atoms: C19_43  and  O11_44 
REMARK   16  A    between atoms: O11_44  and  S2_45 
REMARK   17  A    between atoms: S2_45  and  N7_46 
ROOT
HETATM    1  N2  UNL     1      -6.761  -8.610 -25.781  1.00  0.00    -0.224 N 
HETATM    2  S1  UNL     1      -8.225  -8.501 -24.878  1.00  0.00     0.015 SA
HETATM    3  C4  UNL     1      -7.741  -7.457 -23.641  1.00  0.00     0.095 A 
HETATM    4  C5  UNL     1      -8.013  -6.715 -22.482  1.00  0.00     0.196 A 
HETATM    5  O9  UNL     1      -6.954  -6.087 -22.158  1.00  0.00    -0.254 OA
HETATM    6  C12 UNL     1      -5.948  -6.323 -22.994  1.00  0.00     0.303 A 
HETATM    7  O10 UNL     1      -4.847  -5.766 -22.803  1.00  0.00    -0.259 OA
HETATM    8  C13 UNL     1      -6.358  -7.212 -24.000  1.00  0.00     0.093 A 
HETATM    9  C14 UNL     1      -5.917  -7.843 -25.121  1.00  0.00     0.092 A 
ENDROOT
BRANCH   4  10
HETATM   10  N3  UNL     1      -9.279  -6.726 -21.853  1.00  0.00    -0.193 N 
HETATM   11  N4  UNL     1     -10.258  -7.595 -22.020  1.00  0.00    -0.231 N 
HETATM   12  N5  UNL     1     -11.289  -7.311 -21.285  1.00  0.00    -0.277 N 
ATOM     13  H4  UNL     1     -10.211  -8.394 -22.651  1.00  0.00     0.209 HD
HETATM   14  C6  UNL     1     -11.017  -6.196 -20.575  1.00  0.00     0.170 A 
ATOM     15  H5  UNL     1     -12.159  -7.842 -21.251  1.00  0.00     0.189 HD
HETATM   16  C11 UNL     1      -9.747  -5.829 -20.935  1.00  0.00     0.199 A 
BRANCH  14  17
HETATM   17  C7  UNL     1     -11.940  -5.574 -19.637  1.00  0.00     0.275 C 
HETATM   18  O3  UNL     1     -11.943  -4.299 -19.562  1.00  0.00    -0.266 OA
HETATM   19  N6  UNL     1     -12.828  -6.296 -18.809  1.00  0.00    -0.337 N 
ATOM     20  H6  UNL     1     -12.849  -7.316 -18.845  1.00  0.00     0.164 HD
BRANCH  19  21
HETATM   21  C8  UNL     1     -13.720  -5.569 -17.896  1.00  0.00     0.241 C 
BRANCH  21  22
HETATM   22  C9  UNL     1     -15.076  -6.121 -17.993  1.00  0.00     0.201 C 
HETATM   23  O4  UNL     1     -15.254  -7.272 -18.458  1.00  0.00    -0.646 OA
HETATM   24  O5  UNL     1     -16.194  -5.412 -17.584  1.00  0.00    -0.646 OA
ENDBRANCH  21  22
BRANCH  21  25
HETATM   25  C10 UNL     1     -13.134  -5.687 -16.507  1.00  0.00     0.287 C 
BRANCH  25  26
HETATM   26  O6  UNL     1     -13.991  -4.963 -15.649  1.00  0.00    -0.369 OA
ATOM     27  H6  UNL     1     -14.440  -5.607 -15.113  1.00  0.00     0.212 HD
ENDBRANCH  25  26
BRANCH  25  28
HETATM   28  O7  UNL     1     -13.264  -7.044 -16.136  1.00  0.00    -0.369 OA
ATOM     29  H7  UNL     1     -13.553  -7.046 -15.230  1.00  0.00     0.212 HD
ENDBRANCH  25  28
ENDBRANCH  21  25
ENDBRANCH  19  21
ENDBRANCH  14  17
BRANCH  16  30
HETATM   30  O8  UNL     1      -9.015  -4.738 -20.473  1.00  0.00    -0.343 OA
ATOM     31  H8  UNL     1      -9.400  -3.898 -20.251  1.00  0.00     0.219 HD
ENDBRANCH  16  30
ENDBRANCH   4  10
BRANCH   1  32
HETATM   32  N1  UNL     1      -6.659  -9.415 -26.920  1.00  0.00    -0.287 N 
ATOM     33  H1  UNL     1      -6.180 -10.314 -26.869  1.00  0.00     0.184 HD
BRANCH  32  34
HETATM   34  C3  UNL     1      -7.233  -8.970 -28.172  1.00  0.00     0.316 C 
BRANCH  34  35
HETATM   35  O2  UNL     1      -6.836  -7.631 -28.452  1.00  0.00    -0.287 OA
BRANCH  35  36
HETATM   36  C2  UNL     1      -7.719  -6.577 -28.525  1.00  0.00     0.257 C 
HETATM   37  C1  UNL     1      -7.555  -5.462 -27.528  1.00  0.00     0.126 C 
HETATM   38  O1  UNL     1      -8.601  -6.592 -29.395  1.00  0.00    -0.266 OA
ENDBRANCH  35  36
ENDBRANCH  34  35
BRANCH  34  39
HETATM   39  C21 UNL     1      -6.762  -9.870 -29.271  1.00  0.00     0.173 C 
HETATM   40  C22 UNL     1      -6.844 -11.342 -29.191  1.00  0.00     0.096 C 
HETATM   41  O14 UNL     1      -6.294  -9.368 -30.269  1.00  0.00    -0.294 OA
ENDBRANCH  34  39
ENDBRANCH  32  34
ENDBRANCH   1  32
BRANCH   9  42
HETATM   42  C15 UNL     1      -4.476  -7.769 -25.521  1.00  0.00    -0.003 A 
HETATM   43  C16 UNL     1      -3.505  -8.380 -24.778  1.00  0.00     0.014 A 
HETATM   44  C17 UNL     1      -2.160  -8.223 -25.071  1.00  0.00     0.004 A 
HETATM   45  C18 UNL     1      -1.784  -7.435 -26.133  1.00  0.00     0.038 A 
HETATM   46  C19 UNL     1      -2.740  -6.810 -26.896  1.00  0.00     0.091 A 
HETATM   47  C20 UNL     1      -4.074  -6.976 -26.590  1.00  0.00     0.052 A 
BRANCH  46  48
HETATM   48  O11 UNL     1      -2.306  -6.031 -27.953  1.00  0.00    -0.217 OA
BRANCH  48  49
HETATM   49  S2  UNL     1      -2.609  -6.436 -29.581  1.00  0.00     0.360 S 
HETATM   50  O12 UNL     1      -2.239  -5.264 -30.420  1.00  0.00    -0.176 OA
HETATM   51  O13 UNL     1      -1.735  -7.605 -29.980  1.00  0.00    -0.176 OA
BRANCH  49  52
HETATM   52  N7  UNL     1      -4.242  -6.877 -29.830  1.00  0.00    -0.305 N 
ATOM     53  H72 UNL     1      -4.832  -7.277 -29.099  1.00  0.00     0.171 HD
ATOM     54  H71 UNL     1      -4.542  -6.693 -30.786  1.00  0.00     0.171 HD
ENDBRANCH  49  52
ENDBRANCH  48  49
ENDBRANCH  46  48
ENDBRANCH   9  42
TORSDOF 17
ENDMDL
MODEL 4
REMARK VINA RESULT: -8.599504145      2.192      2.818
REMARK  17 active torsions:
REMARK  status: ('A' for Active; 'I' for Inactive)
REMARK    1  A    between atoms: C2_2  and  O2_4 
REMARK    2  A    between atoms: O2_4  and  C3_5 
REMARK    3  A    between atoms: C3_5  and  N1_6 
REMARK    4  A    between atoms: C3_5  and  C21_52 
REMARK    5  A    between atoms: N1_6  and  N2_8 
REMARK    6  A    between atoms: C5_11  and  N3_12 
REMARK    7  A    between atoms: C6_17  and  C7_18 
REMARK       I    between atoms: C7_18  and  N6_20 
REMARK    8  A    between atoms: N6_20  and  C8_22 
REMARK    9  A    between atoms: C8_22  and  C9_23 
REMARK   10  A    between atoms: C8_22  and  C10_26 
REMARK   11  A    between atoms: C10_26  and  O6_27 
REMARK   12  A    between atoms: C10_26  and  O7_29 
REMARK   13  A    between atoms: C11_31  and  O8_32 
REMARK   14  A    between atoms: C14_38  and  C15_39 
REMARK   15  A    between atoms: C19_43  and  O11_44 
REMARK   16  A    between atoms: O11_44  and  S2_45 
REMARK   17  A    between atoms: S2_45  and  N7_46 
ROOT
HETATM    1  N2  UNL     1      -7.002  -8.356 -23.293  1.00  0.00    -0.224 N 
HETATM    2  S1  UNL     1      -7.859  -7.784 -21.912  1.00  0.00     0.015 SA
HETATM    3  C4  UNL     1      -8.760  -6.536 -22.611  1.00  0.00     0.095 A 
HETATM    4  C5  UNL     1      -9.705  -5.504 -22.521  1.00  0.00     0.196 A 
HETATM    5  O9  UNL     1      -9.855  -5.005 -23.683  1.00  0.00    -0.254 OA
HETATM    6  C12 UNL     1      -9.091  -5.598 -24.593  1.00  0.00     0.303 A 
HETATM    7  O10 UNL     1      -9.140  -5.216 -25.781  1.00  0.00    -0.259 OA
HETATM    8  C13 UNL     1      -8.330  -6.615 -23.993  1.00  0.00     0.093 A 
HETATM    9  C14 UNL     1      -7.417  -7.582 -24.275  1.00  0.00     0.092 A 
ENDROOT
BRANCH   4  10
HETATM   10  N3  UNL     1     -10.331  -5.151 -21.304  1.00  0.00    -0.193 N 
HETATM   11  N4  UNL     1     -10.206  -4.026 -20.625  1.00  0.00    -0.231 N 
HETATM   12  N5  UNL     1     -10.923  -4.029 -19.545  1.00  0.00    -0.277 N 
ATOM     13  H4  UNL     1      -9.617  -3.246 -20.916  1.00  0.00     0.209 HD
HETATM   14  C6  UNL     1     -11.576  -5.207 -19.465  1.00  0.00     0.170 A 
ATOM     15  H5  UNL     1     -10.983  -3.269 -18.868  1.00  0.00     0.189 HD
HETATM   16  C11 UNL     1     -11.201  -5.914 -20.577  1.00  0.00     0.199 A 
BRANCH  14  17
HETATM   17  C7  UNL     1     -12.479  -5.575 -18.385  1.00  0.00     0.275 C 
HETATM   18  O3  UNL     1     -12.315  -5.010 -17.252  1.00  0.00    -0.266 OA
HETATM   19  N6  UNL     1     -13.522  -6.519 -18.517  1.00  0.00    -0.337 N 
ATOM     20  H6  UNL     1     -13.679  -6.989 -19.409  1.00  0.00     0.164 HD
BRANCH  19  21
HETATM   21  C8  UNL     1     -14.379  -6.819 -17.362  1.00  0.00     0.241 C 
BRANCH  21  22
HETATM   22  C9  UNL     1     -15.456  -5.826 -17.279  1.00  0.00     0.201 C 
HETATM   23  O4  UNL     1     -16.014  -5.416 -18.325  1.00  0.00    -0.646 OA
HETATM   24  O5  UNL     1     -15.896  -5.310 -16.071  1.00  0.00    -0.646 OA
ENDBRANCH  21  22
BRANCH  21  25
HETATM   25  C10 UNL     1     -14.891  -8.231 -17.537  1.00  0.00     0.287 C 
BRANCH  25  26
HETATM   26  O6  UNL     1     -16.301  -8.146 -17.546  1.00  0.00    -0.369 OA
ATOM     27  H6  UNL     1     -16.617  -8.971 -17.897  1.00  0.00     0.212 HD
ENDBRANCH  25  26
BRANCH  25  28
HETATM   28  O7  UNL     1     -14.516  -8.630 -18.839  1.00  0.00    -0.369 OA
ATOM     29  H7  UNL     1     -13.897  -9.344 -18.731  1.00  0.00     0.212 HD
ENDBRANCH  25  28
ENDBRANCH  21  25
ENDBRANCH  19  21
ENDBRANCH  14  17
BRANCH  16  30
HETATM   30  O8  UNL     1     -11.608  -7.193 -20.949  1.00  0.00    -0.343 OA
ATOM     31  H8  UNL     1     -12.448  -7.571 -20.714  1.00  0.00     0.219 HD
ENDBRANCH  16  30
ENDBRANCH   4  10
BRANCH   1  32
HETATM   32  N1  UNL     1      -6.076  -9.401 -23.202  1.00  0.00    -0.287 N 
ATOM     33  H1  UNL     1      -6.300 -10.317 -23.592  1.00  0.00     0.184 HD
BRANCH  32  34
HETATM   34  C3  UNL     1      -4.800  -9.181 -22.556  1.00  0.00     0.316 C 
BRANCH  34  35
HETATM   35  O2  UNL     1      -4.482  -7.793 -22.547  1.00  0.00    -0.287 OA
BRANCH  35  36
HETATM   36  C2  UNL     1      -3.279  -7.287 -22.986  1.00  0.00     0.257 C 
HETATM   37  C1  UNL     1      -3.191  -5.802 -23.213  1.00  0.00     0.126 C 
HETATM   38  O1  UNL     1      -2.334  -8.064 -23.175  1.00  0.00    -0.266 OA
ENDBRANCH  35  36
ENDBRANCH  34  35
BRANCH  34  39
HETATM   39  C21 UNL     1      -4.873  -9.686 -21.150  1.00  0.00     0.173 C 
HETATM   40  C22 UNL     1      -4.506  -8.859 -19.982  1.00  0.00     0.096 C 
HETATM   41  O14 UNL     1      -5.248 -10.822 -20.962  1.00  0.00    -0.294 OA
ENDBRANCH  34  39
ENDBRANCH  32  34
ENDBRANCH   1  32
BRANCH   9  42
HETATM   42  C15 UNL     1      -6.804  -7.678 -25.637  1.00  0.00    -0.003 A 
HETATM   43  C16 UNL     1      -7.344  -8.485 -26.600  1.00  0.00     0.014 A 
HETATM   44  C17 UNL     1      -6.722  -8.672 -27.824  1.00  0.00     0.004 A 
HETATM   45  C18 UNL     1      -5.532  -8.034 -28.085  1.00  0.00     0.038 A 
HETATM   46  C19 UNL     1      -4.968  -7.217 -27.136  1.00  0.00     0.091 A 
HETATM   47  C20 UNL     1      -5.600  -7.043 -25.923  1.00  0.00     0.052 A 
BRANCH  46  48
HETATM   48  O11 UNL     1      -3.773  -6.599 -27.453  1.00  0.00    -0.217 OA
BRANCH  48  49
HETATM   49  S2  UNL     1      -2.255  -7.275 -27.067  1.00  0.00     0.360 S 
HETATM   50  O12 UNL     1      -1.533  -7.534 -28.342  1.00  0.00    -0.176 OA
HETATM   51  O13 UNL     1      -1.454  -6.279 -26.257  1.00  0.00    -0.176 OA
BRANCH  49  52
HETATM   52  N7  UNL     1      -2.416  -8.709 -26.150  1.00  0.00    -0.305 N 
ATOM     53  H72 UNL     1      -3.308  -9.179 -25.997  1.00  0.00     0.171 HD
ATOM     54  H71 UNL     1      -1.519  -9.025 -25.783  1.00  0.00     0.171 HD
ENDBRANCH  49  52
ENDBRANCH  48  49
ENDBRANCH  46  48
ENDBRANCH   9  42
TORSDOF 17
ENDMDL
MODEL 5
REMARK VINA RESULT: -8.586395240      2.123      3.187
REMARK  17 active torsions:
REMARK  status: ('A' for Active; 'I' for Inactive)
REMARK    1  A    between atoms: C2_2  and  O2_4 
REMARK    2  A    between atoms: O2_4  and  C3_5 
REMARK    3  A    between atoms: C3_5  and  N1_6 
REMARK    4  A    between atoms: C3_5  and  C21_52 
REMARK    5  A    between atoms: N1_6  and  N2_8 
REMARK    6  A    between atoms: C5_11  and  N3_12 
REMARK    7  A    between atoms: C6_17  and  C7_18 
REMARK       I    between atoms: C7_18  and  N6_20 
REMARK    8  A    between atoms: N6_20  and  C8_22 
REMARK    9  A    between atoms: C8_22  and  C9_23 
REMARK   10  A    between atoms: C8_22  and  C10_26 
REMARK   11  A    between atoms: C10_26  and  O6_27 
REMARK   12  A    between atoms: C10_26  and  O7_29 
REMARK   13  A    between atoms: C11_31  and  O8_32 
REMARK   14  A    between atoms: C14_38  and  C15_39 
REMARK   15  A    between atoms: C19_43  and  O11_44 
REMARK   16  A    between atoms: O11_44  and  S2_45 
REMARK   17  A    between atoms: S2_45  and  N7_46 
ROOT
HETATM    1  N2  UNL     1      -6.472  -7.766 -23.463  1.00  0.00    -0.224 N 
HETATM    2  S1  UNL     1      -7.297  -7.279 -22.030  1.00  0.00     0.015 SA
HETATM    3  C4  UNL     1      -8.498  -6.292 -22.694  1.00  0.00     0.095 A 
HETATM    4  C5  UNL     1      -9.624  -5.467 -22.559  1.00  0.00     0.196 A 
HETATM    5  O9  UNL     1      -9.982  -5.095 -23.724  1.00  0.00    -0.254 OA
HETATM    6  C12 UNL     1      -9.199  -5.588 -24.677  1.00  0.00     0.303 A 
HETATM    7  O10 UNL     1      -9.436  -5.311 -25.872  1.00  0.00    -0.259 OA
HETATM    8  C13 UNL     1      -8.191  -6.383 -24.109  1.00  0.00     0.093 A 
HETATM    9  C14 UNL     1      -7.128  -7.165 -24.434  1.00  0.00     0.092 A 
ENDROOT
BRANCH   4  10
HETATM   10  N3  UNL     1     -10.194  -5.159 -21.303  1.00  0.00    -0.193 N 
HETATM   11  N4  UNL     1      -9.959  -4.106 -20.544  1.00  0.00    -0.231 N 
HETATM   12  N5  UNL     1     -10.652  -4.133 -19.448  1.00  0.00    -0.277 N 
ATOM     13  H4  UNL     1      -9.309  -3.359 -20.789  1.00  0.00     0.209 HD
HETATM   14  C6  UNL     1     -11.404  -5.254 -19.443  1.00  0.00     0.170 A 
ATOM     15  H5  UNL     1     -10.633  -3.426 -18.714  1.00  0.00     0.189 HD
HETATM   16  C11 UNL     1     -11.113  -5.900 -20.615  1.00  0.00     0.199 A 
BRANCH  14  17
HETATM   17  C7  UNL     1     -12.315  -5.628 -18.371  1.00  0.00     0.275 C 
HETATM   18  O3  UNL     1     -12.106  -5.134 -17.212  1.00  0.00    -0.266 OA
HETATM   19  N6  UNL     1     -13.412  -6.502 -18.539  1.00  0.00    -0.337 N 
ATOM     20  H6  UNL     1     -13.605  -6.914 -19.452  1.00  0.00     0.164 HD
BRANCH  19  21
HETATM   21  C8  UNL     1     -14.272  -6.814 -17.389  1.00  0.00     0.241 C 
BRANCH  21  22
HETATM   22  C9  UNL     1     -15.338  -5.811 -17.287  1.00  0.00     0.201 C 
HETATM   23  O4  UNL     1     -15.907  -5.392 -18.323  1.00  0.00    -0.646 OA
HETATM   24  O5  UNL     1     -15.754  -5.294 -16.071  1.00  0.00    -0.646 OA
ENDBRANCH  21  22
BRANCH  21  25
HETATM   25  C10 UNL     1     -14.800  -8.216 -17.592  1.00  0.00     0.287 C 
BRANCH  25  26
HETATM   26  O6  UNL     1     -16.209  -8.117 -17.590  1.00  0.00    -0.369 OA
ATOM     27  H6  UNL     1     -16.501  -8.424 -18.441  1.00  0.00     0.212 HD
ENDBRANCH  25  26
BRANCH  25  28
HETATM   28  O7  UNL     1     -14.437  -8.592 -18.904  1.00  0.00    -0.369 OA
ATOM     29  H7  UNL     1     -13.782  -9.275 -18.815  1.00  0.00     0.212 HD
ENDBRANCH  25  28
ENDBRANCH  21  25
ENDBRANCH  19  21
ENDBRANCH  14  17
BRANCH  16  30
HETATM   30  O8  UNL     1     -11.637  -7.107 -21.074  1.00  0.00    -0.343 OA
ATOM     31  H8  UNL     1     -12.124  -7.713 -20.528  1.00  0.00     0.219 HD
ENDBRANCH  16  30
ENDBRANCH   4  10
BRANCH   1  32
HETATM   32  N1  UNL     1      -5.345  -8.594 -23.416  1.00  0.00    -0.287 N 
ATOM     33  H1  UNL     1      -5.404  -9.556 -23.751  1.00  0.00     0.184 HD
BRANCH  32  34
HETATM   34  C3  UNL     1      -4.096  -8.084 -22.892  1.00  0.00     0.316 C 
BRANCH  34  35
HETATM   35  O2  UNL     1      -3.609  -8.934 -21.858  1.00  0.00    -0.287 OA
BRANCH  35  36
HETATM   36  C2  UNL     1      -4.398  -9.419 -20.839  1.00  0.00     0.257 C 
HETATM   37  C1  UNL     1      -4.431  -8.639 -19.553  1.00  0.00     0.126 C 
HETATM   38  O1  UNL     1      -5.037 -10.465 -21.021  1.00  0.00    -0.266 OA
ENDBRANCH  35  36
ENDBRANCH  34  35
BRANCH  34  39
HETATM   39  C21 UNL     1      -3.092  -8.020 -23.999  1.00  0.00     0.173 C 
HETATM   40  C22 UNL     1      -3.284  -8.704 -25.293  1.00  0.00     0.096 C 
HETATM   41  O14 UNL     1      -2.079  -7.379 -23.825  1.00  0.00    -0.294 OA
ENDBRANCH  34  39
ENDBRANCH  32  34
ENDBRANCH   1  32
BRANCH   9  42
HETATM   42  C15 UNL     1      -6.637  -7.235 -25.847  1.00  0.00    -0.003 A 
HETATM   43  C16 UNL     1      -6.980  -8.277 -26.663  1.00  0.00     0.014 A 
HETATM   44  C17 UNL     1      -6.441  -8.415 -27.932  1.00  0.00     0.004 A 
HETATM   45  C18 UNL     1      -5.538  -7.484 -28.390  1.00  0.00     0.038 A 
HETATM   46  C19 UNL     1      -5.177  -6.427 -27.591  1.00  0.00     0.091 A 
HETATM   47  C20 UNL     1      -5.722  -6.307 -26.330  1.00  0.00     0.052 A 
BRANCH  46  48
HETATM   48  O11 UNL     1      -4.267  -5.521 -28.103  1.00  0.00    -0.217 OA
BRANCH  48  49
HETATM   49  S2  UNL     1      -2.592  -5.624 -27.798  1.00  0.00     0.360 S 
HETATM   50  O12 UNL     1      -2.147  -6.999 -28.152  1.00  0.00    -0.176 OA
HETATM   51  O13 UNL     1      -1.859  -4.641 -28.685  1.00  0.00    -0.176 OA
BRANCH  49  52
HETATM   52  N7  UNL     1      -2.222  -5.258 -26.170  1.00  0.00    -0.305 N 
ATOM     53  H72 UNL     1      -2.322  -4.326 -25.768  1.00  0.00     0.171 HD
ATOM     54  H71 UNL     1      -1.892  -6.080 -25.664  1.00  0.00     0.171 HD
ENDBRANCH  49  52
ENDBRANCH  48  49
ENDBRANCH  46  48
ENDBRANCH   9  42
TORSDOF 17
ENDMDL
