MODEL 1
REMARK VINA RESULT: -9.538938884      0.000      0.000
REMARK  13 active torsions:
REMARK  status: ('A' for Active; 'I' for Inactive)
REMARK    1  A    between atoms: C3_3  and  C4_4 
REMARK    2  A    between atoms: N4_11  and  C5_12 
REMARK    3  A    between atoms: C5_12  and  C6_13 
REMARK    4  A    between atoms: C6_13  and  C7_14 
REMARK    5  A    between atoms: C7_14  and  C8_15 
REMARK    6  A    between atoms: C8_15  and  C9_16 
REMARK    7  A    between atoms: C9_16  and  C10_17 
REMARK    8  A    between atoms: C10_17  and  C11_18 
REMARK    9  A    between atoms: C11_18  and  C12_19 
REMARK   10  A    between atoms: C12_19  and  C13_20 
REMARK       I    between atoms: N7_26  and  C15_28 
REMARK   11  A    between atoms: C15_28  and  C16_30 
REMARK   12  A    between atoms: C24_38  and  C25_39 
REMARK       I    between atoms: C25_39  and  N8_41 
REMARK   13  A    between atoms: N8_41  and  C26_43 
ROOT
HETATM    1  C13 UNL     1      15.220  19.955  18.369  1.00  0.00     0.069 A 
HETATM    2  N5  UNL     1      15.004  20.997  17.557  1.00  0.00    -0.296 N 
ATOM      3  H5  UNL     1      14.394  20.892  16.746  1.00  0.00     0.187 HD
HETATM    4  N6  UNL     1      15.553  22.104  17.791  1.00  0.00    -0.279 N 
ATOM      5  H6  UNL     1      15.389  22.898  17.172  1.00  0.00     0.189 HD
HETATM    6  C14 UNL     1      16.350  22.236  18.854  1.00  0.00     0.168 A 
HETATM    7  N7  UNL     1      17.001  23.310  19.244  1.00  0.00    -0.302 N 
ATOM      8  H7  UNL     1      17.581  23.280  20.083  1.00  0.00     0.171 HD
HETATM    9  C15 UNL     1      16.895  24.503  18.498  1.00  0.00     0.257 C 
HETATM   10  O2  UNL     1      15.811  25.172  18.500  1.00  0.00    -0.267 OA
HETATM   11  S1  UNL     1      16.275  20.667  19.514  1.00  0.00    -0.038 SA
ENDROOT
BRANCH   9  12
HETATM   12  C16 UNL     1      18.042  24.960  17.726  1.00  0.00     0.033 A 
HETATM   13  C17 UNL     1      19.320  24.970  18.245  1.00  0.00     0.017 A 
HETATM   14  C18 UNL     1      20.394  25.409  17.488  1.00  0.00     0.009 A 
HETATM   15  C19 UNL     1      20.164  25.839  16.199  1.00  0.00    -0.039 A 
HETATM   16  C20 UNL     1      18.891  25.829  15.685  1.00  0.00    -0.050 A 
HETATM   17  C24 UNL     1      21.059  26.360  15.133  1.00  0.00     0.111 C 
HETATM   18  C21 UNL     1      17.834  25.391  16.441  1.00  0.00     0.024 A 
HETATM   19  C22 UNL     1      18.907  26.351  14.265  1.00  0.00     0.040 C 
HETATM   20  C23 UNL     1      20.114  27.298  14.381  1.00  0.00     0.023 C 
BRANCH  17  21
HETATM   21  C25 UNL     1      22.260  27.034  15.594  1.00  0.00     0.226 C 
HETATM   22  O3  UNL     1      22.203  28.284  15.776  1.00  0.00    -0.273 OA
HETATM   23  N8  UNL     1      23.490  26.403  15.852  1.00  0.00    -0.352 N 
ATOM     24  H8  UNL     1      23.561  25.396  15.708  1.00  0.00     0.163 HD
BRANCH  23  25
HETATM   25  C26 UNL     1      24.666  27.123  16.315  1.00  0.00     0.022 C 
HETATM   26  C27 UNL     1      25.827  26.159  16.219  1.00  0.00     0.037 C 
HETATM   27  C28 UNL     1      24.978  28.319  15.444  1.00  0.00     0.037 C 
HETATM   28  C29 UNL     1      24.534  27.518  17.769  1.00  0.00     0.037 C 
ENDBRANCH  23  25
ENDBRANCH  17  21
ENDBRANCH   9  12
BRANCH   1  29
HETATM   29  C12 UNL     1      14.698  18.590  18.149  1.00  0.00     0.066 C 
BRANCH  29  30
HETATM   30  C11 UNL     1      14.346  17.776  19.309  1.00  0.00     0.006 C 
BRANCH  30  31
HETATM   31  C10 UNL     1      12.953  17.414  19.609  1.00  0.00     0.000 C 
BRANCH  31  32
HETATM   32  C9  UNL     1      11.945  18.476  19.631  1.00  0.00     0.000 C 
BRANCH  32  33
HETATM   33  C8  UNL     1      11.041  18.442  18.380  1.00  0.00     0.000 C 
BRANCH  33  34
HETATM   34  C7  UNL     1      11.217  19.617  17.495  1.00  0.00     0.002 C 
BRANCH  34  35
HETATM   35  C6  UNL     1      10.561  19.356  16.165  1.00  0.00     0.022 C 
BRANCH  35  36
HETATM   36  C5  UNL     1      10.765  20.536  15.252  1.00  0.00     0.150 C 
BRANCH  36  37
HETATM   37  N4  UNL     1      12.098  20.442  14.675  1.00  0.00    -0.280 N 
HETATM   38  C2  UNL     1      13.032  21.406  14.669  1.00  0.00     0.059 A 
HETATM   39  C1  UNL     1      12.876  22.760  15.256  1.00  0.00     0.072 C 
HETATM   40  C3  UNL     1      14.118  20.891  14.028  1.00  0.00     0.138 A 
HETATM   41  N2  UNL     1      13.805  19.634  13.668  1.00  0.00    -0.280 N 
HETATM   42  N3  UNL     1      12.571  19.372  14.069  1.00  0.00    -0.240 N 
ATOM     43  H2  UNL     1      14.418  18.989  13.169  1.00  0.00     0.189 HD
ATOM     44  H3  UNL     1      12.072  18.492  13.932  1.00  0.00     0.208 HD
BRANCH  40  45
HETATM   45  C4  UNL     1      15.371  21.553  13.775  1.00  0.00     0.284 C 
HETATM   46  N1  UNL     1      16.259  21.865  14.839  1.00  0.00    -0.056 NA
HETATM   47  O1  UNL     1      15.717  21.877  12.599  1.00  0.00    -0.269 OA
ENDBRANCH  40  45
ENDBRANCH  36  37
ENDBRANCH  35  36
ENDBRANCH  34  35
ENDBRANCH  33  34
ENDBRANCH  32  33
ENDBRANCH  31  32
ENDBRANCH  30  31
ENDBRANCH  29  30
ENDBRANCH   1  29
TORSDOF 13
ENDMDL
MODEL 2
REMARK VINA RESULT: -9.398833933      3.059      5.686
REMARK  13 active torsions:
REMARK  status: ('A' for Active; 'I' for Inactive)
REMARK    1  A    between atoms: C3_3  and  C4_4 
REMARK    2  A    between atoms: N4_11  and  C5_12 
REMARK    3  A    between atoms: C5_12  and  C6_13 
REMARK    4  A    between atoms: C6_13  and  C7_14 
REMARK    5  A    between atoms: C7_14  and  C8_15 
REMARK    6  A    between atoms: C8_15  and  C9_16 
REMARK    7  A    between atoms: C9_16  and  C10_17 
REMARK    8  A    between atoms: C10_17  and  C11_18 
REMARK    9  A    between atoms: C11_18  and  C12_19 
REMARK   10  A    between atoms: C12_19  and  C13_20 
REMARK       I    between atoms: N7_26  and  C15_28 
REMARK   11  A    between atoms: C15_28  and  C16_30 
REMARK   12  A    between atoms: C24_38  and  C25_39 
REMARK       I    between atoms: C25_39  and  N8_41 
REMARK   13  A    between atoms: N8_41  and  C26_43 
ROOT
HETATM    1  C13 UNL     1      14.952  21.139  18.190  1.00  0.00     0.069 A 
HETATM    2  N5  UNL     1      15.155  22.043  19.155  1.00  0.00    -0.296 N 
ATOM      3  H5  UNL     1      14.374  22.600  19.504  1.00  0.00     0.187 HD
HETATM    4  N6  UNL     1      16.306  22.207  19.634  1.00  0.00    -0.279 N 
ATOM      5  H6  UNL     1      16.462  22.897  20.369  1.00  0.00     0.189 HD
HETATM    6  C14 UNL     1      17.325  21.475  19.175  1.00  0.00     0.168 A 
HETATM    7  N7  UNL     1      18.583  21.518  19.556  1.00  0.00    -0.302 N 
ATOM      8  H7  UNL     1      19.269  20.900  19.124  1.00  0.00     0.171 HD
HETATM    9  C15 UNL     1      18.979  22.423  20.563  1.00  0.00     0.257 C 
HETATM   10  O2  UNL     1      18.630  22.236  21.774  1.00  0.00    -0.267 OA
HETATM   11  S1  UNL     1      16.538  20.523  18.003  1.00  0.00    -0.038 SA
ENDROOT
BRANCH   9  12
HETATM   12  C16 UNL     1      19.795  23.574  20.200  1.00  0.00     0.033 A 
HETATM   13  C17 UNL     1      20.405  23.682  18.969  1.00  0.00     0.017 A 
HETATM   14  C18 UNL     1      21.175  24.789  18.649  1.00  0.00     0.009 A 
HETATM   15  C19 UNL     1      21.322  25.788  19.587  1.00  0.00    -0.039 A 
HETATM   16  C20 UNL     1      20.714  25.677  20.813  1.00  0.00    -0.050 A 
HETATM   17  C24 UNL     1      22.056  27.080  19.581  1.00  0.00     0.111 C 
HETATM   18  C21 UNL     1      19.953  24.579  21.121  1.00  0.00     0.024 A 
HETATM   19  C22 UNL     1      21.034  26.891  21.655  1.00  0.00     0.040 C 
HETATM   20  C23 UNL     1      22.412  27.229  21.060  1.00  0.00     0.023 C 
BRANCH  17  21
HETATM   21  C25 UNL     1      23.223  27.137  18.719  1.00  0.00     0.226 C 
HETATM   22  O3  UNL     1      24.190  26.367  18.984  1.00  0.00    -0.273 OA
HETATM   23  N8  UNL     1      23.365  27.987  17.608  1.00  0.00    -0.352 N 
ATOM     24  H8  UNL     1      22.599  28.619  17.378  1.00  0.00     0.163 HD
BRANCH  23  25
HETATM   25  C26 UNL     1      24.555  28.005  16.773  1.00  0.00     0.022 C 
HETATM   26  C27 UNL     1      24.414  29.190  15.845  1.00  0.00     0.037 C 
HETATM   27  C28 UNL     1      25.816  28.196  17.587  1.00  0.00     0.037 C 
HETATM   28  C29 UNL     1      24.641  26.768  15.907  1.00  0.00     0.037 C 
ENDBRANCH  23  25
ENDBRANCH  17  21
ENDBRANCH   9  12
BRANCH   1  29
HETATM   29  C12 UNL     1      13.666  20.917  17.497  1.00  0.00     0.066 C 
BRANCH  29  30
HETATM   30  C11 UNL     1      13.669  20.739  16.048  1.00  0.00     0.006 C 
BRANCH  30  31
HETATM   31  C10 UNL     1      13.439  21.863  15.128  1.00  0.00     0.000 C 
BRANCH  31  32
HETATM   32  C9  UNL     1      13.984  23.176  15.479  1.00  0.00     0.000 C 
BRANCH  32  33
HETATM   33  C8  UNL     1      15.525  23.202  15.398  1.00  0.00     0.000 C 
BRANCH  33  34
HETATM   34  C7  UNL     1      16.150  24.126  16.372  1.00  0.00     0.002 C 
BRANCH  34  35
HETATM   35  C6  UNL     1      17.618  23.813  16.503  1.00  0.00     0.022 C 
BRANCH  35  36
HETATM   36  C5  UNL     1      18.246  23.725  15.137  1.00  0.00     0.150 C 
BRANCH  36  37
HETATM   37  N4  UNL     1      19.401  24.612  15.107  1.00  0.00    -0.280 N 
HETATM   38  C2  UNL     1      19.390  25.921  14.810  1.00  0.00     0.059 A 
HETATM   39  C1  UNL     1      18.187  26.714  14.453  1.00  0.00     0.072 C 
HETATM   40  C3  UNL     1      20.680  26.351  14.901  1.00  0.00     0.138 A 
HETATM   41  N2  UNL     1      21.426  25.288  15.251  1.00  0.00    -0.280 N 
HETATM   42  N3  UNL     1      20.635  24.234  15.374  1.00  0.00    -0.240 N 
ATOM     43  H2  UNL     1      22.435  25.294  15.397  1.00  0.00     0.189 HD
ATOM     44  H3  UNL     1      20.929  23.292  15.631  1.00  0.00     0.208 HD
BRANCH  40  45
HETATM   45  C4  UNL     1      21.169  27.685  14.672  1.00  0.00     0.284 C 
HETATM   46  N1  UNL     1      20.954  28.714  15.626  1.00  0.00    -0.056 NA
HETATM   47  O1  UNL     1      21.802  27.979  13.614  1.00  0.00    -0.269 OA
ENDBRANCH  40  45
ENDBRANCH  36  37
ENDBRANCH  35  36
ENDBRANCH  34  35
ENDBRANCH  33  34
ENDBRANCH  32  33
ENDBRANCH  31  32
ENDBRANCH  30  31
ENDBRANCH  29  30
ENDBRANCH   1  29
TORSDOF 13
ENDMDL
MODEL 3
REMARK VINA RESULT: -9.315654273      2.349      3.983
REMARK  13 active torsions:
REMARK  status: ('A' for Active; 'I' for Inactive)
REMARK    1  A    between atoms: C3_3  and  C4_4 
REMARK    2  A    between atoms: N4_11  and  C5_12 
REMARK    3  A    between atoms: C5_12  and  C6_13 
REMARK    4  A    between atoms: C6_13  and  C7_14 
REMARK    5  A    between atoms: C7_14  and  C8_15 
REMARK    6  A    between atoms: C8_15  and  C9_16 
REMARK    7  A    between atoms: C9_16  and  C10_17 
REMARK    8  A    between atoms: C10_17  and  C11_18 
REMARK    9  A    between atoms: C11_18  and  C12_19 
REMARK   10  A    between atoms: C12_19  and  C13_20 
REMARK       I    between atoms: N7_26  and  C15_28 
REMARK   11  A    between atoms: C15_28  and  C16_30 
REMARK   12  A    between atoms: C24_38  and  C25_39 
REMARK       I    between atoms: C25_39  and  N8_41 
REMARK   13  A    between atoms: N8_41  and  C26_43 
ROOT
HETATM    1  C13 UNL     1      13.074  21.619  15.245  1.00  0.00     0.069 A 
HETATM    2  N5  UNL     1      13.216  22.935  15.435  1.00  0.00    -0.296 N 
ATOM      3  H5  UNL     1      12.560  23.586  15.002  1.00  0.00     0.187 HD
HETATM    4  N6  UNL     1      14.157  23.372  16.146  1.00  0.00    -0.279 N 
ATOM      5  H6  UNL     1      14.266  24.376  16.290  1.00  0.00     0.189 HD
HETATM    6  C14 UNL     1      15.012  22.516  16.711  1.00  0.00     0.168 A 
HETATM    7  N7  UNL     1      16.046  22.796  17.474  1.00  0.00    -0.302 N 
ATOM      8  H7  UNL     1      16.624  22.045  17.848  1.00  0.00     0.171 HD
HETATM    9  C15 UNL     1      16.350  24.141  17.775  1.00  0.00     0.257 C 
HETATM   10  O2  UNL     1      15.603  24.815  18.556  1.00  0.00    -0.267 OA
HETATM   11  S1  UNL     1      14.392  21.028  16.163  1.00  0.00    -0.038 SA
ENDROOT
BRANCH   9  12
HETATM   12  C16 UNL     1      17.532  24.749  17.179  1.00  0.00     0.033 A 
HETATM   13  C17 UNL     1      18.761  24.732  17.804  1.00  0.00     0.017 A 
HETATM   14  C18 UNL     1      19.870  25.317  17.214  1.00  0.00     0.009 A 
HETATM   15  C19 UNL     1      19.725  25.922  15.984  1.00  0.00    -0.039 A 
HETATM   16  C20 UNL     1      18.499  25.939  15.365  1.00  0.00    -0.050 A 
HETATM   17  C24 UNL     1      20.676  26.627  15.087  1.00  0.00     0.111 C 
HETATM   18  C21 UNL     1      17.408  25.356  15.955  1.00  0.00     0.024 A 
HETATM   19  C22 UNL     1      18.605  26.663  14.041  1.00  0.00     0.040 C 
HETATM   20  C23 UNL     1      19.750  27.628  14.396  1.00  0.00     0.023 C 
BRANCH  17  21
HETATM   21  C25 UNL     1      21.801  27.271  15.742  1.00  0.00     0.226 C 
HETATM   22  O3  UNL     1      21.565  28.291  16.452  1.00  0.00    -0.273 OA
HETATM   23  N8  UNL     1      23.139  26.850  15.648  1.00  0.00    -0.352 N 
ATOM     24  H8  UNL     1      23.353  26.032  15.077  1.00  0.00     0.163 HD
BRANCH  23  25
HETATM   25  C26 UNL     1      24.231  27.528  16.327  1.00  0.00     0.022 C 
HETATM   26  C27 UNL     1      25.505  26.837  15.894  1.00  0.00     0.037 C 
HETATM   27  C28 UNL     1      24.330  28.983  15.927  1.00  0.00     0.037 C 
HETATM   28  C29 UNL     1      24.129  27.374  17.828  1.00  0.00     0.037 C 
ENDBRANCH  23  25
ENDBRANCH  17  21
ENDBRANCH   9  12
BRANCH   1  29
HETATM   29  C12 UNL     1      12.061  20.997  14.367  1.00  0.00     0.066 C 
BRANCH  29  30
HETATM   30  C11 UNL     1      10.723  21.579  14.313  1.00  0.00     0.006 C 
BRANCH  30  31
HETATM   31  C10 UNL     1       9.623  20.931  13.583  1.00  0.00     0.000 C 
BRANCH  31  32
HETATM   32  C9  UNL     1       9.955  20.022  12.484  1.00  0.00     0.000 C 
BRANCH  32  33
HETATM   33  C8  UNL     1       9.652  18.551  12.838  1.00  0.00     0.000 C 
BRANCH  33  34
HETATM   34  C7  UNL     1      10.869  17.720  12.997  1.00  0.00     0.002 C 
BRANCH  34  35
HETATM   35  C6  UNL     1      10.743  16.861  14.227  1.00  0.00     0.022 C 
BRANCH  35  36
HETATM   36  C5  UNL     1      10.025  17.620  15.311  1.00  0.00     0.150 C 
BRANCH  36  37
HETATM   37  N4  UNL     1      10.820  17.539  16.529  1.00  0.00    -0.280 N 
HETATM   38  C2  UNL     1      11.033  18.533  17.407  1.00  0.00     0.059 A 
HETATM   39  C1  UNL     1      10.493  19.911  17.297  1.00  0.00     0.072 C 
HETATM   40  C3  UNL     1      11.828  18.020  18.388  1.00  0.00     0.138 A 
HETATM   41  N2  UNL     1      12.067  16.736  18.071  1.00  0.00    -0.280 N 
HETATM   42  N3  UNL     1      11.447  16.454  16.936  1.00  0.00    -0.240 N 
ATOM     43  H2  UNL     1      12.633  16.086  18.615  1.00  0.00     0.189 HD
ATOM     44  H3  UNL     1      11.453  15.553  16.458  1.00  0.00     0.208 HD
BRANCH  40  45
HETATM   45  C4  UNL     1      12.325  18.708  19.550  1.00  0.00     0.284 C 
HETATM   46  N1  UNL     1      13.625  19.279  19.558  1.00  0.00    -0.056 NA
HETATM   47  O1  UNL     1      11.620  18.824  20.597  1.00  0.00    -0.269 OA
ENDBRANCH  40  45
ENDBRANCH  36  37
ENDBRANCH  35  36
ENDBRANCH  34  35
ENDBRANCH  33  34
ENDBRANCH  32  33
ENDBRANCH  31  32
ENDBRANCH  30  31
ENDBRANCH  29  30
ENDBRANCH   1  29
TORSDOF 13
ENDMDL
MODEL 4
REMARK VINA RESULT: -9.305873931      1.593      2.199
REMARK  13 active torsions:
REMARK  status: ('A' for Active; 'I' for Inactive)
REMARK    1  A    between atoms: C3_3  and  C4_4 
REMARK    2  A    between atoms: N4_11  and  C5_12 
REMARK    3  A    between atoms: C5_12  and  C6_13 
REMARK    4  A    between atoms: C6_13  and  C7_14 
REMARK    5  A    between atoms: C7_14  and  C8_15 
REMARK    6  A    between atoms: C8_15  and  C9_16 
REMARK    7  A    between atoms: C9_16  and  C10_17 
REMARK    8  A    between atoms: C10_17  and  C11_18 
REMARK    9  A    between atoms: C11_18  and  C12_19 
REMARK   10  A    between atoms: C12_19  and  C13_20 
REMARK       I    between atoms: N7_26  and  C15_28 
REMARK   11  A    between atoms: C15_28  and  C16_30 
REMARK   12  A    between atoms: C24_38  and  C25_39 
REMARK       I    between atoms: C25_39  and  N8_41 
REMARK   13  A    between atoms: N8_41  and  C26_43 
ROOT
HETATM    1  C13 UNL     1      14.081  18.840  18.610  1.00  0.00     0.069 A 
HETATM    2  N5  UNL     1      14.218  19.594  17.513  1.00  0.00    -0.296 N 
ATOM      3  H5  UNL     1      14.106  19.174  16.589  1.00  0.00     0.187 HD
HETATM    4  N6  UNL     1      14.486  20.818  17.617  1.00  0.00    -0.279 N 
ATOM      5  H6  UNL     1      14.592  21.393  16.781  1.00  0.00     0.189 HD
HETATM    6  C14 UNL     1      14.632  21.363  18.828  1.00  0.00     0.168 A 
HETATM    7  N7  UNL     1      14.914  22.614  19.120  1.00  0.00    -0.302 N 
ATOM      8  H7  UNL     1      14.998  22.906  20.093  1.00  0.00     0.171 HD
HETATM    9  C15 UNL     1      15.100  23.550  18.081  1.00  0.00     0.257 C 
HETATM   10  O2  UNL     1      14.111  23.946  17.382  1.00  0.00    -0.267 OA
HETATM   11  S1  UNL     1      14.362  20.010  19.827  1.00  0.00    -0.038 SA
ENDROOT
BRANCH   9  12
HETATM   12  C16 UNL     1      16.439  24.059  17.818  1.00  0.00     0.033 A 
HETATM   13  C17 UNL     1      17.417  24.089  18.789  1.00  0.00     0.017 A 
HETATM   14  C18 UNL     1      18.684  24.577  18.512  1.00  0.00     0.009 A 
HETATM   15  C19 UNL     1      18.953  25.037  17.240  1.00  0.00    -0.039 A 
HETATM   16  C20 UNL     1      17.977  25.007  16.275  1.00  0.00    -0.050 A 
HETATM   17  C24 UNL     1      20.170  25.611  16.610  1.00  0.00     0.111 C 
HETATM   18  C21 UNL     1      16.727  24.520  16.558  1.00  0.00     0.024 A 
HETATM   19  C22 UNL     1      18.520  25.568  14.980  1.00  0.00     0.040 C 
HETATM   20  C23 UNL     1      19.555  26.544  15.567  1.00  0.00     0.023 C 
BRANCH  17  21
HETATM   21  C25 UNL     1      21.077  26.303  17.509  1.00  0.00     0.226 C 
HETATM   22  O3  UNL     1      20.917  27.548  17.665  1.00  0.00    -0.273 OA
HETATM   23  N8  UNL     1      22.126  25.697  18.221  1.00  0.00    -0.352 N 
ATOM     24  H8  UNL     1      22.276  24.695  18.108  1.00  0.00     0.163 HD
BRANCH  23  25
HETATM   25  C26 UNL     1      23.007  26.434  19.113  1.00  0.00     0.022 C 
HETATM   26  C27 UNL     1      23.781  25.404  19.905  1.00  0.00     0.037 C 
HETATM   27  C28 UNL     1      24.002  27.283  18.352  1.00  0.00     0.037 C 
HETATM   28  C29 UNL     1      22.222  27.261  20.105  1.00  0.00     0.037 C 
ENDBRANCH  23  25
ENDBRANCH  17  21
ENDBRANCH   9  12
BRANCH   1  29
HETATM   29  C12 UNL     1      13.850  17.381  18.609  1.00  0.00     0.066 C 
BRANCH  29  30
HETATM   30  C11 UNL     1      12.529  16.877  18.976  1.00  0.00     0.006 C 
BRANCH  30  31
HETATM   31  C10 UNL     1      11.302  17.385  18.343  1.00  0.00     0.000 C 
BRANCH  31  32
HETATM   32  C9  UNL     1      10.864  16.782  17.083  1.00  0.00     0.000 C 
BRANCH  32  33
HETATM   33  C8  UNL     1      10.483  17.847  16.033  1.00  0.00     0.000 C 
BRANCH  33  34
HETATM   34  C7  UNL     1      10.596  19.236  16.536  1.00  0.00     0.002 C 
BRANCH  34  35
HETATM   35  C6  UNL     1       9.776  20.159  15.673  1.00  0.00     0.022 C 
BRANCH  35  36
HETATM   36  C5  UNL     1      10.428  20.314  14.325  1.00  0.00     0.150 C 
BRANCH  36  37
HETATM   37  N4  UNL     1      11.686  21.024  14.504  1.00  0.00    -0.280 N 
HETATM   38  C2  UNL     1      12.890  20.636  14.054  1.00  0.00     0.059 A 
HETATM   39  C1  UNL     1      13.163  19.398  13.282  1.00  0.00     0.072 C 
HETATM   40  C3  UNL     1      13.778  21.591  14.446  1.00  0.00     0.138 A 
HETATM   41  N2  UNL     1      13.082  22.524  15.120  1.00  0.00    -0.280 N 
HETATM   42  N3  UNL     1      11.808  22.167  15.148  1.00  0.00    -0.240 N 
ATOM     43  H2  UNL     1      13.473  23.367  15.539  1.00  0.00     0.189 HD
ATOM     44  H3  UNL     1      11.051  22.688  15.591  1.00  0.00     0.208 HD
BRANCH  40  45
HETATM   45  C4  UNL     1      15.195  21.614  14.196  1.00  0.00     0.284 C 
HETATM   46  N1  UNL     1      16.126  21.458  15.257  1.00  0.00    -0.056 NA
HETATM   47  O1  UNL     1      15.653  21.773  13.025  1.00  0.00    -0.269 OA
ENDBRANCH  40  45
ENDBRANCH  36  37
ENDBRANCH  35  36
ENDBRANCH  34  35
ENDBRANCH  33  34
ENDBRANCH  32  33
ENDBRANCH  31  32
ENDBRANCH  30  31
ENDBRANCH  29  30
ENDBRANCH   1  29
TORSDOF 13
ENDMDL
MODEL 5
REMARK VINA RESULT: -9.231024768      2.624     11.279
REMARK  13 active torsions:
REMARK  status: ('A' for Active; 'I' for Inactive)
REMARK    1  A    between atoms: C3_3  and  C4_4 
REMARK    2  A    between atoms: N4_11  and  C5_12 
REMARK    3  A    between atoms: C5_12  and  C6_13 
REMARK    4  A    between atoms: C6_13  and  C7_14 
REMARK    5  A    between atoms: C7_14  and  C8_15 
REMARK    6  A    between atoms: C8_15  and  C9_16 
REMARK    7  A    between atoms: C9_16  and  C10_17 
REMARK    8  A    between atoms: C10_17  and  C11_18 
REMARK    9  A    between atoms: C11_18  and  C12_19 
REMARK   10  A    between atoms: C12_19  and  C13_20 
REMARK       I    between atoms: N7_26  and  C15_28 
REMARK   11  A    between atoms: C15_28  and  C16_30 
REMARK   12  A    between atoms: C24_38  and  C25_39 
REMARK       I    between atoms: C25_39  and  N8_41 
REMARK   13  A    between atoms: N8_41  and  C26_43 
ROOT
HETATM    1  C13 UNL     1      19.496  24.597  16.112  1.00  0.00     0.069 A 
HETATM    2  N5  UNL     1      19.388  23.363  16.616  1.00  0.00    -0.296 N 
ATOM      3  H5  UNL     1      20.141  22.688  16.478  1.00  0.00     0.187 HD
HETATM    4  N6  UNL     1      18.360  23.032  17.260  1.00  0.00    -0.279 N 
ATOM      5  H6  UNL     1      18.276  22.091  17.644  1.00  0.00     0.189 HD
HETATM    6  C14 UNL     1      17.377  23.919  17.440  1.00  0.00     0.168 A 
HETATM    7  N7  UNL     1      16.241  23.744  18.078  1.00  0.00    -0.302 N 
ATOM      8  H7  UNL     1      15.569  24.508  18.146  1.00  0.00     0.171 HD
HETATM    9  C15 UNL     1      15.955  22.495  18.669  1.00  0.00     0.257 C 
HETATM   10  O2  UNL     1      16.586  22.111  19.707  1.00  0.00    -0.267 OA
HETATM   11  S1  UNL     1      18.010  25.274  16.625  1.00  0.00    -0.038 SA
ENDROOT
BRANCH   9  12
HETATM   12  C16 UNL     1      14.927  21.650  18.076  1.00  0.00     0.033 A 
HETATM   13  C17 UNL     1      14.696  21.620  16.717  1.00  0.00     0.017 A 
HETATM   14  C18 UNL     1      13.712  20.806  16.179  1.00  0.00     0.009 A 
HETATM   15  C19 UNL     1      12.962  20.022  17.030  1.00  0.00    -0.039 A 
HETATM   16  C20 UNL     1      13.194  20.055  18.383  1.00  0.00    -0.050 A 
HETATM   17  C24 UNL     1      11.856  19.056  16.802  1.00  0.00     0.111 C 
HETATM   18  C21 UNL     1      14.171  20.862  18.907  1.00  0.00     0.024 A 
HETATM   19  C22 UNL     1      12.242  19.116  19.089  1.00  0.00     0.040 C 
HETATM   20  C23 UNL     1      11.064  19.196  18.102  1.00  0.00     0.023 C 
BRANCH  17  21
HETATM   21  C25 UNL     1      11.041  19.299  15.625  1.00  0.00     0.226 C 
HETATM   22  O3  UNL     1       9.864  19.728  15.801  1.00  0.00    -0.273 OA
HETATM   23  N8  UNL     1      11.457  19.090  14.299  1.00  0.00    -0.352 N 
ATOM     24  H8  UNL     1      12.400  18.740  14.133  1.00  0.00     0.163 HD
BRANCH  23  25
HETATM   25  C26 UNL     1      10.602  19.352  13.152  1.00  0.00     0.022 C 
HETATM   26  C27 UNL     1      11.492  19.303  11.930  1.00  0.00     0.037 C 
HETATM   27  C28 UNL     1       9.530  18.297  12.991  1.00  0.00     0.037 C 
HETATM   28  C29 UNL     1      10.004  20.740  13.213  1.00  0.00     0.037 C 
ENDBRANCH  23  25
ENDBRANCH  17  21
ENDBRANCH   9  12
BRANCH   1  29
HETATM   29  C12 UNL     1      20.616  25.071  15.271  1.00  0.00     0.066 C 
BRANCH  29  30
HETATM   30  C11 UNL     1      20.318  25.893  14.102  1.00  0.00     0.006 C 
BRANCH  30  31
HETATM   31  C10 UNL     1      19.805  27.266  14.228  1.00  0.00     0.000 C 
BRANCH  31  32
HETATM   32  C9  UNL     1      20.688  28.292  14.787  1.00  0.00     0.000 C 
BRANCH  32  33
HETATM   33  C8  UNL     1      22.084  28.273  14.131  1.00  0.00     0.000 C 
BRANCH  33  34
HETATM   34  C7  UNL     1      23.186  28.545  15.083  1.00  0.00     0.002 C 
BRANCH  34  35
HETATM   35  C6  UNL     1      23.590  27.268  15.774  1.00  0.00     0.022 C 
BRANCH  35  36
HETATM   36  C5  UNL     1      23.939  27.551  17.211  1.00  0.00     0.150 C 
BRANCH  36  37
HETATM   37  N4  UNL     1      23.375  26.493  18.036  1.00  0.00    -0.280 N 
HETATM   38  C2  UNL     1      22.110  26.420  18.481  1.00  0.00     0.059 A 
HETATM   39  C1  UNL     1      21.043  27.416  18.212  1.00  0.00     0.072 C 
HETATM   40  C3  UNL     1      22.020  25.273  19.211  1.00  0.00     0.138 A 
HETATM   41  N2  UNL     1      23.232  24.691  19.182  1.00  0.00    -0.280 N 
HETATM   42  N3  UNL     1      24.049  25.444  18.462  1.00  0.00    -0.240 N 
ATOM     43  H2  UNL     1      23.481  23.814  19.639  1.00  0.00     0.189 HD
ATOM     44  H3  UNL     1      25.032  25.247  18.270  1.00  0.00     0.208 HD
BRANCH  40  45
HETATM   45  C4  UNL     1      20.858  24.765  19.890  1.00  0.00     0.284 C 
HETATM   46  N1  UNL     1      20.394  25.365  21.090  1.00  0.00    -0.056 NA
HETATM   47  O1  UNL     1      20.216  23.769  19.438  1.00  0.00    -0.269 OA
ENDBRANCH  40  45
ENDBRANCH  36  37
ENDBRANCH  35  36
ENDBRANCH  34  35
ENDBRANCH  33  34
ENDBRANCH  32  33
ENDBRANCH  31  32
ENDBRANCH  30  31
ENDBRANCH  29  30
ENDBRANCH   1  29
TORSDOF 13
ENDMDL
