MODEL 1
REMARK VINA RESULT: -8.444666485      0.000      0.000
REMARK  13 active torsions:
REMARK  status: ('A' for Active; 'I' for Inactive)
REMARK    1  A    between atoms: N2_9  and  C6_10 
REMARK    2  A    between atoms: C6_10  and  C7_11 
REMARK    3  A    between atoms: C7_11  and  O1_12 
REMARK    4  A    between atoms: O1_12  and  N3_13 
REMARK    5  A    between atoms: N5_18  and  S1_19 
REMARK    6  A    between atoms: S1_19  and  C9_21 
REMARK    7  A    between atoms: C9_21  and  C10_22 
REMARK    8  A    between atoms: C20_32  and  C21_33 
REMARK    9  A    between atoms: C22_34  and  C23_35 
REMARK   10  A    between atoms: C22_34  and  C26_40 
REMARK   11  A    between atoms: C23_35  and  C24_36 
REMARK   12  A    between atoms: C24_36  and  C25_37 
REMARK   13  A    between atoms: C25_37  and  O3_38 
ROOT
HETATM    1  N3  UNL     1      18.985  25.237  16.397  1.00  0.00    -0.077 N 
HETATM    2  C8  UNL     1      19.354  26.211  15.436  1.00  0.00     0.708 C 
HETATM    3  N4  UNL     1      18.682  26.449  14.383  1.00  0.00    -0.232 N 
ATOM      4  H41 UNL     1      18.948  27.150  13.691  1.00  0.00     0.174 HD
ATOM      5  H42 UNL     1      17.819  25.990  14.090  1.00  0.00     0.174 HD
HETATM    6  N5  UNL     1      20.556  26.850  15.844  1.00  0.00    -0.126 N 
HETATM    7  C19 UNL     1      20.576  26.638  17.292  1.00  0.00     0.190 C 
HETATM    8  C20 UNL     1      20.137  25.200  17.353  1.00  0.00     0.176 C 
ENDROOT
BRANCH   8   9
HETATM    9  C21 UNL     1      19.676  24.777  18.667  1.00  0.00     0.011 C 
HETATM   10  C22 UNL     1      20.165  24.756  19.854  1.00  0.00    -0.048 C 
BRANCH  10  11
HETATM   11  C23 UNL     1      19.242  24.185  20.920  1.00  0.00     0.041 C 
BRANCH  11  12
HETATM   12  C24 UNL     1      18.259  23.213  20.372  1.00  0.00     0.030 C 
BRANCH  12  13
HETATM   13  C25 UNL     1      18.760  21.795  20.686  1.00  0.00     0.164 C 
BRANCH  13  14
HETATM   14  O3  UNL     1      19.127  21.200  19.473  1.00  0.00    -0.401 OA
ATOM     15  H3  UNL     1      18.392  20.673  19.179  1.00  0.00     0.209 HD
ENDBRANCH  13  14
ENDBRANCH  12  13
ENDBRANCH  11  12
ENDBRANCH  10  11
BRANCH  10  16
HETATM   16  C26 UNL     1      21.433  25.261  20.293  1.00  0.00    -0.015 A 
HETATM   17  C27 UNL     1      22.674  24.870  19.887  1.00  0.00     0.014 A 
HETATM   18  C28 UNL     1      23.809  25.406  20.457  1.00  0.00     0.018 A 
HETATM   19  C29 UNL     1      23.763  26.353  21.456  1.00  0.00     0.087 A 
HETATM   20  N6  UNL     1      22.549  26.737  21.853  1.00  0.00    -0.374 N 
HETATM   21  C30 UNL     1      21.441  26.239  21.322  1.00  0.00     0.099 A 
ATOM     22  H6  UNL     1      22.470  27.438  22.590  1.00  0.00     0.164 HD
ENDBRANCH  10  16
ENDBRANCH   8   9
BRANCH   1  23
HETATM   23  O1  UNL     1      17.942  24.454  16.580  1.00  0.00    -0.262 OA
BRANCH  23  24
HETATM   24  C7  UNL     1      17.953  23.214  16.011  1.00  0.00     0.232 C 
BRANCH  24  25
HETATM   25  C6  UNL     1      17.030  22.247  16.741  1.00  0.00     0.301 C 
BRANCH  25  26
HETATM   26  N2  UNL     1      15.695  22.463  16.253  1.00  0.00     0.098 N 
HETATM   27  C2  UNL     1      15.053  21.291  15.747  1.00  0.00     0.244 C 
HETATM   28  C1  UNL     1      14.900  21.480  14.238  1.00  0.00     0.045 C 
HETATM   29  C3  UNL     1      13.666  21.199  16.309  1.00  0.00     0.267 C 
HETATM   30  N1  UNL     1      13.666  21.143  17.760  1.00  0.00    -0.071 N 
HETATM   31  C4  UNL     1      14.420  22.245  18.329  1.00  0.00     0.262 C 
ATOM     32  H12 UNL     1      12.718  21.106  18.133  1.00  0.00     0.277 HD
ATOM     33  H11 UNL     1      14.004  20.242  18.099  1.00  0.00     0.277 HD
HETATM   34  C5  UNL     1      14.891  23.175  17.235  1.00  0.00     0.300 C 
ENDBRANCH  25  26
ENDBRANCH  24  25
ENDBRANCH  23  24
ENDBRANCH   1  23
BRANCH   6  35
HETATM   35  S1  UNL     1      21.767  27.699  14.868  1.00  0.00     0.131 S 
HETATM   36  O2  UNL     1      20.933  28.673  14.009  1.00  0.00    -0.235 OA
BRANCH  35  37
HETATM   37  C9  UNL     1      22.863  28.614  15.892  1.00  0.00     0.143 C 
BRANCH  37  38
HETATM   38  C10 UNL     1      24.119  28.049  16.334  1.00  0.00    -0.021 C 
HETATM   39  C11 UNL     1      24.432  26.653  15.834  1.00  0.00     0.011 C 
HETATM   40  C12 UNL     1      25.894  26.446  16.259  1.00  0.00     0.006 C 
HETATM   41  C13 UNL     1      26.274  27.723  16.961  1.00  0.00    -0.006 C 
HETATM   42  C14 UNL     1      25.567  27.783  18.261  1.00  0.00     0.006 C 
HETATM   43  C16 UNL     1      25.413  28.729  16.142  1.00  0.00    -0.036 C 
HETATM   44  C15 UNL     1      24.112  27.878  17.886  1.00  0.00     0.011 C 
HETATM   45  C17 UNL     1      26.008  28.698  14.763  1.00  0.00     0.016 C 
HETATM   46  C18 UNL     1      25.516  30.107  16.729  1.00  0.00     0.016 C 
ENDBRANCH  37  38
ENDBRANCH  35  37
ENDBRANCH   6  35
TORSDOF 13
ENDMDL
MODEL 2
REMARK VINA RESULT: -8.379972087      0.628      1.087
REMARK  13 active torsions:
REMARK  status: ('A' for Active; 'I' for Inactive)
REMARK    1  A    between atoms: N2_9  and  C6_10 
REMARK    2  A    between atoms: C6_10  and  C7_11 
REMARK    3  A    between atoms: C7_11  and  O1_12 
REMARK    4  A    between atoms: O1_12  and  N3_13 
REMARK    5  A    between atoms: N5_18  and  S1_19 
REMARK    6  A    between atoms: S1_19  and  C9_21 
REMARK    7  A    between atoms: C9_21  and  C10_22 
REMARK    8  A    between atoms: C20_32  and  C21_33 
REMARK    9  A    between atoms: C22_34  and  C23_35 
REMARK   10  A    between atoms: C22_34  and  C26_40 
REMARK   11  A    between atoms: C23_35  and  C24_36 
REMARK   12  A    between atoms: C24_36  and  C25_37 
REMARK   13  A    between atoms: C25_37  and  O3_38 
ROOT
HETATM    1  N3  UNL     1      18.882  25.261  16.397  1.00  0.00    -0.077 N 
HETATM    2  C8  UNL     1      19.270  26.234  15.441  1.00  0.00     0.708 C 
HETATM    3  N4  UNL     1      18.593  26.501  14.398  1.00  0.00    -0.232 N 
ATOM      4  H41 UNL     1      18.872  27.201  13.711  1.00  0.00     0.174 HD
ATOM      5  H42 UNL     1      17.714  26.071  14.111  1.00  0.00     0.174 HD
HETATM    6  N5  UNL     1      20.494  26.833  15.842  1.00  0.00    -0.126 N 
HETATM    7  C19 UNL     1      20.524  26.605  17.288  1.00  0.00     0.190 C 
HETATM    8  C20 UNL     1      20.043  25.181  17.340  1.00  0.00     0.176 C 
ENDROOT
BRANCH   8   9
HETATM    9  C21 UNL     1      19.585  24.758  18.654  1.00  0.00     0.011 C 
HETATM   10  C22 UNL     1      20.074  24.744  19.842  1.00  0.00    -0.048 C 
BRANCH  10  11
HETATM   11  C23 UNL     1      19.154  24.170  20.909  1.00  0.00     0.041 C 
BRANCH  11  12
HETATM   12  C24 UNL     1      18.197  23.168  20.367  1.00  0.00     0.030 C 
BRANCH  12  13
HETATM   13  C25 UNL     1      18.723  21.766  20.712  1.00  0.00     0.164 C 
BRANCH  13  14
HETATM   14  O3  UNL     1      19.387  21.276  19.581  1.00  0.00    -0.401 OA
ATOM     15  H3  UNL     1      19.965  20.579  19.869  1.00  0.00     0.209 HD
ENDBRANCH  13  14
ENDBRANCH  12  13
ENDBRANCH  11  12
ENDBRANCH  10  11
BRANCH  10  16
HETATM   16  C26 UNL     1      21.337  25.261  20.280  1.00  0.00    -0.015 A 
HETATM   17  C27 UNL     1      22.582  24.859  19.898  1.00  0.00     0.014 A 
HETATM   18  C28 UNL     1      23.711  25.410  20.466  1.00  0.00     0.018 A 
HETATM   19  C29 UNL     1      23.655  26.384  21.437  1.00  0.00     0.087 A 
HETATM   20  N6  UNL     1      22.437  26.779  21.812  1.00  0.00    -0.374 N 
HETATM   21  C30 UNL     1      21.334  26.267  21.283  1.00  0.00     0.099 A 
ATOM     22  H6  UNL     1      22.351  27.499  22.529  1.00  0.00     0.164 HD
ENDBRANCH  10  16
ENDBRANCH   8   9
BRANCH   1  23
HETATM   23  O1  UNL     1      17.819  24.507  16.584  1.00  0.00    -0.262 OA
BRANCH  23  24
HETATM   24  C7  UNL     1      17.585  23.486  15.710  1.00  0.00     0.232 C 
BRANCH  24  25
HETATM   25  C6  UNL     1      16.095  23.243  15.509  1.00  0.00     0.301 C 
BRANCH  25  26
HETATM   26  N2  UNL     1      15.851  21.839  15.702  1.00  0.00     0.098 N 
HETATM   27  C2  UNL     1      15.466  21.483  17.032  1.00  0.00     0.244 C 
HETATM   28  C1  UNL     1      16.613  20.665  17.625  1.00  0.00     0.045 C 
HETATM   29  C3  UNL     1      14.276  20.573  16.981  1.00  0.00     0.267 C 
HETATM   30  N1  UNL     1      13.143  21.192  16.316  1.00  0.00    -0.071 N 
HETATM   31  C4  UNL     1      13.511  21.693  15.005  1.00  0.00     0.262 C 
ATOM     32  H12 UNL     1      12.346  20.557  16.265  1.00  0.00     0.277 HD
ATOM     33  H11 UNL     1      12.724  21.922  16.893  1.00  0.00     0.277 HD
HETATM   34  C5  UNL     1      14.941  21.325  14.688  1.00  0.00     0.300 C 
ENDBRANCH  25  26
ENDBRANCH  24  25
ENDBRANCH  23  24
ENDBRANCH   1  23
BRANCH   6  35
HETATM   35  S1  UNL     1      21.719  27.656  14.861  1.00  0.00     0.131 S 
HETATM   36  O2  UNL     1      20.899  28.621  13.979  1.00  0.00    -0.235 OA
BRANCH  35  37
HETATM   37  C9  UNL     1      22.814  28.580  15.877  1.00  0.00     0.143 C 
BRANCH  37  38
HETATM   38  C10 UNL     1      24.071  28.021  16.323  1.00  0.00    -0.021 C 
HETATM   39  C11 UNL     1      24.399  26.633  15.810  1.00  0.00     0.011 C 
HETATM   40  C12 UNL     1      25.859  26.433  16.245  1.00  0.00     0.006 C 
HETATM   41  C13 UNL     1      26.224  27.706  16.962  1.00  0.00    -0.006 C 
HETATM   42  C14 UNL     1      25.507  27.747  18.258  1.00  0.00     0.006 C 
HETATM   43  C16 UNL     1      25.361  28.713  16.148  1.00  0.00    -0.036 C 
HETATM   44  C15 UNL     1      24.053  27.833  17.873  1.00  0.00     0.011 C 
HETATM   45  C17 UNL     1      25.966  28.701  14.773  1.00  0.00     0.016 C 
HETATM   46  C18 UNL     1      25.449  30.086  16.749  1.00  0.00     0.016 C 
ENDBRANCH  37  38
ENDBRANCH  35  37
ENDBRANCH   6  35
TORSDOF 13
ENDMDL
MODEL 3
REMARK VINA RESULT: -8.273672535      3.849      8.174
REMARK  13 active torsions:
REMARK  status: ('A' for Active; 'I' for Inactive)
REMARK    1  A    between atoms: N2_9  and  C6_10 
REMARK    2  A    between atoms: C6_10  and  C7_11 
REMARK    3  A    between atoms: C7_11  and  O1_12 
REMARK    4  A    between atoms: O1_12  and  N3_13 
REMARK    5  A    between atoms: N5_18  and  S1_19 
REMARK    6  A    between atoms: S1_19  and  C9_21 
REMARK    7  A    between atoms: C9_21  and  C10_22 
REMARK    8  A    between atoms: C20_32  and  C21_33 
REMARK    9  A    between atoms: C22_34  and  C23_35 
REMARK   10  A    between atoms: C22_34  and  C26_40 
REMARK   11  A    between atoms: C23_35  and  C24_36 
REMARK   12  A    between atoms: C24_36  and  C25_37 
REMARK   13  A    between atoms: C25_37  and  O3_38 
ROOT
HETATM    1  N3  UNL     1      15.639  21.326  16.811  1.00  0.00    -0.077 N 
HETATM    2  C8  UNL     1      16.495  22.282  17.413  1.00  0.00     0.708 C 
HETATM    3  N4  UNL     1      17.154  22.061  18.478  1.00  0.00    -0.232 N 
ATOM      4  H41 UNL     1      17.770  22.749  18.912  1.00  0.00     0.174 HD
ATOM      5  H42 UNL     1      17.159  21.203  19.030  1.00  0.00     0.174 HD
HETATM    6  N5  UNL     1      16.488  23.478  16.645  1.00  0.00    -0.126 N 
HETATM    7  C19 UNL     1      16.071  23.023  15.318  1.00  0.00     0.190 C 
HETATM    8  C20 UNL     1      14.969  22.073  15.699  1.00  0.00     0.176 C 
ENDROOT
BRANCH   8   9
HETATM    9  C21 UNL     1      14.589  21.150  14.641  1.00  0.00     0.011 C 
HETATM   10  C22 UNL     1      13.509  20.561  14.274  1.00  0.00    -0.048 C 
BRANCH  10  11
HETATM   11  C23 UNL     1      13.651  19.656  13.059  1.00  0.00     0.041 C 
BRANCH  11  12
HETATM   12  C24 UNL     1      12.340  19.255  12.481  1.00  0.00     0.030 C 
BRANCH  12  13
HETATM   13  C25 UNL     1      12.290  17.720  12.426  1.00  0.00     0.164 C 
BRANCH  13  14
HETATM   14  O3  UNL     1      11.684  17.276  13.608  1.00  0.00    -0.401 OA
ATOM     15  H3  UNL     1      11.183  16.497  13.396  1.00  0.00     0.209 HD
ENDBRANCH  13  14
ENDBRANCH  12  13
ENDBRANCH  11  12
ENDBRANCH  10  11
BRANCH  10  16
HETATM   16  C26 UNL     1      12.194  20.708  14.826  1.00  0.00    -0.015 A 
HETATM   17  C27 UNL     1      11.156  21.439  14.328  1.00  0.00     0.014 A 
HETATM   18  C28 UNL     1       9.965  21.539  15.016  1.00  0.00     0.018 A 
HETATM   19  C29 UNL     1       9.751  20.920  16.226  1.00  0.00     0.087 A 
HETATM   20  N6  UNL     1      10.766  20.204  16.714  1.00  0.00    -0.374 N 
HETATM   21  C30 UNL     1      11.921  20.089  16.075  1.00  0.00     0.099 A 
ATOM     22  H6  UNL     1      10.648  19.728  17.608  1.00  0.00     0.164 HD
ENDBRANCH  10  16
ENDBRANCH   8   9
BRANCH   1  23
HETATM   23  O1  UNL     1      15.359  20.057  17.023  1.00  0.00    -0.262 OA
BRANCH  23  24
HETATM   24  C7  UNL     1      15.728  19.502  18.214  1.00  0.00     0.232 C 
BRANCH  24  25
HETATM   25  C6  UNL     1      15.042  18.163  18.452  1.00  0.00     0.301 C 
BRANCH  25  26
HETATM   26  N2  UNL     1      13.637  18.416  18.623  1.00  0.00     0.098 N 
HETATM   27  C2  UNL     1      12.875  17.275  19.026  1.00  0.00     0.244 C 
HETATM   28  C1  UNL     1      11.967  16.906  17.853  1.00  0.00     0.045 C 
HETATM   29  C3  UNL     1      11.973  17.653  20.162  1.00  0.00     0.267 C 
HETATM   30  N1  UNL     1      12.715  18.148  21.307  1.00  0.00    -0.071 N 
HETATM   31  C4  UNL     1      13.607  19.228  20.930  1.00  0.00     0.262 C 
ATOM     32  H12 UNL     1      12.091  18.426  22.066  1.00  0.00     0.277 HD
ATOM     33  H11 UNL     1      13.215  17.397  21.783  1.00  0.00     0.277 HD
HETATM   34  C5  UNL     1      13.417  19.577  19.472  1.00  0.00     0.300 C 
ENDBRANCH  25  26
ENDBRANCH  24  25
ENDBRANCH  23  24
ENDBRANCH   1  23
BRANCH   6  35
HETATM   35  S1  UNL     1      16.875  25.134  17.139  1.00  0.00     0.131 S 
HETATM   36  O2  UNL     1      16.305  25.237  18.569  1.00  0.00    -0.235 OA
BRANCH  35  37
HETATM   37  C9  UNL     1      18.614  25.382  17.183  1.00  0.00     0.143 C 
BRANCH  37  38
HETATM   38  C10 UNL     1      19.375  25.559  15.966  1.00  0.00    -0.021 C 
HETATM   39  C11 UNL     1      18.588  26.003  14.749  1.00  0.00     0.011 C 
HETATM   40  C12 UNL     1      19.683  26.331  13.722  1.00  0.00     0.006 C 
HETATM   41  C13 UNL     1      20.977  26.041  14.435  1.00  0.00    -0.006 C 
HETATM   42  C14 UNL     1      21.117  24.575  14.595  1.00  0.00     0.006 C 
HETATM   43  C16 UNL     1      20.562  26.430  15.884  1.00  0.00    -0.036 C 
HETATM   44  C15 UNL     1      19.987  24.195  15.516  1.00  0.00     0.011 C 
HETATM   45  C17 UNL     1      20.324  27.911  15.823  1.00  0.00     0.016 C 
HETATM   46  C18 UNL     1      21.668  26.113  16.849  1.00  0.00     0.016 C 
ENDBRANCH  37  38
ENDBRANCH  35  37
ENDBRANCH   6  35
TORSDOF 13
ENDMDL
MODEL 4
REMARK VINA RESULT: -8.213229897      4.361     11.385
REMARK  13 active torsions:
REMARK  status: ('A' for Active; 'I' for Inactive)
REMARK    1  A    between atoms: N2_9  and  C6_10 
REMARK    2  A    between atoms: C6_10  and  C7_11 
REMARK    3  A    between atoms: C7_11  and  O1_12 
REMARK    4  A    between atoms: O1_12  and  N3_13 
REMARK    5  A    between atoms: N5_18  and  S1_19 
REMARK    6  A    between atoms: S1_19  and  C9_21 
REMARK    7  A    between atoms: C9_21  and  C10_22 
REMARK    8  A    between atoms: C20_32  and  C21_33 
REMARK    9  A    between atoms: C22_34  and  C23_35 
REMARK   10  A    between atoms: C22_34  and  C26_40 
REMARK   11  A    between atoms: C23_35  and  C24_36 
REMARK   12  A    between atoms: C24_36  and  C25_37 
REMARK   13  A    between atoms: C25_37  and  O3_38 
ROOT
HETATM    1  N3  UNL     1      15.237  21.434  15.376  1.00  0.00    -0.077 N 
HETATM    2  C8  UNL     1      14.299  20.862  14.479  1.00  0.00     0.708 C 
HETATM    3  N4  UNL     1      14.547  20.638  13.252  1.00  0.00    -0.232 N 
ATOM      4  H41 UNL     1      13.872  20.227  12.607  1.00  0.00     0.174 HD
ATOM      5  H42 UNL     1      15.419  20.832  12.758  1.00  0.00     0.174 HD
HETATM    6  N5  UNL     1      13.086  20.593  15.168  1.00  0.00    -0.126 N 
HETATM    7  C19 UNL     1      13.507  20.493  16.567  1.00  0.00     0.190 C 
HETATM    8  C20 UNL     1      14.461  21.654  16.638  1.00  0.00     0.176 C 
ENDROOT
BRANCH   8   9
HETATM    9  C21 UNL     1      15.357  21.615  17.783  1.00  0.00     0.011 C 
HETATM   10  C22 UNL     1      15.535  20.837  18.789  1.00  0.00    -0.048 C 
BRANCH  10  11
HETATM   11  C23 UNL     1      16.644  21.261  19.741  1.00  0.00     0.041 C 
BRANCH  11  12
HETATM   12  C24 UNL     1      17.392  22.454  19.261  1.00  0.00     0.030 C 
BRANCH  12  13
HETATM   13  C25 UNL     1      17.939  23.202  20.487  1.00  0.00     0.164 C 
BRANCH  13  14
HETATM   14  O3  UNL     1      17.571  24.546  20.358  1.00  0.00    -0.401 OA
ATOM     15  H3  UNL     1      18.327  25.073  20.592  1.00  0.00     0.209 HD
ENDBRANCH  13  14
ENDBRANCH  12  13
ENDBRANCH  11  12
ENDBRANCH  10  11
BRANCH  10  16
HETATM   16  C26 UNL     1      14.867  19.601  19.077  1.00  0.00    -0.015 A 
HETATM   17  C27 UNL     1      15.106  18.376  18.528  1.00  0.00     0.014 A 
HETATM   18  C28 UNL     1      14.326  17.288  18.858  1.00  0.00     0.018 A 
HETATM   19  C29 UNL     1      13.277  17.366  19.746  1.00  0.00     0.087 A 
HETATM   20  N6  UNL     1      13.044  18.565  20.284  1.00  0.00    -0.374 N 
HETATM   21  C30 UNL     1      13.777  19.628  19.986  1.00  0.00     0.099 A 
ATOM     22  H6  UNL     1      12.276  18.666  20.948  1.00  0.00     0.164 HD
ENDBRANCH  10  16
ENDBRANCH   8   9
BRANCH   1  23
HETATM   23  O1  UNL     1      16.509  21.765  15.310  1.00  0.00    -0.262 OA
BRANCH  23  24
HETATM   24  C7  UNL     1      16.835  22.997  14.821  1.00  0.00     0.232 C 
BRANCH  24  25
HETATM   25  C6  UNL     1      17.356  23.922  15.913  1.00  0.00     0.301 C 
BRANCH  25  26
HETATM   26  N2  UNL     1      18.598  24.484  15.456  1.00  0.00     0.098 N 
HETATM   27  C2  UNL     1      18.688  25.904  15.587  1.00  0.00     0.244 C 
HETATM   28  C1  UNL     1      18.695  26.485  14.174  1.00  0.00     0.045 C 
HETATM   29  C3  UNL     1      20.006  26.265  16.204  1.00  0.00     0.267 C 
HETATM   30  N1  UNL     1      20.181  25.663  17.513  1.00  0.00    -0.071 N 
HETATM   31  C4  UNL     1      19.970  24.228  17.464  1.00  0.00     0.262 C 
ATOM     32  H12 UNL     1      21.090  25.895  17.914  1.00  0.00     0.277 HD
ATOM     33  H11 UNL     1      19.584  26.106  18.212  1.00  0.00     0.277 HD
HETATM   34  C5  UNL     1      19.732  23.784  16.040  1.00  0.00     0.300 C 
ENDBRANCH  25  26
ENDBRANCH  24  25
ENDBRANCH  23  24
ENDBRANCH   1  23
BRANCH   6  35
HETATM   35  S1  UNL     1      11.443  20.422  14.529  1.00  0.00     0.131 S 
HETATM   36  O2  UNL     1      10.929  21.874  14.433  1.00  0.00    -0.235 OA
BRANCH  35  37
HETATM   37  C9  UNL     1      11.469  19.705  12.925  1.00  0.00     0.143 C 
BRANCH  37  38
HETATM   38  C10 UNL     1      11.291  18.281  12.740  1.00  0.00    -0.021 C 
HETATM   39  C11 UNL     1      10.906  17.494  13.976  1.00  0.00     0.011 C 
HETATM   40  C12 UNL     1      10.560  16.106  13.416  1.00  0.00     0.006 C 
HETATM   41  C13 UNL     1      10.783  16.224  11.932  1.00  0.00    -0.006 C 
HETATM   42  C14 UNL     1      12.238  16.320  11.673  1.00  0.00     0.006 C 
HETATM   43  C16 UNL     1      10.377  17.714  11.731  1.00  0.00    -0.036 C 
HETATM   44  C15 UNL     1      12.640  17.626  12.306  1.00  0.00     0.011 C 
HETATM   45  C17 UNL     1       8.908  17.748  12.039  1.00  0.00     0.016 C 
HETATM   46  C18 UNL     1      10.628  18.140  10.314  1.00  0.00     0.016 C 
ENDBRANCH  37  38
ENDBRANCH  35  37
ENDBRANCH   6  35
TORSDOF 13
ENDMDL
MODEL 5
REMARK VINA RESULT: -8.194294379      4.415     11.465
REMARK  13 active torsions:
REMARK  status: ('A' for Active; 'I' for Inactive)
REMARK    1  A    between atoms: N2_9  and  C6_10 
REMARK    2  A    between atoms: C6_10  and  C7_11 
REMARK    3  A    between atoms: C7_11  and  O1_12 
REMARK    4  A    between atoms: O1_12  and  N3_13 
REMARK    5  A    between atoms: N5_18  and  S1_19 
REMARK    6  A    between atoms: S1_19  and  C9_21 
REMARK    7  A    between atoms: C9_21  and  C10_22 
REMARK    8  A    between atoms: C20_32  and  C21_33 
REMARK    9  A    between atoms: C22_34  and  C23_35 
REMARK   10  A    between atoms: C22_34  and  C26_40 
REMARK   11  A    between atoms: C23_35  and  C24_36 
REMARK   12  A    between atoms: C24_36  and  C25_37 
REMARK   13  A    between atoms: C25_37  and  O3_38 
ROOT
HETATM    1  N3  UNL     1      15.263  21.407  15.329  1.00  0.00    -0.077 N 
HETATM    2  C8  UNL     1      14.332  20.857  14.412  1.00  0.00     0.708 C 
HETATM    3  N4  UNL     1      14.567  20.718  13.170  1.00  0.00    -0.232 N 
ATOM      4  H41 UNL     1      13.897  20.322  12.511  1.00  0.00     0.174 HD
ATOM      5  H42 UNL     1      15.422  20.974  12.676  1.00  0.00     0.174 HD
HETATM    6  N5  UNL     1      13.141  20.500  15.101  1.00  0.00    -0.126 N 
HETATM    7  C19 UNL     1      13.590  20.330  16.484  1.00  0.00     0.190 C 
HETATM    8  C20 UNL     1      14.501  21.520  16.613  1.00  0.00     0.176 C 
ENDROOT
BRANCH   8   9
HETATM    9  C21 UNL     1      15.418  21.445  17.740  1.00  0.00     0.011 C 
HETATM   10  C22 UNL     1      15.563  20.681  18.763  1.00  0.00    -0.048 C 
BRANCH  10  11
HETATM   11  C23 UNL     1      16.720  21.048  19.680  1.00  0.00     0.041 C 
BRANCH  11  12
HETATM   12  C24 UNL     1      18.005  21.212  18.950  1.00  0.00     0.030 C 
BRANCH  12  13
HETATM   13  C25 UNL     1      19.089  21.596  19.969  1.00  0.00     0.164 C 
BRANCH  13  14
HETATM   14  O3  UNL     1      18.724  21.042  21.202  1.00  0.00    -0.401 OA
ATOM     15  H3  UNL     1      19.413  21.247  21.823  1.00  0.00     0.209 HD
ENDBRANCH  13  14
ENDBRANCH  12  13
ENDBRANCH  11  12
ENDBRANCH  10  11
BRANCH  10  16
HETATM   16  C26 UNL     1      14.815  19.504  19.096  1.00  0.00    -0.015 A 
HETATM   17  C27 UNL     1      14.955  18.251  18.576  1.00  0.00     0.014 A 
HETATM   18  C28 UNL     1      14.108  17.230  18.950  1.00  0.00     0.018 A 
HETATM   19  C29 UNL     1      13.085  17.406  19.855  1.00  0.00     0.087 A 
HETATM   20  N6  UNL     1      12.948  18.631  20.365  1.00  0.00    -0.374 N 
HETATM   21  C30 UNL     1      13.748  19.632  20.024  1.00  0.00     0.099 A 
ATOM     22  H6  UNL     1      12.203  18.804  21.039  1.00  0.00     0.164 HD
ENDBRANCH  10  16
ENDBRANCH   8   9
BRANCH   1  23
HETATM   23  O1  UNL     1      16.521  21.791  15.265  1.00  0.00    -0.262 OA
BRANCH  23  24
HETATM   24  C7  UNL     1      16.796  23.039  14.788  1.00  0.00     0.232 C 
BRANCH  24  25
HETATM   25  C6  UNL     1      17.154  24.008  15.908  1.00  0.00     0.301 C 
BRANCH  25  26
HETATM   26  N2  UNL     1      18.469  24.523  15.637  1.00  0.00     0.098 N 
HETATM   27  C2  UNL     1      18.545  25.949  15.584  1.00  0.00     0.244 C 
HETATM   28  C1  UNL     1      18.845  26.327  14.133  1.00  0.00     0.045 C 
HETATM   29  C3  UNL     1      19.714  26.418  16.397  1.00  0.00     0.267 C 
HETATM   30  N1  UNL     1      19.613  26.007  17.786  1.00  0.00    -0.071 N 
HETATM   31  C4  UNL     1      19.402  24.575  17.897  1.00  0.00     0.262 C 
ATOM     32  H12 UNL     1      20.424  26.309  18.326  1.00  0.00     0.277 HD
ATOM     33  H11 UNL     1      18.892  26.532  18.280  1.00  0.00     0.277 HD
HETATM   34  C5  UNL     1      19.453  23.932  16.531  1.00  0.00     0.300 C 
ENDBRANCH  25  26
ENDBRANCH  24  25
ENDBRANCH  23  24
ENDBRANCH   1  23
BRANCH   6  35
HETATM   35  S1  UNL     1      11.495  20.306  14.477  1.00  0.00     0.131 S 
HETATM   36  O2  UNL     1      11.017  21.753  14.235  1.00  0.00    -0.235 OA
BRANCH  35  37
HETATM   37  C9  UNL     1      11.504  19.433  12.952  1.00  0.00     0.143 C 
BRANCH  37  38
HETATM   38  C10 UNL     1      10.840  18.154  12.819  1.00  0.00    -0.021 C 
HETATM   39  C11 UNL     1       9.356  18.206  12.515  1.00  0.00     0.011 C 
HETATM   40  C12 UNL     1       9.011  16.743  12.196  1.00  0.00     0.006 C 
HETATM   41  C13 UNL     1      10.310  15.999  12.352  1.00  0.00    -0.006 C 
HETATM   42  C14 UNL     1      10.658  15.940  13.791  1.00  0.00     0.006 C 
HETATM   43  C16 UNL     1      11.297  17.109  11.885  1.00  0.00    -0.036 C 
HETATM   44  C15 UNL     1      10.899  17.377  14.172  1.00  0.00     0.011 C 
HETATM   45  C17 UNL     1      10.982  17.303  10.429  1.00  0.00     0.016 C 
HETATM   46  C18 UNL     1      12.718  16.657  12.061  1.00  0.00     0.016 C 
ENDBRANCH  37  38
ENDBRANCH  35  37
ENDBRANCH   6  35
TORSDOF 13
ENDMDL
