MODEL 1
REMARK VINA RESULT: -8.815187278      0.000      0.000
REMARK  12 active torsions:
REMARK  status: ('A' for Active; 'I' for Inactive)
REMARK    1  A    between atoms: C3_3  and  N1_4 
REMARK    2  A    between atoms: C4_5  and  C5_6 
REMARK    3  A    between atoms: C5_6  and  C6_7 
REMARK    4  A    between atoms: C6_7  and  S1_8 
REMARK    5  A    between atoms: S1_8  and  C7_9 
REMARK    6  A    between atoms: C7_9  and  C8_10 
REMARK    7  A    between atoms: C8_10  and  C9_11 
REMARK       I    between atoms: N4_17  and  C11_19 
REMARK    8  A    between atoms: C11_19  and  C12_21 
REMARK    9  A    between atoms: C20_31  and  C21_32 
REMARK       I    between atoms: C21_32  and  N5_34 
REMARK   10  A    between atoms: N5_34  and  C22_36 
REMARK   11  A    between atoms: C22_36  and  C23_37 
REMARK   12  A    between atoms: C23_37  and  N6_38 
ROOT
HETATM    1  C1  UNL     1      20.946  25.777  14.077  1.00  0.00     0.014 C 
HETATM    2  C2  UNL     1      20.565  24.953  14.861  1.00  0.00    -0.096 C 
HETATM    3  C3  UNL     1      20.094  23.926  15.800  1.00  0.00     0.242 C 
ENDROOT
BRANCH   3   4
HETATM    4  N1  UNL     1      18.756  24.311  16.353  1.00  0.00    -0.271 N 
HETATM    5  C4  UNL     1      18.721  25.251  17.291  1.00  0.00     0.073 A 
HETATM    6  S3  UNL     1      17.054  25.365  17.632  1.00  0.00    -0.055 SA
HETATM    7  C18 UNL     1      16.510  24.187  16.535  1.00  0.00     0.099 A 
HETATM    8  C19 UNL     1      15.392  23.517  16.019  1.00  0.00     0.057 A 
HETATM    9  N7  UNL     1      17.638  23.769  15.967  1.00  0.00    -0.256 N 
HETATM   10  C20 UNL     1      15.875  22.646  15.087  1.00  0.00     0.052 A 
HETATM   11  C26 UNL     1      17.244  22.803  15.059  1.00  0.00     0.134 A 
BRANCH   5  12
HETATM   12  C5  UNL     1      19.872  26.032  17.880  1.00  0.00     0.077 C 
BRANCH  12  13
HETATM   13  C6  UNL     1      20.653  25.015  18.692  1.00  0.00     0.080 C 
BRANCH  13  14
HETATM   14  S1  UNL     1      20.298  25.268  20.432  1.00  0.00    -0.168 SA
BRANCH  14  15
HETATM   15  C7  UNL     1      19.465  23.778  21.069  1.00  0.00     0.080 C 
BRANCH  15  16
HETATM   16  C8  UNL     1      19.479  22.772  19.914  1.00  0.00     0.076 C 
BRANCH  16  17
HETATM   17  C9  UNL     1      18.026  22.428  19.673  1.00  0.00     0.070 A 
HETATM   18  N2  UNL     1      16.958  23.079  20.114  1.00  0.00    -0.296 N 
HETATM   19  N3  UNL     1      15.796  22.669  19.832  1.00  0.00    -0.279 N 
ATOM     20  H2  UNL     1      17.076  23.916  20.685  1.00  0.00     0.187 HD
HETATM   21  C10 UNL     1      15.668  21.566  19.083  1.00  0.00     0.167 A 
ATOM     22  H3  UNL     1      14.972  23.167  20.169  1.00  0.00     0.189 HD
HETATM   23  N4  UNL     1      14.545  21.004  18.697  1.00  0.00    -0.306 N 
HETATM   24  S2  UNL     1      17.303  21.150  18.803  1.00  0.00    -0.038 SA
HETATM   25  C11 UNL     1      14.550  19.846  17.911  1.00  0.00     0.227 C 
ATOM     26  H4  UNL     1      13.655  21.417  18.975  1.00  0.00     0.171 HD
HETATM   27  O1  UNL     1      15.351  19.763  16.946  1.00  0.00    -0.273 OA
BRANCH  25  28
HETATM   28  C12 UNL     1      13.643  18.712  18.175  1.00  0.00     0.078 C 
HETATM   29  C13 UNL     1      14.263  17.646  19.018  1.00  0.00     0.014 C 
HETATM   30  C14 UNL     1      13.909  17.792  20.487  1.00  0.00     0.001 C 
HETATM   31  C15 UNL     1      12.422  17.614  20.684  1.00  0.00     0.000 C 
HETATM   32  C16 UNL     1      11.628  18.162  19.544  1.00  0.00     0.001 C 
HETATM   33  C17 UNL     1      12.416  19.253  18.876  1.00  0.00     0.014 C 
ENDBRANCH  25  28
ENDBRANCH  16  17
ENDBRANCH  15  16
ENDBRANCH  14  15
ENDBRANCH  13  14
ENDBRANCH  12  13
ENDBRANCH   5  12
BRANCH  10  34
HETATM   34  C21 UNL     1      15.068  21.747  14.286  1.00  0.00     0.253 C 
HETATM   35  O2  UNL     1      15.476  21.379  13.166  1.00  0.00    -0.268 OA
HETATM   36  N5  UNL     1      13.799  21.249  14.729  1.00  0.00    -0.355 N 
ATOM     37  H5  UNL     1      13.444  21.537  15.641  1.00  0.00     0.162 HD
BRANCH  36  38
HETATM   38  C22 UNL     1      13.009  20.352  13.922  1.00  0.00     0.153 C 
BRANCH  38  39
HETATM   39  C23 UNL     1      11.835  19.876  14.746  1.00  0.00     0.291 C 
BRANCH  39  40
HETATM   40  N6  UNL     1      10.655  20.002  13.889  1.00  0.00     0.081 N 
HETATM   41  C24 UNL     1      10.155  21.367  13.905  1.00  0.00     0.309 C 
HETATM   42  C25 UNL     1      10.946  19.586  12.526  1.00  0.00     0.309 C 
ENDBRANCH  39  40
ENDBRANCH  38  39
ENDBRANCH  36  38
ENDBRANCH  10  34
ENDBRANCH   3   4
TORSDOF 12
ENDMDL
MODEL 2
REMARK VINA RESULT: -8.491099844      2.810      7.835
REMARK  12 active torsions:
REMARK  status: ('A' for Active; 'I' for Inactive)
REMARK    1  A    between atoms: C3_3  and  N1_4 
REMARK    2  A    between atoms: C4_5  and  C5_6 
REMARK    3  A    between atoms: C5_6  and  C6_7 
REMARK    4  A    between atoms: C6_7  and  S1_8 
REMARK    5  A    between atoms: S1_8  and  C7_9 
REMARK    6  A    between atoms: C7_9  and  C8_10 
REMARK    7  A    between atoms: C8_10  and  C9_11 
REMARK       I    between atoms: N4_17  and  C11_19 
REMARK    8  A    between atoms: C11_19  and  C12_21 
REMARK    9  A    between atoms: C20_31  and  C21_32 
REMARK       I    between atoms: C21_32  and  N5_34 
REMARK   10  A    between atoms: N5_34  and  C22_36 
REMARK   11  A    between atoms: C22_36  and  C23_37 
REMARK   12  A    between atoms: C23_37  and  N6_38 
ROOT
HETATM    1  C1  UNL     1      15.277  21.481  13.213  1.00  0.00     0.014 C 
HETATM    2  C2  UNL     1      15.072  21.822  14.344  1.00  0.00    -0.096 C 
HETATM    3  C3  UNL     1      14.820  22.264  15.722  1.00  0.00     0.242 C 
ENDROOT
BRANCH   3   4
HETATM    4  N1  UNL     1      16.043  22.055  16.560  1.00  0.00    -0.271 N 
HETATM    5  C4  UNL     1      15.972  21.172  17.550  1.00  0.00     0.073 A 
HETATM    6  S3  UNL     1      17.534  21.258  18.229  1.00  0.00    -0.055 SA
HETATM    7  C18 UNL     1      18.179  22.433  17.184  1.00  0.00     0.099 A 
HETATM    8  C19 UNL     1      19.310  23.195  16.861  1.00  0.00     0.057 A 
HETATM    9  N7  UNL     1      17.160  22.697  16.372  1.00  0.00    -0.256 N 
HETATM   10  C20 UNL     1      18.951  23.961  15.790  1.00  0.00     0.052 A 
HETATM   11  C26 UNL     1      17.639  23.654  15.496  1.00  0.00     0.134 A 
BRANCH   5  12
HETATM   12  C5  UNL     1      14.805  20.299  17.947  1.00  0.00     0.077 C 
BRANCH  12  13
HETATM   13  C6  UNL     1      15.393  18.906  18.078  1.00  0.00     0.080 C 
BRANCH  13  14
HETATM   14  S1  UNL     1      14.364  17.946  19.190  1.00  0.00    -0.168 SA
BRANCH  14  15
HETATM   15  C7  UNL     1      13.276  19.092  20.097  1.00  0.00     0.080 C 
BRANCH  15  16
HETATM   16  C8  UNL     1      11.947  18.349  20.270  1.00  0.00     0.076 C 
BRANCH  16  17
HETATM   17  C9  UNL     1      11.354  18.277  18.881  1.00  0.00     0.070 A 
HETATM   18  N2  UNL     1      10.841  17.213  18.277  1.00  0.00    -0.296 N 
HETATM   19  N3  UNL     1      10.379  17.304  17.103  1.00  0.00    -0.279 N 
ATOM     20  H2  UNL     1      10.819  16.317  18.762  1.00  0.00     0.187 HD
HETATM   21  C10 UNL     1      10.420  18.492  16.487  1.00  0.00     0.167 A 
ATOM     22  H3  UNL     1       9.983  16.489  16.635  1.00  0.00     0.189 HD
HETATM   23  N4  UNL     1       9.989  18.765  15.276  1.00  0.00    -0.306 N 
HETATM   24  S2  UNL     1      11.156  19.473  17.680  1.00  0.00    -0.038 SA
HETATM   25  C11 UNL     1      10.093  20.057  14.747  1.00  0.00     0.227 C 
ATOM     26  H4  UNL     1       9.571  18.024  14.713  1.00  0.00     0.171 HD
HETATM   27  O1  UNL     1       9.801  21.042  15.470  1.00  0.00    -0.273 OA
BRANCH  25  28
HETATM   28  C12 UNL     1      10.534  20.306  13.361  1.00  0.00     0.078 C 
HETATM   29  C13 UNL     1      11.877  19.725  13.058  1.00  0.00     0.014 C 
HETATM   30  C14 UNL     1      11.782  18.364  12.392  1.00  0.00     0.001 C 
HETATM   31  C15 UNL     1      11.111  18.491  11.044  1.00  0.00     0.000 C 
HETATM   32  C16 UNL     1      10.043  19.535  11.036  1.00  0.00     0.001 C 
HETATM   33  C17 UNL     1       9.506  19.699  12.431  1.00  0.00     0.014 C 
ENDBRANCH  25  28
ENDBRANCH  16  17
ENDBRANCH  15  16
ENDBRANCH  14  15
ENDBRANCH  13  14
ENDBRANCH  12  13
ENDBRANCH   5  12
BRANCH  10  34
HETATM   34  C21 UNL     1      19.817  24.903  15.109  1.00  0.00     0.253 C 
HETATM   35  O2  UNL     1      20.954  24.544  14.742  1.00  0.00    -0.268 OA
HETATM   36  N5  UNL     1      19.421  26.251  14.830  1.00  0.00    -0.355 N 
ATOM     37  H5  UNL     1      18.496  26.567  15.123  1.00  0.00     0.162 HD
BRANCH  36  38
HETATM   38  C22 UNL     1      20.293  27.175  14.148  1.00  0.00     0.153 C 
BRANCH  38  39
HETATM   39  C23 UNL     1      20.707  28.252  15.124  1.00  0.00     0.291 C 
BRANCH  39  40
HETATM   40  N6  UNL     1      21.977  27.813  15.705  1.00  0.00     0.081 N 
HETATM   41  C24 UNL     1      23.053  28.710  15.317  1.00  0.00     0.309 C 
HETATM   42  C25 UNL     1      21.892  27.723  17.154  1.00  0.00     0.309 C 
ENDBRANCH  39  40
ENDBRANCH  38  39
ENDBRANCH  36  38
ENDBRANCH  10  34
ENDBRANCH   3   4
TORSDOF 12
ENDMDL
MODEL 3
REMARK VINA RESULT: -8.490200723      2.811      7.804
REMARK  12 active torsions:
REMARK  status: ('A' for Active; 'I' for Inactive)
REMARK    1  A    between atoms: C3_3  and  N1_4 
REMARK    2  A    between atoms: C4_5  and  C5_6 
REMARK    3  A    between atoms: C5_6  and  C6_7 
REMARK    4  A    between atoms: C6_7  and  S1_8 
REMARK    5  A    between atoms: S1_8  and  C7_9 
REMARK    6  A    between atoms: C7_9  and  C8_10 
REMARK    7  A    between atoms: C8_10  and  C9_11 
REMARK       I    between atoms: N4_17  and  C11_19 
REMARK    8  A    between atoms: C11_19  and  C12_21 
REMARK    9  A    between atoms: C20_31  and  C21_32 
REMARK       I    between atoms: C21_32  and  N5_34 
REMARK   10  A    between atoms: N5_34  and  C22_36 
REMARK   11  A    between atoms: C22_36  and  C23_37 
REMARK   12  A    between atoms: C23_37  and  N6_38 
ROOT
HETATM    1  C1  UNL     1      18.444  23.555  20.941  1.00  0.00     0.014 C 
HETATM    2  C2  UNL     1      18.382  22.591  20.231  1.00  0.00    -0.096 C 
HETATM    3  C3  UNL     1      18.332  21.411  19.356  1.00  0.00     0.242 C 
ENDROOT
BRANCH   3   4
HETATM    4  N1  UNL     1      17.519  21.713  18.135  1.00  0.00    -0.271 N 
HETATM    5  C4  UNL     1      16.335  21.122  18.018  1.00  0.00     0.073 A 
HETATM    6  S3  UNL     1      15.774  21.720  16.523  1.00  0.00    -0.055 SA
HETATM    7  C18 UNL     1      17.111  22.698  16.147  1.00  0.00     0.099 A 
HETATM    8  C19 UNL     1      17.669  23.582  15.212  1.00  0.00     0.057 A 
HETATM    9  N7  UNL     1      17.916  22.512  17.188  1.00  0.00    -0.256 N 
HETATM   10  C20 UNL     1      18.880  23.949  15.722  1.00  0.00     0.052 A 
HETATM   11  C26 UNL     1      19.026  23.294  16.926  1.00  0.00     0.134 A 
BRANCH   5  12
HETATM   12  C5  UNL     1      15.656  20.181  18.986  1.00  0.00     0.077 C 
BRANCH  12  13
HETATM   13  C6  UNL     1      15.405  18.918  18.183  1.00  0.00     0.080 C 
BRANCH  13  14
HETATM   14  S1  UNL     1      14.232  17.891  19.071  1.00  0.00    -0.168 SA
BRANCH  14  15
HETATM   15  C7  UNL     1      13.177  18.974  20.088  1.00  0.00     0.080 C 
BRANCH  15  16
HETATM   16  C8  UNL     1      11.839  18.239  20.220  1.00  0.00     0.076 C 
BRANCH  16  17
HETATM   17  C9  UNL     1      11.255  18.231  18.826  1.00  0.00     0.070 A 
HETATM   18  N2  UNL     1      10.573  17.255  18.242  1.00  0.00    -0.296 N 
HETATM   19  N3  UNL     1      10.145  17.391  17.060  1.00  0.00    -0.279 N 
ATOM     20  H2  UNL     1      10.394  16.388  18.749  1.00  0.00     0.187 HD
HETATM   21  C10 UNL     1      10.394  18.537  16.414  1.00  0.00     0.167 A 
ATOM     22  H3  UNL     1       9.619  16.642  16.607  1.00  0.00     0.189 HD
HETATM   23  N4  UNL     1      10.027  18.847  15.191  1.00  0.00    -0.306 N 
HETATM   24  S2  UNL     1      11.275  19.410  17.592  1.00  0.00    -0.038 SA
HETATM   25  C11 UNL     1      10.355  20.086  14.631  1.00  0.00     0.227 C 
ATOM     26  H4  UNL     1       9.494  18.172  14.641  1.00  0.00     0.171 HD
HETATM   27  O1  UNL     1      10.228  21.126  15.325  1.00  0.00    -0.273 OA
BRANCH  25  28
HETATM   28  C12 UNL     1      10.845  20.218  13.245  1.00  0.00     0.078 C 
HETATM   29  C13 UNL     1      12.101  19.450  12.990  1.00  0.00     0.014 C 
HETATM   30  C14 UNL     1      11.832  18.089  12.373  1.00  0.00     0.001 C 
HETATM   31  C15 UNL     1      11.203  18.252  11.009  1.00  0.00     0.000 C 
HETATM   32  C16 UNL     1      10.287  19.429  10.942  1.00  0.00     0.001 C 
HETATM   33  C17 UNL     1       9.758  19.719  12.319  1.00  0.00     0.014 C 
ENDBRANCH  25  28
ENDBRANCH  16  17
ENDBRANCH  15  16
ENDBRANCH  14  15
ENDBRANCH  13  14
ENDBRANCH  12  13
ENDBRANCH   5  12
BRANCH  10  34
HETATM   34  C21 UNL     1      19.808  24.867  15.092  1.00  0.00     0.253 C 
HETATM   35  O2  UNL     1      20.973  24.496  14.842  1.00  0.00    -0.268 OA
HETATM   36  N5  UNL     1      19.444  26.206  14.735  1.00  0.00    -0.355 N 
ATOM     37  H5  UNL     1      18.498  26.532  14.931  1.00  0.00     0.162 HD
BRANCH  36  38
HETATM   38  C22 UNL     1      20.378  27.107  14.105  1.00  0.00     0.153 C 
BRANCH  38  39
HETATM   39  C23 UNL     1      20.682  28.230  15.069  1.00  0.00     0.291 C 
BRANCH  39  40
HETATM   40  N6  UNL     1      21.898  27.838  15.784  1.00  0.00     0.081 N 
HETATM   41  C24 UNL     1      22.974  28.779  15.517  1.00  0.00     0.309 C 
HETATM   42  C25 UNL     1      21.659  27.737  17.215  1.00  0.00     0.309 C 
ENDBRANCH  39  40
ENDBRANCH  38  39
ENDBRANCH  36  38
ENDBRANCH  10  34
ENDBRANCH   3   4
TORSDOF 12
ENDMDL
MODEL 4
REMARK VINA RESULT: -8.426073596      2.791      7.867
REMARK  12 active torsions:
REMARK  status: ('A' for Active; 'I' for Inactive)
REMARK    1  A    between atoms: C3_3  and  N1_4 
REMARK    2  A    between atoms: C4_5  and  C5_6 
REMARK    3  A    between atoms: C5_6  and  C6_7 
REMARK    4  A    between atoms: C6_7  and  S1_8 
REMARK    5  A    between atoms: S1_8  and  C7_9 
REMARK    6  A    between atoms: C7_9  and  C8_10 
REMARK    7  A    between atoms: C8_10  and  C9_11 
REMARK       I    between atoms: N4_17  and  C11_19 
REMARK    8  A    between atoms: C11_19  and  C12_21 
REMARK    9  A    between atoms: C20_31  and  C21_32 
REMARK       I    between atoms: C21_32  and  N5_34 
REMARK   10  A    between atoms: N5_34  and  C22_36 
REMARK   11  A    between atoms: C22_36  and  C23_37 
REMARK   12  A    between atoms: C23_37  and  N6_38 
ROOT
HETATM    1  C1  UNL     1      15.301  21.478  12.921  1.00  0.00     0.014 C 
HETATM    2  C2  UNL     1      15.165  21.943  14.018  1.00  0.00    -0.096 C 
HETATM    3  C3  UNL     1      15.001  22.538  15.352  1.00  0.00     0.242 C 
ENDROOT
BRANCH   3   4
HETATM    4  N1  UNL     1      16.191  22.222  16.204  1.00  0.00    -0.271 N 
HETATM    5  C4  UNL     1      16.074  21.238  17.090  1.00  0.00     0.073 A 
HETATM    6  S3  UNL     1      17.611  21.227  17.828  1.00  0.00    -0.055 SA
HETATM    7  C18 UNL     1      18.306  22.498  16.941  1.00  0.00     0.099 A 
HETATM    8  C19 UNL     1      19.457  23.274  16.742  1.00  0.00     0.057 A 
HETATM    9  N7  UNL     1      17.320  22.863  16.126  1.00  0.00    -0.256 N 
HETATM   10  C20 UNL     1      19.145  24.157  15.749  1.00  0.00     0.052 A 
HETATM   11  C26 UNL     1      17.842  23.903  15.378  1.00  0.00     0.134 A 
BRANCH   5  12
HETATM   12  C5  UNL     1      14.884  20.345  17.347  1.00  0.00     0.077 C 
BRANCH  12  13
HETATM   13  C6  UNL     1      14.506  20.614  18.793  1.00  0.00     0.080 C 
BRANCH  13  14
HETATM   14  S1  UNL     1      14.575  19.073  19.707  1.00  0.00    -0.168 SA
BRANCH  14  15
HETATM   15  C7  UNL     1      12.984  18.844  20.566  1.00  0.00     0.080 C 
BRANCH  15  16
HETATM   16  C8  UNL     1      12.549  17.409  20.253  1.00  0.00     0.076 C 
BRANCH  16  17
HETATM   17  C9  UNL     1      11.813  17.499  18.936  1.00  0.00     0.070 A 
HETATM   18  N2  UNL     1      11.342  16.498  18.204  1.00  0.00    -0.296 N 
HETATM   19  N3  UNL     1      10.745  16.728  17.113  1.00  0.00    -0.279 N 
ATOM     20  H2  UNL     1      11.463  15.537  18.522  1.00  0.00     0.187 HD
HETATM   21  C10 UNL     1      10.600  17.999  16.715  1.00  0.00     0.167 A 
ATOM     22  H3  UNL     1      10.380  15.961  16.547  1.00  0.00     0.189 HD
HETATM   23  N4  UNL     1      10.010  18.417  15.617  1.00  0.00    -0.306 N 
HETATM   24  S2  UNL     1      11.365  18.847  17.988  1.00  0.00    -0.038 SA
HETATM   25  C11 UNL     1       9.927  19.781  15.318  1.00  0.00     0.227 C 
ATOM     26  H4  UNL     1       9.607  17.736  14.974  1.00  0.00     0.171 HD
HETATM   27  O1  UNL     1       9.624  20.592  16.228  1.00  0.00    -0.273 OA
BRANCH  25  28
HETATM   28  C12 UNL     1      10.184  20.306  13.962  1.00  0.00     0.078 C 
HETATM   29  C13 UNL     1      11.637  20.359  13.617  1.00  0.00     0.014 C 
HETATM   30  C14 UNL     1      12.089  19.141  12.831  1.00  0.00     0.001 C 
HETATM   31  C15 UNL     1      11.384  19.092  11.496  1.00  0.00     0.000 C 
HETATM   32  C16 UNL     1       9.982  19.599  11.575  1.00  0.00     0.001 C 
HETATM   33  C17 UNL     1       9.469  19.409  12.975  1.00  0.00     0.014 C 
ENDBRANCH  25  28
ENDBRANCH  16  17
ENDBRANCH  15  16
ENDBRANCH  14  15
ENDBRANCH  13  14
ENDBRANCH  12  13
ENDBRANCH   5  12
BRANCH  10  34
HETATM   34  C21 UNL     1      20.045  25.154  15.205  1.00  0.00     0.253 C 
HETATM   35  O2  UNL     1      19.644  25.930  14.313  1.00  0.00    -0.268 OA
HETATM   36  N5  UNL     1      21.400  25.295  15.651  1.00  0.00    -0.355 N 
ATOM     37  H5  UNL     1      21.750  24.670  16.377  1.00  0.00     0.162 HD
BRANCH  36  38
HETATM   38  C22 UNL     1      22.282  26.294  15.101  1.00  0.00     0.153 C 
BRANCH  38  39
HETATM   39  C23 UNL     1      22.344  27.458  16.064  1.00  0.00     0.291 C 
BRANCH  39  40
HETATM   40  N6  UNL     1      22.395  26.877  17.406  1.00  0.00     0.081 N 
HETATM   41  C24 UNL     1      23.730  27.003  17.968  1.00  0.00     0.309 C 
HETATM   42  C25 UNL     1      21.417  27.495  18.287  1.00  0.00     0.309 C 
ENDBRANCH  39  40
ENDBRANCH  38  39
ENDBRANCH  36  38
ENDBRANCH  10  34
ENDBRANCH   3   4
TORSDOF 12
ENDMDL
MODEL 5
REMARK VINA RESULT: -8.316448979      2.929      7.815
REMARK  12 active torsions:
REMARK  status: ('A' for Active; 'I' for Inactive)
REMARK    1  A    between atoms: C3_3  and  N1_4 
REMARK    2  A    between atoms: C4_5  and  C5_6 
REMARK    3  A    between atoms: C5_6  and  C6_7 
REMARK    4  A    between atoms: C6_7  and  S1_8 
REMARK    5  A    between atoms: S1_8  and  C7_9 
REMARK    6  A    between atoms: C7_9  and  C8_10 
REMARK    7  A    between atoms: C8_10  and  C9_11 
REMARK       I    between atoms: N4_17  and  C11_19 
REMARK    8  A    between atoms: C11_19  and  C12_21 
REMARK    9  A    between atoms: C20_31  and  C21_32 
REMARK       I    between atoms: C21_32  and  N5_34 
REMARK   10  A    between atoms: N5_34  and  C22_36 
REMARK   11  A    between atoms: C22_36  and  C23_37 
REMARK   12  A    between atoms: C23_37  and  N6_38 
ROOT
HETATM    1  C1  UNL     1      15.351  21.779  14.446  1.00  0.00     0.014 C 
HETATM    2  C2  UNL     1      15.129  22.256  15.523  1.00  0.00    -0.096 C 
HETATM    3  C3  UNL     1      14.858  22.865  16.833  1.00  0.00     0.242 C 
ENDROOT
BRANCH   3   4
HETATM    4  N1  UNL     1      16.048  22.706  17.728  1.00  0.00    -0.271 N 
HETATM    5  C4  UNL     1      16.047  21.690  18.585  1.00  0.00     0.073 A 
HETATM    6  S3  UNL     1      17.538  21.888  19.389  1.00  0.00    -0.055 SA
HETATM    7  C18 UNL     1      18.066  23.275  18.562  1.00  0.00     0.099 A 
HETATM    8  C19 UNL     1      19.093  24.220  18.431  1.00  0.00     0.057 A 
HETATM    9  N7  UNL     1      17.070  23.512  17.714  1.00  0.00    -0.256 N 
HETATM   10  C20 UNL     1      18.691  25.075  17.446  1.00  0.00     0.052 A 
HETATM   11  C26 UNL     1      17.457  24.639  17.013  1.00  0.00     0.134 A 
BRANCH   5  12
HETATM   12  C5  UNL     1      14.996  20.621  18.771  1.00  0.00     0.077 C 
BRANCH  12  13
HETATM   13  C6  UNL     1      15.583  19.385  18.112  1.00  0.00     0.080 C 
BRANCH  13  14
HETATM   14  S1  UNL     1      14.830  17.929  18.840  1.00  0.00    -0.168 SA
BRANCH  14  15
HETATM   15  C7  UNL     1      13.900  18.442  20.320  1.00  0.00     0.080 C 
BRANCH  15  16
HETATM   16  C8  UNL     1      12.756  17.433  20.459  1.00  0.00     0.076 C 
BRANCH  16  17
HETATM   17  C9  UNL     1      11.974  17.545  19.171  1.00  0.00     0.070 A 
HETATM   18  N2  UNL     1      11.434  16.560  18.465  1.00  0.00    -0.296 N 
HETATM   19  N3  UNL     1      10.804  16.807  17.397  1.00  0.00    -0.279 N 
ATOM     20  H2  UNL     1      11.529  15.597  18.786  1.00  0.00     0.187 HD
HETATM   21  C10 UNL     1      10.695  18.080  16.996  1.00  0.00     0.167 A 
ATOM     22  H3  UNL     1      10.387  16.052  16.851  1.00  0.00     0.189 HD
HETATM   23  N4  UNL     1      10.080  18.515  15.919  1.00  0.00    -0.306 N 
HETATM   24  S2  UNL     1      11.543  18.904  18.231  1.00  0.00    -0.038 SA
HETATM   25  C11 UNL     1      10.040  19.880  15.612  1.00  0.00     0.227 C 
ATOM     26  H4  UNL     1       9.625  17.847  15.296  1.00  0.00     0.171 HD
HETATM   27  O1  UNL     1       9.804  20.707  16.528  1.00  0.00    -0.273 OA
BRANCH  25  28
HETATM   28  C12 UNL     1      10.264  20.385  14.244  1.00  0.00     0.078 C 
HETATM   29  C13 UNL     1      11.708  20.592  13.922  1.00  0.00     0.014 C 
HETATM   30  C14 UNL     1      12.312  19.409  13.187  1.00  0.00     0.001 C 
HETATM   31  C15 UNL     1      11.645  19.237  11.842  1.00  0.00     0.000 C 
HETATM   32  C16 UNL     1      10.193  19.583  11.880  1.00  0.00     0.001 C 
HETATM   33  C17 UNL     1       9.675  19.382  13.276  1.00  0.00     0.014 C 
ENDBRANCH  25  28
ENDBRANCH  16  17
ENDBRANCH  15  16
ENDBRANCH  14  15
ENDBRANCH  13  14
ENDBRANCH  12  13
ENDBRANCH   5  12
BRANCH  10  34
HETATM   34  C21 UNL     1      19.451  26.211  16.964  1.00  0.00     0.253 C 
HETATM   35  O2  UNL     1      20.175  26.851  17.753  1.00  0.00    -0.268 OA
HETATM   36  N5  UNL     1      19.410  26.643  15.599  1.00  0.00    -0.355 N 
ATOM     37  H5  UNL     1      18.823  26.136  14.936  1.00  0.00     0.162 HD
BRANCH  36  38
HETATM   38  C22 UNL     1      20.174  27.773  15.134  1.00  0.00     0.153 C 
BRANCH  38  39
HETATM   39  C23 UNL     1      21.479  27.266  14.564  1.00  0.00     0.291 C 
BRANCH  39  40
HETATM   40  N6  UNL     1      22.511  27.595  15.549  1.00  0.00     0.081 N 
HETATM   41  C24 UNL     1      23.318  26.425  15.854  1.00  0.00     0.309 C 
HETATM   42  C25 UNL     1      23.357  28.683  15.083  1.00  0.00     0.309 C 
ENDBRANCH  39  40
ENDBRANCH  38  39
ENDBRANCH  36  38
ENDBRANCH  10  34
ENDBRANCH   3   4
TORSDOF 12
ENDMDL
