MODEL 1
REMARK VINA RESULT: -8.763848433      0.000      0.000
REMARK  14 active torsions:
REMARK  status: ('A' for Active; 'I' for Inactive)
REMARK    1  A    between atoms: C2_2  and  C3_3 
REMARK    2  A    between atoms: C3_3  and  C4_4 
REMARK    3  A    between atoms: C4_4  and  C5_5 
REMARK    4  A    between atoms: C5_5  and  O2_7 
REMARK    5  A    between atoms: O2_7  and  C6_8 
REMARK    6  A    between atoms: C6_8  and  C7_9 
REMARK    7  A    between atoms: C6_8  and  C9_14 
REMARK    8  A    between atoms: C7_9  and  N1_10 
REMARK    9  A    between atoms: N2_17  and  C11_18 
REMARK   10  A    between atoms: C11_18  and  C12_19 
REMARK   11  A    between atoms: C12_19  and  C13_20 
REMARK   12  A    between atoms: C13_20  and  N3_21 
REMARK       I    between atoms: C14_23  and  N5_25 
REMARK   13  A    between atoms: N5_25  and  C15_27 
REMARK   14  A    between atoms: C18_32  and  C19_33 
ROOT
HETATM    1  C9  UNL     1      18.228  22.612  16.300  1.00  0.00     0.133 C 
HETATM    2  C10 UNL     1      17.969  21.413  17.106  1.00  0.00     0.240 C 
HETATM    3  O3  UNL     1      18.140  20.242  16.644  1.00  0.00    -0.272 OA
HETATM    4  N2  UNL     1      17.503  21.502  18.470  1.00  0.00    -0.248 N 
HETATM    5  C21 UNL     1      18.090  22.586  19.189  1.00  0.00     0.331 C 
HETATM    6  O5  UNL     1      17.841  22.860  20.383  1.00  0.00    -0.246 OA
HETATM    7  N7  UNL     1      19.014  23.381  18.461  1.00  0.00    -0.328 N 
HETATM    8  C22 UNL     1      20.181  23.739  19.304  1.00  0.00     0.128 C 
HETATM    9  C23 UNL     1      20.250  25.231  19.497  1.00  0.00     0.020 C 
HETATM   10  C24 UNL     1      21.016  25.808  18.327  1.00  0.00     0.002 C 
HETATM   11  C25 UNL     1      20.042  25.785  17.142  1.00  0.00     0.002 C 
HETATM   12  C26 UNL     1      19.971  24.394  16.544  1.00  0.00     0.026 C 
HETATM   13  C27 UNL     1      18.723  23.734  17.103  1.00  0.00     0.104 C 
ENDROOT
BRANCH   4  14
HETATM   14  C11 UNL     1      16.574  20.633  19.075  1.00  0.00     0.083 C 
BRANCH  14  15
HETATM   15  C12 UNL     1      15.277  20.451  18.296  1.00  0.00     0.089 C 
BRANCH  15  16
HETATM   16  C13 UNL     1      14.266  19.940  19.297  1.00  0.00     0.068 C 
BRANCH  16  17
HETATM   17  N3  UNL     1      13.746  18.652  19.055  1.00  0.00    -0.344 N 
HETATM   18  C14 UNL     1      12.582  18.165  19.102  1.00  0.00     0.193 C 
HETATM   19  N4  UNL     1      11.444  18.923  19.449  1.00  0.00    -0.063 NA
HETATM   20  N5  UNL     1      12.346  16.781  18.809  1.00  0.00    -0.311 N 
ATOM     21  H5  UNL     1      12.807  16.032  19.326  1.00  0.00     0.170 HD
ATOM     22  H3  UNL     1      14.458  17.972  18.786  1.00  0.00     0.167 HD
BRANCH  20  23
HETATM   23  C15 UNL     1      11.497  16.538  17.833  1.00  0.00     0.152 A 
HETATM   24  N6  UNL     1      11.345  17.257  16.723  1.00  0.00    -0.339 N 
HETATM   25  C16 UNL     1      10.455  16.885  15.841  1.00  0.00     0.028 A 
ATOM     26  H6  UNL     1      11.915  18.088  16.564  1.00  0.00     0.168 HD
HETATM   27  C17 UNL     1      10.243  17.674  14.553  1.00  0.00     0.070 C 
HETATM   28  C18 UNL     1       9.718  15.774  16.093  1.00  0.00     0.076 A 
HETATM   29  S1  UNL     1      10.359  15.295  17.644  1.00  0.00    -0.048 SA
BRANCH  28  30
HETATM   30  C19 UNL     1       8.657  15.066  15.364  1.00  0.00     0.164 C 
HETATM   31  C20 UNL     1       8.872  13.945  14.479  1.00  0.00     0.097 C 
HETATM   32  O4  UNL     1       7.442  15.463  15.516  1.00  0.00    -0.292 OA
ENDBRANCH  28  30
ENDBRANCH  20  23
ENDBRANCH  16  17
ENDBRANCH  15  16
ENDBRANCH  14  15
ENDBRANCH   4  14
BRANCH   1  33
HETATM   33  C6  UNL     1      16.982  22.924  15.497  1.00  0.00     0.172 C 
BRANCH  33  34
HETATM   34  O2  UNL     1      16.100  21.819  15.450  1.00  0.00    -0.313 OA
BRANCH  34  35
HETATM   35  C5  UNL     1      15.349  21.508  14.308  1.00  0.00     0.259 C 
HETATM   36  O1  UNL     1      15.863  21.878  13.233  1.00  0.00    -0.265 OA
BRANCH  35  37
HETATM   37  C4  UNL     1      14.074  20.810  14.379  1.00  0.00     0.111 C 
BRANCH  37  38
HETATM   38  C3  UNL     1      12.964  21.692  14.813  1.00  0.00     0.009 C 
BRANCH  38  39
HETATM   39  C2  UNL     1      11.723  20.931  15.172  1.00  0.00    -0.004 C 
HETATM   40  C1  UNL     1      10.573  21.411  14.297  1.00  0.00     0.005 C 
ENDBRANCH  38  39
ENDBRANCH  37  38
ENDBRANCH  35  37
ENDBRANCH  34  35
ENDBRANCH  33  34
BRANCH  33  41
HETATM   41  C7  UNL     1      16.195  24.069  16.092  1.00  0.00     0.265 C 
BRANCH  41  42
HETATM   42  N1  UNL     1      15.003  23.660  16.787  1.00  0.00    -0.077 N 
HETATM   43  C8  UNL     1      14.961  24.030  18.177  1.00  0.00     0.267 C 
ATOM     44  H12 UNL     1      14.174  24.007  16.304  1.00  0.00     0.276 HD
ATOM     45  H11 UNL     1      14.860  22.656  16.683  1.00  0.00     0.276 HD
ENDBRANCH  41  42
ENDBRANCH  33  41
ENDBRANCH   1  33
TORSDOF 14
ENDMDL
MODEL 2
REMARK VINA RESULT: -8.703839999      2.022      3.035
REMARK  14 active torsions:
REMARK  status: ('A' for Active; 'I' for Inactive)
REMARK    1  A    between atoms: C2_2  and  C3_3 
REMARK    2  A    between atoms: C3_3  and  C4_4 
REMARK    3  A    between atoms: C4_4  and  C5_5 
REMARK    4  A    between atoms: C5_5  and  O2_7 
REMARK    5  A    between atoms: O2_7  and  C6_8 
REMARK    6  A    between atoms: C6_8  and  C7_9 
REMARK    7  A    between atoms: C6_8  and  C9_14 
REMARK    8  A    between atoms: C7_9  and  N1_10 
REMARK    9  A    between atoms: N2_17  and  C11_18 
REMARK   10  A    between atoms: C11_18  and  C12_19 
REMARK   11  A    between atoms: C12_19  and  C13_20 
REMARK   12  A    between atoms: C13_20  and  N3_21 
REMARK       I    between atoms: C14_23  and  N5_25 
REMARK   13  A    between atoms: N5_25  and  C15_27 
REMARK   14  A    between atoms: C18_32  and  C19_33 
ROOT
HETATM    1  C9  UNL     1      18.817  22.585  17.011  1.00  0.00     0.133 C 
HETATM    2  C10 UNL     1      17.994  21.379  17.159  1.00  0.00     0.240 C 
HETATM    3  O3  UNL     1      18.293  20.286  16.585  1.00  0.00    -0.272 OA
HETATM    4  N2  UNL     1      16.796  21.372  17.967  1.00  0.00    -0.248 N 
HETATM    5  C21 UNL     1      16.921  22.156  19.153  1.00  0.00     0.331 C 
HETATM    6  O5  UNL     1      16.018  22.298  20.005  1.00  0.00    -0.246 OA
HETATM    7  N7  UNL     1      18.173  22.800  19.338  1.00  0.00    -0.328 N 
HETATM    8  C22 UNL     1      18.599  22.728  20.758  1.00  0.00     0.128 C 
HETATM    9  C23 UNL     1      18.686  24.110  21.350  1.00  0.00     0.020 C 
HETATM   10  C24 UNL     1      20.066  24.652  21.044  1.00  0.00     0.002 C 
HETATM   11  C25 UNL     1      20.036  25.049  19.562  1.00  0.00     0.002 C 
HETATM   12  C26 UNL     1      20.207  23.826  18.685  1.00  0.00     0.026 C 
HETATM   13  C27 UNL     1      18.822  23.416  18.219  1.00  0.00     0.104 C 
ENDROOT
BRANCH   4  14
HETATM   14  C11 UNL     1      15.610  20.677  17.664  1.00  0.00     0.083 C 
BRANCH  14  15
HETATM   15  C12 UNL     1      15.450  19.349  18.395  1.00  0.00     0.089 C 
BRANCH  15  16
HETATM   16  C13 UNL     1      14.005  19.295  18.835  1.00  0.00     0.068 C 
BRANCH  16  17
HETATM   17  N3  UNL     1      13.130  18.555  18.013  1.00  0.00    -0.344 N 
HETATM   18  C14 UNL     1      11.918  18.698  17.689  1.00  0.00     0.193 C 
HETATM   19  N4  UNL     1      11.119  19.765  18.150  1.00  0.00    -0.063 NA
HETATM   20  N5  UNL     1      11.268  17.758  16.823  1.00  0.00    -0.311 N 
ATOM     21  H5  UNL     1      11.213  16.765  17.046  1.00  0.00     0.170 HD
ATOM     22  H3  UNL     1      13.567  17.734  17.594  1.00  0.00     0.167 HD
BRANCH  20  23
HETATM   23  C15 UNL     1      10.747  18.258  15.722  1.00  0.00     0.152 A 
HETATM   24  N6  UNL     1      10.256  19.487  15.569  1.00  0.00    -0.339 N 
HETATM   25  C16 UNL     1       9.771  19.838  14.407  1.00  0.00     0.028 A 
ATOM     26  H6  UNL     1      10.259  20.145  16.349  1.00  0.00     0.168 HD
HETATM   27  C17 UNL     1       9.198  21.233  14.181  1.00  0.00     0.070 C 
HETATM   28  C18 UNL     1       9.786  18.931  13.398  1.00  0.00     0.076 A 
HETATM   29  S1  UNL     1      10.525  17.563  14.191  1.00  0.00    -0.048 SA
BRANCH  28  30
HETATM   30  C19 UNL     1       9.345  18.956  11.997  1.00  0.00     0.164 C 
HETATM   31  C20 UNL     1      10.152  19.407  10.887  1.00  0.00     0.097 C 
HETATM   32  O4  UNL     1       8.155  18.549  11.724  1.00  0.00    -0.292 OA
ENDBRANCH  28  30
ENDBRANCH  20  23
ENDBRANCH  16  17
ENDBRANCH  15  16
ENDBRANCH  14  15
ENDBRANCH   4  14
BRANCH   1  33
HETATM   33  C6  UNL     1      18.373  23.313  15.758  1.00  0.00     0.172 C 
BRANCH  33  34
HETATM   34  O2  UNL     1      17.061  23.825  15.889  1.00  0.00    -0.313 OA
BRANCH  34  35
HETATM   35  C5  UNL     1      15.962  23.245  15.238  1.00  0.00     0.259 C 
HETATM   36  O1  UNL     1      16.258  22.531  14.259  1.00  0.00    -0.265 OA
BRANCH  35  37
HETATM   37  C4  UNL     1      14.592  23.465  15.676  1.00  0.00     0.111 C 
BRANCH  37  38
HETATM   38  C3  UNL     1      13.595  22.860  14.760  1.00  0.00     0.009 C 
BRANCH  38  39
HETATM   39  C2  UNL     1      13.065  21.551  15.260  1.00  0.00    -0.004 C 
HETATM   40  C1  UNL     1      13.449  20.449  14.281  1.00  0.00     0.005 C 
ENDBRANCH  38  39
ENDBRANCH  37  38
ENDBRANCH  35  37
ENDBRANCH  34  35
ENDBRANCH  33  34
BRANCH  33  41
HETATM   41  C7  UNL     1      19.260  24.495  15.443  1.00  0.00     0.265 C 
BRANCH  41  42
HETATM   42  N1  UNL     1      20.641  24.149  15.227  1.00  0.00    -0.077 N 
HETATM   43  C8  UNL     1      21.376  25.087  14.421  1.00  0.00     0.267 C 
ATOM     44  H12 UNL     1      21.113  24.002  16.120  1.00  0.00     0.276 HD
ATOM     45  H11 UNL     1      20.712  23.211  14.834  1.00  0.00     0.276 HD
ENDBRANCH  41  42
ENDBRANCH  33  41
ENDBRANCH   1  33
TORSDOF 14
ENDMDL
MODEL 3
REMARK VINA RESULT: -8.565514470      4.047      8.192
REMARK  14 active torsions:
REMARK  status: ('A' for Active; 'I' for Inactive)
REMARK    1  A    between atoms: C2_2  and  C3_3 
REMARK    2  A    between atoms: C3_3  and  C4_4 
REMARK    3  A    between atoms: C4_4  and  C5_5 
REMARK    4  A    between atoms: C5_5  and  O2_7 
REMARK    5  A    between atoms: O2_7  and  C6_8 
REMARK    6  A    between atoms: C6_8  and  C7_9 
REMARK    7  A    between atoms: C6_8  and  C9_14 
REMARK    8  A    between atoms: C7_9  and  N1_10 
REMARK    9  A    between atoms: N2_17  and  C11_18 
REMARK   10  A    between atoms: C11_18  and  C12_19 
REMARK   11  A    between atoms: C12_19  and  C13_20 
REMARK   12  A    between atoms: C13_20  and  N3_21 
REMARK       I    between atoms: C14_23  and  N5_25 
REMARK   13  A    between atoms: N5_25  and  C15_27 
REMARK   14  A    between atoms: C18_32  and  C19_33 
ROOT
HETATM    1  C9  UNL     1      22.392  27.445  18.128  1.00  0.00     0.133 C 
HETATM    2  C10 UNL     1      21.584  26.934  19.242  1.00  0.00     0.240 C 
HETATM    3  O3  UNL     1      21.386  27.613  20.296  1.00  0.00    -0.272 OA
HETATM    4  N2  UNL     1      20.971  25.626  19.198  1.00  0.00    -0.248 N 
HETATM    5  C21 UNL     1      20.480  25.285  17.902  1.00  0.00     0.331 C 
HETATM    6  O5  UNL     1      19.910  24.208  17.622  1.00  0.00    -0.246 OA
HETATM    7  N7  UNL     1      20.671  26.265  16.892  1.00  0.00    -0.328 N 
HETATM    8  C22 UNL     1      19.473  26.369  16.023  1.00  0.00     0.128 C 
HETATM    9  C23 UNL     1      19.814  25.977  14.611  1.00  0.00     0.020 C 
HETATM   10  C24 UNL     1      20.335  27.212  13.907  1.00  0.00     0.002 C 
HETATM   11  C25 UNL     1      21.762  27.416  14.431  1.00  0.00     0.002 C 
HETATM   12  C26 UNL     1      21.735  28.076  15.794  1.00  0.00     0.026 C 
HETATM   13  C27 UNL     1      21.914  26.974  16.824  1.00  0.00     0.104 C 
ENDROOT
BRANCH   4  14
HETATM   14  C11 UNL     1      20.843  24.746  20.290  1.00  0.00     0.083 C 
BRANCH  14  15
HETATM   15  C12 UNL     1      19.480  24.779  20.972  1.00  0.00     0.089 C 
BRANCH  15  16
HETATM   16  C13 UNL     1      18.966  23.358  20.927  1.00  0.00     0.068 C 
BRANCH  16  17
HETATM   17  N3  UNL     1      18.049  23.059  19.899  1.00  0.00    -0.344 N 
HETATM   18  C14 UNL     1      17.783  22.006  19.255  1.00  0.00     0.193 C 
HETATM   19  N4  UNL     1      18.440  20.779  19.482  1.00  0.00    -0.063 NA
HETATM   20  N5  UNL     1      16.783  21.999  18.228  1.00  0.00    -0.311 N 
ATOM     21  H5  UNL     1      16.832  22.620  17.420  1.00  0.00     0.170 HD
ATOM     22  H3  UNL     1      17.484  23.860  19.615  1.00  0.00     0.167 HD
BRANCH  20  23
HETATM   23  C15 UNL     1      15.798  21.142  18.392  1.00  0.00     0.152 A 
HETATM   24  N6  UNL     1      15.906  19.815  18.435  1.00  0.00    -0.339 N 
HETATM   25  C16 UNL     1      14.829  19.094  18.607  1.00  0.00     0.028 A 
ATOM     26  H6  UNL     1      16.817  19.368  18.335  1.00  0.00     0.168 HD
HETATM   27  C17 UNL     1      14.900  17.572  18.664  1.00  0.00     0.070 C 
HETATM   28  C18 UNL     1      13.637  19.730  18.734  1.00  0.00     0.076 A 
HETATM   29  S1  UNL     1      14.134  21.398  18.597  1.00  0.00    -0.048 SA
BRANCH  28  30
HETATM   30  C19 UNL     1      12.254  19.276  18.933  1.00  0.00     0.164 C 
HETATM   31  C20 UNL     1      11.280  19.114  17.878  1.00  0.00     0.097 C 
HETATM   32  O4  UNL     1      11.868  18.999  20.129  1.00  0.00    -0.292 OA
ENDBRANCH  28  30
ENDBRANCH  20  23
ENDBRANCH  16  17
ENDBRANCH  15  16
ENDBRANCH  14  15
ENDBRANCH   4  14
BRANCH   1  33
HETATM   33  C6  UNL     1      23.846  27.125  18.409  1.00  0.00     0.172 C 
BRANCH  33  34
HETATM   34  O2  UNL     1      24.056  25.734  18.553  1.00  0.00    -0.313 OA
BRANCH  34  35
HETATM   35  C5  UNL     1      24.839  25.198  19.585  1.00  0.00     0.259 C 
HETATM   36  O1  UNL     1      24.293  25.204  20.707  1.00  0.00    -0.265 OA
BRANCH  35  37
HETATM   37  C4  UNL     1      26.180  24.679  19.358  1.00  0.00     0.111 C 
BRANCH  37  38
HETATM   38  C3  UNL     1      26.185  23.460  18.515  1.00  0.00     0.009 C 
BRANCH  38  39
HETATM   39  C2  UNL     1      26.615  22.235  19.265  1.00  0.00    -0.004 C 
HETATM   40  C1  UNL     1      25.807  21.040  18.777  1.00  0.00     0.005 C 
ENDBRANCH  38  39
ENDBRANCH  37  38
ENDBRANCH  35  37
ENDBRANCH  34  35
ENDBRANCH  33  34
BRANCH  33  41
HETATM   41  C7  UNL     1      24.754  27.578  17.289  1.00  0.00     0.265 C 
BRANCH  41  42
HETATM   42  N1  UNL     1      25.049  28.987  17.309  1.00  0.00    -0.077 N 
HETATM   43  C8  UNL     1      25.176  29.593  16.010  1.00  0.00     0.267 C 
ATOM     44  H12 UNL     1      24.356  29.486  17.867  1.00  0.00     0.276 HD
ATOM     45  H11 UNL     1      25.884  29.165  17.867  1.00  0.00     0.276 HD
ENDBRANCH  41  42
ENDBRANCH  33  41
ENDBRANCH   1  33
TORSDOF 14
ENDMDL
MODEL 4
REMARK VINA RESULT: -8.512883068      4.927     10.615
REMARK  14 active torsions:
REMARK  status: ('A' for Active; 'I' for Inactive)
REMARK    1  A    between atoms: C2_2  and  C3_3 
REMARK    2  A    between atoms: C3_3  and  C4_4 
REMARK    3  A    between atoms: C4_4  and  C5_5 
REMARK    4  A    between atoms: C5_5  and  O2_7 
REMARK    5  A    between atoms: O2_7  and  C6_8 
REMARK    6  A    between atoms: C6_8  and  C7_9 
REMARK    7  A    between atoms: C6_8  and  C9_14 
REMARK    8  A    between atoms: C7_9  and  N1_10 
REMARK    9  A    between atoms: N2_17  and  C11_18 
REMARK   10  A    between atoms: C11_18  and  C12_19 
REMARK   11  A    between atoms: C12_19  and  C13_20 
REMARK   12  A    between atoms: C13_20  and  N3_21 
REMARK       I    between atoms: C14_23  and  N5_25 
REMARK   13  A    between atoms: N5_25  and  C15_27 
REMARK   14  A    between atoms: C18_32  and  C19_33 
ROOT
HETATM    1  C9  UNL     1      17.176  23.733  17.003  1.00  0.00     0.133 C 
HETATM    2  C10 UNL     1      17.612  24.850  16.156  1.00  0.00     0.240 C 
HETATM    3  O3  UNL     1      16.784  25.609  15.564  1.00  0.00    -0.272 OA
HETATM    4  N2  UNL     1      19.012  25.147  15.952  1.00  0.00    -0.248 N 
HETATM    5  C21 UNL     1      19.800  24.946  17.125  1.00  0.00     0.331 C 
HETATM    6  O5  UNL     1      21.033  25.139  17.189  1.00  0.00    -0.246 OA
HETATM    7  N7  UNL     1      19.095  24.498  18.273  1.00  0.00    -0.328 N 
HETATM    8  C22 UNL     1      19.584  25.184  19.494  1.00  0.00     0.128 C 
HETATM    9  C23 UNL     1      20.194  24.190  20.445  1.00  0.00     0.020 C 
HETATM   10  C24 UNL     1      19.077  23.632  21.301  1.00  0.00     0.002 C 
HETATM   11  C25 UNL     1      18.323  22.642  20.403  1.00  0.00     0.002 C 
HETATM   12  C26 UNL     1      17.383  23.384  19.475  1.00  0.00     0.026 C 
HETATM   13  C27 UNL     1      18.082  23.495  18.131  1.00  0.00     0.104 C 
ENDROOT
BRANCH   4  14
HETATM   14  C11 UNL     1      19.585  25.594  14.746  1.00  0.00     0.083 C 
BRANCH  14  15
HETATM   15  C12 UNL     1      19.735  27.106  14.639  1.00  0.00     0.089 C 
BRANCH  15  16
HETATM   16  C13 UNL     1      21.167  27.348  14.222  1.00  0.00     0.068 C 
BRANCH  16  17
HETATM   17  N3  UNL     1      22.160  26.755  15.029  1.00  0.00    -0.344 N 
HETATM   18  C14 UNL     1      23.017  27.223  15.830  1.00  0.00     0.193 C 
HETATM   19  N4  UNL     1      23.151  28.602  16.095  1.00  0.00    -0.063 NA
HETATM   20  N5  UNL     1      23.930  26.361  16.522  1.00  0.00    -0.311 N 
ATOM     21  H5  UNL     1      24.563  25.732  16.027  1.00  0.00     0.170 HD
ATOM     22  H3  UNL     1      22.192  25.739  14.950  1.00  0.00     0.167 HD
BRANCH  20  23
HETATM   23  C15 UNL     1      23.901  26.432  17.836  1.00  0.00     0.152 A 
HETATM   24  N6  UNL     1      22.940  26.982  18.576  1.00  0.00    -0.339 N 
HETATM   25  C16 UNL     1      23.054  26.973  19.878  1.00  0.00     0.028 A 
ATOM     26  H6  UNL     1      22.124  27.405  18.131  1.00  0.00     0.168 HD
HETATM   27  C17 UNL     1      21.981  27.589  20.768  1.00  0.00     0.070 C 
HETATM   28  C18 UNL     1      24.155  26.401  20.427  1.00  0.00     0.076 A 
HETATM   29  S1  UNL     1      25.009  25.881  18.996  1.00  0.00    -0.048 SA
BRANCH  28  30
HETATM   30  C19 UNL     1      24.623  26.205  21.806  1.00  0.00     0.164 C 
HETATM   31  C20 UNL     1      23.979  25.356  22.782  1.00  0.00     0.097 C 
HETATM   32  O4  UNL     1      25.683  26.828  22.187  1.00  0.00    -0.292 OA
ENDBRANCH  28  30
ENDBRANCH  20  23
ENDBRANCH  16  17
ENDBRANCH  15  16
ENDBRANCH  14  15
ENDBRANCH   4  14
BRANCH   1  33
HETATM   33  C6  UNL     1      16.956  22.524  16.117  1.00  0.00     0.172 C 
BRANCH  33  34
HETATM   34  O2  UNL     1      16.216  21.518  16.782  1.00  0.00    -0.313 OA
BRANCH  34  35
HETATM   35  C5  UNL     1      16.835  20.468  17.476  1.00  0.00     0.259 C 
HETATM   36  O1  UNL     1      17.991  20.201  17.089  1.00  0.00    -0.265 OA
BRANCH  35  37
HETATM   37  C4  UNL     1      16.175  19.753  18.558  1.00  0.00     0.111 C 
BRANCH  37  38
HETATM   38  C3  UNL     1      14.912  19.105  18.129  1.00  0.00     0.009 C 
BRANCH  38  39
HETATM   39  C2  UNL     1      14.665  17.799  18.820  1.00  0.00    -0.004 C 
HETATM   40  C1  UNL     1      13.967  18.060  20.148  1.00  0.00     0.005 C 
ENDBRANCH  38  39
ENDBRANCH  37  38
ENDBRANCH  35  37
ENDBRANCH  34  35
ENDBRANCH  33  34
BRANCH  33  41
HETATM   41  C7  UNL     1      16.177  22.868  14.868  1.00  0.00     0.265 C 
BRANCH  41  42
HETATM   42  N1  UNL     1      14.825  22.374  14.868  1.00  0.00    -0.077 N 
HETATM   43  C8  UNL     1      13.823  23.364  15.163  1.00  0.00     0.267 C 
ATOM     44  H12 UNL     1      14.617  21.912  13.982  1.00  0.00     0.276 HD
ATOM     45  H11 UNL     1      14.738  21.581  15.504  1.00  0.00     0.276 HD
ENDBRANCH  41  42
ENDBRANCH  33  41
ENDBRANCH   1  33
TORSDOF 14
ENDMDL
MODEL 5
REMARK VINA RESULT: -8.505671387      3.288      9.511
REMARK  14 active torsions:
REMARK  status: ('A' for Active; 'I' for Inactive)
REMARK    1  A    between atoms: C2_2  and  C3_3 
REMARK    2  A    between atoms: C3_3  and  C4_4 
REMARK    3  A    between atoms: C4_4  and  C5_5 
REMARK    4  A    between atoms: C5_5  and  O2_7 
REMARK    5  A    between atoms: O2_7  and  C6_8 
REMARK    6  A    between atoms: C6_8  and  C7_9 
REMARK    7  A    between atoms: C6_8  and  C9_14 
REMARK    8  A    between atoms: C7_9  and  N1_10 
REMARK    9  A    between atoms: N2_17  and  C11_18 
REMARK   10  A    between atoms: C11_18  and  C12_19 
REMARK   11  A    between atoms: C12_19  and  C13_20 
REMARK   12  A    between atoms: C13_20  and  N3_21 
REMARK       I    between atoms: C14_23  and  N5_25 
REMARK   13  A    between atoms: N5_25  and  C15_27 
REMARK   14  A    between atoms: C18_32  and  C19_33 
ROOT
HETATM    1  C9  UNL     1      10.780  19.111  17.001  1.00  0.00     0.133 C 
HETATM    2  C10 UNL     1      11.198  20.390  16.413  1.00  0.00     0.240 C 
HETATM    3  O3  UNL     1      10.365  21.311  16.145  1.00  0.00    -0.272 OA
HETATM    4  N2  UNL     1      12.582  20.668  16.107  1.00  0.00    -0.248 N 
HETATM    5  C21 UNL     1      13.484  20.137  17.077  1.00  0.00     0.331 C 
HETATM    6  O5  UNL     1      14.728  20.254  17.025  1.00  0.00    -0.246 OA
HETATM    7  N7  UNL     1      12.886  19.438  18.158  1.00  0.00    -0.328 N 
HETATM    8  C22 UNL     1      13.563  19.762  19.438  1.00  0.00     0.128 C 
HETATM    9  C23 UNL     1      14.204  18.530  20.019  1.00  0.00     0.020 C 
HETATM   10  C24 UNL     1      13.155  17.818  20.846  1.00  0.00     0.002 C 
HETATM   11  C25 UNL     1      12.229  17.128  19.835  1.00  0.00     0.002 C 
HETATM   12  C26 UNL     1      11.246  18.124  19.256  1.00  0.00     0.026 C 
HETATM   13  C27 UNL     1      11.790  18.550  17.904  1.00  0.00     0.104 C 
ENDROOT
BRANCH   4  14
HETATM   14  C11 UNL     1      13.043  21.388  14.988  1.00  0.00     0.083 C 
BRANCH  14  15
HETATM   15  C12 UNL     1      13.919  20.583  14.036  1.00  0.00     0.089 C 
BRANCH  15  16
HETATM   16  C13 UNL     1      15.136  21.441  13.773  1.00  0.00     0.068 C 
BRANCH  16  17
HETATM   17  N3  UNL     1      15.347  22.512  14.666  1.00  0.00    -0.344 N 
HETATM   18  C14 UNL     1      16.214  22.741  15.554  1.00  0.00     0.193 C 
HETATM   19  N4  UNL     1      17.267  21.849  15.850  1.00  0.00    -0.063 NA
HETATM   20  N5  UNL     1      16.172  23.941  16.338  1.00  0.00    -0.311 N 
ATOM     21  H5  UNL     1      15.360  24.192  16.901  1.00  0.00     0.170 HD
ATOM     22  H3  UNL     1      14.654  23.256  14.575  1.00  0.00     0.167 HD
BRANCH  20  23
HETATM   23  C15 UNL     1      17.248  24.697  16.286  1.00  0.00     0.152 A 
HETATM   24  N6  UNL     1      18.128  24.886  17.267  1.00  0.00    -0.339 N 
HETATM   25  C16 UNL     1      19.153  25.670  17.061  1.00  0.00     0.028 A 
ATOM     26  H6  UNL     1      18.004  24.424  18.169  1.00  0.00     0.168 HD
HETATM   27  C17 UNL     1      20.189  25.918  18.152  1.00  0.00     0.070 C 
HETATM   28  C18 UNL     1      19.280  26.265  15.848  1.00  0.00     0.076 A 
HETATM   29  S1  UNL     1      17.869  25.648  15.026  1.00  0.00    -0.048 SA
BRANCH  28  30
HETATM   30  C19 UNL     1      20.265  27.182  15.259  1.00  0.00     0.164 C 
HETATM   31  C20 UNL     1      21.457  26.770  14.554  1.00  0.00     0.097 C 
HETATM   32  O4  UNL     1      20.064  28.449  15.371  1.00  0.00    -0.292 OA
ENDBRANCH  28  30
ENDBRANCH  20  23
ENDBRANCH  16  17
ENDBRANCH  15  16
ENDBRANCH  14  15
ENDBRANCH   4  14
BRANCH   1  33
HETATM   33  C6  UNL     1      10.368  18.183  15.877  1.00  0.00     0.172 C 
BRANCH  33  34
HETATM   34  O2  UNL     1      10.894  18.604  14.633  1.00  0.00    -0.313 OA
BRANCH  34  35
HETATM   35  C5  UNL     1      10.073  18.953  13.552  1.00  0.00     0.259 C 
HETATM   36  O1  UNL     1       9.211  18.100  13.258  1.00  0.00    -0.265 OA
BRANCH  35  37
HETATM   37  C4  UNL     1      10.221  20.211  12.835  1.00  0.00     0.111 C 
BRANCH  37  38
HETATM   38  C3  UNL     1       8.918  20.828  12.488  1.00  0.00     0.009 C 
BRANCH  38  39
HETATM   39  C2  UNL     1       8.615  22.046  13.306  1.00  0.00    -0.004 C 
HETATM   40  C1  UNL     1       7.542  22.867  12.603  1.00  0.00     0.005 C 
ENDBRANCH  38  39
ENDBRANCH  37  38
ENDBRANCH  35  37
ENDBRANCH  34  35
ENDBRANCH  33  34
BRANCH  33  41
HETATM   41  C7  UNL     1      10.865  16.772  16.092  1.00  0.00     0.265 C 
BRANCH  41  42
HETATM   42  N1  UNL     1      11.074  16.034  14.874  1.00  0.00    -0.077 N 
HETATM   43  C8  UNL     1      10.123  14.980  14.640  1.00  0.00     0.267 C 
ATOM     44  H12 UNL     1      11.103  16.668  14.076  1.00  0.00     0.276 HD
ATOM     45  H11 UNL     1      12.025  15.666  14.843  1.00  0.00     0.276 HD
ENDBRANCH  41  42
ENDBRANCH  33  41
ENDBRANCH   1  33
TORSDOF 14
ENDMDL
