MODEL 1
REMARK VINA RESULT: -8.950731137      0.000      0.000
REMARK  15 active torsions:
REMARK  status: ('A' for Active; 'I' for Inactive)
REMARK    1  A    between atoms: C3_3  and  C4_4 
REMARK    2  A    between atoms: C4_4  and  C5_5 
REMARK    3  A    between atoms: C8_9  and  O2_11 
REMARK    4  A    between atoms: C15_19  and  C16_20 
REMARK    5  A    between atoms: C16_20  and  C17_21 
REMARK    6  A    between atoms: C17_21  and  C18_22 
REMARK       I    between atoms: N1_23  and  C19_25 
REMARK    7  A    between atoms: C19_25  and  C20_27 
REMARK    8  A    between atoms: C20_27  and  C21_28 
REMARK    9  A    between atoms: C21_28  and  N2_29 
REMARK   10  A    between atoms: C25_34  and  O6_35 
REMARK   11  A    between atoms: C26_37  and  C27_38 
REMARK   12  A    between atoms: C27_38  and  O7_39 
REMARK   13  A    between atoms: C28_41  and  C29_42 
REMARK   14  A    between atoms: C29_42  and  C30_43 
REMARK   15  A    between atoms: C30_43  and  C31_44 
ROOT
HETATM    1  C1  UNL     1      15.377  19.970  18.871  1.00  0.00     0.012 C 
HETATM    2  C2  UNL     1      16.496  20.344  18.620  1.00  0.00    -0.117 C 
HETATM    3  C3  UNL     1      17.878  20.793  18.288  1.00  0.00     0.096 C 
ENDROOT
BRANCH   3   4
HETATM    4  C4  UNL     1      18.056  20.869  16.798  1.00  0.00     0.049 C 
BRANCH   4   5
HETATM    5  C5  UNL     1      18.051  22.293  16.242  1.00  0.00     0.158 C 
HETATM    6  O1  UNL     1      19.025  22.944  17.048  1.00  0.00    -0.344 OA
HETATM    7  C6  UNL     1      19.592  24.179  17.127  1.00  0.00     0.069 C 
HETATM    8  C7  UNL     1      20.287  23.969  18.238  1.00  0.00     0.044 C 
HETATM    9  C13 UNL     1      19.546  25.395  16.348  1.00  0.00     0.118 C 
HETATM   10  C8  UNL     1      21.193  24.766  19.061  1.00  0.00     0.077 C 
HETATM   11  C9  UNL     1      20.513  25.220  20.362  1.00  0.00     0.051 C 
HETATM   12  C10 UNL     1      21.825  25.944  18.407  1.00  0.00     0.068 C 
HETATM   13  C11 UNL     1      20.776  26.878  17.968  1.00  0.00    -0.026 C 
HETATM   14  C12 UNL     1      19.822  26.638  17.102  1.00  0.00    -0.004 C 
HETATM   15  C14 UNL     1      20.411  25.450  15.143  1.00  0.00     0.177 C 
HETATM   16  C24 UNL     1      18.204  25.498  15.584  1.00  0.00     0.181 C 
HETATM   17  O3  UNL     1      21.457  24.952  14.864  1.00  0.00    -0.293 OA
HETATM   18  C15 UNL     1      19.628  26.374  14.206  1.00  0.00     0.193 C 
HETATM   19  O5  UNL     1      18.486  26.694  14.926  1.00  0.00    -0.368 OA
HETATM   20  C25 UNL     1      17.048  25.475  16.480  1.00  0.00     0.180 C 
HETATM   21  C26 UNL     1      16.332  24.179  16.707  1.00  0.00    -0.021 C 
HETATM   22  C28 UNL     1      16.797  22.961  16.009  1.00  0.00    -0.044 C 
BRANCH  10  23
HETATM   23  O2  UNL     1      22.235  23.913  19.481  1.00  0.00    -0.386 OA
ATOM     24  H2  UNL     1      22.018  23.613  20.356  1.00  0.00     0.211 HD
ENDBRANCH  10  23
BRANCH  18  25
HETATM   25  C16 UNL     1      20.513  27.505  13.871  1.00  0.00     0.045 C 
BRANCH  25  26
HETATM   26  C17 UNL     1      21.888  27.366  14.439  1.00  0.00     0.047 C 
BRANCH  26  27
HETATM   27  C18 UNL     1      22.367  28.594  15.069  1.00  0.00     0.064 C 
HETATM   28  N1  UNL     1      23.373  28.606  15.844  1.00  0.00    -0.341 N 
HETATM   29  C19 UNL     1      24.145  27.507  16.201  1.00  0.00     0.222 C 
ATOM     30  H1  UNL     1      23.640  29.507  16.241  1.00  0.00     0.167 HD
HETATM   31  O4  UNL     1      24.104  26.448  15.521  1.00  0.00    -0.273 OA
BRANCH  29  32
HETATM   32  C20 UNL     1      25.046  27.568  17.414  1.00  0.00     0.133 C 
BRANCH  32  33
HETATM   33  C21 UNL     1      25.823  26.287  17.450  1.00  0.00     0.280 C 
BRANCH  33  34
HETATM   34  N2  UNL     1      25.385  25.352  18.445  1.00  0.00     0.080 N 
HETATM   35  C22 UNL     1      26.239  24.173  18.500  1.00  0.00     0.309 C 
HETATM   36  C23 UNL     1      25.410  25.967  19.771  1.00  0.00     0.309 C 
ENDBRANCH  33  34
ENDBRANCH  32  33
ENDBRANCH  29  32
ENDBRANCH  26  27
ENDBRANCH  25  26
ENDBRANCH  18  25
BRANCH  20  37
HETATM   37  O6  UNL     1      17.487  25.884  17.768  1.00  0.00    -0.388 OA
ATOM     38  H6  UNL     1      18.035  25.194  18.122  1.00  0.00     0.210 HD
ENDBRANCH  20  37
BRANCH  21  39
HETATM   39  C27 UNL     1      15.764  24.029  18.077  1.00  0.00     0.201 C 
BRANCH  39  40
HETATM   40  O7  UNL     1      14.710  24.787  18.443  1.00  0.00    -0.397 OA
ATOM     41  H7  UNL     1      14.852  25.549  18.991  1.00  0.00     0.209 HD
ENDBRANCH  39  40
ENDBRANCH  21  39
BRANCH  22  42
HETATM   42  C29 UNL     1      15.565  22.086  15.763  1.00  0.00     0.037 C 
BRANCH  42  43
HETATM   43  C30 UNL     1      15.309  21.800  14.308  1.00  0.00     0.004 C 
BRANCH  43  44
HETATM   44  C31 UNL     1      14.199  20.762  14.246  1.00  0.00    -0.004 C 
HETATM   45  C32 UNL     1      13.485  20.647  15.573  1.00  0.00     0.005 C 
ENDBRANCH  43  44
ENDBRANCH  42  43
ENDBRANCH  22  42
ENDBRANCH   4   5
ENDBRANCH   3   4
TORSDOF 15
ENDMDL
MODEL 2
REMARK VINA RESULT: -8.709634691      0.960      1.286
REMARK  15 active torsions:
REMARK  status: ('A' for Active; 'I' for Inactive)
REMARK    1  A    between atoms: C3_3  and  C4_4 
REMARK    2  A    between atoms: C4_4  and  C5_5 
REMARK    3  A    between atoms: C8_9  and  O2_11 
REMARK    4  A    between atoms: C15_19  and  C16_20 
REMARK    5  A    between atoms: C16_20  and  C17_21 
REMARK    6  A    between atoms: C17_21  and  C18_22 
REMARK       I    between atoms: N1_23  and  C19_25 
REMARK    7  A    between atoms: C19_25  and  C20_27 
REMARK    8  A    between atoms: C20_27  and  C21_28 
REMARK    9  A    between atoms: C21_28  and  N2_29 
REMARK   10  A    between atoms: C25_34  and  O6_35 
REMARK   11  A    between atoms: C26_37  and  C27_38 
REMARK   12  A    between atoms: C27_38  and  O7_39 
REMARK   13  A    between atoms: C28_41  and  C29_42 
REMARK   14  A    between atoms: C29_42  and  C30_43 
REMARK   15  A    between atoms: C30_43  and  C31_44 
ROOT
HETATM    1  C1  UNL     1      18.692  21.503  20.458  1.00  0.00     0.012 C 
HETATM    2  C2  UNL     1      18.083  21.121  19.489  1.00  0.00    -0.117 C 
HETATM    3  C3  UNL     1      17.345  20.667  18.277  1.00  0.00     0.096 C 
ENDROOT
BRANCH   3   4
HETATM    4  C4  UNL     1      18.205  20.822  17.055  1.00  0.00     0.049 C 
BRANCH   4   5
HETATM    5  C5  UNL     1      18.165  22.220  16.438  1.00  0.00     0.158 C 
HETATM    6  O1  UNL     1      19.132  22.924  17.208  1.00  0.00    -0.344 OA
HETATM    7  C6  UNL     1      19.673  24.173  17.229  1.00  0.00     0.069 C 
HETATM    8  C7  UNL     1      20.380  24.026  18.342  1.00  0.00     0.044 C 
HETATM    9  C13 UNL     1      19.596  25.354  16.400  1.00  0.00     0.118 C 
HETATM   10  C8  UNL     1      21.276  24.875  19.123  1.00  0.00     0.077 C 
HETATM   11  C9  UNL     1      20.596  25.371  20.408  1.00  0.00     0.051 C 
HETATM   12  C10 UNL     1      21.878  26.038  18.414  1.00  0.00     0.068 C 
HETATM   13  C11 UNL     1      20.807  26.929  17.944  1.00  0.00    -0.026 C 
HETATM   14  C12 UNL     1      19.852  26.633  17.097  1.00  0.00    -0.004 C 
HETATM   15  C14 UNL     1      20.451  25.375  15.186  1.00  0.00     0.177 C 
HETATM   16  C24 UNL     1      18.247  25.396  15.642  1.00  0.00     0.181 C 
HETATM   17  O3  UNL     1      21.505  24.886  14.920  1.00  0.00    -0.293 OA
HETATM   18  C15 UNL     1      19.642  26.241  14.216  1.00  0.00     0.193 C 
HETATM   19  O5  UNL     1      18.498  26.569  14.932  1.00  0.00    -0.368 OA
HETATM   20  C25 UNL     1      17.098  25.388  16.549  1.00  0.00     0.180 C 
HETATM   21  C26 UNL     1      16.411  24.088  16.836  1.00  0.00    -0.021 C 
HETATM   22  C28 UNL     1      16.896  22.852  16.188  1.00  0.00    -0.044 C 
BRANCH  10  23
HETATM   23  O2  UNL     1      22.339  24.063  19.570  1.00  0.00    -0.386 OA
ATOM     24  H2  UNL     1      22.113  23.758  20.441  1.00  0.00     0.211 HD
ENDBRANCH  10  23
BRANCH  18  25
HETATM   25  C16 UNL     1      20.501  27.375  13.826  1.00  0.00     0.045 C 
BRANCH  25  26
HETATM   26  C17 UNL     1      21.865  27.317  14.433  1.00  0.00     0.047 C 
BRANCH  26  27
HETATM   27  C18 UNL     1      22.342  28.624  14.880  1.00  0.00     0.064 C 
HETATM   28  N1  UNL     1      23.369  28.751  15.615  1.00  0.00    -0.341 N 
HETATM   29  C19 UNL     1      24.168  27.719  16.091  1.00  0.00     0.222 C 
ATOM     30  H1  UNL     1      23.632  29.700  15.880  1.00  0.00     0.167 HD
HETATM   31  O4  UNL     1      24.125  26.578  15.559  1.00  0.00    -0.273 OA
BRANCH  29  32
HETATM   32  C20 UNL     1      25.102  27.952  17.258  1.00  0.00     0.133 C 
BRANCH  32  33
HETATM   33  C21 UNL     1      25.860  26.677  17.476  1.00  0.00     0.280 C 
BRANCH  33  34
HETATM   34  N2  UNL     1      27.264  26.764  17.200  1.00  0.00     0.080 N 
HETATM   35  C22 UNL     1      27.632  26.028  15.998  1.00  0.00     0.309 C 
HETATM   36  C23 UNL     1      27.660  28.156  16.993  1.00  0.00     0.309 C 
ENDBRANCH  33  34
ENDBRANCH  32  33
ENDBRANCH  29  32
ENDBRANCH  26  27
ENDBRANCH  25  26
ENDBRANCH  18  25
BRANCH  20  37
HETATM   37  O6  UNL     1      17.538  25.861  17.814  1.00  0.00    -0.388 OA
ATOM     38  H6  UNL     1      17.927  25.130  18.279  1.00  0.00     0.210 HD
ENDBRANCH  20  37
BRANCH  21  39
HETATM   39  C27 UNL     1      15.856  23.986  18.216  1.00  0.00     0.201 C 
BRANCH  39  40
HETATM   40  O7  UNL     1      14.729  24.657  18.527  1.00  0.00    -0.397 OA
ATOM     41  H7  UNL     1      14.397  24.623  19.416  1.00  0.00     0.209 HD
ENDBRANCH  39  40
ENDBRANCH  21  39
BRANCH  22  42
HETATM   42  C29 UNL     1      15.681  21.942  15.990  1.00  0.00     0.037 C 
BRANCH  42  43
HETATM   43  C30 UNL     1      15.222  21.850  14.559  1.00  0.00     0.004 C 
BRANCH  43  44
HETATM   44  C31 UNL     1      13.719  22.076  14.557  1.00  0.00    -0.004 C 
HETATM   45  C32 UNL     1      13.373  23.449  15.082  1.00  0.00     0.005 C 
ENDBRANCH  43  44
ENDBRANCH  42  43
ENDBRANCH  22  42
ENDBRANCH   4   5
ENDBRANCH   3   4
TORSDOF 15
ENDMDL
MODEL 3
REMARK VINA RESULT: -8.022249823      5.187     10.992
REMARK  15 active torsions:
REMARK  status: ('A' for Active; 'I' for Inactive)
REMARK    1  A    between atoms: C3_3  and  C4_4 
REMARK    2  A    between atoms: C4_4  and  C5_5 
REMARK    3  A    between atoms: C8_9  and  O2_11 
REMARK    4  A    between atoms: C15_19  and  C16_20 
REMARK    5  A    between atoms: C16_20  and  C17_21 
REMARK    6  A    between atoms: C17_21  and  C18_22 
REMARK       I    between atoms: N1_23  and  C19_25 
REMARK    7  A    between atoms: C19_25  and  C20_27 
REMARK    8  A    between atoms: C20_27  and  C21_28 
REMARK    9  A    between atoms: C21_28  and  N2_29 
REMARK   10  A    between atoms: C25_34  and  O6_35 
REMARK   11  A    between atoms: C26_37  and  C27_38 
REMARK   12  A    between atoms: C27_38  and  O7_39 
REMARK   13  A    between atoms: C28_41  and  C29_42 
REMARK   14  A    between atoms: C29_42  and  C30_43 
REMARK   15  A    between atoms: C30_43  and  C31_44 
ROOT
HETATM    1  C1  UNL     1      19.315  24.923  16.035  1.00  0.00     0.012 C 
HETATM    2  C2  UNL     1      18.696  23.904  15.846  1.00  0.00    -0.117 C 
HETATM    3  C3  UNL     1      17.953  22.632  15.623  1.00  0.00     0.096 C 
ENDROOT
BRANCH   3   4
HETATM    4  C4  UNL     1      18.404  21.587  16.603  1.00  0.00     0.049 C 
BRANCH   4   5
HETATM    5  C5  UNL     1      17.360  21.232  17.662  1.00  0.00     0.158 C 
HETATM    6  O1  UNL     1      16.209  20.947  16.876  1.00  0.00    -0.344 OA
HETATM    7  C6  UNL     1      14.931  20.531  17.093  1.00  0.00     0.069 C 
HETATM    8  C7  UNL     1      14.501  20.665  15.845  1.00  0.00     0.044 C 
HETATM    9  C13 UNL     1      14.165  20.076  18.230  1.00  0.00     0.118 C 
HETATM   10  C8  UNL     1      13.234  20.443  15.154  1.00  0.00     0.077 C 
HETATM   11  C9  UNL     1      12.531  21.771  14.835  1.00  0.00     0.051 C 
HETATM   12  C10 UNL     1      12.265  19.528  15.817  1.00  0.00     0.068 C 
HETATM   13  C11 UNL     1      11.900  20.076  17.132  1.00  0.00    -0.026 C 
HETATM   14  C12 UNL     1      12.706  20.303  18.141  1.00  0.00    -0.004 C 
HETATM   15  C14 UNL     1      14.332  18.653  18.621  1.00  0.00     0.177 C 
HETATM   16  C24 UNL     1      14.738  20.667  19.541  1.00  0.00     0.181 C 
HETATM   17  O3  UNL     1      14.585  17.661  18.010  1.00  0.00    -0.293 OA
HETATM   18  C15 UNL     1      14.090  18.686  20.133  1.00  0.00     0.193 C 
HETATM   19  O5  UNL     1      13.853  20.026  20.407  1.00  0.00    -0.368 OA
HETATM   20  C25 UNL     1      14.741  22.130  19.539  1.00  0.00     0.180 C 
HETATM   21  C26 UNL     1      16.000  22.850  19.162  1.00  0.00    -0.021 C 
HETATM   22  C28 UNL     1      17.208  22.072  18.821  1.00  0.00    -0.044 C 
BRANCH  10  23
HETATM   23  O2  UNL     1      13.537  19.887  13.893  1.00  0.00    -0.386 OA
ATOM     24  H2  UNL     1      13.209  20.488  13.234  1.00  0.00     0.211 HD
ENDBRANCH  10  23
BRANCH  18  25
HETATM   25  C16 UNL     1      12.971  17.766  20.414  1.00  0.00     0.045 C 
BRANCH  25  26
HETATM   26  C17 UNL     1      12.307  17.251  19.179  1.00  0.00     0.047 C 
BRANCH  26  27
HETATM   27  C18 UNL     1      10.868  17.502  19.163  1.00  0.00     0.064 C 
HETATM   28  N1  UNL     1      10.130  17.135  18.197  1.00  0.00    -0.341 N 
HETATM   29  C19 UNL     1      10.550  16.466  17.054  1.00  0.00     0.222 C 
ATOM     30  H1  UNL     1       9.135  17.350  18.267  1.00  0.00     0.167 HD
HETATM   31  O4  UNL     1      11.663  15.876  17.030  1.00  0.00    -0.273 OA
BRANCH  29  32
HETATM   32  C20 UNL     1       9.676  16.438  15.820  1.00  0.00     0.133 C 
BRANCH  32  33
HETATM   33  C21 UNL     1      10.526  15.942  14.689  1.00  0.00     0.280 C 
BRANCH  33  34
HETATM   34  N2  UNL     1      10.990  16.966  13.800  1.00  0.00     0.080 N 
HETATM   35  C22 UNL     1      11.714  16.415  12.662  1.00  0.00     0.309 C 
HETATM   36  C23 UNL     1       9.863  17.731  13.267  1.00  0.00     0.309 C 
ENDBRANCH  33  34
ENDBRANCH  32  33
ENDBRANCH  29  32
ENDBRANCH  26  27
ENDBRANCH  25  26
ENDBRANCH  18  25
BRANCH  20  37
HETATM   37  O6  UNL     1      13.770  22.566  18.597  1.00  0.00    -0.388 OA
ATOM     38  H6  UNL     1      14.169  23.240  18.059  1.00  0.00     0.210 HD
ENDBRANCH  20  37
BRANCH  21  39
HETATM   39  C27 UNL     1      15.771  24.141  18.451  1.00  0.00     0.201 C 
BRANCH  39  40
HETATM   40  O7  UNL     1      15.442  24.126  17.143  1.00  0.00    -0.397 OA
ATOM     41  H7  UNL     1      16.070  24.434  16.501  1.00  0.00     0.209 HD
ENDBRANCH  39  40
ENDBRANCH  21  39
BRANCH  22  42
HETATM   42  C29 UNL     1      18.417  22.906  19.252  1.00  0.00     0.037 C 
BRANCH  42  43
HETATM   43  C30 UNL     1      18.498  23.130  20.739  1.00  0.00     0.004 C 
BRANCH  43  44
HETATM   44  C31 UNL     1      19.257  24.429  20.953  1.00  0.00    -0.004 C 
HETATM   45  C32 UNL     1      20.094  24.779  19.746  1.00  0.00     0.005 C 
ENDBRANCH  43  44
ENDBRANCH  42  43
ENDBRANCH  22  42
ENDBRANCH   4   5
ENDBRANCH   3   4
TORSDOF 15
ENDMDL
MODEL 4
REMARK VINA RESULT: -7.711105445      4.691     10.331
REMARK  15 active torsions:
REMARK  status: ('A' for Active; 'I' for Inactive)
REMARK    1  A    between atoms: C3_3  and  C4_4 
REMARK    2  A    between atoms: C4_4  and  C5_5 
REMARK    3  A    between atoms: C8_9  and  O2_11 
REMARK    4  A    between atoms: C15_19  and  C16_20 
REMARK    5  A    between atoms: C16_20  and  C17_21 
REMARK    6  A    between atoms: C17_21  and  C18_22 
REMARK       I    between atoms: N1_23  and  C19_25 
REMARK    7  A    between atoms: C19_25  and  C20_27 
REMARK    8  A    between atoms: C20_27  and  C21_28 
REMARK    9  A    between atoms: C21_28  and  N2_29 
REMARK   10  A    between atoms: C25_34  and  O6_35 
REMARK   11  A    between atoms: C26_37  and  C27_38 
REMARK   12  A    between atoms: C27_38  and  O7_39 
REMARK   13  A    between atoms: C28_41  and  C29_42 
REMARK   14  A    between atoms: C29_42  and  C30_43 
REMARK   15  A    between atoms: C30_43  and  C31_44 
ROOT
HETATM    1  C1  UNL     1      20.305  26.813  15.899  1.00  0.00     0.012 C 
HETATM    2  C2  UNL     1      19.829  25.736  15.638  1.00  0.00    -0.117 C 
HETATM    3  C3  UNL     1      19.261  24.394  15.326  1.00  0.00     0.096 C 
ENDROOT
BRANCH   3   4
HETATM    4  C4  UNL     1      19.736  23.383  16.331  1.00  0.00     0.049 C 
BRANCH   4   5
HETATM    5  C5  UNL     1      18.646  22.893  17.286  1.00  0.00     0.158 C 
HETATM    6  O1  UNL     1      17.626  22.460  16.394  1.00  0.00    -0.344 OA
HETATM    7  C6  UNL     1      16.398  21.881  16.489  1.00  0.00     0.069 C 
HETATM    8  C7  UNL     1      16.081  21.957  15.203  1.00  0.00     0.044 C 
HETATM    9  C13 UNL     1      15.589  21.328  17.552  1.00  0.00     0.118 C 
HETATM   10  C8  UNL     1      14.929  21.571  14.394  1.00  0.00     0.077 C 
HETATM   11  C9  UNL     1      14.093  22.795  13.990  1.00  0.00     0.051 C 
HETATM   12  C10 UNL     1      14.027  20.536  14.970  1.00  0.00     0.068 C 
HETATM   13  C11 UNL     1      13.464  21.032  16.235  1.00  0.00    -0.026 C 
HETATM   14  C12 UNL     1      14.129  21.362  17.315  1.00  0.00    -0.004 C 
HETATM   15  C14 UNL     1      15.900  19.939  17.975  1.00  0.00     0.177 C 
HETATM   16  C24 UNL     1      15.947  21.989  18.905  1.00  0.00     0.181 C 
HETATM   17  O3  UNL     1      16.341  18.990  17.404  1.00  0.00    -0.293 OA
HETATM   18  C15 UNL     1      15.507  19.940  19.455  1.00  0.00     0.193 C 
HETATM   19  O5  UNL     1      15.071  21.237  19.687  1.00  0.00    -0.368 OA
HETATM   20  C25 UNL     1      15.759  23.440  18.884  1.00  0.00     0.180 C 
HETATM   21  C26 UNL     1      16.944  24.319  18.624  1.00  0.00    -0.021 C 
HETATM   22  C28 UNL     1      18.271  23.706  18.413  1.00  0.00    -0.044 C 
BRANCH  10  23
HETATM   23  O2  UNL     1      15.426  21.060  13.176  1.00  0.00    -0.386 OA
ATOM     24  H2  UNL     1      15.743  21.799  12.669  1.00  0.00     0.211 HD
ENDBRANCH  10  23
BRANCH  18  25
HETATM   25  C16 UNL     1      14.495  18.882  19.636  1.00  0.00     0.045 C 
BRANCH  25  26
HETATM   26  C17 UNL     1      13.101  19.409  19.728  1.00  0.00     0.047 C 
BRANCH  26  27
HETATM   27  C18 UNL     1      12.194  18.496  20.419  1.00  0.00     0.064 C 
HETATM   28  N1  UNL     1      11.463  17.668  19.792  1.00  0.00    -0.341 N 
HETATM   29  C19 UNL     1      11.409  17.504  18.413  1.00  0.00     0.222 C 
ATOM     30  H1  UNL     1      10.859  17.067  20.353  1.00  0.00     0.167 HD
HETATM   31  O4  UNL     1      12.332  17.948  17.679  1.00  0.00    -0.273 OA
BRANCH  29  32
HETATM   32  C20 UNL     1      10.239  16.790  17.774  1.00  0.00     0.133 C 
BRANCH  32  33
HETATM   33  C21 UNL     1      10.717  16.253  16.458  1.00  0.00     0.280 C 
BRANCH  33  34
HETATM   34  N2  UNL     1       9.929  16.652  15.330  1.00  0.00     0.080 N 
HETATM   35  C22 UNL     1      10.196  18.029  14.937  1.00  0.00     0.309 C 
HETATM   36  C23 UNL     1      10.224  15.807  14.174  1.00  0.00     0.309 C 
ENDBRANCH  33  34
ENDBRANCH  32  33
ENDBRANCH  29  32
ENDBRANCH  26  27
ENDBRANCH  25  26
ENDBRANCH  18  25
BRANCH  20  37
HETATM   37  O6  UNL     1      14.838  23.745  17.846  1.00  0.00    -0.388 OA
ATOM     38  H6  UNL     1      15.326  24.126  17.126  1.00  0.00     0.210 HD
ENDBRANCH  20  37
BRANCH  21  39
HETATM   39  C27 UNL     1      16.621  25.569  17.877  1.00  0.00     0.201 C 
BRANCH  39  40
HETATM   40  O7  UNL     1      16.509  25.527  16.534  1.00  0.00    -0.397 OA
ATOM     41  H7  UNL     1      16.821  24.763  16.064  1.00  0.00     0.209 HD
ENDBRANCH  39  40
ENDBRANCH  21  39
BRANCH  22  42
HETATM   42  C29 UNL     1      19.312  24.692  18.951  1.00  0.00     0.037 C 
BRANCH  42  43
HETATM   43  C30 UNL     1      19.648  24.483  20.404  1.00  0.00     0.004 C 
BRANCH  43  44
HETATM   44  C31 UNL     1      21.066  24.990  20.611  1.00  0.00    -0.004 C 
HETATM   45  C32 UNL     1      21.802  25.107  19.297  1.00  0.00     0.005 C 
ENDBRANCH  43  44
ENDBRANCH  42  43
ENDBRANCH  22  42
ENDBRANCH   4   5
ENDBRANCH   3   4
TORSDOF 15
ENDMDL
MODEL 5
REMARK VINA RESULT: -7.418477392      1.665      2.227
REMARK  15 active torsions:
REMARK  status: ('A' for Active; 'I' for Inactive)
REMARK    1  A    between atoms: C3_3  and  C4_4 
REMARK    2  A    between atoms: C4_4  and  C5_5 
REMARK    3  A    between atoms: C8_9  and  O2_11 
REMARK    4  A    between atoms: C15_19  and  C16_20 
REMARK    5  A    between atoms: C16_20  and  C17_21 
REMARK    6  A    between atoms: C17_21  and  C18_22 
REMARK       I    between atoms: N1_23  and  C19_25 
REMARK    7  A    between atoms: C19_25  and  C20_27 
REMARK    8  A    between atoms: C20_27  and  C21_28 
REMARK    9  A    between atoms: C21_28  and  N2_29 
REMARK   10  A    between atoms: C25_34  and  O6_35 
REMARK   11  A    between atoms: C26_37  and  C27_38 
REMARK   12  A    between atoms: C27_38  and  O7_39 
REMARK   13  A    between atoms: C28_41  and  C29_42 
REMARK   14  A    between atoms: C29_42  and  C30_43 
REMARK   15  A    between atoms: C30_43  and  C31_44 
ROOT
HETATM    1  C1  UNL     1      12.833  19.707  18.899  1.00  0.00     0.012 C 
HETATM    2  C2  UNL     1      14.015  19.940  18.946  1.00  0.00    -0.117 C 
HETATM    3  C3  UNL     1      15.480  20.210  18.985  1.00  0.00     0.096 C 
ENDROOT
BRANCH   3   4
HETATM    4  C4  UNL     1      16.092  19.958  17.636  1.00  0.00     0.049 C 
BRANCH   4   5
HETATM    5  C5  UNL     1      16.527  21.227  16.901  1.00  0.00     0.158 C 
HETATM    6  O1  UNL     1      17.319  21.892  17.877  1.00  0.00    -0.344 OA
HETATM    7  C6  UNL     1      18.061  23.030  17.953  1.00  0.00     0.069 C 
HETATM    8  C7  UNL     1      18.336  22.961  19.249  1.00  0.00     0.044 C 
HETATM    9  C13 UNL     1      18.485  24.058  17.029  1.00  0.00     0.118 C 
HETATM   10  C8  UNL     1      19.087  23.780  20.196  1.00  0.00     0.077 C 
HETATM   11  C9  UNL     1      18.148  24.576  21.115  1.00  0.00     0.051 C 
HETATM   12  C10 UNL     1      20.100  24.706  19.619  1.00  0.00     0.068 C 
HETATM   13  C11 UNL     1      19.431  25.662  18.723  1.00  0.00    -0.026 C 
HETATM   14  C12 UNL     1      18.755  25.380  17.637  1.00  0.00    -0.004 C 
HETATM   15  C14 UNL     1      19.667  23.750  16.184  1.00  0.00     0.177 C 
HETATM   16  C24 UNL     1      17.481  24.180  15.858  1.00  0.00     0.181 C 
HETATM   17  O3  UNL     1      20.633  23.071  16.345  1.00  0.00    -0.293 OA
HETATM   18  C15 UNL     1      19.394  24.560  14.913  1.00  0.00     0.193 C 
HETATM   19  O5  UNL     1      18.171  25.169  15.158  1.00  0.00    -0.368 OA
HETATM   20  C25 UNL     1      16.127  24.495  16.314  1.00  0.00     0.180 C 
HETATM   21  C26 UNL     1      15.142  23.379  16.483  1.00  0.00    -0.021 C 
HETATM   22  C28 UNL     1      15.553  21.994  16.170  1.00  0.00    -0.044 C 
BRANCH  10  23
HETATM   23  O2  UNL     1      19.771  22.899  21.060  1.00  0.00    -0.386 OA
ATOM     24  H2  UNL     1      20.203  22.250  20.517  1.00  0.00     0.211 HD
ENDBRANCH  10  23
BRANCH  18  25
HETATM   25  C16 UNL     1      20.538  25.471  14.724  1.00  0.00     0.045 C 
BRANCH  25  26
HETATM   26  C17 UNL     1      20.145  26.912  14.693  1.00  0.00     0.047 C 
BRANCH  26  27
HETATM   27  C18 UNL     1      20.549  27.636  15.896  1.00  0.00     0.064 C 
HETATM   28  N1  UNL     1      21.610  28.331  15.940  1.00  0.00    -0.341 N 
HETATM   29  C19 UNL     1      22.516  28.509  14.902  1.00  0.00     0.222 C 
ATOM     30  H1  UNL     1      21.816  28.804  16.820  1.00  0.00     0.167 HD
HETATM   31  O4  UNL     1      22.187  28.251  13.713  1.00  0.00    -0.273 OA
BRANCH  29  32
HETATM   32  C20 UNL     1      23.913  29.014  15.185  1.00  0.00     0.133 C 
BRANCH  32  33
HETATM   33  C21 UNL     1      24.428  28.247  16.366  1.00  0.00     0.280 C 
BRANCH  33  34
HETATM   34  N2  UNL     1      24.972  26.959  16.049  1.00  0.00     0.080 N 
HETATM   35  C22 UNL     1      26.353  27.047  15.593  1.00  0.00     0.309 C 
HETATM   36  C23 UNL     1      24.958  26.093  17.226  1.00  0.00     0.309 C 
ENDBRANCH  33  34
ENDBRANCH  32  33
ENDBRANCH  29  32
ENDBRANCH  26  27
ENDBRANCH  25  26
ENDBRANCH  18  25
BRANCH  20  37
HETATM   37  O6  UNL     1      16.228  25.096  17.598  1.00  0.00    -0.388 OA
ATOM     38  H6  UNL     1      15.831  24.506  18.228  1.00  0.00     0.210 HD
ENDBRANCH  20  37
BRANCH  21  39
HETATM   39  C27 UNL     1      14.170  23.588  17.594  1.00  0.00     0.201 C 
BRANCH  39  40
HETATM   40  O7  UNL     1      14.566  23.382  18.867  1.00  0.00    -0.397 OA
ATOM     41  H7  UNL     1      15.205  23.966  19.257  1.00  0.00     0.209 HD
ENDBRANCH  39  40
ENDBRANCH  21  39
BRANCH  22  42
HETATM   42  C29 UNL     1      14.309  21.260  15.665  1.00  0.00     0.037 C 
BRANCH  42  43
HETATM   43  C30 UNL     1      14.385  20.870  14.212  1.00  0.00     0.004 C 
BRANCH  43  44
HETATM   44  C31 UNL     1      13.078  20.175  13.868  1.00  0.00    -0.004 C 
HETATM   45  C32 UNL     1      12.100  20.249  15.017  1.00  0.00     0.005 C 
ENDBRANCH  43  44
ENDBRANCH  42  43
ENDBRANCH  22  42
ENDBRANCH   4   5
ENDBRANCH   3   4
TORSDOF 15
ENDMDL
