MODEL 1
REMARK VINA RESULT: -8.462532923      0.000      0.000
REMARK  14 active torsions:
REMARK  status: ('A' for Active; 'I' for Inactive)
REMARK    1  A    between atoms: C2_2  and  O1_3 
REMARK    2  A    between atoms: O1_3  and  C3_4 
REMARK       I    between atoms: C3_4  and  N1_6 
REMARK    3  A    between atoms: C6_9  and  C7_10 
REMARK       I    between atoms: C7_10  and  N2_12 
REMARK    4  A    between atoms: N3_15  and  C10_16 
REMARK    5  A    between atoms: C11_19  and  C12_20 
REMARK    6  A    between atoms: C12_20  and  N5_22 
REMARK    7  A    between atoms: N5_22  and  C13_24 
REMARK    8  A    between atoms: C13_24  and  C14_25 
REMARK    9  A    between atoms: C13_24  and  C20_34 
REMARK   10  A    between atoms: C14_25  and  C15_26 
REMARK   11  A    between atoms: C15_26  and  C16_27 
REMARK   12  A    between atoms: C16_27  and  C17_28 
REMARK   13  A    between atoms: C17_28  and  C18_29 
REMARK   14  A    between atoms: C18_29  and  N6_30 
ROOT
HETATM    1  C10 UNL     1      15.695  21.766  17.897  1.00  0.00     0.117 A 
HETATM    2  N4  UNL     1      14.490  21.424  17.555  1.00  0.00    -0.334 N 
ATOM      3  H4  UNL     1      14.012  21.942  16.819  1.00  0.00     0.168 HD
HETATM    4  C11 UNL     1      13.867  20.404  18.151  1.00  0.00     0.114 A 
HETATM    5  S2  UNL     1      15.062  19.917  19.248  1.00  0.00    -0.070 SA
HETATM    6  C21 UNL     1      16.296  21.046  18.884  1.00  0.00     0.025 A 
HETATM    7  C22 UNL     1      17.630  21.096  19.541  1.00  0.00     0.060 C 
ENDROOT
BRANCH   1   8
HETATM    8  N3  UNL     1      16.324  22.907  17.262  1.00  0.00    -0.363 N 
HETATM    9  C9  UNL     1      17.016  22.709  15.980  1.00  0.00     0.144 C 
HETATM   10  C8  UNL     1      17.554  24.004  15.418  1.00  0.00     0.145 C 
HETATM   11  N2  UNL     1      18.145  24.868  16.396  1.00  0.00    -0.349 N 
HETATM   12  C7  UNL     1      19.068  25.865  16.043  1.00  0.00     0.224 C 
HETATM   13  C24 UNL     1      17.773  24.711  17.787  1.00  0.00     0.145 C 
HETATM   14  O3  UNL     1      19.528  26.612  16.977  1.00  0.00    -0.273 OA
HETATM   15  C23 UNL     1      16.303  24.247  17.746  1.00  0.00     0.144 C 
BRANCH  12  16
HETATM   16  C6  UNL     1      19.585  26.165  14.695  1.00  0.00     0.081 C 
HETATM   17  C5  UNL     1      20.668  25.255  14.216  1.00  0.00     0.034 C 
HETATM   18  C4  UNL     1      22.049  25.624  14.722  1.00  0.00     0.129 C 
HETATM   19  N1  UNL     1      22.104  27.030  15.088  1.00  0.00    -0.328 N 
HETATM   20  C3  UNL     1      22.933  27.437  16.142  1.00  0.00     0.362 C 
HETATM   21  C26 UNL     1      21.299  27.944  14.344  1.00  0.00     0.129 C 
HETATM   22  O2  UNL     1      23.007  28.644  16.494  1.00  0.00    -0.238 OA
HETATM   23  C25 UNL     1      19.845  27.621  14.562  1.00  0.00     0.034 C 
BRANCH  20  24
HETATM   24  O1  UNL     1      23.697  26.521  16.829  1.00  0.00    -0.304 OA
BRANCH  24  25
HETATM   25  C2  UNL     1      25.074  26.568  17.041  1.00  0.00     0.176 C 
HETATM   26  C1  UNL     1      25.891  26.776  15.807  1.00  0.00     0.034 C 
ENDBRANCH  24  25
ENDBRANCH  20  24
ENDBRANCH  12  16
ENDBRANCH   1   8
BRANCH   4  27
HETATM   27  C12 UNL     1      12.500  19.954  17.821  1.00  0.00     0.135 C 
HETATM   28  S1  UNL     1      11.919  18.700  18.774  1.00  0.00    -0.057 SA
BRANCH  27  29
HETATM   29  N5  UNL     1      11.717  20.481  16.818  1.00  0.00    -0.343 N 
ATOM     30  H5  UNL     1      11.301  21.369  17.097  1.00  0.00     0.167 HD
BRANCH  29  31
HETATM   31  C13 UNL     1      11.336  20.118  15.503  1.00  0.00     0.087 C 
BRANCH  31  32
HETATM   32  C14 UNL     1      12.068  20.803  14.376  1.00  0.00     0.064 C 
BRANCH  32  33
HETATM   33  C15 UNL     1      12.775  19.829  13.482  1.00  0.00     0.006 C 
BRANCH  33  34
HETATM   34  C16 UNL     1      12.043  19.049  12.487  1.00  0.00     0.002 C 
BRANCH  34  35
HETATM   35  C17 UNL     1      12.319  17.613  12.317  1.00  0.00     0.027 C 
BRANCH  35  36
HETATM   36  C18 UNL     1      11.440  16.570  12.848  1.00  0.00     0.231 C 
BRANCH  36  37
HETATM   37  N6  UNL     1      11.265  16.523  14.276  1.00  0.00    -0.079 N 
HETATM   38  C19 UNL     1      10.568  15.336  14.659  1.00  0.00     0.266 C 
ATOM     39  H62 UNL     1      12.153  16.617  14.769  1.00  0.00     0.276 HD
ATOM     40  H61 UNL     1      10.805  17.362  14.628  1.00  0.00     0.276 HD
ENDBRANCH  36  37
ENDBRANCH  35  36
ENDBRANCH  34  35
ENDBRANCH  33  34
ENDBRANCH  32  33
ENDBRANCH  31  32
BRANCH  31  41
HETATM   41  C20 UNL     1       9.896  19.919  15.310  1.00  0.00     0.222 C 
HETATM   42  O4  UNL     1       9.430  18.781  15.018  1.00  0.00    -0.643 OA
HETATM   43  O5  UNL     1       8.954  20.930  15.427  1.00  0.00    -0.643 OA
ENDBRANCH  31  41
ENDBRANCH  29  31
ENDBRANCH  27  29
ENDBRANCH   4  27
TORSDOF 14
ENDMDL
MODEL 2
REMARK VINA RESULT: -8.427783703      2.520      3.313
REMARK  14 active torsions:
REMARK  status: ('A' for Active; 'I' for Inactive)
REMARK    1  A    between atoms: C2_2  and  O1_3 
REMARK    2  A    between atoms: O1_3  and  C3_4 
REMARK       I    between atoms: C3_4  and  N1_6 
REMARK    3  A    between atoms: C6_9  and  C7_10 
REMARK       I    between atoms: C7_10  and  N2_12 
REMARK    4  A    between atoms: N3_15  and  C10_16 
REMARK    5  A    between atoms: C11_19  and  C12_20 
REMARK    6  A    between atoms: C12_20  and  N5_22 
REMARK    7  A    between atoms: N5_22  and  C13_24 
REMARK    8  A    between atoms: C13_24  and  C14_25 
REMARK    9  A    between atoms: C13_24  and  C20_34 
REMARK   10  A    between atoms: C14_25  and  C15_26 
REMARK   11  A    between atoms: C15_26  and  C16_27 
REMARK   12  A    between atoms: C16_27  and  C17_28 
REMARK   13  A    between atoms: C17_28  and  C18_29 
REMARK   14  A    between atoms: C18_29  and  N6_30 
ROOT
HETATM    1  C10 UNL     1      15.822  22.002  17.682  1.00  0.00     0.117 A 
HETATM    2  N4  UNL     1      14.683  21.635  17.179  1.00  0.00    -0.334 N 
ATOM      3  H4  UNL     1      14.284  22.163  16.404  1.00  0.00     0.168 HD
HETATM    4  C11 UNL     1      14.025  20.577  17.660  1.00  0.00     0.114 A 
HETATM    5  S2  UNL     1      15.088  20.089  18.885  1.00  0.00    -0.070 SA
HETATM    6  C21 UNL     1      16.318  21.268  18.716  1.00  0.00     0.025 A 
HETATM    7  C22 UNL     1      17.555  21.337  19.539  1.00  0.00     0.060 C 
ENDROOT
BRANCH   1   8
HETATM    8  N3  UNL     1      16.486  23.183  17.167  1.00  0.00    -0.363 N 
HETATM    9  C9  UNL     1      17.135  23.110  15.850  1.00  0.00     0.144 C 
HETATM   10  C8  UNL     1      17.717  24.439  15.428  1.00  0.00     0.145 C 
HETATM   11  N2  UNL     1      18.372  25.154  16.482  1.00  0.00    -0.349 N 
HETATM   12  C7  UNL     1      19.330  26.146  16.221  1.00  0.00     0.224 C 
HETATM   13  C24 UNL     1      18.029  24.849  17.856  1.00  0.00     0.145 C 
HETATM   14  O3  UNL     1      19.848  26.757  17.221  1.00  0.00    -0.273 OA
HETATM   15  C23 UNL     1      16.538  24.456  17.806  1.00  0.00     0.144 C 
BRANCH  12  16
HETATM   16  C6  UNL     1      19.825  26.582  14.902  1.00  0.00     0.081 C 
HETATM   17  C5  UNL     1      20.817  25.666  14.264  1.00  0.00     0.034 C 
HETATM   18  C4  UNL     1      22.238  25.861  14.754  1.00  0.00     0.129 C 
HETATM   19  N1  UNL     1      22.417  27.199  15.297  1.00  0.00    -0.328 N 
HETATM   20  C3  UNL     1      23.309  27.400  16.358  1.00  0.00     0.362 C 
HETATM   21  C26 UNL     1      21.662  28.259  14.711  1.00  0.00     0.129 C 
HETATM   22  O2  UNL     1      23.490  28.540  16.859  1.00  0.00    -0.238 OA
HETATM   23  C25 UNL     1      20.196  28.020  14.947  1.00  0.00     0.034 C 
BRANCH  20  24
HETATM   24  O1  UNL     1      24.019  26.347  16.888  1.00  0.00    -0.304 OA
BRANCH  24  25
HETATM   25  C2  UNL     1      25.404  26.246  17.011  1.00  0.00     0.176 C 
HETATM   26  C1  UNL     1      26.169  26.593  15.774  1.00  0.00     0.034 C 
ENDBRANCH  24  25
ENDBRANCH  20  24
ENDBRANCH  12  16
ENDBRANCH   1   8
BRANCH   4  27
HETATM   27  C12 UNL     1      12.728  20.097  17.144  1.00  0.00     0.135 C 
HETATM   28  S1  UNL     1      12.402  20.513  15.551  1.00  0.00    -0.057 SA
BRANCH  27  29
HETATM   29  N5  UNL     1      11.813  19.365  17.868  1.00  0.00    -0.343 N 
ATOM     30  H5  UNL     1      10.958  19.896  18.034  1.00  0.00     0.167 HD
BRANCH  29  31
HETATM   31  C13 UNL     1      11.742  18.073  18.442  1.00  0.00     0.087 C 
BRANCH  31  32
HETATM   32  C14 UNL     1      10.641  17.172  17.941  1.00  0.00     0.064 C 
BRANCH  32  33
HETATM   33  C15 UNL     1      11.173  15.922  17.307  1.00  0.00     0.006 C 
BRANCH  33  34
HETATM   34  C16 UNL     1      10.280  14.832  16.921  1.00  0.00     0.002 C 
BRANCH  34  35
HETATM   35  C17 UNL     1       9.497  14.114  17.939  1.00  0.00     0.027 C 
BRANCH  35  36
HETATM   36  C18 UNL     1       8.056  14.306  18.113  1.00  0.00     0.231 C 
BRANCH  36  37
HETATM   37  N6  UNL     1       7.634  15.438  18.895  1.00  0.00    -0.079 N 
HETATM   38  C19 UNL     1       6.279  15.280  19.318  1.00  0.00     0.266 C 
ATOM     39  H62 UNL     1       8.260  15.608  19.682  1.00  0.00     0.276 HD
ATOM     40  H61 UNL     1       7.774  16.316  18.396  1.00  0.00     0.276 HD
ENDBRANCH  36  37
ENDBRANCH  35  36
ENDBRANCH  34  35
ENDBRANCH  33  34
ENDBRANCH  32  33
ENDBRANCH  31  32
BRANCH  31  41
HETATM   41  C20 UNL     1      12.012  18.021  19.883  1.00  0.00     0.222 C 
HETATM   42  O4  UNL     1      11.564  18.910  20.662  1.00  0.00    -0.643 OA
HETATM   43  O5  UNL     1      12.760  17.025  20.494  1.00  0.00    -0.643 OA
ENDBRANCH  31  41
ENDBRANCH  29  31
ENDBRANCH  27  29
ENDBRANCH   4  27
TORSDOF 14
ENDMDL
MODEL 3
REMARK VINA RESULT: -8.365401504      4.493     10.791
REMARK  14 active torsions:
REMARK  status: ('A' for Active; 'I' for Inactive)
REMARK    1  A    between atoms: C2_2  and  O1_3 
REMARK    2  A    between atoms: O1_3  and  C3_4 
REMARK       I    between atoms: C3_4  and  N1_6 
REMARK    3  A    between atoms: C6_9  and  C7_10 
REMARK       I    between atoms: C7_10  and  N2_12 
REMARK    4  A    between atoms: N3_15  and  C10_16 
REMARK    5  A    between atoms: C11_19  and  C12_20 
REMARK    6  A    between atoms: C12_20  and  N5_22 
REMARK    7  A    between atoms: N5_22  and  C13_24 
REMARK    8  A    between atoms: C13_24  and  C14_25 
REMARK    9  A    between atoms: C13_24  and  C20_34 
REMARK   10  A    between atoms: C14_25  and  C15_26 
REMARK   11  A    between atoms: C15_26  and  C16_27 
REMARK   12  A    between atoms: C16_27  and  C17_28 
REMARK   13  A    between atoms: C17_28  and  C18_29 
REMARK   14  A    between atoms: C18_29  and  N6_30 
ROOT
HETATM    1  C10 UNL     1      20.951  26.151  16.607  1.00  0.00     0.117 A 
HETATM    2  N4  UNL     1      21.719  25.785  17.588  1.00  0.00    -0.334 N 
ATOM      3  H4  UNL     1      21.543  24.896  18.057  1.00  0.00     0.168 HD
HETATM    4  C11 UNL     1      22.734  26.551  17.993  1.00  0.00     0.114 A 
HETATM    5  S2  UNL     1      22.580  27.852  16.920  1.00  0.00    -0.070 SA
HETATM    6  C21 UNL     1      21.222  27.344  16.009  1.00  0.00     0.025 A 
HETATM    7  C22 UNL     1      20.618  28.101  14.880  1.00  0.00     0.060 C 
ENDROOT
BRANCH   1   8
HETATM    8  N3  UNL     1      19.829  25.317  16.224  1.00  0.00    -0.363 N 
HETATM    9  C9  UNL     1      18.467  25.804  16.487  1.00  0.00     0.144 C 
HETATM   10  C8  UNL     1      17.413  24.854  15.967  1.00  0.00     0.145 C 
HETATM   11  N2  UNL     1      17.707  23.470  16.191  1.00  0.00    -0.349 N 
HETATM   12  C7  UNL     1      16.703  22.490  16.197  1.00  0.00     0.224 C 
HETATM   13  C24 UNL     1      19.083  23.072  16.409  1.00  0.00     0.145 C 
HETATM   14  O3  UNL     1      17.056  21.272  16.377  1.00  0.00    -0.273 OA
HETATM   15  C23 UNL     1      19.912  24.059  15.562  1.00  0.00     0.144 C 
BRANCH  12  16
HETATM   16  C6  UNL     1      15.254  22.697  16.015  1.00  0.00     0.081 C 
HETATM   17  C5  UNL     1      14.530  23.193  17.223  1.00  0.00     0.034 C 
HETATM   18  C4  UNL     1      14.153  22.101  18.205  1.00  0.00     0.129 C 
HETATM   19  N1  UNL     1      14.082  20.811  17.538  1.00  0.00    -0.328 N 
HETATM   20  C3  UNL     1      14.429  19.650  18.242  1.00  0.00     0.362 C 
HETATM   21  C26 UNL     1      13.655  20.789  16.177  1.00  0.00     0.129 C 
HETATM   22  O2  UNL     1      14.385  18.514  17.701  1.00  0.00    -0.238 OA
HETATM   23  C25 UNL     1      14.654  21.525  15.327  1.00  0.00     0.034 C 
BRANCH  20  24
HETATM   24  O1  UNL     1      14.831  19.719  19.557  1.00  0.00    -0.304 OA
BRANCH  24  25
HETATM   25  C2  UNL     1      14.402  18.911  20.609  1.00  0.00     0.176 C 
HETATM   26  C1  UNL     1      12.918  18.761  20.718  1.00  0.00     0.034 C 
ENDBRANCH  24  25
ENDBRANCH  20  24
ENDBRANCH  12  16
ENDBRANCH   1   8
BRANCH   4  27
HETATM   27  C12 UNL     1      23.650  26.206  19.098  1.00  0.00     0.135 C 
HETATM   28  S1  UNL     1      25.228  26.746  18.903  1.00  0.00    -0.057 SA
BRANCH  27  29
HETATM   29  N5  UNL     1      23.297  25.496  20.223  1.00  0.00    -0.343 N 
ATOM     30  H5  UNL     1      23.717  24.567  20.226  1.00  0.00     0.167 HD
BRANCH  29  31
HETATM   31  C13 UNL     1      22.506  25.712  21.379  1.00  0.00     0.087 C 
BRANCH  31  32
HETATM   32  C14 UNL     1      21.028  25.918  21.155  1.00  0.00     0.064 C 
BRANCH  32  33
HETATM   33  C15 UNL     1      20.325  24.644  20.794  1.00  0.00     0.006 C 
BRANCH  33  34
HETATM   34  C16 UNL     1      18.874  24.521  20.920  1.00  0.00     0.002 C 
BRANCH  34  35
HETATM   35  C17 UNL     1      18.084  23.895  19.848  1.00  0.00     0.027 C 
BRANCH  35  36
HETATM   36  C18 UNL     1      17.203  22.749  20.078  1.00  0.00     0.231 C 
BRANCH  36  37
HETATM   37  N6  UNL     1      17.559  21.509  19.442  1.00  0.00    -0.079 N 
HETATM   38  C19 UNL     1      18.939  21.210  19.658  1.00  0.00     0.266 C 
ATOM     39  H62 UNL     1      16.955  20.744  19.741  1.00  0.00     0.276 HD
ATOM     40  H61 UNL     1      17.322  21.511  18.450  1.00  0.00     0.276 HD
ENDBRANCH  36  37
ENDBRANCH  35  36
ENDBRANCH  34  35
ENDBRANCH  33  34
ENDBRANCH  32  33
ENDBRANCH  31  32
BRANCH  31  41
HETATM   41  C20 UNL     1      23.127  26.557  22.404  1.00  0.00     0.222 C 
HETATM   42  O4  UNL     1      24.383  26.597  22.541  1.00  0.00    -0.643 OA
HETATM   43  O5  UNL     1      22.412  27.357  23.282  1.00  0.00    -0.643 OA
ENDBRANCH  31  41
ENDBRANCH  29  31
ENDBRANCH  27  29
ENDBRANCH   4  27
TORSDOF 14
ENDMDL
MODEL 4
REMARK VINA RESULT: -8.269132812      1.043      1.254
REMARK  14 active torsions:
REMARK  status: ('A' for Active; 'I' for Inactive)
REMARK    1  A    between atoms: C2_2  and  O1_3 
REMARK    2  A    between atoms: O1_3  and  C3_4 
REMARK       I    between atoms: C3_4  and  N1_6 
REMARK    3  A    between atoms: C6_9  and  C7_10 
REMARK       I    between atoms: C7_10  and  N2_12 
REMARK    4  A    between atoms: N3_15  and  C10_16 
REMARK    5  A    between atoms: C11_19  and  C12_20 
REMARK    6  A    between atoms: C12_20  and  N5_22 
REMARK    7  A    between atoms: N5_22  and  C13_24 
REMARK    8  A    between atoms: C13_24  and  C14_25 
REMARK    9  A    between atoms: C13_24  and  C20_34 
REMARK   10  A    between atoms: C14_25  and  C15_26 
REMARK   11  A    between atoms: C15_26  and  C16_27 
REMARK   12  A    between atoms: C16_27  and  C17_28 
REMARK   13  A    between atoms: C17_28  and  C18_29 
REMARK   14  A    between atoms: C18_29  and  N6_30 
ROOT
HETATM    1  C10 UNL     1      15.714  21.790  17.894  1.00  0.00     0.117 A 
HETATM    2  N4  UNL     1      14.502  21.455  17.570  1.00  0.00    -0.334 N 
ATOM      3  H4  UNL     1      14.016  21.978  16.841  1.00  0.00     0.168 HD
HETATM    4  C11 UNL     1      13.881  20.438  18.173  1.00  0.00     0.114 A 
HETATM    5  S2  UNL     1      15.090  19.942  19.252  1.00  0.00    -0.070 SA
HETATM    6  C21 UNL     1      16.325  21.065  18.871  1.00  0.00     0.025 A 
HETATM    7  C22 UNL     1      17.668  21.106  19.509  1.00  0.00     0.060 C 
ENDROOT
BRANCH   1   8
HETATM    8  N3  UNL     1      16.340  22.928  17.252  1.00  0.00    -0.363 N 
HETATM    9  C9  UNL     1      17.045  22.720  15.979  1.00  0.00     0.144 C 
HETATM   10  C8  UNL     1      17.579  24.012  15.406  1.00  0.00     0.145 C 
HETATM   11  N2  UNL     1      18.155  24.892  16.379  1.00  0.00    -0.349 N 
HETATM   12  C7  UNL     1      19.073  25.892  16.023  1.00  0.00     0.224 C 
HETATM   13  C24 UNL     1      17.771  24.749  17.768  1.00  0.00     0.145 C 
HETATM   14  O3  UNL     1      19.519  26.653  16.952  1.00  0.00    -0.273 OA
HETATM   15  C23 UNL     1      16.304  24.273  17.719  1.00  0.00     0.144 C 
BRANCH  12  16
HETATM   16  C6  UNL     1      19.600  26.180  14.676  1.00  0.00     0.081 C 
HETATM   17  C5  UNL     1      20.684  25.263  14.212  1.00  0.00     0.034 C 
HETATM   18  C4  UNL     1      22.062  25.632  14.724  1.00  0.00     0.129 C 
HETATM   19  N1  UNL     1      22.119  27.041  15.080  1.00  0.00    -0.328 N 
HETATM   20  C3  UNL     1      22.943  27.454  16.137  1.00  0.00     0.362 C 
HETATM   21  C26 UNL     1      21.322  27.950  14.323  1.00  0.00     0.129 C 
HETATM   22  O2  UNL     1      23.018  28.662  16.479  1.00  0.00    -0.238 OA
HETATM   23  C25 UNL     1      19.866  27.634  14.533  1.00  0.00     0.034 C 
BRANCH  20  24
HETATM   24  O1  UNL     1      23.698  26.541  16.836  1.00  0.00    -0.304 OA
BRANCH  24  25
HETATM   25  C2  UNL     1      25.077  26.575  17.041  1.00  0.00     0.176 C 
HETATM   26  C1  UNL     1      25.889  26.770  15.801  1.00  0.00     0.034 C 
ENDBRANCH  24  25
ENDBRANCH  20  24
ENDBRANCH  12  16
ENDBRANCH   1   8
BRANCH   4  27
HETATM   27  C12 UNL     1      12.507  19.997  17.862  1.00  0.00     0.135 C 
HETATM   28  S1  UNL     1      11.899  18.808  18.880  1.00  0.00    -0.057 SA
BRANCH  27  29
HETATM   29  N5  UNL     1      11.738  20.483  16.830  1.00  0.00    -0.343 N 
ATOM     30  H5  UNL     1      11.334  21.390  17.059  1.00  0.00     0.167 HD
BRANCH  29  31
HETATM   31  C13 UNL     1      11.357  20.058  15.533  1.00  0.00     0.087 C 
BRANCH  31  32
HETATM   32  C14 UNL     1      11.993  20.783  14.373  1.00  0.00     0.064 C 
BRANCH  32  33
HETATM   33  C15 UNL     1      13.004  19.938  13.659  1.00  0.00     0.006 C 
BRANCH  33  34
HETATM   34  C16 UNL     1      12.602  19.005  12.608  1.00  0.00     0.002 C 
BRANCH  34  35
HETATM   35  C17 UNL     1      11.418  19.284  11.779  1.00  0.00     0.027 C 
BRANCH  35  36
HETATM   36  C18 UNL     1      10.280  18.368  11.688  1.00  0.00     0.231 C 
BRANCH  36  37
HETATM   37  N6  UNL     1       8.992  18.881  12.073  1.00  0.00    -0.079 N 
HETATM   38  C19 UNL     1       8.917  20.287  11.831  1.00  0.00     0.266 C 
ATOM     39  H62 UNL     1       8.233  18.377  11.616  1.00  0.00     0.276 HD
ATOM     40  H61 UNL     1       8.767  18.651  13.041  1.00  0.00     0.276 HD
ENDBRANCH  36  37
ENDBRANCH  35  36
ENDBRANCH  34  35
ENDBRANCH  33  34
ENDBRANCH  32  33
ENDBRANCH  31  32
BRANCH  31  41
HETATM   41  C20 UNL     1       9.937  19.723  15.384  1.00  0.00     0.222 C 
HETATM   42  O4  UNL     1       9.570  18.541  15.132  1.00  0.00    -0.643 OA
HETATM   43  O5  UNL     1       8.909  20.647  15.503  1.00  0.00    -0.643 OA
ENDBRANCH  31  41
ENDBRANCH  29  31
ENDBRANCH  27  29
ENDBRANCH   4  27
TORSDOF 14
ENDMDL
MODEL 5
REMARK VINA RESULT: -8.262146844      2.739      4.834
REMARK  14 active torsions:
REMARK  status: ('A' for Active; 'I' for Inactive)
REMARK    1  A    between atoms: C2_2  and  O1_3 
REMARK    2  A    between atoms: O1_3  and  C3_4 
REMARK       I    between atoms: C3_4  and  N1_6 
REMARK    3  A    between atoms: C6_9  and  C7_10 
REMARK       I    between atoms: C7_10  and  N2_12 
REMARK    4  A    between atoms: N3_15  and  C10_16 
REMARK    5  A    between atoms: C11_19  and  C12_20 
REMARK    6  A    between atoms: C12_20  and  N5_22 
REMARK    7  A    between atoms: N5_22  and  C13_24 
REMARK    8  A    between atoms: C13_24  and  C14_25 
REMARK    9  A    between atoms: C13_24  and  C20_34 
REMARK   10  A    between atoms: C14_25  and  C15_26 
REMARK   11  A    between atoms: C15_26  and  C16_27 
REMARK   12  A    between atoms: C16_27  and  C17_28 
REMARK   13  A    between atoms: C17_28  and  C18_29 
REMARK   14  A    between atoms: C18_29  and  N6_30 
ROOT
HETATM    1  C10 UNL     1      13.022  18.862  18.546  1.00  0.00     0.117 A 
HETATM    2  N4  UNL     1      12.375  18.918  17.422  1.00  0.00    -0.334 N 
ATOM      3  H4  UNL     1      12.780  19.427  16.636  1.00  0.00     0.168 HD
HETATM    4  C11 UNL     1      11.189  18.322  17.278  1.00  0.00     0.114 A 
HETATM    5  S2  UNL     1      10.995  17.652  18.821  1.00  0.00    -0.070 SA
HETATM    6  C21 UNL     1      12.445  18.172  19.569  1.00  0.00     0.025 A 
HETATM    7  C22 UNL     1      12.844  17.861  20.967  1.00  0.00     0.060 C 
ENDROOT
BRANCH   1   8
HETATM    8  N3  UNL     1      14.285  19.559  18.683  1.00  0.00    -0.363 N 
HETATM    9  C9  UNL     1      14.298  20.869  19.350  1.00  0.00     0.144 C 
HETATM   10  C8  UNL     1      15.695  21.430  19.476  1.00  0.00     0.145 C 
HETATM   11  N2  UNL     1      16.512  21.238  18.314  1.00  0.00    -0.349 N 
HETATM   12  C7  UNL     1      17.635  22.039  18.056  1.00  0.00     0.224 C 
HETATM   13  C24 UNL     1      16.171  20.180  17.385  1.00  0.00     0.145 C 
HETATM   14  O3  UNL     1      18.326  21.782  17.009  1.00  0.00    -0.273 OA
HETATM   15  C23 UNL     1      15.557  19.072  18.265  1.00  0.00     0.144 C 
BRANCH  12  16
HETATM   16  C6  UNL     1      18.128  23.169  18.865  1.00  0.00     0.081 C 
HETATM   17  C5  UNL     1      17.397  24.457  18.665  1.00  0.00     0.034 C 
HETATM   18  C4  UNL     1      17.861  25.245  17.456  1.00  0.00     0.129 C 
HETATM   19  N1  UNL     1      19.219  24.876  17.090  1.00  0.00    -0.328 N 
HETATM   20  C3  UNL     1      19.603  24.903  15.742  1.00  0.00     0.362 C 
HETATM   21  C26 UNL     1      20.111  24.498  18.138  1.00  0.00     0.129 C 
HETATM   22  O2  UNL     1      20.767  24.586  15.383  1.00  0.00    -0.238 OA
HETATM   23  C25 UNL     1      19.610  23.239  18.792  1.00  0.00     0.034 C 
BRANCH  20  24
HETATM   24  O1  UNL     1      18.709  25.278  14.765  1.00  0.00    -0.304 OA
BRANCH  24  25
HETATM   25  C2  UNL     1      18.635  26.515  14.128  1.00  0.00     0.176 C 
HETATM   26  C1  UNL     1      19.653  27.513  14.577  1.00  0.00     0.034 C 
ENDBRANCH  24  25
ENDBRANCH  20  24
ENDBRANCH  12  16
ENDBRANCH   1   8
BRANCH   4  27
HETATM   27  C12 UNL     1      10.392  18.342  16.035  1.00  0.00     0.135 C 
HETATM   28  S1  UNL     1      10.363  16.890  15.191  1.00  0.00    -0.057 SA
BRANCH  27  29
HETATM   29  N5  UNL     1       9.709  19.435  15.553  1.00  0.00    -0.343 N 
ATOM     30  H5  UNL     1       8.971  19.727  16.194  1.00  0.00     0.167 HD
BRANCH  29  31
HETATM   31  C13 UNL     1       9.756  20.263  14.405  1.00  0.00     0.087 C 
BRANCH  31  32
HETATM   32  C14 UNL     1      11.081  20.344  13.687  1.00  0.00     0.064 C 
BRANCH  32  33
HETATM   33  C15 UNL     1      12.097  21.132  14.458  1.00  0.00     0.006 C 
BRANCH  33  34
HETATM   34  C16 UNL     1      13.417  20.578  14.753  1.00  0.00     0.002 C 
BRANCH  34  35
HETATM   35  C17 UNL     1      14.512  20.702  13.778  1.00  0.00     0.027 C 
BRANCH  35  36
HETATM   36  C18 UNL     1      15.291  21.930  13.613  1.00  0.00     0.231 C 
BRANCH  36  37
HETATM   37  N6  UNL     1      16.103  22.347  14.725  1.00  0.00    -0.079 N 
HETATM   38  C19 UNL     1      15.427  23.342  15.497  1.00  0.00     0.266 C 
ATOM     39  H62 UNL     1      16.395  21.556  15.298  1.00  0.00     0.276 HD
ATOM     40  H61 UNL     1      17.024  22.665  14.422  1.00  0.00     0.276 HD
ENDBRANCH  36  37
ENDBRANCH  35  36
ENDBRANCH  34  35
ENDBRANCH  33  34
ENDBRANCH  32  33
ENDBRANCH  31  32
BRANCH  31  41
HETATM   41  C20 UNL     1       9.004  21.517  14.515  1.00  0.00     0.222 C 
HETATM   42  O4  UNL     1       8.701  21.997  15.644  1.00  0.00    -0.643 OA
HETATM   43  O5  UNL     1       8.574  22.258  13.424  1.00  0.00    -0.643 OA
ENDBRANCH  31  41
ENDBRANCH  29  31
ENDBRANCH  27  29
ENDBRANCH   4  27
TORSDOF 14
ENDMDL
