MODEL 1
REMARK VINA RESULT: -7.991694543      0.000      0.000
REMARK  7 active torsions:
REMARK  status: ('A' for Active; 'I' for Inactive)
REMARK    1  A    between atoms: C2_2  and  O1_3 
REMARK    2  A    between atoms: O1_3  and  C3_4 
REMARK    3  A    between atoms: C3_4  and  C4_6 
REMARK    4  A    between atoms: C7_11  and  N2_12 
REMARK    5  A    between atoms: N2_12  and  N3_14 
REMARK    6  A    between atoms: C8_16  and  C9_17 
REMARK    7  A    between atoms: C15_31  and  N7_32 
ROOT
HETATM    1  C4  UNL     1      -4.433   1.355  14.150  1.00  0.00     0.106 A 
HETATM    2  C5  UNL     1      -4.372   2.715  14.013  1.00  0.00     0.043 A 
HETATM    3  C6  UNL     1      -4.495   3.562  15.219  1.00  0.00     0.070 C 
HETATM    4  N1  UNL     1      -4.203   3.229  12.783  1.00  0.00    -0.193 N 
ATOM      5  H1  UNL     1      -4.157   4.242  12.670  1.00  0.00     0.184 HD
HETATM    6  C7  UNL     1      -4.093   2.441  11.697  1.00  0.00     0.698 A 
HETATM    7  N6  UNL     1      -4.151   1.107  11.816  1.00  0.00    -0.175 N 
ATOM      8  H6  UNL     1      -4.068   0.512  10.992  1.00  0.00     0.186 HD
HETATM    9  C15 UNL     1      -4.321   0.557  13.052  1.00  0.00     0.133 A 
ENDROOT
BRANCH   6  10
HETATM   10  N2  UNL     1      -3.930   2.926  10.511  1.00  0.00    -0.132 N 
ATOM     11  H2  UNL     1      -4.558   2.613   9.770  1.00  0.00     0.205 HD
BRANCH  10  12
HETATM   12  N3  UNL     1      -2.968   3.829  10.199  1.00  0.00    -0.295 N 
HETATM   13  C8  UNL     1      -2.985   4.892   9.519  1.00  0.00     0.139 C 
ATOM     14  H3  UNL     1      -2.053   3.606  10.590  1.00  0.00     0.186 HD
BRANCH  13  15
HETATM   15  C9  UNL     1      -4.149   5.436   8.854  1.00  0.00     0.074 A 
HETATM   16  C10 UNL     1      -4.508   5.330   7.536  1.00  0.00     0.121 A 
HETATM   17  N4  UNL     1      -5.673   6.001   7.380  1.00  0.00    -0.348 N 
HETATM   18  C11 UNL     1      -6.004   6.498   8.577  1.00  0.00     0.137 A 
ATOM     19  H4  UNL     1      -6.199   6.107   6.513  1.00  0.00     0.167 HD
HETATM   20  C12 UNL     1      -7.000   7.255   9.185  1.00  0.00     0.103 A 
HETATM   21  N5  UNL     1      -5.105   6.178   9.500  1.00  0.00    -0.282 N 
HETATM   22 CL1  UNL     1      -8.433   7.936   8.413  1.00  0.00    -0.078 Cl
HETATM   23  C13 UNL     1      -6.638   7.361  10.507  1.00  0.00     0.098 A 
HETATM   24 CL2  UNL     1      -7.532   8.212  11.749  1.00  0.00    -0.079 Cl
HETATM   25  C14 UNL     1      -5.451   6.686  10.699  1.00  0.00     0.136 A 
HETATM   26 CL3  UNL     1      -4.534   6.496  12.195  1.00  0.00    -0.062 Cl
ENDBRANCH  13  15
ENDBRANCH  10  12
ENDBRANCH   6  10
BRANCH   9  27
HETATM   27  N7  UNL     1      -4.377  -0.720  13.170  1.00  0.00    -0.384 N 
ATOM     28  H72 UNL     1      -3.705  -1.196  13.773  1.00  0.00     0.157 HD
ATOM     29  H71 UNL     1      -5.084  -1.254  12.664  1.00  0.00     0.157 HD
ENDBRANCH   9  27
BRANCH   1  30
HETATM   30  C3  UNL     1      -4.613   0.777  15.463  1.00  0.00     0.299 C 
HETATM   31  O2  UNL     1      -3.591   0.583  16.170  1.00  0.00    -0.259 OA
BRANCH  30  32
HETATM   32  O1  UNL     1      -5.838   0.426  15.988  1.00  0.00    -0.318 OA
BRANCH  32  33
HETATM   33  C2  UNL     1      -6.289   0.732  17.272  1.00  0.00     0.174 C 
HETATM   34  C1  UNL     1      -7.352   1.804  17.166  1.00  0.00     0.034 C 
ENDBRANCH  32  33
ENDBRANCH  30  32
ENDBRANCH   1  30
TORSDOF 7
ENDMDL
MODEL 2
REMARK VINA RESULT: -7.654181949      0.718      1.638
REMARK  7 active torsions:
REMARK  status: ('A' for Active; 'I' for Inactive)
REMARK    1  A    between atoms: C2_2  and  O1_3 
REMARK    2  A    between atoms: O1_3  and  C3_4 
REMARK    3  A    between atoms: C3_4  and  C4_6 
REMARK    4  A    between atoms: C7_11  and  N2_12 
REMARK    5  A    between atoms: N2_12  and  N3_14 
REMARK    6  A    between atoms: C8_16  and  C9_17 
REMARK    7  A    between atoms: C15_31  and  N7_32 
ROOT
HETATM    1  C4  UNL     1      -4.484   1.626  14.004  1.00  0.00     0.106 A 
HETATM    2  C5  UNL     1      -4.387   0.765  12.945  1.00  0.00     0.043 A 
HETATM    3  C6  UNL     1      -4.320  -0.689  13.208  1.00  0.00     0.070 C 
HETATM    4  N1  UNL     1      -4.356   1.277  11.702  1.00  0.00    -0.193 N 
ATOM      5  H1  UNL     1      -4.283   0.644  10.906  1.00  0.00     0.184 HD
HETATM    6  C7  UNL     1      -4.418   2.604  11.483  1.00  0.00     0.698 A 
HETATM    7  N6  UNL     1      -4.513   3.459  12.511  1.00  0.00    -0.175 N 
ATOM      8  H6  UNL     1      -4.560   4.464  12.343  1.00  0.00     0.186 HD
HETATM    9  C15 UNL     1      -4.548   2.968  13.783  1.00  0.00     0.133 A 
ENDROOT
BRANCH   6  10
HETATM   10  N2  UNL     1      -4.388   3.105  10.293  1.00  0.00    -0.132 N 
ATOM     11  H2  UNL     1      -5.133   2.852   9.643  1.00  0.00     0.205 HD
BRANCH  10  12
HETATM   12  N3  UNL     1      -3.418   3.949   9.863  1.00  0.00    -0.295 N 
HETATM   13  C8  UNL     1      -3.452   4.997   9.160  1.00  0.00     0.139 C 
ATOM     14  H3  UNL     1      -2.480   3.687  10.165  1.00  0.00     0.186 HD
BRANCH  13  15
HETATM   15  C9  UNL     1      -4.649   5.588   8.603  1.00  0.00     0.074 A 
HETATM   16  C10 UNL     1      -5.110   5.530   7.313  1.00  0.00     0.121 A 
HETATM   17  N4  UNL     1      -6.266   6.233   7.267  1.00  0.00    -0.348 N 
HETATM   18  C11 UNL     1      -6.493   6.700   8.500  1.00  0.00     0.137 A 
ATOM     19  H4  UNL     1      -6.854   6.377   6.446  1.00  0.00     0.167 HD
HETATM   20  C12 UNL     1      -7.420   7.460   9.204  1.00  0.00     0.103 A 
HETATM   21  N5  UNL     1      -5.534   6.331   9.341  1.00  0.00    -0.282 N 
HETATM   22 CL1  UNL     1      -8.890   8.198   8.564  1.00  0.00    -0.078 Cl
HETATM   23  C13 UNL     1      -6.956   7.517  10.497  1.00  0.00     0.098 A 
HETATM   24 CL2  UNL     1      -7.732   8.350  11.827  1.00  0.00    -0.079 Cl
HETATM   25  C14 UNL     1      -5.776   6.809  10.577  1.00  0.00     0.136 A 
HETATM   26 CL3  UNL     1      -4.753   6.553  11.992  1.00  0.00    -0.062 Cl
ENDBRANCH  13  15
ENDBRANCH  10  12
ENDBRANCH   6  10
BRANCH   9  27
HETATM   27  N7  UNL     1      -4.640   3.785  14.770  1.00  0.00    -0.384 N 
ATOM     28  H72 UNL     1      -5.545   3.924  15.220  1.00  0.00     0.157 HD
ATOM     29  H71 UNL     1      -3.817   4.290  15.099  1.00  0.00     0.157 HD
ENDBRANCH   9  27
BRANCH   1  30
HETATM   30  C3  UNL     1      -4.521   1.101  15.350  1.00  0.00     0.299 C 
HETATM   31  O2  UNL     1      -3.482   1.199  16.053  1.00  0.00    -0.259 OA
BRANCH  30  32
HETATM   32  O1  UNL     1      -5.626   0.499  15.912  1.00  0.00    -0.318 OA
BRANCH  32  33
HETATM   33  C2  UNL     1      -6.025   0.615  17.243  1.00  0.00     0.174 C 
HETATM   34  C1  UNL     1      -7.369   1.309  17.284  1.00  0.00     0.034 C 
ENDBRANCH  32  33
ENDBRANCH  30  32
ENDBRANCH   1  30
TORSDOF 7
ENDMDL
MODEL 3
REMARK VINA RESULT: -7.629934766      2.047      3.257
REMARK  7 active torsions:
REMARK  status: ('A' for Active; 'I' for Inactive)
REMARK    1  A    between atoms: C2_2  and  O1_3 
REMARK    2  A    between atoms: O1_3  and  C3_4 
REMARK    3  A    between atoms: C3_4  and  C4_6 
REMARK    4  A    between atoms: C7_11  and  N2_12 
REMARK    5  A    between atoms: N2_12  and  N3_14 
REMARK    6  A    between atoms: C8_16  and  C9_17 
REMARK    7  A    between atoms: C15_31  and  N7_32 
ROOT
HETATM    1  C4  UNL     1      -4.510   1.304  14.145  1.00  0.00     0.106 A 
HETATM    2  C5  UNL     1      -4.542   2.664  13.994  1.00  0.00     0.043 A 
HETATM    3  C6  UNL     1      -4.684   3.515  15.195  1.00  0.00     0.070 C 
HETATM    4  N1  UNL     1      -4.443   3.174  12.754  1.00  0.00    -0.193 N 
ATOM      5  H1  UNL     1      -4.466   4.186  12.630  1.00  0.00     0.184 HD
HETATM    6  C7  UNL     1      -4.315   2.383  11.673  1.00  0.00     0.698 A 
HETATM    7  N6  UNL     1      -4.282   1.049  11.806  1.00  0.00    -0.175 N 
ATOM      8  H6  UNL     1      -4.185   0.451  10.986  1.00  0.00     0.186 HD
HETATM    9  C15 UNL     1      -4.380   0.504  13.052  1.00  0.00     0.133 A 
ENDROOT
BRANCH   6  10
HETATM   10  N2  UNL     1      -4.219   2.863  10.478  1.00  0.00    -0.132 N 
ATOM     11  H2  UNL     1      -3.594   2.400   9.819  1.00  0.00     0.205 HD
BRANCH  10  12
HETATM   12  N3  UNL     1      -4.907   3.953  10.055  1.00  0.00    -0.295 N 
HETATM   13  C8  UNL     1      -4.585   5.167   9.930  1.00  0.00     0.139 C 
ATOM     14  H3  UNL     1      -5.870   3.754   9.787  1.00  0.00     0.186 HD
BRANCH  13  15
HETATM   15  C9  UNL     1      -3.284   5.721  10.240  1.00  0.00     0.074 A 
HETATM   16  C10 UNL     1      -2.153   5.730   9.466  1.00  0.00     0.121 A 
HETATM   17  N4  UNL     1      -1.186   6.357  10.175  1.00  0.00    -0.348 N 
HETATM   18  C11 UNL     1      -1.725   6.714  11.347  1.00  0.00     0.137 A 
ATOM     19  H4  UNL     1      -0.227   6.526   9.873  1.00  0.00     0.167 HD
HETATM   20  C12 UNL     1      -1.383   7.356  12.532  1.00  0.00     0.103 A 
HETATM   21  N5  UNL     1      -2.998   6.346  11.427  1.00  0.00    -0.282 N 
HETATM   22 CL1  UNL     1       0.187   8.044  12.950  1.00  0.00    -0.078 Cl
HETATM   23  C13 UNL     1      -2.519   7.345  13.307  1.00  0.00     0.098 A 
HETATM   24 CL2  UNL     1      -2.668   8.022  14.915  1.00  0.00    -0.079 Cl
HETATM   25  C14 UNL     1      -3.526   6.711  12.610  1.00  0.00     0.136 A 
HETATM   26 CL3  UNL     1      -5.188   6.416  13.125  1.00  0.00    -0.062 Cl
ENDBRANCH  13  15
ENDBRANCH  10  12
ENDBRANCH   6  10
BRANCH   9  27
HETATM   27  N7  UNL     1      -4.348  -0.774  13.184  1.00  0.00    -0.384 N 
ATOM     28  H72 UNL     1      -5.122  -1.247  13.652  1.00  0.00     0.157 HD
ATOM     29  H71 UNL     1      -3.558  -1.310  12.824  1.00  0.00     0.157 HD
ENDBRANCH   9  27
BRANCH   1  30
HETATM   30  C3  UNL     1      -4.613   0.731  15.469  1.00  0.00     0.299 C 
HETATM   31  O2  UNL     1      -3.556   0.587  16.135  1.00  0.00    -0.259 OA
BRANCH  30  32
HETATM   32  O1  UNL     1      -5.801   0.334  16.045  1.00  0.00    -0.318 OA
BRANCH  32  33
HETATM   33  C2  UNL     1      -6.239   0.682  17.322  1.00  0.00     0.174 C 
HETATM   34  C1  UNL     1      -7.495   1.516  17.189  1.00  0.00     0.034 C 
ENDBRANCH  32  33
ENDBRANCH  30  32
ENDBRANCH   1  30
TORSDOF 7
ENDMDL
MODEL 4
REMARK VINA RESULT: -7.470279813      2.916      4.646
REMARK  7 active torsions:
REMARK  status: ('A' for Active; 'I' for Inactive)
REMARK    1  A    between atoms: C2_2  and  O1_3 
REMARK    2  A    between atoms: O1_3  and  C3_4 
REMARK    3  A    between atoms: C3_4  and  C4_6 
REMARK    4  A    between atoms: C7_11  and  N2_12 
REMARK    5  A    between atoms: N2_12  and  N3_14 
REMARK    6  A    between atoms: C8_16  and  C9_17 
REMARK    7  A    between atoms: C15_31  and  N7_32 
ROOT
HETATM    1  C4  UNL     1      -4.642   1.452  14.126  1.00  0.00     0.106 A 
HETATM    2  C5  UNL     1      -4.879   2.786  13.934  1.00  0.00     0.043 A 
HETATM    3  C6  UNL     1      -5.101   3.651  15.113  1.00  0.00     0.070 C 
HETATM    4  N1  UNL     1      -4.901   3.260  12.676  1.00  0.00    -0.193 N 
ATOM      5  H1  UNL     1      -5.076   4.252  12.522  1.00  0.00     0.184 HD
HETATM    6  C7  UNL     1      -4.696   2.456  11.615  1.00  0.00     0.698 A 
HETATM    7  N6  UNL     1      -4.463   1.148  11.788  1.00  0.00    -0.175 N 
ATOM      8  H6  UNL     1      -4.308   0.540  10.984  1.00  0.00     0.186 HD
HETATM    9  C15 UNL     1      -4.435   0.640  13.054  1.00  0.00     0.133 A 
ENDROOT
BRANCH   6  10
HETATM   10  N2  UNL     1      -4.715   2.902  10.403  1.00  0.00    -0.132 N 
ATOM     11  H2  UNL     1      -4.735   2.226   9.640  1.00  0.00     0.205 HD
BRANCH  10  12
HETATM   12  N3  UNL     1      -4.707   4.222  10.093  1.00  0.00    -0.295 N 
HETATM   13  C8  UNL     1      -3.790   5.088  10.079  1.00  0.00     0.139 C 
ATOM     14  H3  UNL     1      -5.620   4.585   9.819  1.00  0.00     0.186 HD
BRANCH  13  15
HETATM   15  C9  UNL     1      -2.406   4.842  10.424  1.00  0.00     0.074 A 
HETATM   16  C10 UNL     1      -1.846   4.715  11.668  1.00  0.00     0.121 A 
HETATM   17  N4  UNL     1      -0.522   4.493  11.492  1.00  0.00    -0.348 N 
HETATM   18  C11 UNL     1      -0.295   4.487  10.174  1.00  0.00     0.137 A 
ATOM     19  H4  UNL     1       0.171   4.356  12.227  1.00  0.00     0.167 HD
HETATM   20  C12 UNL     1       0.747   4.331   9.267  1.00  0.00     0.103 A 
HETATM   21  N5  UNL     1      -1.414   4.695   9.489  1.00  0.00    -0.282 N 
HETATM   22 CL1  UNL     1       2.444   4.029   9.644  1.00  0.00    -0.078 Cl
HETATM   23  C13 UNL     1       0.182   4.458   8.019  1.00  0.00     0.098 A 
HETATM   24 CL2  UNL     1       1.035   4.350   6.494  1.00  0.00    -0.079 Cl
HETATM   25  C14 UNL     1      -1.170   4.687   8.165  1.00  0.00     0.136 A 
HETATM   26 CL3  UNL     1      -2.377   4.925   6.899  1.00  0.00    -0.062 Cl
ENDBRANCH  13  15
ENDBRANCH  10  12
ENDBRANCH   6  10
BRANCH   9  27
HETATM   27  N7  UNL     1      -4.212  -0.614  13.223  1.00  0.00    -0.384 N 
ATOM     28  H72 UNL     1      -3.730  -0.926  14.067  1.00  0.00     0.157 HD
ATOM     29  H71 UNL     1      -4.512  -1.291  12.521  1.00  0.00     0.157 HD
ENDBRANCH   9  27
BRANCH   1  30
HETATM   30  C3  UNL     1      -4.613   0.919  15.470  1.00  0.00     0.299 C 
HETATM   31  O2  UNL     1      -3.540   1.011  16.120  1.00  0.00    -0.259 OA
BRANCH  30  32
HETATM   32  O1  UNL     1      -5.691   0.317  16.082  1.00  0.00    -0.318 OA
BRANCH  32  33
HETATM   33  C2  UNL     1      -6.168   0.612  17.359  1.00  0.00     0.174 C 
HETATM   34  C1  UNL     1      -7.452   1.400  17.223  1.00  0.00     0.034 C 
ENDBRANCH  32  33
ENDBRANCH  30  32
ENDBRANCH   1  30
TORSDOF 7
ENDMDL
MODEL 5
REMARK VINA RESULT: -7.451659022      3.038      4.396
REMARK  7 active torsions:
REMARK  status: ('A' for Active; 'I' for Inactive)
REMARK    1  A    between atoms: C2_2  and  O1_3 
REMARK    2  A    between atoms: O1_3  and  C3_4 
REMARK    3  A    between atoms: C3_4  and  C4_6 
REMARK    4  A    between atoms: C7_11  and  N2_12 
REMARK    5  A    between atoms: N2_12  and  N3_14 
REMARK    6  A    between atoms: C8_16  and  C9_17 
REMARK    7  A    between atoms: C15_31  and  N7_32 
ROOT
HETATM    1  C4  UNL     1      -4.617   1.430  14.115  1.00  0.00     0.106 A 
HETATM    2  C5  UNL     1      -4.818   2.768  13.910  1.00  0.00     0.043 A 
HETATM    3  C6  UNL     1      -4.983   3.656  15.082  1.00  0.00     0.070 C 
HETATM    4  N1  UNL     1      -4.859   3.225  12.646  1.00  0.00    -0.193 N 
ATOM      5  H1  UNL     1      -5.009   4.220  12.482  1.00  0.00     0.184 HD
HETATM    6  C7  UNL     1      -4.708   2.401  11.592  1.00  0.00     0.698 A 
HETATM    7  N6  UNL     1      -4.509   1.088  11.778  1.00  0.00    -0.175 N 
ATOM      8  H6  UNL     1      -4.395   0.465  10.979  1.00  0.00     0.186 HD
HETATM    9  C15 UNL     1      -4.463   0.597  13.050  1.00  0.00     0.133 A 
ENDROOT
BRANCH   6  10
HETATM   10  N2  UNL     1      -4.745   2.830  10.375  1.00  0.00    -0.132 N 
ATOM     11  H2  UNL     1      -4.766   2.144   9.621  1.00  0.00     0.205 HD
BRANCH  10  12
HETATM   12  N3  UNL     1      -4.757   4.146  10.048  1.00  0.00    -0.295 N 
HETATM   13  C8  UNL     1      -3.866   4.921   9.602  1.00  0.00     0.139 C 
ATOM     14  H3  UNL     1      -5.661   4.597  10.189  1.00  0.00     0.186 HD
BRANCH  13  15
HETATM   15  C9  UNL     1      -2.500   4.542   9.314  1.00  0.00     0.074 A 
HETATM   16  C10 UNL     1      -1.585   3.948  10.144  1.00  0.00     0.121 A 
HETATM   17  N4  UNL     1      -0.444   3.787   9.434  1.00  0.00    -0.348 N 
HETATM   18  C11 UNL     1      -0.670   4.273   8.208  1.00  0.00     0.137 A 
ATOM     19  H4  UNL     1       0.425   3.373   9.771  1.00  0.00     0.167 HD
HETATM   20  C12 UNL     1      -0.023   4.452   6.990  1.00  0.00     0.103 A 
HETATM   21  N5  UNL     1      -1.907   4.741   8.093  1.00  0.00    -0.282 N 
HETATM   22 CL1  UNL     1       1.638   4.004   6.597  1.00  0.00    -0.078 Cl
HETATM   23  C13 UNL     1      -0.943   5.047   6.159  1.00  0.00     0.098 A 
HETATM   24 CL2  UNL     1      -0.670   5.505   4.492  1.00  0.00    -0.079 Cl
HETATM   25  C14 UNL     1      -2.120   5.226   6.855  1.00  0.00     0.136 A 
HETATM   26 CL3  UNL     1      -3.628   5.940   6.280  1.00  0.00    -0.062 Cl
ENDBRANCH  13  15
ENDBRANCH  10  12
ENDBRANCH   6  10
BRANCH   9  27
HETATM   27  N7  UNL     1      -4.273  -0.660  13.232  1.00  0.00    -0.384 N 
ATOM     28  H72 UNL     1      -3.466  -1.111  12.799  1.00  0.00     0.157 HD
ATOM     29  H71 UNL     1      -4.923  -1.202  13.802  1.00  0.00     0.157 HD
ENDBRANCH   9  27
BRANCH   1  30
HETATM   30  C3  UNL     1      -4.568   0.915  15.465  1.00  0.00     0.299 C 
HETATM   31  O2  UNL     1      -3.488   1.023  16.101  1.00  0.00    -0.259 OA
BRANCH  30  32
HETATM   32  O1  UNL     1      -5.634   0.312  16.098  1.00  0.00    -0.318 OA
BRANCH  32  33
HETATM   33  C2  UNL     1      -6.051   0.565  17.405  1.00  0.00     0.174 C 
HETATM   34  C1  UNL     1      -7.374   1.299  17.354  1.00  0.00     0.034 C 
ENDBRANCH  32  33
ENDBRANCH  30  32
ENDBRANCH   1  30
TORSDOF 7
ENDMDL
