MODEL 1
REMARK VINA RESULT: -7.083057516      0.000      0.000
REMARK  8 active torsions:
REMARK  status: ('A' for Active; 'I' for Inactive)
REMARK    1  A    between atoms: O1_1  and  C1_3 
REMARK    2  A    between atoms: C1_3  and  C2_4 
REMARK    3  A    between atoms: C2_4  and  C3_5 
REMARK    4  A    between atoms: C5_7  and  O2_8 
REMARK    5  A    between atoms: O2_8  and  C6_9 
REMARK    6  A    between atoms: C14_21  and  O4_22 
REMARK    7  A    between atoms: C15_24  and  O5_25 
REMARK    8  A    between atoms: C16_27  and  O6_28 
ROOT
HETATM    1  C3  UNL     1      -4.678   1.449  13.894  1.00  0.00     0.021 C 
HETATM    2  C4  UNL     1      -3.964   2.751  13.536  1.00  0.00     0.042 C 
HETATM    3  C5  UNL     1      -4.446   3.236  12.194  1.00  0.00     0.161 C 
HETATM    4  C14 UNL     1      -4.324   2.186  11.147  1.00  0.00     0.178 C 
HETATM    5  C15 UNL     1      -5.046   0.904  11.546  1.00  0.00     0.178 C 
HETATM    6  C16 UNL     1      -4.352   0.423  12.802  1.00  0.00     0.153 C 
ENDROOT
BRANCH   3   7
HETATM    7  O2  UNL     1      -4.018   4.463  11.754  1.00  0.00    -0.340 OA
BRANCH   7   8
HETATM    8  C6  UNL     1      -2.863   5.112  12.100  1.00  0.00     0.107 A 
HETATM    9  C7  UNL     1      -1.708   4.890  11.380  1.00  0.00     0.090 A 
HETATM   10 CL1  UNL     1      -1.601   3.806  10.002  1.00  0.00    -0.080 Cl
HETATM   11  C8  UNL     1      -0.511   5.536  11.705  1.00  0.00     0.061 A 
HETATM   12 CL2  UNL     1       0.961   5.266  10.799  1.00  0.00    -0.082 Cl
HETATM   13  C9  UNL     1      -0.476   6.410  12.758  1.00  0.00     0.064 A 
HETATM   14  C10 UNL     1      -1.623   6.636  13.487  1.00  0.00     0.091 A 
HETATM   15  O3  UNL     1      -1.818   7.415  14.536  1.00  0.00    -0.320 OA
HETATM   16  C13 UNL     1      -2.822   5.985  13.158  1.00  0.00     0.057 A 
HETATM   17  C11 UNL     1      -3.039   7.338  14.945  1.00  0.00     0.167 A 
HETATM   18  C12 UNL     1      -3.695   6.453  14.111  1.00  0.00     0.072 A 
HETATM   19 CL3  UNL     1      -5.352   5.968  14.353  1.00  0.00    -0.081 Cl
ENDBRANCH   7   8
ENDBRANCH   3   7
BRANCH   4  20
HETATM   20  O4  UNL     1      -4.698   2.630   9.902  1.00  0.00    -0.390 OA
ATOM     21  H4  UNL     1      -3.968   2.968   9.396  1.00  0.00     0.210 HD
ENDBRANCH   4  20
BRANCH   1  22
HETATM   22  C2  UNL     1      -4.264   0.935  15.222  1.00  0.00     0.033 C 
BRANCH  22  23
HETATM   23  C1  UNL     1      -5.350   1.096  16.241  1.00  0.00     0.164 C 
BRANCH  23  24
HETATM   24  O1  UNL     1      -5.666  -0.187  16.723  1.00  0.00    -0.401 OA
ATOM     25  H1  UNL     1      -6.256  -0.587  16.096  1.00  0.00     0.209 HD
ENDBRANCH  23  24
ENDBRANCH  22  23
ENDBRANCH   1  22
BRANCH   5  26
HETATM   26  O5  UNL     1      -4.874   0.013  10.491  1.00  0.00    -0.390 OA
ATOM     27  H5  UNL     1      -4.012  -0.369  10.603  1.00  0.00     0.210 HD
ENDBRANCH   5  26
BRANCH   6  28
HETATM   28  O6  UNL     1      -4.741  -0.846  13.182  1.00  0.00    -0.393 OA
ATOM     29  H6  UNL     1      -4.589  -1.473  12.485  1.00  0.00     0.210 HD
ENDBRANCH   6  28
TORSDOF 8
ENDMDL
MODEL 2
REMARK VINA RESULT: -7.053171259      1.208      2.927
REMARK  8 active torsions:
REMARK  status: ('A' for Active; 'I' for Inactive)
REMARK    1  A    between atoms: O1_1  and  C1_3 
REMARK    2  A    between atoms: C1_3  and  C2_4 
REMARK    3  A    between atoms: C2_4  and  C3_5 
REMARK    4  A    between atoms: C5_7  and  O2_8 
REMARK    5  A    between atoms: O2_8  and  C6_9 
REMARK    6  A    between atoms: C14_21  and  O4_22 
REMARK    7  A    between atoms: C15_24  and  O5_25 
REMARK    8  A    between atoms: C16_27  and  O6_28 
ROOT
HETATM    1  C3  UNL     1      -4.627   1.716  14.242  1.00  0.00     0.021 C 
HETATM    2  C4  UNL     1      -3.865   2.937  13.733  1.00  0.00     0.042 C 
HETATM    3  C5  UNL     1      -4.346   3.288  12.349  1.00  0.00     0.161 C 
HETATM    4  C14 UNL     1      -4.281   2.122  11.427  1.00  0.00     0.178 C 
HETATM    5  C15 UNL     1      -5.049   0.925  11.976  1.00  0.00     0.178 C 
HETATM    6  C16 UNL     1      -4.359   0.560  13.272  1.00  0.00     0.153 C 
ENDROOT
BRANCH   3   7
HETATM    7  O2  UNL     1      -3.873   4.438  11.769  1.00  0.00    -0.340 OA
BRANCH   7   8
HETATM    8  C6  UNL     1      -2.909   5.279  12.257  1.00  0.00     0.107 A 
HETATM    9  C7  UNL     1      -3.218   6.163  13.269  1.00  0.00     0.090 A 
HETATM   10 CL1  UNL     1      -4.805   6.294  14.011  1.00  0.00    -0.080 Cl
HETATM   11  C8  UNL     1      -2.258   7.036  13.792  1.00  0.00     0.061 A 
HETATM   12 CL2  UNL     1      -2.635   8.161  15.077  1.00  0.00    -0.082 Cl
HETATM   13  C9  UNL     1      -0.983   7.020  13.294  1.00  0.00     0.064 A 
HETATM   14  C10 UNL     1      -0.665   6.143  12.280  1.00  0.00     0.091 A 
HETATM   15  O3  UNL     1       0.480   5.964  11.646  1.00  0.00    -0.320 OA
HETATM   16  C13 UNL     1      -1.631   5.269  11.758  1.00  0.00     0.057 A 
HETATM   17  C11 UNL     1       0.366   5.052  10.740  1.00  0.00     0.167 A 
HETATM   18  C12 UNL     1      -0.938   4.598  10.778  1.00  0.00     0.072 A 
HETATM   19 CL3  UNL     1      -1.570   3.424   9.655  1.00  0.00    -0.081 Cl
ENDBRANCH   7   8
ENDBRANCH   3   7
BRANCH   4  20
HETATM   20  O4  UNL     1      -4.653   2.438  10.143  1.00  0.00    -0.390 OA
ATOM     21  H4  UNL     1      -4.712   3.375   9.995  1.00  0.00     0.210 HD
ENDBRANCH   4  20
BRANCH   1  22
HETATM   22  C2  UNL     1      -4.216   1.339  15.616  1.00  0.00     0.033 C 
BRANCH  22  23
HETATM   23  C1  UNL     1      -5.391   1.258  16.543  1.00  0.00     0.164 C 
BRANCH  23  24
HETATM   24  O1  UNL     1      -5.774  -0.093  16.617  1.00  0.00    -0.401 OA
ATOM     25  H1  UNL     1      -6.618  -0.172  16.188  1.00  0.00     0.209 HD
ENDBRANCH  23  24
ENDBRANCH  22  23
ENDBRANCH   1  22
BRANCH   5  26
HETATM   26  O5  UNL     1      -4.928  -0.086  11.027  1.00  0.00    -0.390 OA
ATOM     27  H5  UNL     1      -4.504   0.305  10.273  1.00  0.00     0.210 HD
ENDBRANCH   5  26
BRANCH   6  28
HETATM   28  O6  UNL     1      -4.795  -0.640  13.797  1.00  0.00    -0.393 OA
ATOM     29  H6  UNL     1      -5.189  -0.515  14.653  1.00  0.00     0.210 HD
ENDBRANCH   6  28
TORSDOF 8
ENDMDL
MODEL 3
REMARK VINA RESULT: -6.737626506      1.998      3.707
REMARK  8 active torsions:
REMARK  status: ('A' for Active; 'I' for Inactive)
REMARK    1  A    between atoms: O1_1  and  C1_3 
REMARK    2  A    between atoms: C1_3  and  C2_4 
REMARK    3  A    between atoms: C2_4  and  C3_5 
REMARK    4  A    between atoms: C5_7  and  O2_8 
REMARK    5  A    between atoms: O2_8  and  C6_9 
REMARK    6  A    between atoms: C14_21  and  O4_22 
REMARK    7  A    between atoms: C15_24  and  O5_25 
REMARK    8  A    between atoms: C16_27  and  O6_28 
ROOT
HETATM    1  C3  UNL     1      -5.014   1.958  15.423  1.00  0.00     0.021 C 
HETATM    2  C4  UNL     1      -4.148   3.203  15.245  1.00  0.00     0.042 C 
HETATM    3  C5  UNL     1      -4.131   3.599  13.791  1.00  0.00     0.161 C 
HETATM    4  C14 UNL     1      -3.731   2.469  12.912  1.00  0.00     0.178 C 
HETATM    5  C15 UNL     1      -4.617   1.246  13.125  1.00  0.00     0.178 C 
HETATM    6  C16 UNL     1      -4.407   0.840  14.568  1.00  0.00     0.153 C 
ENDROOT
BRANCH   3   7
HETATM    7  O2  UNL     1      -3.510   4.773  13.446  1.00  0.00    -0.340 OA
BRANCH   7   8
HETATM    8  C6  UNL     1      -3.959   5.723  12.566  1.00  0.00     0.107 A 
HETATM    9  C7  UNL     1      -5.218   6.261  12.720  1.00  0.00     0.090 A 
HETATM   10 CL1  UNL     1      -6.330   5.812  14.005  1.00  0.00    -0.080 Cl
HETATM   11  C8  UNL     1      -5.709   7.232  11.841  1.00  0.00     0.061 A 
HETATM   12 CL2  UNL     1      -7.304   7.925  12.025  1.00  0.00    -0.082 Cl
HETATM   13  C9  UNL     1      -4.927   7.664  10.804  1.00  0.00     0.064 A 
HETATM   14  C10 UNL     1      -3.667   7.130  10.638  1.00  0.00     0.091 A 
HETATM   15  O3  UNL     1      -2.757   7.382   9.715  1.00  0.00    -0.320 OA
HETATM   16  C13 UNL     1      -3.180   6.155  11.523  1.00  0.00     0.057 A 
HETATM   17  C11 UNL     1      -1.706   6.657   9.896  1.00  0.00     0.167 A 
HETATM   18  C12 UNL     1      -1.934   5.876  11.013  1.00  0.00     0.072 A 
HETATM   19 CL3  UNL     1      -0.811   4.667  11.574  1.00  0.00    -0.081 Cl
ENDBRANCH   7   8
ENDBRANCH   3   7
BRANCH   4  20
HETATM   20  O4  UNL     1      -3.646   2.827  11.589  1.00  0.00    -0.390 OA
ATOM     21  H4  UNL     1      -2.751   2.853  11.270  1.00  0.00     0.210 HD
ENDBRANCH   4  20
BRANCH   1  22
HETATM   22  C2  UNL     1      -5.092   1.534  16.842  1.00  0.00     0.033 C 
BRANCH  22  23
HETATM   23  C1  UNL     1      -6.507   1.516  17.337  1.00  0.00     0.164 C 
BRANCH  23  24
HETATM   24  O1  UNL     1      -7.103   0.335  16.860  1.00  0.00    -0.401 OA
ATOM     25  H1  UNL     1      -8.041   0.422  16.984  1.00  0.00     0.209 HD
ENDBRANCH  23  24
ENDBRANCH  22  23
ENDBRANCH   1  22
BRANCH   5  26
HETATM   26  O5  UNL     1      -4.158   0.272  12.245  1.00  0.00    -0.390 OA
ATOM     27  H5  UNL     1      -3.415  -0.141  12.667  1.00  0.00     0.210 HD
ENDBRANCH   5  26
BRANCH   6  28
HETATM   28  O6  UNL     1      -4.972  -0.381  14.873  1.00  0.00    -0.393 OA
ATOM     29  H6  UNL     1      -5.803  -0.495  14.425  1.00  0.00     0.210 HD
ENDBRANCH   6  28
TORSDOF 8
ENDMDL
MODEL 4
REMARK VINA RESULT: -6.727501073      2.283      3.189
REMARK  8 active torsions:
REMARK  status: ('A' for Active; 'I' for Inactive)
REMARK    1  A    between atoms: O1_1  and  C1_3 
REMARK    2  A    between atoms: C1_3  and  C2_4 
REMARK    3  A    between atoms: C2_4  and  C3_5 
REMARK    4  A    between atoms: C5_7  and  O2_8 
REMARK    5  A    between atoms: O2_8  and  C6_9 
REMARK    6  A    between atoms: C14_21  and  O4_22 
REMARK    7  A    between atoms: C15_24  and  O5_25 
REMARK    8  A    between atoms: C16_27  and  O6_28 
ROOT
HETATM    1  C3  UNL     1      -5.040   1.911  13.525  1.00  0.00     0.021 C 
HETATM    2  C4  UNL     1      -4.236   2.876  12.656  1.00  0.00     0.042 C 
HETATM    3  C5  UNL     1      -4.210   2.371  11.237  1.00  0.00     0.161 C 
HETATM    4  C14 UNL     1      -3.733   0.964  11.157  1.00  0.00     0.178 C 
HETATM    5  C15 UNL     1      -4.559   0.037  12.042  1.00  0.00     0.178 C 
HETATM    6  C16 UNL     1      -4.358   0.540  13.455  1.00  0.00     0.153 C 
ENDROOT
BRANCH   3   7
HETATM    7  O2  UNL     1      -3.644   3.169  10.275  1.00  0.00    -0.340 OA
BRANCH   7   8
HETATM    8  C6  UNL     1      -3.259   4.477  10.401  1.00  0.00     0.107 A 
HETATM    9  C7  UNL     1      -4.124   5.486  10.037  1.00  0.00     0.090 A 
HETATM   10 CL1  UNL     1      -5.742   5.215   9.408  1.00  0.00    -0.080 Cl
HETATM   11  C8  UNL     1      -3.764   6.833  10.153  1.00  0.00     0.061 A 
HETATM   12 CL2  UNL     1      -4.852   8.124   9.697  1.00  0.00    -0.082 Cl
HETATM   13  C9  UNL     1      -2.527   7.164  10.637  1.00  0.00     0.064 A 
HETATM   14  C10 UNL     1      -1.652   6.163  11.000  1.00  0.00     0.091 A 
HETATM   15  O3  UNL     1      -0.421   6.247  11.471  1.00  0.00    -0.320 OA
HETATM   16  C13 UNL     1      -2.019   4.813  10.881  1.00  0.00     0.057 A 
HETATM   17  C11 UNL     1       0.074   5.073  11.673  1.00  0.00     0.167 A 
HETATM   18  C12 UNL     1      -0.892   4.153  11.313  1.00  0.00     0.072 A 
HETATM   19 CL3  UNL     1      -0.621   2.431  11.330  1.00  0.00    -0.081 Cl
ENDBRANCH   7   8
ENDBRANCH   3   7
BRANCH   4  20
HETATM   20  O4  UNL     1      -3.639   0.507   9.865  1.00  0.00    -0.390 OA
ATOM     21  H4  UNL     1      -2.742   0.345   9.595  1.00  0.00     0.210 HD
ENDBRANCH   4  20
BRANCH   1  22
HETATM   22  C2  UNL     1      -5.126   2.370  14.932  1.00  0.00     0.033 C 
BRANCH  22  23
HETATM   23  C1  UNL     1      -3.775   2.698  15.491  1.00  0.00     0.164 C 
BRANCH  23  24
HETATM   24  O1  UNL     1      -3.415   1.650  16.357  1.00  0.00    -0.401 OA
ATOM     25  H1  UNL     1      -3.833   1.817  17.193  1.00  0.00     0.209 HD
ENDBRANCH  23  24
ENDBRANCH  22  23
ENDBRANCH   1  22
BRANCH   5  26
HETATM   26  O5  UNL     1      -4.031  -1.239  11.871  1.00  0.00    -0.390 OA
ATOM     27  H5  UNL     1      -3.686  -1.501  12.716  1.00  0.00     0.210 HD
ENDBRANCH   5  26
BRANCH   6  28
HETATM   28  O6  UNL     1      -4.865  -0.317  14.410  1.00  0.00    -0.393 OA
ATOM     29  H6  UNL     1      -4.896   0.102  15.263  1.00  0.00     0.210 HD
ENDBRANCH   6  28
TORSDOF 8
ENDMDL
MODEL 5
REMARK VINA RESULT: -6.652256106      3.200      5.506
REMARK  8 active torsions:
REMARK  status: ('A' for Active; 'I' for Inactive)
REMARK    1  A    between atoms: O1_1  and  C1_3 
REMARK    2  A    between atoms: C1_3  and  C2_4 
REMARK    3  A    between atoms: C2_4  and  C3_5 
REMARK    4  A    between atoms: C5_7  and  O2_8 
REMARK    5  A    between atoms: O2_8  and  C6_9 
REMARK    6  A    between atoms: C14_21  and  O4_22 
REMARK    7  A    between atoms: C15_24  and  O5_25 
REMARK    8  A    between atoms: C16_27  and  O6_28 
ROOT
HETATM    1  C3  UNL     1      -4.292  -0.453  11.470  1.00  0.00     0.021 C 
HETATM    2  C4  UNL     1      -4.027   0.038  12.892  1.00  0.00     0.042 C 
HETATM    3  C5  UNL     1      -4.009   1.544  12.908  1.00  0.00     0.161 C 
HETATM    4  C14 UNL     1      -3.062   2.099  11.903  1.00  0.00     0.178 C 
HETATM    5  C15 UNL     1      -3.360   1.580  10.501  1.00  0.00     0.178 C 
HETATM    6  C16 UNL     1      -3.169   0.081  10.574  1.00  0.00     0.153 C 
ENDROOT
BRANCH   3   7
HETATM    7  O2  UNL     1      -3.913   2.180  14.120  1.00  0.00    -0.340 OA
BRANCH   7   8
HETATM    8  C6  UNL     1      -4.937   2.683  14.878  1.00  0.00     0.107 A 
HETATM    9  C7  UNL     1      -5.396   3.962  14.648  1.00  0.00     0.090 A 
HETATM   10 CL1  UNL     1      -4.752   5.032  13.413  1.00  0.00    -0.080 Cl
HETATM   11  C8  UNL     1      -6.441   4.508  15.402  1.00  0.00     0.061 A 
HETATM   12 CL2  UNL     1      -7.035   6.129  15.122  1.00  0.00    -0.082 Cl
HETATM   13  C9  UNL     1      -7.025   3.763  16.391  1.00  0.00     0.064 A 
HETATM   14  C10 UNL     1      -6.571   2.484  16.631  1.00  0.00     0.091 A 
HETATM   15  O3  UNL     1      -6.970   1.600  17.529  1.00  0.00    -0.320 OA
HETATM   16  C13 UNL     1      -5.523   1.941  15.872  1.00  0.00     0.057 A 
HETATM   17  C11 UNL     1      -6.277   0.516  17.444  1.00  0.00     0.167 A 
HETATM   18  C12 UNL     1      -5.362   0.692  16.424  1.00  0.00     0.072 A 
HETATM   19 CL3  UNL     1      -4.147  -0.491  16.020  1.00  0.00    -0.081 Cl
ENDBRANCH   7   8
ENDBRANCH   3   7
BRANCH   4  20
HETATM   20  O4  UNL     1      -2.983   3.470  11.947  1.00  0.00    -0.390 OA
ATOM     21  H4  UNL     1      -2.174   3.780  12.339  1.00  0.00     0.210 HD
ENDBRANCH   4  20
BRANCH   1  22
HETATM   22  C2  UNL     1      -4.350  -1.932  11.395  1.00  0.00     0.033 C 
BRANCH  22  23
HETATM   23  C1  UNL     1      -3.003  -2.551  11.617  1.00  0.00     0.164 C 
BRANCH  23  24
HETATM   24  O1  UNL     1      -3.140  -3.936  11.414  1.00  0.00    -0.401 OA
ATOM     25  H1  UNL     1      -4.020  -4.175  11.678  1.00  0.00     0.209 HD
ENDBRANCH  23  24
ENDBRANCH  22  23
ENDBRANCH   1  22
BRANCH   5  26
HETATM   26  O5  UNL     1      -2.427   2.176   9.657  1.00  0.00    -0.390 OA
ATOM     27  H5  UNL     1      -1.746   1.531   9.514  1.00  0.00     0.210 HD
ENDBRANCH   5  26
BRANCH   6  28
HETATM   28  O6  UNL     1      -3.190  -0.528   9.336  1.00  0.00    -0.393 OA
ATOM     29  H6  UNL     1      -3.872  -0.160   8.786  1.00  0.00     0.210 HD
ENDBRANCH   6  28
TORSDOF 8
ENDMDL
