MODEL 1
REMARK VINA RESULT: -7.918617596      0.000      0.000
REMARK  6 active torsions:
REMARK  status: ('A' for Active; 'I' for Inactive)
REMARK    1  A    between atoms: N4_14  and  C7_15 
REMARK    2  A    between atoms: C7_15  and  C8_16 
REMARK    3  A    between atoms: C8_16  and  N5_17 
REMARK    4  A    between atoms: C9_22  and  N6_23 
REMARK    5  A    between atoms: N6_23  and  C10_25 
REMARK    6  A    between atoms: C11_28  and  N8_29 
ROOT
HETATM    1  C1  UNL     1      -3.868  -0.783  10.952  1.00  0.00     0.070 C 
HETATM    2  C2  UNL     1      -4.198  -0.046  12.190  1.00  0.00     0.036 A 
HETATM    3  N1  UNL     1      -4.101  -0.578  13.424  1.00  0.00    -0.343 N 
ATOM      4  H1  UNL     1      -3.785  -1.541  13.530  1.00  0.00     0.167 HD
HETATM    5  C3  UNL     1      -4.415   0.141  14.524  1.00  0.00     0.129 A 
HETATM    6  N2  UNL     1      -4.299  -0.419  15.656  1.00  0.00    -0.384 N 
ATOM      7  H21 UNL     1      -4.537   0.124  16.486  1.00  0.00     0.157 HD
ATOM      8  H22 UNL     1      -3.976  -1.385  15.712  1.00  0.00     0.157 HD
HETATM    9  C4  UNL     1      -4.846   1.431  14.450  1.00  0.00     0.109 A 
HETATM   10  C5  UNL     1      -4.954   2.000  13.195  1.00  0.00     0.093 A 
HETATM   11  N3  UNL     1      -5.383   3.240  13.376  1.00  0.00    -0.348 N 
ATOM     12  H3  UNL     1      -5.565   3.926  12.643  1.00  0.00     0.167 HD
HETATM   13  C6  UNL     1      -5.535   3.435  14.690  1.00  0.00     0.184 A 
HETATM   14  N4  UNL     1      -5.207   2.326  15.377  1.00  0.00    -0.334 N 
HETATM   15  C9  UNL     1      -4.633   1.268  12.076  1.00  0.00     0.100 A 
ENDROOT
BRANCH  15  16
HETATM   16  N6  UNL     1      -4.762   1.902  10.811  1.00  0.00    -0.187 N 
ATOM     17  H6  UNL     1      -5.251   1.417  10.060  1.00  0.00     0.184 HD
BRANCH  16  18
HETATM   18  C10 UNL     1      -4.273   3.085  10.589  1.00  0.00     0.684 A 
HETATM   19  N7  UNL     1      -5.097   4.080  10.217  1.00  0.00    -0.173 N 
HETATM   20  C11 UNL     1      -4.691   5.324   9.966  1.00  0.00     0.159 A 
ATOM     21  H7  UNL     1      -6.090   3.869  10.121  1.00  0.00     0.186 HD
HETATM   22  C18 UNL     1      -3.355   5.610  10.094  1.00  0.00     0.176 A 
HETATM   23  F2  UNL     1      -2.886   6.840   9.852  1.00  0.00    -0.201 F 
HETATM   24  C19 UNL     1      -2.500   4.567  10.481  1.00  0.00     0.152 A 
HETATM   25  N9  UNL     1      -2.962   3.345  10.719  1.00  0.00    -0.199 N 
ATOM     26  H9  UNL     1      -2.321   2.603  11.000  1.00  0.00     0.183 HD
BRANCH  20  27
HETATM   27  N8  UNL     1      -5.621   6.314   9.582  1.00  0.00    -0.364 N 
HETATM   28  C12 UNL     1      -6.102   6.208   8.219  1.00  0.00     0.124 C 
HETATM   29  C13 UNL     1      -7.612   6.348   8.237  1.00  0.00     0.020 C 
HETATM   30  C14 UNL     1      -7.922   7.822   8.123  1.00  0.00     0.002 C 
HETATM   31  C15 UNL     1      -7.780   8.541   9.434  1.00  0.00     0.002 C 
HETATM   32  C16 UNL     1      -6.374   8.611   9.939  1.00  0.00     0.020 C 
HETATM   33  C17 UNL     1      -5.968   7.302  10.599  1.00  0.00     0.124 C 
ENDBRANCH  20  27
ENDBRANCH  16  18
ENDBRANCH  15  16
BRANCH  14  34
HETATM   34  C7  UNL     1      -5.269   2.211  16.791  1.00  0.00     0.196 C 
BRANCH  34  35
HETATM   35  C8  UNL     1      -6.708   1.998  17.282  1.00  0.00     0.383 C 
HETATM   36  F1  UNL     1      -7.231   0.848  16.777  1.00  0.00    -0.218 F 
BRANCH  35  37
HETATM   37  N5  UNL     1      -6.731   2.062  18.734  1.00  0.00    -0.047 N 
ATOM     38  H53 UNL     1      -6.797   1.139  19.162  1.00  0.00     0.277 HD
ATOM     39  H52 UNL     1      -5.830   2.338  19.124  1.00  0.00     0.277 HD
ATOM     40  H51 UNL     1      -7.487   2.681  19.029  1.00  0.00     0.277 HD
ENDBRANCH  35  37
ENDBRANCH  34  35
ENDBRANCH  14  34
TORSDOF 6
ENDMDL
MODEL 2
REMARK VINA RESULT: -7.703494615      3.068      5.804
REMARK  6 active torsions:
REMARK  status: ('A' for Active; 'I' for Inactive)
REMARK    1  A    between atoms: N4_14  and  C7_15 
REMARK    2  A    between atoms: C7_15  and  C8_16 
REMARK    3  A    between atoms: C8_16  and  N5_17 
REMARK    4  A    between atoms: C9_22  and  N6_23 
REMARK    5  A    between atoms: N6_23  and  C10_25 
REMARK    6  A    between atoms: C11_28  and  N8_29 
ROOT
HETATM    1  C1  UNL     1      -4.817   4.487  14.462  1.00  0.00     0.070 C 
HETATM    2  C2  UNL     1      -4.654   3.151  13.852  1.00  0.00     0.036 A 
HETATM    3  N1  UNL     1      -4.531   2.015  14.565  1.00  0.00    -0.343 N 
ATOM      4  H1  UNL     1      -4.549   2.059  15.583  1.00  0.00     0.167 HD
HETATM    5  C3  UNL     1      -4.385   0.817  13.956  1.00  0.00     0.129 A 
HETATM    6  N2  UNL     1      -4.277  -0.214  14.687  1.00  0.00    -0.384 N 
ATOM      7  H21 UNL     1      -4.166  -1.118  14.227  1.00  0.00     0.157 HD
ATOM      8  H22 UNL     1      -4.302  -0.120  15.702  1.00  0.00     0.157 HD
HETATM    9  C4  UNL     1      -4.352   0.690  12.601  1.00  0.00     0.109 A 
HETATM   10  C5  UNL     1      -4.476   1.842  11.846  1.00  0.00     0.093 A 
HETATM   11  N3  UNL     1      -4.417   1.471  10.576  1.00  0.00    -0.348 N 
ATOM     12  H3  UNL     1      -4.479   2.089   9.767  1.00  0.00     0.167 HD
HETATM   13  C6  UNL     1      -4.263   0.144  10.541  1.00  0.00     0.184 A 
HETATM   14  N4  UNL     1      -4.220  -0.363  11.787  1.00  0.00    -0.334 N 
HETATM   15  C9  UNL     1      -4.625   3.060  12.466  1.00  0.00     0.100 A 
ENDROOT
BRANCH  15  16
HETATM   16  N6  UNL     1      -4.749   4.211  11.643  1.00  0.00    -0.187 N 
ATOM     17  H6  UNL     1      -5.522   4.857  11.804  1.00  0.00     0.184 HD
BRANCH  16  18
HETATM   18  C10 UNL     1      -3.903   4.461  10.690  1.00  0.00     0.684 A 
HETATM   19  N7  UNL     1      -2.604   4.637  10.990  1.00  0.00    -0.173 N 
HETATM   20  C11 UNL     1      -1.662   4.897  10.085  1.00  0.00     0.159 A 
ATOM     21  H7  UNL     1      -2.325   4.566  11.969  1.00  0.00     0.186 HD
HETATM   22  C18 UNL     1      -2.036   4.993   8.767  1.00  0.00     0.176 A 
HETATM   23  F2  UNL     1      -1.136   5.256   7.812  1.00  0.00    -0.201 F 
HETATM   24  C19 UNL     1      -3.392   4.810   8.460  1.00  0.00     0.152 A 
HETATM   25  N9  UNL     1      -4.287   4.552   9.407  1.00  0.00    -0.199 N 
ATOM     26  H9  UNL     1      -5.268   4.421   9.158  1.00  0.00     0.183 HD
BRANCH  20  27
HETATM   27  N8  UNL     1      -0.318   5.066  10.482  1.00  0.00    -0.364 N 
HETATM   28  C12 UNL     1       0.025   6.399  10.934  1.00  0.00     0.124 C 
HETATM   29  C13 UNL     1       0.800   6.274  12.232  1.00  0.00     0.020 C 
HETATM   30  C14 UNL     1       2.259   6.135  11.866  1.00  0.00     0.002 C 
HETATM   31  C15 UNL     1       2.615   4.736  11.449  1.00  0.00     0.002 C 
HETATM   32  C16 UNL     1       1.982   4.307  10.163  1.00  0.00     0.020 C 
HETATM   33  C17 UNL     1       0.537   3.887  10.382  1.00  0.00     0.124 C 
ENDBRANCH  20  27
ENDBRANCH  16  18
ENDBRANCH  15  16
BRANCH  14  34
HETATM   34  C7  UNL     1      -4.058  -1.742  12.086  1.00  0.00     0.196 C 
BRANCH  34  35
HETATM   35  C8  UNL     1      -2.900  -2.363  11.291  1.00  0.00     0.383 C 
HETATM   36  F1  UNL     1      -1.716  -1.774  11.609  1.00  0.00    -0.218 F 
BRANCH  35  37
HETATM   37  N5  UNL     1      -2.907  -3.804  11.485  1.00  0.00    -0.047 N 
ATOM     38  H53 UNL     1      -3.677  -4.110  12.080  1.00  0.00     0.277 HD
ATOM     39  H52 UNL     1      -3.170  -4.307  10.638  1.00  0.00     0.277 HD
ATOM     40  H51 UNL     1      -1.999  -4.097  11.846  1.00  0.00     0.277 HD
ENDBRANCH  35  37
ENDBRANCH  34  35
ENDBRANCH  14  34
TORSDOF 6
ENDMDL
MODEL 3
REMARK VINA RESULT: -7.684513839      3.778      5.494
REMARK  6 active torsions:
REMARK  status: ('A' for Active; 'I' for Inactive)
REMARK    1  A    between atoms: N4_14  and  C7_15 
REMARK    2  A    between atoms: C7_15  and  C8_16 
REMARK    3  A    between atoms: C8_16  and  N5_17 
REMARK    4  A    between atoms: C9_22  and  N6_23 
REMARK    5  A    between atoms: N6_23  and  C10_25 
REMARK    6  A    between atoms: C11_28  and  N8_29 
ROOT
HETATM    1  C1  UNL     1      -4.368   4.468  14.740  1.00  0.00     0.070 C 
HETATM    2  C2  UNL     1      -4.245   3.175  14.036  1.00  0.00     0.036 A 
HETATM    3  N1  UNL     1      -4.457   1.981  14.624  1.00  0.00    -0.343 N 
ATOM      4  H1  UNL     1      -4.717   1.948  15.609  1.00  0.00     0.167 HD
HETATM    5  C3  UNL     1      -4.330   0.827  13.933  1.00  0.00     0.129 A 
HETATM    6  N2  UNL     1      -4.547  -0.262  14.546  1.00  0.00    -0.384 N 
ATOM      7  H21 UNL     1      -4.451  -1.134  14.025  1.00  0.00     0.157 HD
ATOM      8  H22 UNL     1      -4.808  -0.244  15.532  1.00  0.00     0.157 HD
HETATM    9  C4  UNL     1      -3.983   0.802  12.617  1.00  0.00     0.109 A 
HETATM   10  C5  UNL     1      -3.759   2.014  11.990  1.00  0.00     0.093 A 
HETATM   11  N3  UNL     1      -3.442   1.739  10.734  1.00  0.00    -0.348 N 
ATOM     12  H3  UNL     1      -3.218   2.420  10.008  1.00  0.00     0.167 HD
HETATM   13  C6  UNL     1      -3.467   0.410  10.585  1.00  0.00     0.184 A 
HETATM   14  N4  UNL     1      -3.800  -0.192  11.741  1.00  0.00    -0.334 N 
HETATM   15  C9  UNL     1      -3.889   3.188  12.693  1.00  0.00     0.100 A 
ENDROOT
BRANCH  15  16
HETATM   16  N6  UNL     1      -3.649   4.405  12.000  1.00  0.00    -0.187 N 
ATOM     17  H6  UNL     1      -4.384   4.795  11.411  1.00  0.00     0.184 HD
BRANCH  16  18
HETATM   18  C10 UNL     1      -2.516   5.033  12.098  1.00  0.00     0.684 A 
HETATM   19  N7  UNL     1      -2.502   6.303  12.537  1.00  0.00    -0.173 N 
HETATM   20  C11 UNL     1      -1.393   7.030  12.672  1.00  0.00     0.159 A 
ATOM     21  H7  UNL     1      -3.393   6.736  12.780  1.00  0.00     0.186 HD
HETATM   22  C18 UNL     1      -0.193   6.450  12.344  1.00  0.00     0.176 A 
HETATM   23  F2  UNL     1       0.955   7.129  12.455  1.00  0.00    -0.201 F 
HETATM   24  C19 UNL     1      -0.213   5.124  11.886  1.00  0.00     0.152 A 
HETATM   25  N9  UNL     1      -1.352   4.449  11.773  1.00  0.00    -0.199 N 
ATOM     26  H9  UNL     1      -1.341   3.485  11.438  1.00  0.00     0.183 HD
BRANCH  20  27
HETATM   27  N8  UNL     1      -1.463   8.359  13.142  1.00  0.00    -0.364 N 
HETATM   28  C12 UNL     1      -1.319   9.378  12.123  1.00  0.00     0.124 C 
HETATM   29  C13 UNL     1      -2.417  10.406  12.322  1.00  0.00     0.020 C 
HETATM   30  C14 UNL     1      -1.887  11.441  13.285  1.00  0.00     0.002 C 
HETATM   31  C15 UNL     1      -1.969  10.988  14.716  1.00  0.00     0.002 C 
HETATM   32  C16 UNL     1      -1.064   9.842  15.042  1.00  0.00     0.020 C 
HETATM   33  C17 UNL     1      -1.668   8.525  14.578  1.00  0.00     0.124 C 
ENDBRANCH  20  27
ENDBRANCH  16  18
ENDBRANCH  15  16
BRANCH  14  34
HETATM   34  C7  UNL     1      -3.906  -1.598  11.910  1.00  0.00     0.196 C 
BRANCH  34  35
HETATM   35  C8  UNL     1      -2.738  -2.340  11.245  1.00  0.00     0.383 C 
HETATM   36  F1  UNL     1      -1.541  -1.850  11.670  1.00  0.00    -0.218 F 
BRANCH  35  37
HETATM   37  N5  UNL     1      -2.894  -3.769  11.462  1.00  0.00    -0.047 N 
ATOM     38  H53 UNL     1      -2.620  -4.050  12.403  1.00  0.00     0.277 HD
ATOM     39  H52 UNL     1      -3.874  -4.048  11.509  1.00  0.00     0.277 HD
ATOM     40  H51 UNL     1      -2.380  -4.276  10.741  1.00  0.00     0.277 HD
ENDBRANCH  35  37
ENDBRANCH  34  35
ENDBRANCH  14  34
TORSDOF 6
ENDMDL
MODEL 4
REMARK VINA RESULT: -7.619932855      3.259      9.024
REMARK  6 active torsions:
REMARK  status: ('A' for Active; 'I' for Inactive)
REMARK    1  A    between atoms: N4_14  and  C7_15 
REMARK    2  A    between atoms: C7_15  and  C8_16 
REMARK    3  A    between atoms: C8_16  and  N5_17 
REMARK    4  A    between atoms: C9_22  and  N6_23 
REMARK    5  A    between atoms: N6_23  and  C10_25 
REMARK    6  A    between atoms: C11_28  and  N8_29 
ROOT
HETATM    1  C1  UNL     1      -3.638   6.785   6.550  1.00  0.00     0.070 C 
HETATM    2  C2  UNL     1      -4.880   7.525   6.857  1.00  0.00     0.036 A 
HETATM    3  N1  UNL     1      -5.130   8.776   6.424  1.00  0.00    -0.343 N 
ATOM      4  H1  UNL     1      -4.436   9.255   5.851  1.00  0.00     0.167 HD
HETATM    5  C3  UNL     1      -6.284   9.408   6.734  1.00  0.00     0.129 A 
HETATM    6  N2  UNL     1      -6.457  10.584   6.291  1.00  0.00    -0.384 N 
ATOM      7  H21 UNL     1      -7.328  11.061   6.525  1.00  0.00     0.157 HD
ATOM      8  H22 UNL     1      -5.734  11.021   5.719  1.00  0.00     0.157 HD
HETATM    9  C4  UNL     1      -7.249   8.825   7.496  1.00  0.00     0.109 A 
HETATM   10  C5  UNL     1      -7.016   7.541   7.954  1.00  0.00     0.093 A 
HETATM   11  N3  UNL     1      -8.081   7.191   8.660  1.00  0.00    -0.348 N 
ATOM     12  H3  UNL     1      -8.220   6.299   9.134  1.00  0.00     0.167 HD
HETATM   13  C6  UNL     1      -8.941   8.214   8.642  1.00  0.00     0.184 A 
HETATM   14  N4  UNL     1      -8.446   9.239   7.925  1.00  0.00    -0.334 N 
HETATM   15  C9  UNL     1      -5.843   6.899   7.638  1.00  0.00     0.100 A 
ENDROOT
BRANCH  15  16
HETATM   16  N6  UNL     1      -5.655   5.581   8.134  1.00  0.00    -0.187 N 
ATOM     17  H6  UNL     1      -5.968   4.789   7.572  1.00  0.00     0.184 HD
BRANCH  16  18
HETATM   18  C10 UNL     1      -5.095   5.359   9.285  1.00  0.00     0.684 A 
HETATM   19  N7  UNL     1      -4.734   4.106   9.611  1.00  0.00    -0.173 N 
HETATM   20  C11 UNL     1      -4.154   3.778  10.766  1.00  0.00     0.159 A 
ATOM     21  H7  UNL     1      -4.915   3.363   8.936  1.00  0.00     0.186 HD
HETATM   22  C18 UNL     1      -3.911   4.776  11.677  1.00  0.00     0.176 A 
HETATM   23  F2  UNL     1      -3.334   4.509  12.855  1.00  0.00    -0.201 F 
HETATM   24  C19 UNL     1      -4.290   6.081  11.330  1.00  0.00     0.152 A 
HETATM   25  N9  UNL     1      -4.865   6.348  10.163  1.00  0.00    -0.199 N 
ATOM     26  H9  UNL     1      -5.131   7.306   9.933  1.00  0.00     0.183 HD
BRANCH  20  27
HETATM   27  N8  UNL     1      -3.803   2.437  11.033  1.00  0.00    -0.364 N 
HETATM   28  C12 UNL     1      -4.771   1.694  11.814  1.00  0.00     0.124 C 
HETATM   29  C13 UNL     1      -4.997   0.355  11.139  1.00  0.00     0.020 C 
HETATM   30  C14 UNL     1      -3.968  -0.601  11.694  1.00  0.00     0.002 C 
HETATM   31  C15 UNL     1      -2.622  -0.435  11.047  1.00  0.00     0.002 C 
HETATM   32  C16 UNL     1      -1.958   0.869  11.356  1.00  0.00     0.020 C 
HETATM   33  C17 UNL     1      -2.525   1.986  10.492  1.00  0.00     0.124 C 
ENDBRANCH  20  27
ENDBRANCH  16  18
ENDBRANCH  15  16
BRANCH  14  34
HETATM   34  C7  UNL     1      -9.118  10.474   7.724  1.00  0.00     0.196 C 
BRANCH  34  35
HETATM   35  C8  UNL     1     -10.465  10.279   7.012  1.00  0.00     0.383 C 
HETATM   36  F1  UNL     1     -11.418  11.098   7.535  1.00  0.00    -0.218 F 
BRANCH  35  37
HETATM   37  N5  UNL     1     -10.276  10.442   5.581  1.00  0.00    -0.047 N 
ATOM     38  H53 UNL     1     -10.895  11.151   5.187  1.00  0.00     0.277 HD
ATOM     39  H52 UNL     1      -9.387  10.888   5.355  1.00  0.00     0.277 HD
ATOM     40  H51 UNL     1     -10.383   9.536   5.123  1.00  0.00     0.277 HD
ENDBRANCH  35  37
ENDBRANCH  34  35
ENDBRANCH  14  34
TORSDOF 6
ENDMDL
MODEL 5
REMARK VINA RESULT: -7.515856596      2.130      7.093
REMARK  6 active torsions:
REMARK  status: ('A' for Active; 'I' for Inactive)
REMARK    1  A    between atoms: N4_14  and  C7_15 
REMARK    2  A    between atoms: C7_15  and  C8_16 
REMARK    3  A    between atoms: C8_16  and  N5_17 
REMARK    4  A    between atoms: C9_22  and  N6_23 
REMARK    5  A    between atoms: N6_23  and  C10_25 
REMARK    6  A    between atoms: C11_28  and  N8_29 
ROOT
HETATM    1  C1  UNL     1      -0.229   4.402  11.802  1.00  0.00     0.070 C 
HETATM    2  C2  UNL     1      -1.465   5.091  11.378  1.00  0.00     0.036 A 
HETATM    3  N1  UNL     1      -1.753   6.369  11.693  1.00  0.00    -0.343 N 
ATOM      4  H1  UNL     1      -1.093   6.907  12.253  1.00  0.00     0.167 HD
HETATM    5  C3  UNL     1      -2.900   6.952  11.279  1.00  0.00     0.129 A 
HETATM    6  N2  UNL     1      -3.107   8.159  11.608  1.00  0.00    -0.384 N 
ATOM      7  H21 UNL     1      -3.973   8.599  11.296  1.00  0.00     0.157 HD
ATOM      8  H22 UNL     1      -2.416   8.657  12.168  1.00  0.00     0.157 HD
HETATM    9  C4  UNL     1      -3.823   6.288  10.531  1.00  0.00     0.109 A 
HETATM   10  C5  UNL     1      -3.552   4.975  10.195  1.00  0.00     0.093 A 
HETATM   11  N3  UNL     1      -4.579   4.547   9.475  1.00  0.00    -0.348 N 
ATOM     12  H3  UNL     1      -4.684   3.615   9.073  1.00  0.00     0.167 HD
HETATM   13  C6  UNL     1      -5.452   5.553   9.366  1.00  0.00     0.184 A 
HETATM   14  N4  UNL     1      -5.004   6.644  10.014  1.00  0.00    -0.334 N 
HETATM   15  C9  UNL     1      -2.385   4.383  10.615  1.00  0.00     0.100 A 
ENDROOT
BRANCH  15  16
HETATM   16  N6  UNL     1      -2.156   3.031  10.241  1.00  0.00    -0.187 N 
ATOM     17  H6  UNL     1      -1.513   2.829   9.476  1.00  0.00     0.184 HD
BRANCH  16  18
HETATM   18  C10 UNL     1      -2.746   2.046  10.849  1.00  0.00     0.684 A 
HETATM   19  N7  UNL     1      -3.318   2.260  12.047  1.00  0.00    -0.173 N 
HETATM   20  C11 UNL     1      -3.945   1.316  12.748  1.00  0.00     0.159 A 
ATOM     21  H7  UNL     1      -3.268   3.198  12.443  1.00  0.00     0.186 HD
HETATM   22  C18 UNL     1      -4.013   0.051  12.219  1.00  0.00     0.176 A 
HETATM   23  F2  UNL     1      -4.627  -0.940  12.876  1.00  0.00    -0.201 F 
HETATM   24  C19 UNL     1      -3.414  -0.166  10.969  1.00  0.00     0.152 A 
HETATM   25  N9  UNL     1      -2.802   0.816  10.316  1.00  0.00    -0.199 N 
ATOM     26  H9  UNL     1      -2.375   0.635   9.407  1.00  0.00     0.183 HD
BRANCH  20  27
HETATM   27  N8  UNL     1      -4.523   1.621  13.999  1.00  0.00    -0.364 N 
HETATM   28  C12 UNL     1      -4.986   2.986  14.144  1.00  0.00     0.124 C 
HETATM   29  C13 UNL     1      -6.383   2.952  14.736  1.00  0.00     0.020 C 
HETATM   30  C14 UNL     1      -6.228   2.954  16.238  1.00  0.00     0.002 C 
HETATM   31  C15 UNL     1      -5.899   1.593  16.783  1.00  0.00     0.002 C 
HETATM   32  C16 UNL     1      -4.548   1.090  16.384  1.00  0.00     0.020 C 
HETATM   33  C17 UNL     1      -4.573   0.531  14.969  1.00  0.00     0.124 C 
ENDBRANCH  20  27
ENDBRANCH  16  18
ENDBRANCH  15  16
BRANCH  14  34
HETATM   34  C7  UNL     1      -5.708   7.876  10.090  1.00  0.00     0.196 C 
BRANCH  34  35
HETATM   35  C8  UNL     1      -7.129   7.686  10.641  1.00  0.00     0.383 C 
HETATM   36  F1  UNL     1      -7.302   8.380  11.798  1.00  0.00    -0.218 F 
BRANCH  35  37
HETATM   37  N5  UNL     1      -8.091   8.025   9.607  1.00  0.00    -0.047 N 
ATOM     38  H53 UNL     1      -7.786   8.815   9.038  1.00  0.00     0.277 HD
ATOM     39  H52 UNL     1      -8.129   7.323   8.868  1.00  0.00     0.277 HD
ATOM     40  H51 UNL     1      -9.003   8.186  10.036  1.00  0.00     0.277 HD
ENDBRANCH  35  37
ENDBRANCH  34  35
ENDBRANCH  14  34
TORSDOF 6
ENDMDL
