MODEL 1
REMARK VINA RESULT: -7.820056080      0.000      0.000
REMARK  4 active torsions:
REMARK  status: ('A' for Active; 'I' for Inactive)
REMARK    1  A    between atoms: C2_2  and  C3_5 
REMARK    2  A    between atoms: C5_8  and  C6_9 
REMARK    3  A    between atoms: C5_8  and  C17_28 
REMARK    4  A    between atoms: C8_13  and  N2_14 
ROOT
HETATM    1  C6  UNL     1      -2.954   3.254  12.368  1.00  0.00     0.076 A 
HETATM    2  C7  UNL     1      -3.346   3.595  11.079  1.00  0.00     0.134 A 
HETATM    3  N1  UNL     1      -2.295   4.147  10.514  1.00  0.00    -0.200 N 
ATOM      4  H1  UNL     1      -2.275   4.504   9.559  1.00  0.00     0.183 HD
HETATM    5  C8  UNL     1      -1.219   4.180  11.387  1.00  0.00     0.680 A 
HETATM    6  N4  UNL     1      -1.687   3.617  12.500  1.00  0.00    -0.191 N 
ATOM      7  H4  UNL     1      -1.137   3.483  13.349  1.00  0.00     0.184 HD
ENDROOT
BRANCH   1   8
HETATM    8  C5  UNL     1      -3.969   2.673  13.299  1.00  0.00     0.142 C 
HETATM    9  C4  UNL     1      -5.200   3.542  13.103  1.00  0.00     0.124 C 
HETATM   10  C3  UNL     1      -6.092   3.690  14.270  1.00  0.00     0.280 C 
HETATM   11  F3  UNL     1      -7.408   3.625  13.772  1.00  0.00    -0.204 F 
HETATM   12  O1  UNL     1      -5.950   2.694  15.258  1.00  0.00    -0.273 OA
HETATM   13  C18 UNL     1      -4.645   2.347  15.596  1.00  0.00     0.216 C 
HETATM   14  N5  UNL     1      -3.606   2.678  14.680  1.00  0.00    -0.336 N 
HETATM   15  N6  UNL     1      -4.420   1.742  16.707  1.00  0.00    -0.365 N 
ATOM     16  H5  UNL     1      -2.660   2.905  14.990  1.00  0.00     0.164 HD
ATOM     17  H62 UNL     1      -3.464   1.488  16.955  1.00  0.00     0.159 HD
ATOM     18  H61 UNL     1      -5.164   1.505  17.364  1.00  0.00     0.159 HD
BRANCH  10  19
HETATM   19  C2  UNL     1      -6.029   5.017  14.981  1.00  0.00     0.300 C 
HETATM   20  C1  UNL     1      -6.758   6.132  14.274  1.00  0.00     0.097 C 
HETATM   21  F1  UNL     1      -6.719   4.848  16.190  1.00  0.00    -0.200 F 
HETATM   22  F2  UNL     1      -4.776   5.437  15.292  1.00  0.00    -0.200 F 
ENDBRANCH  10  19
BRANCH   8  23
HETATM   23  C17 UNL     1      -4.212   1.240  12.867  1.00  0.00     0.387 C 
HETATM   24  F4  UNL     1      -5.238   1.204  11.936  1.00  0.00    -0.211 F 
HETATM   25  F5  UNL     1      -3.097   0.568  12.473  1.00  0.00    -0.211 F 
ENDBRANCH   8  23
ENDBRANCH   1   8
BRANCH   5  26
HETATM   26  N2  UNL     1      -0.005   4.796  11.021  1.00  0.00    -0.217 N 
HETATM   27  C9  UNL     1       0.656   4.505   9.714  1.00  0.00     0.142 C 
HETATM   28  C10 UNL     1       2.043   4.196  10.287  1.00  0.00     0.032 C 
HETATM   29  C11 UNL     1       2.258   5.467  11.101  1.00  0.00    -0.019 C 
HETATM   30  C12 UNL     1       3.308   5.297  12.142  1.00  0.00     0.039 C 
HETATM   31  C15 UNL     1       2.649   6.531  10.087  1.00  0.00     0.039 C 
HETATM   32  C16 UNL     1       0.858   5.710  11.674  1.00  0.00     0.151 C 
HETATM   33  C13 UNL     1       4.658   5.514  11.441  1.00  0.00     0.233 C 
HETATM   34  N3  UNL     1       4.828   6.898  11.068  1.00  0.00    -0.075 N 
HETATM   35  C14 UNL     1       3.555   7.495  10.808  1.00  0.00     0.233 C 
ATOM     36  H32 UNL     1       5.360   7.419  11.765  1.00  0.00     0.277 HD
ATOM     37  H31 UNL     1       5.469   7.006  10.281  1.00  0.00     0.277 HD
ENDBRANCH   5  26
TORSDOF 4
ENDMDL
MODEL 2
REMARK VINA RESULT: -7.799465785      4.089      5.014
REMARK  4 active torsions:
REMARK  status: ('A' for Active; 'I' for Inactive)
REMARK    1  A    between atoms: C2_2  and  C3_5 
REMARK    2  A    between atoms: C5_8  and  C6_9 
REMARK    3  A    between atoms: C5_8  and  C17_28 
REMARK    4  A    between atoms: C8_13  and  N2_14 
ROOT
HETATM    1  C6  UNL     1      -2.776   4.826  13.610  1.00  0.00     0.076 A 
HETATM    2  C7  UNL     1      -1.568   4.795  12.922  1.00  0.00     0.134 A 
HETATM    3  N1  UNL     1      -0.938   5.903  13.245  1.00  0.00    -0.200 N 
ATOM      4  H1  UNL     1      -0.018   6.167  12.893  1.00  0.00     0.183 HD
HETATM    5  C8  UNL     1      -1.689   6.664  14.128  1.00  0.00     0.680 A 
HETATM    6  N4  UNL     1      -2.797   5.950  14.312  1.00  0.00    -0.191 N 
ATOM      7  H4  UNL     1      -3.568   6.233  14.918  1.00  0.00     0.184 HD
ENDROOT
BRANCH   1   8
HETATM    8  C5  UNL     1      -3.763   3.726  13.381  1.00  0.00     0.142 C 
HETATM    9  C4  UNL     1      -4.585   3.686  14.658  1.00  0.00     0.124 C 
HETATM   10  C3  UNL     1      -5.142   2.374  15.039  1.00  0.00     0.280 C 
HETATM   11  F3  UNL     1      -6.448   2.619  15.507  1.00  0.00    -0.204 F 
HETATM   12  O1  UNL     1      -5.224   1.435  13.991  1.00  0.00    -0.273 OA
HETATM   13  C18 UNL     1      -4.111   1.346  13.158  1.00  0.00     0.216 C 
HETATM   14  N5  UNL     1      -3.196   2.437  13.146  1.00  0.00    -0.336 N 
HETATM   15  N6  UNL     1      -3.949   0.299  12.431  1.00  0.00    -0.365 N 
ATOM     16  H5  UNL     1      -2.198   2.306  12.981  1.00  0.00     0.164 HD
ATOM     17  H62 UNL     1      -3.134   0.234  11.821  1.00  0.00     0.159 HD
ATOM     18  H61 UNL     1      -4.605  -0.483  12.440  1.00  0.00     0.159 HD
BRANCH  10  19
HETATM   19  C2  UNL     1      -4.460   1.680  16.190  1.00  0.00     0.300 C 
HETATM   20  C1  UNL     1      -5.337   1.484  17.401  1.00  0.00     0.097 C 
HETATM   21  F1  UNL     1      -4.166   0.383  15.747  1.00  0.00    -0.200 F 
HETATM   22  F2  UNL     1      -3.289   2.244  16.580  1.00  0.00    -0.200 F 
ENDBRANCH  10  19
BRANCH   8  23
HETATM   23  C17 UNL     1      -4.601   4.113  12.179  1.00  0.00     0.387 C 
HETATM   24  F4  UNL     1      -4.864   5.474  12.215  1.00  0.00    -0.211 F 
HETATM   25  F5  UNL     1      -4.112   3.688  10.983  1.00  0.00    -0.211 F 
ENDBRANCH   8  23
ENDBRANCH   1   8
BRANCH   5  26
HETATM   26  N2  UNL     1      -1.242   7.932  14.555  1.00  0.00    -0.217 N 
HETATM   27  C9  UNL     1      -1.759   8.561  15.806  1.00  0.00     0.142 C 
HETATM   28  C10 UNL     1      -2.121   9.912  15.182  1.00  0.00     0.032 C 
HETATM   29  C11 UNL     1      -0.783  10.249  14.533  1.00  0.00    -0.019 C 
HETATM   30  C12 UNL     1      -0.918  11.278  13.466  1.00  0.00     0.039 C 
HETATM   31  C15 UNL     1       0.101  10.738  15.670  1.00  0.00     0.039 C 
HETATM   32  C16 UNL     1      -0.338   8.878  14.012  1.00  0.00     0.151 C 
HETATM   33  C13 UNL     1      -0.921  12.642  14.173  1.00  0.00     0.233 C 
HETATM   34  N3  UNL     1       0.382  12.943  14.717  1.00  0.00    -0.075 N 
HETATM   35  C14 UNL     1       1.059  11.733  15.065  1.00  0.00     0.233 C 
ATOM     36  H32 UNL     1       0.935  13.523  14.085  1.00  0.00     0.277 HD
ATOM     37  H31 UNL     1       0.328  13.591  15.503  1.00  0.00     0.277 HD
ENDBRANCH   5  26
TORSDOF 4
ENDMDL
MODEL 3
REMARK VINA RESULT: -7.583847108      1.904      2.617
REMARK  4 active torsions:
REMARK  status: ('A' for Active; 'I' for Inactive)
REMARK    1  A    between atoms: C2_2  and  C3_5 
REMARK    2  A    between atoms: C5_8  and  C6_9 
REMARK    3  A    between atoms: C5_8  and  C17_28 
REMARK    4  A    between atoms: C8_13  and  N2_14 
ROOT
HETATM    1  C6  UNL     1      -2.304   4.213  12.531  1.00  0.00     0.076 A 
HETATM    2  C7  UNL     1      -2.143   5.075  13.610  1.00  0.00     0.134 A 
HETATM    3  N1  UNL     1      -1.004   5.699  13.408  1.00  0.00    -0.200 N 
ATOM      4  H1  UNL     1      -0.611   6.400  14.037  1.00  0.00     0.183 HD
HETATM    5  C8  UNL     1      -0.407   5.280  12.230  1.00  0.00     0.680 A 
HETATM    6  N4  UNL     1      -1.253   4.374  11.741  1.00  0.00    -0.191 N 
ATOM      7  H4  UNL     1      -1.109   3.867  10.867  1.00  0.00     0.184 HD
ENDROOT
BRANCH   1   8
HETATM    8  C5  UNL     1      -3.483   3.294  12.515  1.00  0.00     0.142 C 
HETATM    9  C4  UNL     1      -4.271   3.670  13.757  1.00  0.00     0.124 C 
HETATM   10  C3  UNL     1      -5.056   2.592  14.390  1.00  0.00     0.280 C 
HETATM   11  F3  UNL     1      -6.283   3.168  14.774  1.00  0.00    -0.204 F 
HETATM   12  O1  UNL     1      -5.334   1.490  13.555  1.00  0.00    -0.273 OA
HETATM   13  C18 UNL     1      -4.275   1.026  12.779  1.00  0.00     0.216 C 
HETATM   14  N5  UNL     1      -3.173   1.901  12.560  1.00  0.00    -0.336 N 
HETATM   15  N6  UNL     1      -4.326  -0.159  12.285  1.00  0.00    -0.365 N 
ATOM     16  H5  UNL     1      -2.220   1.554  12.442  1.00  0.00     0.164 HD
ATOM     17  H62 UNL     1      -3.551  -0.499  11.716  1.00  0.00     0.159 HD
ATOM     18  H61 UNL     1      -5.116  -0.786  12.442  1.00  0.00     0.159 HD
BRANCH  10  19
HETATM   19  C2  UNL     1      -4.491   2.033  15.671  1.00  0.00     0.300 C 
HETATM   20  C1  UNL     1      -5.500   1.898  16.784  1.00  0.00     0.097 C 
HETATM   21  F1  UNL     1      -4.096   0.719  15.384  1.00  0.00    -0.200 F 
HETATM   22  F2  UNL     1      -3.398   2.685  16.142  1.00  0.00    -0.200 F 
ENDBRANCH  10  19
BRANCH   8  23
HETATM   23  C17 UNL     1      -4.260   3.576  11.244  1.00  0.00     0.387 C 
HETATM   24  F4  UNL     1      -4.512   4.936  11.146  1.00  0.00    -0.211 F 
HETATM   25  F5  UNL     1      -3.719   3.043  10.115  1.00  0.00    -0.211 F 
ENDBRANCH   8  23
ENDBRANCH   1   8
BRANCH   5  26
HETATM   26  N2  UNL     1       0.862   5.761  11.846  1.00  0.00    -0.217 N 
HETATM   27  C9  UNL     1       1.433   5.471  10.498  1.00  0.00     0.142 C 
HETATM   28  C10 UNL     1       2.789   4.958  10.992  1.00  0.00     0.032 C 
HETATM   29  C11 UNL     1       3.193   6.140  11.867  1.00  0.00    -0.019 C 
HETATM   30  C12 UNL     1       4.249   5.776  12.850  1.00  0.00     0.039 C 
HETATM   31  C15 UNL     1       3.679   7.207  10.898  1.00  0.00     0.039 C 
HETATM   32  C16 UNL     1       1.857   6.519  12.513  1.00  0.00     0.151 C 
HETATM   33  C13 UNL     1       5.590   5.867  12.105  1.00  0.00     0.233 C 
HETATM   34  N3  UNL     1       5.921   7.239  11.804  1.00  0.00    -0.075 N 
HETATM   35  C14 UNL     1       4.725   8.005  11.633  1.00  0.00     0.233 C 
ATOM     36  H32 UNL     1       6.539   7.647  12.505  1.00  0.00     0.277 HD
ATOM     37  H31 UNL     1       6.541   7.315  10.998  1.00  0.00     0.277 HD
ENDBRANCH   5  26
TORSDOF 4
ENDMDL
MODEL 4
REMARK VINA RESULT: -7.363948271      2.042      2.835
REMARK  4 active torsions:
REMARK  status: ('A' for Active; 'I' for Inactive)
REMARK    1  A    between atoms: C2_2  and  C3_5 
REMARK    2  A    between atoms: C5_8  and  C6_9 
REMARK    3  A    between atoms: C5_8  and  C17_28 
REMARK    4  A    between atoms: C8_13  and  N2_14 
ROOT
HETATM    1  C6  UNL     1      -2.341   4.754  12.093  1.00  0.00     0.076 A 
HETATM    2  C7  UNL     1      -2.045   5.280  13.345  1.00  0.00     0.134 A 
HETATM    3  N1  UNL     1      -0.828   5.768  13.255  1.00  0.00    -0.200 N 
ATOM      4  H1  UNL     1      -0.330   6.222  14.022  1.00  0.00     0.183 HD
HETATM    5  C8  UNL     1      -0.309   5.585  11.983  1.00  0.00     0.680 A 
HETATM    6  N4  UNL     1      -1.284   4.963  11.322  1.00  0.00    -0.191 N 
ATOM      7  H4  UNL     1      -1.224   4.682  10.342  1.00  0.00     0.184 HD
ENDROOT
BRANCH   1   8
HETATM    8  C5  UNL     1      -3.643   4.045  11.899  1.00  0.00     0.142 C 
HETATM    9  C4  UNL     1      -4.431   4.356  13.160  1.00  0.00     0.124 C 
HETATM   10  C3  UNL     1      -5.403   3.333  13.596  1.00  0.00     0.280 C 
HETATM   11  F3  UNL     1      -6.548   4.033  14.024  1.00  0.00    -0.204 F 
HETATM   12  O1  UNL     1      -5.798   2.424  12.593  1.00  0.00    -0.273 OA
HETATM   13  C18 UNL     1      -4.782   1.917  11.789  1.00  0.00     0.216 C 
HETATM   14  N5  UNL     1      -3.549   2.630  11.740  1.00  0.00    -0.336 N 
HETATM   15  N6  UNL     1      -4.985   0.840  11.118  1.00  0.00    -0.365 N 
ATOM     16  H5  UNL     1      -2.655   2.158  11.601  1.00  0.00     0.164 HD
ATOM     17  H62 UNL     1      -4.240   0.469  10.528  1.00  0.00     0.159 HD
ATOM     18  H61 UNL     1      -5.868   0.330  11.152  1.00  0.00     0.159 HD
BRANCH  10  19
HETATM   19  C2  UNL     1      -5.000   2.511  14.792  1.00  0.00     0.300 C 
HETATM   20  C1  UNL     1      -3.834   3.077  15.565  1.00  0.00     0.097 C 
HETATM   21  F1  UNL     1      -6.079   2.562  15.685  1.00  0.00    -0.200 F 
HETATM   22  F2  UNL     1      -4.760   1.202  14.528  1.00  0.00    -0.200 F 
ENDBRANCH  10  19
BRANCH   8  23
HETATM   23  C17 UNL     1      -4.297   4.629  10.663  1.00  0.00     0.387 C 
HETATM   24  F4  UNL     1      -4.345   6.011  10.772  1.00  0.00    -0.211 F 
HETATM   25  F5  UNL     1      -3.775   4.196   9.484  1.00  0.00    -0.211 F 
ENDBRANCH   8  23
ENDBRANCH   1   8
BRANCH   5  26
HETATM   26  N2  UNL     1       1.013   5.965  11.675  1.00  0.00    -0.217 N 
HETATM   27  C9  UNL     1       1.620   5.674  10.343  1.00  0.00     0.142 C 
HETATM   28  C10 UNL     1       2.902   5.025  10.875  1.00  0.00     0.032 C 
HETATM   29  C11 UNL     1       3.365   6.134  11.813  1.00  0.00    -0.019 C 
HETATM   30  C12 UNL     1       4.338   5.643  12.828  1.00  0.00     0.039 C 
HETATM   31  C15 UNL     1       3.987   7.188  10.911  1.00  0.00     0.039 C 
HETATM   32  C16 UNL     1       2.038   6.607  12.415  1.00  0.00     0.151 C 
HETATM   33  C13 UNL     1       5.715   5.641  12.146  1.00  0.00     0.233 C 
HETATM   34  N3  UNL     1       6.178   6.989  11.915  1.00  0.00    -0.075 N 
HETATM   35  C14 UNL     1       5.063   7.863  11.723  1.00  0.00     0.233 C 
ATOM     36  H32 UNL     1       6.796   7.314  12.659  1.00  0.00     0.277 HD
ATOM     37  H31 UNL     1       6.840   7.038  11.140  1.00  0.00     0.277 HD
ENDBRANCH   5  26
TORSDOF 4
ENDMDL
MODEL 5
REMARK VINA RESULT: -7.337310993      0.854      1.444
REMARK  4 active torsions:
REMARK  status: ('A' for Active; 'I' for Inactive)
REMARK    1  A    between atoms: C2_2  and  C3_5 
REMARK    2  A    between atoms: C5_8  and  C6_9 
REMARK    3  A    between atoms: C5_8  and  C17_28 
REMARK    4  A    between atoms: C8_13  and  N2_14 
ROOT
HETATM    1  C6  UNL     1      -2.860   3.426  12.721  1.00  0.00     0.076 A 
HETATM    2  C7  UNL     1      -3.105   3.778  11.398  1.00  0.00     0.134 A 
HETATM    3  N1  UNL     1      -2.001   4.343  10.963  1.00  0.00    -0.200 N 
ATOM      4  H1  UNL     1      -1.874   4.710  10.020  1.00  0.00     0.183 HD
HETATM    5  C8  UNL     1      -1.032   4.374  11.954  1.00  0.00     0.680 A 
HETATM    6  N4  UNL     1      -1.619   3.796  13.001  1.00  0.00    -0.191 N 
ATOM      7  H4  UNL     1      -1.169   3.657  13.906  1.00  0.00     0.184 HD
ENDROOT
BRANCH   1   8
HETATM    8  C5  UNL     1      -3.970   2.828  13.524  1.00  0.00     0.142 C 
HETATM    9  C4  UNL     1      -5.157   3.739  13.261  1.00  0.00     0.124 C 
HETATM   10  C3  UNL     1      -6.150   3.854  14.347  1.00  0.00     0.280 C 
HETATM   11  F3  UNL     1      -7.416   3.849  13.729  1.00  0.00    -0.204 F 
HETATM   12  O1  UNL     1      -6.123   2.807  15.291  1.00  0.00    -0.273 OA
HETATM   13  C18 UNL     1      -4.863   2.408  15.729  1.00  0.00     0.216 C 
HETATM   14  N5  UNL     1      -3.736   2.755  14.930  1.00  0.00    -0.336 N 
HETATM   15  N6  UNL     1      -4.757   1.743  16.824  1.00  0.00    -0.365 N 
ATOM     16  H5  UNL     1      -2.819   2.940  15.337  1.00  0.00     0.164 HD
ATOM     17  H62 UNL     1      -3.834   1.450  17.145  1.00  0.00     0.159 HD
ATOM     18  H61 UNL     1      -5.564   1.494  17.396  1.00  0.00     0.159 HD
BRANCH  10  19
HETATM   19  C2  UNL     1      -6.123   5.142  15.129  1.00  0.00     0.300 C 
HETATM   20  C1  UNL     1      -4.794   5.855  15.097  1.00  0.00     0.097 C 
HETATM   21  F1  UNL     1      -7.012   6.012  14.482  1.00  0.00    -0.200 F 
HETATM   22  F2  UNL     1      -6.535   5.035  16.417  1.00  0.00    -0.200 F 
ENDBRANCH  10  19
BRANCH   8  23
HETATM   23  C17 UNL     1      -4.205   1.426  12.998  1.00  0.00     0.387 C 
HETATM   24  F4  UNL     1      -5.237   1.443  12.073  1.00  0.00    -0.211 F 
HETATM   25  F5  UNL     1      -3.087   0.791  12.551  1.00  0.00    -0.211 F 
ENDBRANCH   8  23
ENDBRANCH   1   8
BRANCH   5  26
HETATM   26  N2  UNL     1       0.212   5.002  11.735  1.00  0.00    -0.217 N 
HETATM   27  C9  UNL     1       0.435   6.436  12.084  1.00  0.00     0.142 C 
HETATM   28  C10 UNL     1       1.018   6.854  10.731  1.00  0.00     0.032 C 
HETATM   29  C11 UNL     1       2.124   5.811  10.609  1.00  0.00    -0.019 C 
HETATM   30  C12 UNL     1       2.592   5.650   9.206  1.00  0.00     0.039 C 
HETATM   31  C15 UNL     1       3.241   6.304  11.515  1.00  0.00     0.039 C 
HETATM   32  C16 UNL     1       1.437   4.564  11.175  1.00  0.00     0.151 C 
HETATM   33  C13 UNL     1       3.616   6.767   8.956  1.00  0.00     0.233 C 
HETATM   34  N3  UNL     1       4.828   6.534   9.704  1.00  0.00    -0.075 N 
HETATM   35  C14 UNL     1       4.531   5.816  10.905  1.00  0.00     0.233 C 
ATOM     36  H32 UNL     1       5.539   6.063   9.144  1.00  0.00     0.277 HD
ATOM     37  H31 UNL     1       5.335   7.399   9.891  1.00  0.00     0.277 HD
ENDBRANCH   5  26
TORSDOF 4
ENDMDL
