MODEL 1
REMARK VINA RESULT: -7.391993932      0.000      0.000
REMARK  7 active torsions:
REMARK  status: ('A' for Active; 'I' for Inactive)
REMARK    1  A    between atoms: N1_1  and  C1_4 
REMARK    2  A    between atoms: C3_8  and  C4_9 
REMARK    3  A    between atoms: N3_11  and  C6_12 
REMARK    4  A    between atoms: C7_15  and  C8_16 
REMARK    5  A    between atoms: C8_16  and  C9_17 
REMARK    6  A    between atoms: C9_17  and  C10_20 
REMARK    7  A    between atoms: C12_27  and  N6_28 
ROOT
HETATM    1  C6  UNL     1      -4.641   7.082  12.098  1.00  0.00     0.148 A 
HETATM    2  N4  UNL     1      -5.731   7.633  11.494  1.00  0.00    -0.342 N 
ATOM      3  H4  UNL     1      -6.640   7.175  11.558  1.00  0.00     0.167 HD
HETATM    4  C7  UNL     1      -5.601   8.785  10.816  1.00  0.00     0.029 A 
HETATM    5  C11 UNL     1      -4.394   9.418  10.719  1.00  0.00     0.115 A 
HETATM    6  N5  UNL     1      -3.324   8.869  11.317  1.00  0.00    -0.348 N 
ATOM      7  H5  UNL     1      -2.416   9.330  11.251  1.00  0.00     0.167 HD
HETATM    8  C12 UNL     1      -3.434   7.723  11.997  1.00  0.00     0.143 A 
ENDROOT
BRANCH   1   9
HETATM    9  N3  UNL     1      -4.839   5.852  12.807  1.00  0.00    -0.359 N 
HETATM   10  C5  UNL     1      -4.596   4.547  12.231  1.00  0.00     0.161 C 
HETATM   11  C4  UNL     1      -4.825   3.533  13.325  1.00  0.00     0.175 C 
HETATM   12  O1  UNL     1      -6.159   3.704  13.747  1.00  0.00    -0.378 OA
HETATM   13  C14 UNL     1      -6.207   4.802  14.564  1.00  0.00     0.188 C 
HETATM   14  C13 UNL     1      -5.303   5.920  14.157  1.00  0.00     0.151 C 
BRANCH  11  15
HETATM   15  C3  UNL     1      -4.679   2.135  12.872  1.00  0.00     0.004 A 
HETATM   16  C2  UNL     1      -4.881   1.701  11.591  1.00  0.00     0.117 A 
HETATM   17  N2  UNL     1      -4.716   0.392  11.296  1.00  0.00    -0.202 N 
HETATM   18  C1  UNL     1      -4.358  -0.526  12.212  1.00  0.00     0.675 A 
ATOM     19  H2  UNL     1      -4.869   0.087  10.336  1.00  0.00     0.183 HD
HETATM   20  N7  UNL     1      -4.161  -0.099  13.469  1.00  0.00    -0.202 N 
HETATM   21  C15 UNL     1      -4.311   1.190  13.811  1.00  0.00     0.117 A 
ATOM     22  H7  UNL     1      -3.889  -0.773  14.185  1.00  0.00     0.183 HD
BRANCH  18  23
HETATM   23  N1  UNL     1      -4.210  -1.786  11.882  1.00  0.00    -0.234 N 
ATOM     24  H12 UNL     1      -4.978  -2.452  11.960  1.00  0.00     0.174 HD
ATOM     25  H11 UNL     1      -3.317  -2.137  11.538  1.00  0.00     0.174 HD
ENDBRANCH  18  23
ENDBRANCH  11  15
ENDBRANCH   1   9
BRANCH   8  26
HETATM   26  N6  UNL     1      -2.414   7.170  12.587  1.00  0.00    -0.382 N 
ATOM     27  H62 UNL     1      -2.478   6.254  13.031  1.00  0.00     0.157 HD
ATOM     28  H61 UNL     1      -1.537   7.691  12.590  1.00  0.00     0.157 HD
ENDBRANCH   8  26
BRANCH   4  29
HETATM   29  C8  UNL     1      -6.788   9.388  10.157  1.00  0.00     0.110 C 
BRANCH  29  30
HETATM   30  C9  UNL     1      -7.147   8.666   8.869  1.00  0.00     0.215 C 
HETATM   31 CL1  UNL     1      -7.583   9.867   7.633  1.00  0.00    -0.091 Cl
HETATM   32 CL2  UNL     1      -5.742   7.695   8.384  1.00  0.00    -0.091 Cl
BRANCH  30  33
HETATM   33  C10 UNL     1      -8.338   7.771   9.200  1.00  0.00     0.422 C 
HETATM   34  F1  UNL     1      -8.610   7.785  10.554  1.00  0.00    -0.168 F 
HETATM   35  F2  UNL     1      -9.428   8.304   8.523  1.00  0.00    -0.168 F 
HETATM   36  F3  UNL     1      -8.053   6.505   8.733  1.00  0.00    -0.168 F 
ENDBRANCH  30  33
ENDBRANCH  29  30
ENDBRANCH   4  29
TORSDOF 7
ENDMDL
MODEL 2
REMARK VINA RESULT: -7.356471614      2.031      2.821
REMARK  7 active torsions:
REMARK  status: ('A' for Active; 'I' for Inactive)
REMARK    1  A    between atoms: N1_1  and  C1_4 
REMARK    2  A    between atoms: C3_8  and  C4_9 
REMARK    3  A    between atoms: N3_11  and  C6_12 
REMARK    4  A    between atoms: C7_15  and  C8_16 
REMARK    5  A    between atoms: C8_16  and  C9_17 
REMARK    6  A    between atoms: C9_17  and  C10_20 
REMARK    7  A    between atoms: C12_27  and  N6_28 
ROOT
HETATM    1  C6  UNL     1      -4.160   6.257  11.606  1.00  0.00     0.148 A 
HETATM    2  N4  UNL     1      -4.988   6.506  10.553  1.00  0.00    -0.342 N 
ATOM      3  H4  UNL     1      -5.480   5.739  10.093  1.00  0.00     0.167 HD
HETATM    4  C7  UNL     1      -5.152   7.768  10.124  1.00  0.00     0.029 A 
HETATM    5  C11 UNL     1      -4.505   8.811  10.724  1.00  0.00     0.115 A 
HETATM    6  N5  UNL     1      -3.691   8.557  11.763  1.00  0.00    -0.348 N 
ATOM      7  H5  UNL     1      -3.200   9.327  12.219  1.00  0.00     0.167 HD
HETATM    8  C12 UNL     1      -3.515   7.308  12.204  1.00  0.00     0.143 A 
ENDROOT
BRANCH   1   9
HETATM    9  N3  UNL     1      -4.022   4.891  12.020  1.00  0.00    -0.359 N 
HETATM   10  C5  UNL     1      -4.582   4.364  13.244  1.00  0.00     0.161 C 
HETATM   11  C4  UNL     1      -4.300   2.881  13.255  1.00  0.00     0.175 C 
HETATM   12  O1  UNL     1      -2.898   2.747  13.195  1.00  0.00    -0.378 OA
HETATM   13  C14 UNL     1      -2.509   2.952  11.897  1.00  0.00     0.188 C 
HETATM   14  C13 UNL     1      -3.286   4.004  11.174  1.00  0.00     0.151 C 
BRANCH  11  15
HETATM   15  C3  UNL     1      -4.757   2.204  14.486  1.00  0.00     0.004 A 
HETATM   16  C2  UNL     1      -5.578   2.760  15.427  1.00  0.00     0.117 A 
HETATM   17  N2  UNL     1      -5.929   2.038  16.515  1.00  0.00    -0.202 N 
HETATM   18  C1  UNL     1      -5.507   0.779  16.728  1.00  0.00     0.675 A 
ATOM     19  H2  UNL     1      -6.543   2.468  17.207  1.00  0.00     0.183 HD
HETATM   20  N7  UNL     1      -4.701   0.234  15.803  1.00  0.00    -0.202 N 
HETATM   21  C15 UNL     1      -4.325   0.910  14.706  1.00  0.00     0.117 A 
ATOM     22  H7  UNL     1      -4.364  -0.719  15.937  1.00  0.00     0.183 HD
BRANCH  18  23
HETATM   23  N1  UNL     1      -5.872   0.116  17.798  1.00  0.00    -0.234 N 
ATOM     24  H12 UNL     1      -6.268   0.589  18.610  1.00  0.00     0.174 HD
ATOM     25  H11 UNL     1      -5.769  -0.897  17.848  1.00  0.00     0.174 HD
ENDBRANCH  18  23
ENDBRANCH  11  15
ENDBRANCH   1   9
BRANCH   8  26
HETATM   26  N6  UNL     1      -2.733   7.034  13.208  1.00  0.00    -0.382 N 
ATOM     27  H62 UNL     1      -3.095   6.677  14.092  1.00  0.00     0.157 HD
ATOM     28  H61 UNL     1      -1.734   7.192  13.079  1.00  0.00     0.157 HD
ENDBRANCH   8  26
BRANCH   4  29
HETATM   29  C8  UNL     1      -6.054   8.043   8.975  1.00  0.00     0.110 C 
BRANCH  29  30
HETATM   30  C9  UNL     1      -7.395   8.594   9.430  1.00  0.00     0.215 C 
HETATM   31 CL1  UNL     1      -7.724   8.026  11.082  1.00  0.00    -0.091 Cl
HETATM   32 CL2  UNL     1      -7.311  10.364   9.342  1.00  0.00    -0.091 Cl
BRANCH  30  33
HETATM   33  C10 UNL     1      -8.433   8.049   8.453  1.00  0.00     0.422 C 
HETATM   34  F1  UNL     1      -9.674   7.951   9.049  1.00  0.00    -0.168 F 
HETATM   35  F2  UNL     1      -8.511   8.969   7.414  1.00  0.00    -0.168 F 
HETATM   36  F3  UNL     1      -7.973   6.836   7.987  1.00  0.00    -0.168 F 
ENDBRANCH  30  33
ENDBRANCH  29  30
ENDBRANCH   4  29
TORSDOF 7
ENDMDL
MODEL 3
REMARK VINA RESULT: -7.331984646      2.140      2.879
REMARK  7 active torsions:
REMARK  status: ('A' for Active; 'I' for Inactive)
REMARK    1  A    between atoms: N1_1  and  C1_4 
REMARK    2  A    between atoms: C3_8  and  C4_9 
REMARK    3  A    between atoms: N3_11  and  C6_12 
REMARK    4  A    between atoms: C7_15  and  C8_16 
REMARK    5  A    between atoms: C8_16  and  C9_17 
REMARK    6  A    between atoms: C9_17  and  C10_20 
REMARK    7  A    between atoms: C12_27  and  N6_28 
ROOT
HETATM    1  C6  UNL     1      -4.267   6.412  11.528  1.00  0.00     0.148 A 
HETATM    2  N4  UNL     1      -5.034   6.620  10.422  1.00  0.00    -0.342 N 
ATOM      3  H4  UNL     1      -5.447   5.829   9.927  1.00  0.00     0.167 HD
HETATM    4  C7  UNL     1      -5.243   7.874   9.987  1.00  0.00     0.029 A 
HETATM    5  C11 UNL     1      -4.701   8.948  10.634  1.00  0.00     0.115 A 
HETATM    6  N5  UNL     1      -3.946   8.735  11.725  1.00  0.00    -0.348 N 
ATOM      7  H5  UNL     1      -3.534   9.528  12.217  1.00  0.00     0.167 HD
HETATM    8  C12 UNL     1      -3.727   7.494  12.173  1.00  0.00     0.143 A 
ENDROOT
BRANCH   1   9
HETATM    9  N3  UNL     1      -4.076   5.053  11.946  1.00  0.00    -0.359 N 
HETATM   10  C5  UNL     1      -4.642   4.500  13.156  1.00  0.00     0.161 C 
HETATM   11  C4  UNL     1      -4.293   3.032  13.174  1.00  0.00     0.175 C 
HETATM   12  O1  UNL     1      -2.885   2.961  13.148  1.00  0.00    -0.378 OA
HETATM   13  C14 UNL     1      -2.474   3.185  11.861  1.00  0.00     0.188 C 
HETATM   14  C13 UNL     1      -3.281   4.201  11.118  1.00  0.00     0.151 C 
BRANCH  11  15
HETATM   15  C3  UNL     1      -4.749   2.333  14.394  1.00  0.00     0.004 A 
HETATM   16  C2  UNL     1      -5.568   2.873  15.346  1.00  0.00     0.117 A 
HETATM   17  N2  UNL     1      -5.918   2.132  16.422  1.00  0.00    -0.202 N 
HETATM   18  C1  UNL     1      -5.496   0.870  16.611  1.00  0.00     0.675 A 
ATOM     19  H2  UNL     1      -6.530   2.551  17.121  1.00  0.00     0.183 HD
HETATM   20  N7  UNL     1      -4.691   0.341  15.676  1.00  0.00    -0.202 N 
HETATM   21  C15 UNL     1      -4.316   1.036  14.590  1.00  0.00     0.117 A 
ATOM     22  H7  UNL     1      -4.355  -0.615  15.794  1.00  0.00     0.183 HD
BRANCH  18  23
HETATM   23  N1  UNL     1      -5.860   0.188  17.670  1.00  0.00    -0.234 N 
ATOM     24  H12 UNL     1      -6.217   0.651  18.506  1.00  0.00     0.174 HD
ATOM     25  H11 UNL     1      -5.794  -0.829  17.688  1.00  0.00     0.174 HD
ENDBRANCH  18  23
ENDBRANCH  11  15
ENDBRANCH   1   9
BRANCH   8  26
HETATM   26  N6  UNL     1      -3.001   7.259  13.227  1.00  0.00    -0.382 N 
ATOM     27  H62 UNL     1      -2.051   6.895  13.159  1.00  0.00     0.157 HD
ATOM     28  H61 UNL     1      -3.420   7.454  14.137  1.00  0.00     0.157 HD
ENDBRANCH   8  26
BRANCH   4  29
HETATM   29  C8  UNL     1      -6.078   8.103   8.781  1.00  0.00     0.110 C 
BRANCH  29  30
HETATM   30  C9  UNL     1      -7.547   7.819   9.048  1.00  0.00     0.215 C 
HETATM   31 CL1  UNL     1      -7.964   6.233   8.360  1.00  0.00    -0.091 Cl
HETATM   32 CL2  UNL     1      -7.795   7.865  10.805  1.00  0.00    -0.091 Cl
BRANCH  30  33
HETATM   33  C10 UNL     1      -8.329   8.933   8.360  1.00  0.00     0.422 C 
HETATM   34  F1  UNL     1      -9.689   8.700   8.425  1.00  0.00    -0.168 F 
HETATM   35  F2  UNL     1      -8.045  10.100   9.058  1.00  0.00    -0.168 F 
HETATM   36  F3  UNL     1      -7.872   9.025   7.062  1.00  0.00    -0.168 F 
ENDBRANCH  30  33
ENDBRANCH  29  30
ENDBRANCH   4  29
TORSDOF 7
ENDMDL
MODEL 4
REMARK VINA RESULT: -7.298963309      2.562      3.239
REMARK  7 active torsions:
REMARK  status: ('A' for Active; 'I' for Inactive)
REMARK    1  A    between atoms: N1_1  and  C1_4 
REMARK    2  A    between atoms: C3_8  and  C4_9 
REMARK    3  A    between atoms: N3_11  and  C6_12 
REMARK    4  A    between atoms: C7_15  and  C8_16 
REMARK    5  A    between atoms: C8_16  and  C9_17 
REMARK    6  A    between atoms: C9_17  and  C10_20 
REMARK    7  A    between atoms: C12_27  and  N6_28 
ROOT
HETATM    1  C6  UNL     1      -4.264   5.591  10.854  1.00  0.00     0.148 A 
HETATM    2  N4  UNL     1      -5.032   6.675  10.549  1.00  0.00    -0.342 N 
ATOM      3  H4  UNL     1      -5.423   7.254  11.292  1.00  0.00     0.167 HD
HETATM    4  C7  UNL     1      -5.271   6.975   9.261  1.00  0.00     0.029 A 
HETATM    5  C11 UNL     1      -4.758   6.215   8.249  1.00  0.00     0.115 A 
HETATM    6  N5  UNL     1      -4.001   5.148   8.558  1.00  0.00    -0.348 N 
ATOM      7  H5  UNL     1      -3.613   4.571   7.812  1.00  0.00     0.167 HD
HETATM    8  C12 UNL     1      -3.752   4.834   9.834  1.00  0.00     0.143 A 
ENDROOT
BRANCH   1   9
HETATM    9  N3  UNL     1      -4.044   5.318  12.244  1.00  0.00    -0.359 N 
HETATM   10  C5  UNL     1      -4.606   4.179  12.936  1.00  0.00     0.161 C 
HETATM   11  C4  UNL     1      -4.056   4.202  14.341  1.00  0.00     0.175 C 
HETATM   12  O1  UNL     1      -4.456   5.433  14.901  1.00  0.00    -0.378 OA
HETATM   13  C14 UNL     1      -3.628   6.408  14.412  1.00  0.00     0.188 C 
HETATM   14  C13 UNL     1      -3.223   6.223  12.985  1.00  0.00     0.151 C 
BRANCH  11  15
HETATM   15  C3  UNL     1      -4.595   3.129  15.202  1.00  0.00     0.004 A 
HETATM   16  C2  UNL     1      -5.897   3.026  15.604  1.00  0.00     0.117 A 
HETATM   17  N2  UNL     1      -6.272   1.995  16.394  1.00  0.00    -0.202 N 
HETATM   18  C1  UNL     1      -5.418   1.046  16.815  1.00  0.00     0.675 A 
ATOM     19  H2  UNL     1      -7.248   1.934  16.683  1.00  0.00     0.183 HD
HETATM   20  N7  UNL     1      -4.139   1.148  16.421  1.00  0.00    -0.202 N 
HETATM   21  C15 UNL     1      -3.719   2.153  15.636  1.00  0.00     0.117 A 
ATOM     22  H7  UNL     1      -3.467   0.443  16.725  1.00  0.00     0.183 HD
BRANCH  18  23
HETATM   23  N1  UNL     1      -5.824   0.063  17.581  1.00  0.00    -0.234 N 
ATOM     24  H12 UNL     1      -5.562   0.010  18.566  1.00  0.00     0.174 HD
ATOM     25  H11 UNL     1      -6.416  -0.680  17.212  1.00  0.00     0.174 HD
ENDBRANCH  18  23
ENDBRANCH  11  15
ENDBRANCH   1   9
BRANCH   8  26
HETATM   26  N6  UNL     1      -3.022   3.807  10.161  1.00  0.00    -0.382 N 
ATOM     27  H62 UNL     1      -2.837   3.046   9.508  1.00  0.00     0.157 HD
ATOM     28  H61 UNL     1      -2.635   3.791  11.105  1.00  0.00     0.157 HD
ENDBRANCH   8  26
BRANCH   4  29
HETATM   29  C8  UNL     1      -6.109   8.155   8.925  1.00  0.00     0.110 C 
BRANCH  29  30
HETATM   30  C9  UNL     1      -7.589   7.871   9.119  1.00  0.00     0.215 C 
HETATM   31 CL1  UNL     1      -7.977   6.298   8.388  1.00  0.00    -0.091 Cl
HETATM   32 CL2  UNL     1      -7.920   7.891  10.863  1.00  0.00    -0.091 Cl
BRANCH  30  33
HETATM   33  C10 UNL     1      -8.335   8.998   8.411  1.00  0.00     0.422 C 
HETATM   34  F1  UNL     1      -8.086  10.215   9.013  1.00  0.00    -0.168 F 
HETATM   35  F2  UNL     1      -7.843   9.037   7.112  1.00  0.00    -0.168 F 
HETATM   36  F3  UNL     1      -9.675   8.675   8.407  1.00  0.00    -0.168 F 
ENDBRANCH  30  33
ENDBRANCH  29  30
ENDBRANCH   4  29
TORSDOF 7
ENDMDL
MODEL 5
REMARK VINA RESULT: -7.256513979      2.693      3.412
REMARK  7 active torsions:
REMARK  status: ('A' for Active; 'I' for Inactive)
REMARK    1  A    between atoms: N1_1  and  C1_4 
REMARK    2  A    between atoms: C3_8  and  C4_9 
REMARK    3  A    between atoms: N3_11  and  C6_12 
REMARK    4  A    between atoms: C7_15  and  C8_16 
REMARK    5  A    between atoms: C8_16  and  C9_17 
REMARK    6  A    between atoms: C9_17  and  C10_20 
REMARK    7  A    between atoms: C12_27  and  N6_28 
ROOT
HETATM    1  C6  UNL     1      -4.173   5.528  10.667  1.00  0.00     0.148 A 
HETATM    2  N4  UNL     1      -4.966   6.613  10.441  1.00  0.00    -0.342 N 
ATOM      3  H4  UNL     1      -5.361   7.133  11.225  1.00  0.00     0.167 HD
HETATM    4  C7  UNL     1      -5.223   6.994   9.179  1.00  0.00     0.029 A 
HETATM    5  C11 UNL     1      -4.703   6.315   8.113  1.00  0.00     0.115 A 
HETATM    6  N5  UNL     1      -3.922   5.246   8.344  1.00  0.00    -0.348 N 
ATOM      7  H5  UNL     1      -3.529   4.729   7.557  1.00  0.00     0.167 HD
HETATM    8  C12 UNL     1      -3.655   4.852   9.594  1.00  0.00     0.143 A 
ENDROOT
BRANCH   1   9
HETATM    9  N3  UNL     1      -3.934   5.166  12.033  1.00  0.00    -0.359 N 
HETATM   10  C5  UNL     1      -4.747   4.220  12.766  1.00  0.00     0.161 C 
HETATM   11  C4  UNL     1      -4.107   4.047  14.122  1.00  0.00     0.175 C 
HETATM   12  O1  UNL     1      -4.089   5.325  14.715  1.00  0.00    -0.378 OA
HETATM   13  C14 UNL     1      -3.055   6.034  14.164  1.00  0.00     0.188 C 
HETATM   14  C13 UNL     1      -2.832   5.777  12.708  1.00  0.00     0.151 C 
BRANCH  11  15
HETATM   15  C3  UNL     1      -4.864   3.151  15.020  1.00  0.00     0.004 A 
HETATM   16  C2  UNL     1      -4.474   1.892  15.382  1.00  0.00     0.117 A 
HETATM   17  N2  UNL     1      -5.253   1.165  16.214  1.00  0.00    -0.202 N 
HETATM   18  C1  UNL     1      -6.415   1.621  16.714  1.00  0.00     0.675 A 
ATOM     19  H2  UNL     1      -4.946   0.229  16.474  1.00  0.00     0.183 HD
HETATM   20  N7  UNL     1      -6.798   2.858  16.358  1.00  0.00    -0.202 N 
HETATM   21  C15 UNL     1      -6.058   3.618  15.535  1.00  0.00     0.117 A 
ATOM     22  H7  UNL     1      -7.675   3.230  16.722  1.00  0.00     0.183 HD
BRANCH  18  23
HETATM   23  N1  UNL     1      -7.141   0.882  17.518  1.00  0.00    -0.234 N 
ATOM     24  H12 UNL     1      -7.019  -0.129  17.569  1.00  0.00     0.174 HD
ATOM     25  H11 UNL     1      -7.851   1.301  18.118  1.00  0.00     0.174 HD
ENDBRANCH  18  23
ENDBRANCH  11  15
ENDBRANCH   1   9
BRANCH   8  26
HETATM   26  N6  UNL     1      -2.901   3.821   9.845  1.00  0.00    -0.382 N 
ATOM     27  H62 UNL     1      -3.032   3.246  10.677  1.00  0.00     0.157 HD
ATOM     28  H61 UNL     1      -2.165   3.606   9.173  1.00  0.00     0.157 HD
ENDBRANCH   8  26
BRANCH   4  29
HETATM   29  C8  UNL     1      -6.087   8.177   8.930  1.00  0.00     0.110 C 
BRANCH  29  30
HETATM   30  C9  UNL     1      -7.557   7.856   9.138  1.00  0.00     0.215 C 
HETATM   31 CL1  UNL     1      -7.909   6.267   8.421  1.00  0.00    -0.091 Cl
HETATM   32 CL2  UNL     1      -7.875   7.881  10.884  1.00  0.00    -0.091 Cl
BRANCH  30  33
HETATM   33  C10 UNL     1      -8.338   8.957   8.427  1.00  0.00     0.422 C 
HETATM   34  F1  UNL     1      -8.103  10.188   9.007  1.00  0.00    -0.168 F 
HETATM   35  F2  UNL     1      -7.871   8.986   7.119  1.00  0.00    -0.168 F 
HETATM   36  F3  UNL     1      -9.672   8.607   8.453  1.00  0.00    -0.168 F 
ENDBRANCH  30  33
ENDBRANCH  29  30
ENDBRANCH   4  29
TORSDOF 7
ENDMDL
