MODEL 1
REMARK VINA RESULT: -7.610338041      0.000      0.000
REMARK  7 active torsions:
REMARK  status: ('A' for Active; 'I' for Inactive)
REMARK    1  A    between atoms: O1_1  and  C1_3 
REMARK    2  A    between atoms: C2_4  and  C3_5 
REMARK    3  A    between atoms: C4_8  and  O3_9 
REMARK    4  A    between atoms: O3_9  and  C5_10 
REMARK    5  A    between atoms: C5_10  and  C6_11 
REMARK    6  A    between atoms: C13_26  and  O4_27 
REMARK    7  A    between atoms: C14_29  and  O5_30 
ROOT
HETATM    1  C5  UNL     1      -2.635   4.892  14.621  1.00  0.00     0.247 C 
ENDROOT
BRANCH   1   2
HETATM    2  O3  UNL     1      -2.871   3.616  15.103  1.00  0.00    -0.351 OA
BRANCH   2   3
HETATM    3  C4  UNL     1      -4.198   3.240  15.109  1.00  0.00     0.292 C 
HETATM    4  O2  UNL     1      -4.590   3.041  13.802  1.00  0.00    -0.348 OA
HETATM    5  C2  UNL     1      -4.165   1.888  13.217  1.00  0.00     0.184 C 
HETATM    6  C1  UNL     1      -4.192   0.660  14.055  1.00  0.00     0.180 C 
HETATM    7  C14 UNL     1      -5.105   0.910  15.230  1.00  0.00     0.183 C 
HETATM    8  C13 UNL     1      -4.478   2.062  16.004  1.00  0.00     0.204 C 
BRANCH   5   9
HETATM    9  C3  UNL     1      -5.002   1.683  11.964  1.00  0.00     0.256 C 
HETATM   10  F1  UNL     1      -4.666   2.528  10.951  1.00  0.00    -0.253 F 
ENDBRANCH   5   9
BRANCH   6  11
HETATM   11  O1  UNL     1      -4.572  -0.453  13.320  1.00  0.00    -0.390 OA
ATOM     12  H1  UNL     1      -4.540  -1.245  13.843  1.00  0.00     0.210 HD
ENDBRANCH   6  11
BRANCH   7  13
HETATM   13  O5  UNL     1      -5.170  -0.199  16.062  1.00  0.00    -0.390 OA
ATOM     14  H5  UNL     1      -5.851  -0.101  16.717  1.00  0.00     0.210 HD
ENDBRANCH   7  13
BRANCH   8  15
HETATM   15  O4  UNL     1      -3.262   1.565  16.501  1.00  0.00    -0.388 OA
ATOM     16  H4  UNL     1      -3.396   1.247  17.387  1.00  0.00     0.210 HD
ENDBRANCH   8  15
ENDBRANCH   2   3
ENDBRANCH   1   2
BRANCH   1  17
HETATM   17  C6  UNL     1      -2.024   4.839  13.260  1.00  0.00     0.106 A 
HETATM   18  N1  UNL     1      -2.701   4.884  12.074  1.00  0.00    -0.341 N 
HETATM   19  C7  UNL     1      -1.849   4.823  11.040  1.00  0.00     0.086 A 
ATOM     20  H1  UNL     1      -3.715   4.955  11.987  1.00  0.00     0.167 HD
HETATM   21  C8  UNL     1      -2.026   4.833   9.671  1.00  0.00     0.086 A 
HETATM   22  C12 UNL     1      -0.570   4.733  11.572  1.00  0.00     0.086 A 
HETATM   23 CL1  UNL     1      -3.612   4.943   8.943  1.00  0.00    -0.080 Cl
HETATM   24  C9  UNL     1      -0.933   4.754   8.845  1.00  0.00     0.081 A 
HETATM   25 CL2  UNL     1      -1.162   4.768   7.117  1.00  0.00    -0.081 Cl
HETATM   26  C10 UNL     1       0.333   4.666   9.391  1.00  0.00     0.081 A 
HETATM   27 CL3  UNL     1       1.752   4.564   8.360  1.00  0.00    -0.081 Cl
HETATM   28  C11 UNL     1       0.545   4.653  10.751  1.00  0.00     0.086 A 
HETATM   29 CL4  UNL     1       2.153   4.540  11.427  1.00  0.00    -0.080 Cl
HETATM   30  N2  UNL     1      -0.732   4.747  12.904  1.00  0.00    -0.341 N 
ATOM     31  H2  UNL     1       0.038   4.693  13.570  1.00  0.00     0.167 HD
ENDBRANCH   1  17
TORSDOF 7
ENDMDL
MODEL 2
REMARK VINA RESULT: -7.574248890      0.068      2.252
REMARK  7 active torsions:
REMARK  status: ('A' for Active; 'I' for Inactive)
REMARK    1  A    between atoms: O1_1  and  C1_3 
REMARK    2  A    between atoms: C2_4  and  C3_5 
REMARK    3  A    between atoms: C4_8  and  O3_9 
REMARK    4  A    between atoms: O3_9  and  C5_10 
REMARK    5  A    between atoms: C5_10  and  C6_11 
REMARK    6  A    between atoms: C13_26  and  O4_27 
REMARK    7  A    between atoms: C14_29  and  O5_30 
ROOT
HETATM    1  C5  UNL     1      -2.634   4.872  14.680  1.00  0.00     0.247 C 
ENDROOT
BRANCH   1   2
HETATM    2  O3  UNL     1      -2.866   3.588  15.142  1.00  0.00    -0.351 OA
BRANCH   2   3
HETATM    3  C4  UNL     1      -4.192   3.212  15.153  1.00  0.00     0.292 C 
HETATM    4  O2  UNL     1      -4.593   3.027  13.846  1.00  0.00    -0.348 OA
HETATM    5  C2  UNL     1      -4.172   1.881  13.245  1.00  0.00     0.184 C 
HETATM    6  C1  UNL     1      -4.193   0.644  14.070  1.00  0.00     0.180 C 
HETATM    7  C14 UNL     1      -5.099   0.880  15.253  1.00  0.00     0.183 C 
HETATM    8  C13 UNL     1      -4.467   2.024  16.037  1.00  0.00     0.204 C 
BRANCH   5   9
HETATM    9  C3  UNL     1      -5.015   1.690  11.996  1.00  0.00     0.256 C 
HETATM   10  F1  UNL     1      -4.714   2.573  11.005  1.00  0.00    -0.253 F 
ENDBRANCH   5   9
BRANCH   6  11
HETATM   11  O1  UNL     1      -4.578  -0.461  13.325  1.00  0.00    -0.390 OA
ATOM     12  H1  UNL     1      -5.427  -0.788  13.597  1.00  0.00     0.210 HD
ENDBRANCH   6  11
BRANCH   7  13
HETATM   13  O5  UNL     1      -5.158  -0.238  16.073  1.00  0.00    -0.390 OA
ATOM     14  H5  UNL     1      -5.665  -0.064  16.858  1.00  0.00     0.210 HD
ENDBRANCH   7  13
BRANCH   8  15
HETATM   15  O4  UNL     1      -3.248   1.522  16.520  1.00  0.00    -0.388 OA
ATOM     16  H4  UNL     1      -3.073   1.903  17.373  1.00  0.00     0.210 HD
ENDBRANCH   8  15
ENDBRANCH   2   3
ENDBRANCH   1   2
BRANCH   1  17
HETATM   17  C6  UNL     1      -2.091   4.844  13.289  1.00  0.00     0.106 A 
HETATM   18  N1  UNL     1      -0.774   4.729  12.944  1.00  0.00    -0.341 N 
HETATM   19  C7  UNL     1      -0.633   4.729  11.610  1.00  0.00     0.086 A 
ATOM     20  H1  UNL     1      -0.004   4.654  13.609  1.00  0.00     0.167 HD
HETATM   21  C8  UNL     1       0.466   4.638  10.779  1.00  0.00     0.086 A 
HETATM   22  C12 UNL     1      -1.905   4.848  11.067  1.00  0.00     0.086 A 
HETATM   23 CL1  UNL     1       2.091   4.486  11.405  1.00  0.00    -0.080 Cl
HETATM   24  C9  UNL     1       0.290   4.666   9.419  1.00  0.00     0.081 A 
HETATM   25 CL2  UNL     1       1.681   4.551   8.373  1.00  0.00    -0.081 Cl
HETATM   26  C10 UNL     1      -0.982   4.785   8.894  1.00  0.00     0.081 A 
HETATM   27 CL3  UNL     1      -1.239   4.825   7.156  1.00  0.00    -0.081 Cl
HETATM   28  C11 UNL     1      -2.098   4.879   9.694  1.00  0.00     0.086 A 
HETATM   29 CL4  UNL     1      -3.702   5.030   9.016  1.00  0.00    -0.080 Cl
HETATM   30  N2  UNL     1      -2.739   4.914  12.115  1.00  0.00    -0.341 N 
ATOM     31  H2  UNL     1      -3.752   5.005  12.030  1.00  0.00     0.167 HD
ENDBRANCH   1  17
TORSDOF 7
ENDMDL
MODEL 3
REMARK VINA RESULT: -7.410828992      2.008      3.385
REMARK  7 active torsions:
REMARK  status: ('A' for Active; 'I' for Inactive)
REMARK    1  A    between atoms: O1_1  and  C1_3 
REMARK    2  A    between atoms: C2_4  and  C3_5 
REMARK    3  A    between atoms: C4_8  and  O3_9 
REMARK    4  A    between atoms: O3_9  and  C5_10 
REMARK    5  A    between atoms: C5_10  and  C6_11 
REMARK    6  A    between atoms: C13_26  and  O4_27 
REMARK    7  A    between atoms: C14_29  and  O5_30 
ROOT
HETATM    1  C5  UNL     1      -2.771   5.035  14.717  1.00  0.00     0.247 C 
ENDROOT
BRANCH   1   2
HETATM    2  O3  UNL     1      -2.948   3.685  14.970  1.00  0.00    -0.351 OA
BRANCH   2   3
HETATM    3  C4  UNL     1      -4.264   3.273  14.995  1.00  0.00     0.292 C 
HETATM    4  O2  UNL     1      -4.653   3.010  13.698  1.00  0.00    -0.348 OA
HETATM    5  C2  UNL     1      -4.197   1.848  13.158  1.00  0.00     0.184 C 
HETATM    6  C1  UNL     1      -4.187   0.654  14.045  1.00  0.00     0.180 C 
HETATM    7  C14 UNL     1      -5.105   0.925  15.212  1.00  0.00     0.183 C 
HETATM    8  C13 UNL     1      -4.509   2.124  15.938  1.00  0.00     0.204 C 
BRANCH   5   9
HETATM    9  C3  UNL     1      -5.029   1.568  11.918  1.00  0.00     0.256 C 
HETATM   10  F1  UNL     1      -4.652   2.312  10.841  1.00  0.00    -0.253 F 
ENDBRANCH   5   9
BRANCH   6  11
HETATM   11  O1  UNL     1      -4.537  -0.498  13.357  1.00  0.00    -0.390 OA
ATOM     12  H1  UNL     1      -4.394  -1.277  13.882  1.00  0.00     0.210 HD
ENDBRANCH   6  11
BRANCH   7  13
HETATM   13  O5  UNL     1      -5.137  -0.151  16.088  1.00  0.00    -0.390 OA
ATOM     14  H5  UNL     1      -4.450  -0.777  15.891  1.00  0.00     0.210 HD
ENDBRANCH   7  13
BRANCH   8  15
HETATM   15  O4  UNL     1      -3.279   1.682  16.450  1.00  0.00    -0.388 OA
ATOM     16  H4  UNL     1      -2.842   1.152  15.793  1.00  0.00     0.210 HD
ENDBRANCH   8  15
ENDBRANCH   2   3
ENDBRANCH   1   2
BRANCH   1  17
HETATM   17  C6  UNL     1      -3.265   5.386  13.352  1.00  0.00     0.106 A 
HETATM   18  N1  UNL     1      -2.763   4.916  12.171  1.00  0.00    -0.341 N 
HETATM   19  C7  UNL     1      -3.441   5.425  11.132  1.00  0.00     0.086 A 
ATOM     20  H1  UNL     1      -1.979   4.268  12.091  1.00  0.00     0.167 HD
HETATM   21  C8  UNL     1      -3.329   5.267   9.765  1.00  0.00     0.086 A 
HETATM   22  C12 UNL     1      -4.421   6.257  11.655  1.00  0.00     0.086 A 
HETATM   23 CL1  UNL     1      -2.115   4.233   9.049  1.00  0.00    -0.080 Cl
HETATM   24  C9  UNL     1      -4.190   5.936   8.933  1.00  0.00     0.081 A 
HETATM   25 CL2  UNL     1      -4.045   5.734   7.207  1.00  0.00    -0.081 Cl
HETATM   26  C10 UNL     1      -5.160   6.761   9.470  1.00  0.00     0.081 A 
HETATM   27 CL3  UNL     1      -6.277   7.631   8.430  1.00  0.00    -0.081 Cl
HETATM   28  C11 UNL     1      -5.299   6.940  10.827  1.00  0.00     0.086 A 
HETATM   29 CL4  UNL     1      -6.531   7.987  11.491  1.00  0.00    -0.080 Cl
HETATM   30  N2  UNL     1      -4.271   6.197  12.987  1.00  0.00    -0.341 N 
ATOM     31  H2  UNL     1      -4.856   6.710  13.648  1.00  0.00     0.167 HD
ENDBRANCH   1  17
TORSDOF 7
ENDMDL
MODEL 4
REMARK VINA RESULT: -7.394384553      2.011      2.976
REMARK  7 active torsions:
REMARK  status: ('A' for Active; 'I' for Inactive)
REMARK    1  A    between atoms: O1_1  and  C1_3 
REMARK    2  A    between atoms: C2_4  and  C3_5 
REMARK    3  A    between atoms: C4_8  and  O3_9 
REMARK    4  A    between atoms: O3_9  and  C5_10 
REMARK    5  A    between atoms: C5_10  and  C6_11 
REMARK    6  A    between atoms: C13_26  and  O4_27 
REMARK    7  A    between atoms: C14_29  and  O5_30 
ROOT
HETATM    1  C5  UNL     1      -2.765   5.014  14.704  1.00  0.00     0.247 C 
ENDROOT
BRANCH   1   2
HETATM    2  O3  UNL     1      -2.943   3.670  14.982  1.00  0.00    -0.351 OA
BRANCH   2   3
HETATM    3  C4  UNL     1      -4.259   3.259  15.012  1.00  0.00     0.292 C 
HETATM    4  O2  UNL     1      -4.653   2.996  13.717  1.00  0.00    -0.348 OA
HETATM    5  C2  UNL     1      -4.199   1.833  13.175  1.00  0.00     0.184 C 
HETATM    6  C1  UNL     1      -4.187   0.639  14.062  1.00  0.00     0.180 C 
HETATM    7  C14 UNL     1      -5.101   0.911  15.233  1.00  0.00     0.183 C 
HETATM    8  C13 UNL     1      -4.501   2.110  15.956  1.00  0.00     0.204 C 
BRANCH   5   9
HETATM    9  C3  UNL     1      -5.036   1.554  11.938  1.00  0.00     0.256 C 
HETATM   10  F1  UNL     1      -4.648   2.281  10.854  1.00  0.00    -0.253 F 
ENDBRANCH   5   9
BRANCH   6  11
HETATM   11  O1  UNL     1      -4.540  -0.512  13.375  1.00  0.00    -0.390 OA
ATOM     12  H1  UNL     1      -4.207  -1.292  13.804  1.00  0.00     0.210 HD
ENDBRANCH   6  11
BRANCH   7  13
HETATM   13  O5  UNL     1      -5.130  -0.165  16.109  1.00  0.00    -0.390 OA
ATOM     14  H5  UNL     1      -4.790  -0.952  15.700  1.00  0.00     0.210 HD
ENDBRANCH   7  13
BRANCH   8  15
HETATM   15  O4  UNL     1      -3.270   1.667  16.464  1.00  0.00    -0.388 OA
ATOM     16  H4  UNL     1      -2.960   2.290  17.113  1.00  0.00     0.210 HD
ENDBRANCH   8  15
ENDBRANCH   2   3
ENDBRANCH   1   2
BRANCH   1  17
HETATM   17  C6  UNL     1      -3.234   5.334  13.322  1.00  0.00     0.106 A 
HETATM   18  N1  UNL     1      -4.265   6.170  12.998  1.00  0.00    -0.341 N 
HETATM   19  C7  UNL     1      -4.416   6.241  11.667  1.00  0.00     0.086 A 
ATOM     20  H1  UNL     1      -4.841   6.671  13.675  1.00  0.00     0.167 HD
HETATM   21  C8  UNL     1      -5.293   6.930  10.854  1.00  0.00     0.086 A 
HETATM   22  C12 UNL     1      -3.448   5.421  11.104  1.00  0.00     0.086 A 
HETATM   23 CL1  UNL     1      -6.532   7.977  11.505  1.00  0.00    -0.080 Cl
HETATM   24  C9  UNL     1      -5.200   6.799   9.491  1.00  0.00     0.081 A 
HETATM   25 CL2  UNL     1      -6.310   7.671   8.468  1.00  0.00    -0.081 Cl
HETATM   26  C10 UNL     1      -4.231   5.978   8.947  1.00  0.00     0.081 A 
HETATM   27 CL3  UNL     1      -4.087   5.789   7.206  1.00  0.00    -0.081 Cl
HETATM   28  C11 UNL     1      -3.342   5.277   9.729  1.00  0.00     0.086 A 
HETATM   29 CL4  UNL     1      -2.121   4.242   9.025  1.00  0.00    -0.080 Cl
HETATM   30  N2  UNL     1      -2.769   4.903  12.138  1.00  0.00    -0.341 N 
ATOM     31  H2  UNL     1      -1.988   4.255  12.037  1.00  0.00     0.167 HD
ENDBRANCH   1  17
TORSDOF 7
ENDMDL
MODEL 5
REMARK VINA RESULT: -6.882422635      2.485      3.449
REMARK  7 active torsions:
REMARK  status: ('A' for Active; 'I' for Inactive)
REMARK    1  A    between atoms: O1_1  and  C1_3 
REMARK    2  A    between atoms: C2_4  and  C3_5 
REMARK    3  A    between atoms: C4_8  and  O3_9 
REMARK    4  A    between atoms: O3_9  and  C5_10 
REMARK    5  A    between atoms: C5_10  and  C6_11 
REMARK    6  A    between atoms: C13_26  and  O4_27 
REMARK    7  A    between atoms: C14_29  and  O5_30 
ROOT
HETATM    1  C5  UNL     1      -3.905   1.272  12.624  1.00  0.00     0.247 C 
ENDROOT
BRANCH   1   2
HETATM    2  O3  UNL     1      -4.792   1.256  13.686  1.00  0.00    -0.351 OA
BRANCH   2   3
HETATM    3  C4  UNL     1      -4.295   1.784  14.859  1.00  0.00     0.292 C 
HETATM    4  O2  UNL     1      -4.967   2.961  15.115  1.00  0.00    -0.348 OA
HETATM    5  C2  UNL     1      -6.235   2.837  15.593  1.00  0.00     0.184 C 
HETATM    6  C1  UNL     1      -6.470   1.770  16.602  1.00  0.00     0.180 C 
HETATM    7  C14 UNL     1      -5.136   1.362  17.179  1.00  0.00     0.183 C 
HETATM    8  C13 UNL     1      -4.329   0.813  16.010  1.00  0.00     0.204 C 
BRANCH   5   9
HETATM    9  C3  UNL     1      -6.637   4.188  16.161  1.00  0.00     0.256 C 
HETATM   10  F1  UNL     1      -6.308   5.230  15.350  1.00  0.00    -0.253 F 
ENDBRANCH   5   9
BRANCH   6  11
HETATM   11  O1  UNL     1      -7.364   2.178  17.580  1.00  0.00    -0.390 OA
ATOM     12  H1  UNL     1      -7.656   1.448  18.114  1.00  0.00     0.210 HD
ENDBRANCH   6  11
BRANCH   7  13
HETATM   13  O5  UNL     1      -5.283   0.358  18.126  1.00  0.00    -0.390 OA
ATOM     14  H5  UNL     1      -5.342   0.717  19.003  1.00  0.00     0.210 HD
ENDBRANCH   7  13
BRANCH   8  15
HETATM   15  O4  UNL     1      -4.998  -0.353  15.605  1.00  0.00    -0.388 OA
ATOM     16  H4  UNL     1      -4.376  -1.071  15.569  1.00  0.00     0.210 HD
ENDBRANCH   8  15
ENDBRANCH   2   3
ENDBRANCH   1   2
BRANCH   1  17
HETATM   17  C6  UNL     1      -3.412   2.659  12.368  1.00  0.00     0.106 A 
HETATM   18  N1  UNL     1      -4.179   3.790  12.337  1.00  0.00    -0.341 N 
HETATM   19  C7  UNL     1      -3.421   4.868  12.088  1.00  0.00     0.086 A 
ATOM     20  H1  UNL     1      -5.188   3.810  12.482  1.00  0.00     0.167 HD
HETATM   21  C8  UNL     1      -3.709   6.212  11.959  1.00  0.00     0.086 A 
HETATM   22  C12 UNL     1      -2.113   4.423  11.951  1.00  0.00     0.086 A 
HETATM   23 CL1  UNL     1      -5.336   6.830  12.121  1.00  0.00    -0.080 Cl
HETATM   24  C9  UNL     1      -2.696   7.100  11.697  1.00  0.00     0.081 A 
HETATM   25 CL2  UNL     1      -3.064   8.797  11.536  1.00  0.00    -0.081 Cl
HETATM   26  C10 UNL     1      -1.400   6.641  11.564  1.00  0.00     0.081 A 
HETATM   27 CL3  UNL     1      -0.082   7.753  11.228  1.00  0.00    -0.081 Cl
HETATM   28  C11 UNL     1      -1.079   5.308  11.686  1.00  0.00     0.086 A 
HETATM   29 CL4  UNL     1       0.566   4.742  11.514  1.00  0.00    -0.080 Cl
HETATM   30  N2  UNL     1      -2.165   3.094  12.128  1.00  0.00    -0.341 N 
ATOM     31  H2  UNL     1      -1.348   2.484  12.085  1.00  0.00     0.167 HD
ENDBRANCH   1  17
TORSDOF 7
ENDMDL
