MODEL 1
REMARK VINA RESULT: -7.927610424      0.000      0.000
REMARK  7 active torsions:
REMARK  status: ('A' for Active; 'I' for Inactive)
REMARK    1  A    between atoms: N1_1  and  C1_5 
REMARK    2  A    between atoms: C1_5  and  N2_6 
REMARK    3  A    between atoms: C4_12  and  N3_13 
REMARK    4  A    between atoms: C4_12  and  C5_17 
REMARK    5  A    between atoms: C7_21  and  N5_22 
REMARK    6  A    between atoms: C10_25  and  C11_26 
REMARK    7  A    between atoms: C14_34  and  C15_35 
ROOT
HETATM    1  C5  UNL     1      -3.351   4.756   9.915  1.00  0.00     0.024 A 
HETATM    2  C6  UNL     1      -2.863   3.650  10.545  1.00  0.00     0.118 A 
HETATM    3  N4  UNL     1      -3.273   3.223  11.776  1.00  0.00    -0.201 N 
ATOM      4  H4  UNL     1      -2.876   2.386  12.203  1.00  0.00     0.183 HD
HETATM    5  C7  UNL     1      -4.209   3.936  12.399  1.00  0.00     0.684 A 
HETATM    6  N6  UNL     1      -4.705   5.024  11.808  1.00  0.00    -0.192 N 
ATOM      7  H6  UNL     1      -5.420   5.546  12.314  1.00  0.00     0.184 HD
HETATM    8  C14 UNL     1      -4.336   5.495  10.588  1.00  0.00     0.065 A 
ENDROOT
BRANCH   1   9
HETATM    9  C4  UNL     1      -2.940   5.288   8.643  1.00  0.00     0.212 C 
HETATM   10  C1  UNL     1      -2.194   6.560   8.509  1.00  0.00     0.319 C 
HETATM   11  C2  UNL     1      -0.912   5.855   8.014  1.00  0.00     0.075 C 
HETATM   12  C3  UNL     1      -1.748   4.615   7.981  1.00  0.00     0.053 C 
BRANCH  10  13
HETATM   13  N1  UNL     1      -1.842   7.403   9.574  1.00  0.00    -0.042 N 
ATOM     14  H13 UNL     1      -1.803   6.901  10.462  1.00  0.00     0.277 HD
ATOM     15  H12 UNL     1      -0.866   7.694   9.525  1.00  0.00     0.277 HD
ATOM     16  H11 UNL     1      -2.477   8.200   9.613  1.00  0.00     0.277 HD
ENDBRANCH  10  13
BRANCH  10  17
HETATM   17  N2  UNL     1      -2.642   7.375   7.336  1.00  0.00    -0.042 N 
ATOM     18  H23 UNL     1      -3.315   6.874   6.757  1.00  0.00     0.277 HD
ATOM     19  H22 UNL     1      -3.239   8.153   7.619  1.00  0.00     0.277 HD
ATOM     20  H21 UNL     1      -1.834   7.689   6.800  1.00  0.00     0.277 HD
ENDBRANCH  10  17
BRANCH   9  21
HETATM   21  N3  UNL     1      -4.124   5.406   7.764  1.00  0.00    -0.062 N 
ATOM     22  H33 UNL     1      -4.936   5.809   8.230  1.00  0.00     0.275 HD
ATOM     23  H32 UNL     1      -4.024   6.121   7.044  1.00  0.00     0.275 HD
ATOM     24  H31 UNL     1      -4.295   4.474   7.387  1.00  0.00     0.275 HD
ENDBRANCH   9  21
ENDBRANCH   1   9
BRANCH   8  25
HETATM   25  C15 UNL     1      -5.072   6.650  10.127  1.00  0.00     0.172 C 
HETATM   26  C16 UNL     1      -5.587   7.394  11.383  1.00  0.00     0.044 C 
HETATM   27  C17 UNL     1      -6.432   8.564  11.015  1.00  0.00     0.084 C 
HETATM   28  C18 UNL     1      -7.413   8.263   9.910  1.00  0.00     0.264 C 
HETATM   29  F4  UNL     1      -7.653   9.421   9.198  1.00  0.00    -0.204 F 
HETATM   30  F5  UNL     1      -8.622   7.822  10.411  1.00  0.00    -0.204 F 
HETATM   31  C19 UNL     1      -6.894   7.227   8.947  1.00  0.00     0.247 C 
HETATM   32  O1  UNL     1      -6.273   6.153   9.519  1.00  0.00    -0.374 OA
ENDBRANCH   8  25
BRANCH   5  33
HETATM   33  N5  UNL     1      -4.714   3.544  13.714  1.00  0.00    -0.197 N 
HETATM   34  C8  UNL     1      -4.078   2.537  14.461  1.00  0.00     0.082 C 
HETATM   35  C9  UNL     1      -4.612   2.291  15.842  1.00  0.00     0.058 C 
HETATM   36  C10 UNL     1      -6.098   2.614  15.840  1.00  0.00     0.100 C 
HETATM   37  C12 UNL     1      -6.143   4.121  15.583  1.00  0.00     0.034 C 
HETATM   38  C13 UNL     1      -5.882   4.274  14.115  1.00  0.00     0.147 C 
BRANCH  36  39
HETATM   39  C11 UNL     1      -6.801   2.239  17.102  1.00  0.00     0.391 C 
HETATM   40  F1  UNL     1      -5.893   1.737  18.038  1.00  0.00    -0.171 F 
HETATM   41  F2  UNL     1      -7.763   1.267  16.884  1.00  0.00    -0.171 F 
HETATM   42  F3  UNL     1      -7.324   3.384  17.661  1.00  0.00    -0.171 F 
ENDBRANCH  36  39
ENDBRANCH   5  33
TORSDOF 7
ENDMDL
MODEL 2
REMARK VINA RESULT: -7.768629933      1.341      1.845
REMARK  7 active torsions:
REMARK  status: ('A' for Active; 'I' for Inactive)
REMARK    1  A    between atoms: N1_1  and  C1_5 
REMARK    2  A    between atoms: C1_5  and  N2_6 
REMARK    3  A    between atoms: C4_12  and  N3_13 
REMARK    4  A    between atoms: C4_12  and  C5_17 
REMARK    5  A    between atoms: C7_21  and  N5_22 
REMARK    6  A    between atoms: C10_25  and  C11_26 
REMARK    7  A    between atoms: C14_34  and  C15_35 
ROOT
HETATM    1  C5  UNL     1      -2.405   4.644  11.185  1.00  0.00     0.024 A 
HETATM    2  C6  UNL     1      -1.996   3.555  11.896  1.00  0.00     0.118 A 
HETATM    3  N4  UNL     1      -2.694   3.008  12.934  1.00  0.00    -0.201 N 
ATOM      4  H4  UNL     1      -2.343   2.190  13.432  1.00  0.00     0.183 HD
HETATM    5  C7  UNL     1      -3.847   3.579  13.274  1.00  0.00     0.684 A 
HETATM    6  N6  UNL     1      -4.273   4.647  12.598  1.00  0.00    -0.192 N 
ATOM      7  H6  UNL     1      -5.161   5.059  12.885  1.00  0.00     0.184 HD
HETATM    8  C14 UNL     1      -3.623   5.232  11.558  1.00  0.00     0.065 A 
ENDROOT
BRANCH   1   9
HETATM    9  C4  UNL     1      -1.705   5.298  10.111  1.00  0.00     0.212 C 
HETATM   10  C1  UNL     1      -1.031   6.606  10.272  1.00  0.00     0.319 C 
HETATM   11  C2  UNL     1       0.377   5.999  10.091  1.00  0.00     0.075 C 
HETATM   12  C3  UNL     1      -0.342   4.733   9.747  1.00  0.00     0.053 C 
BRANCH  10  13
HETATM   13  N1  UNL     1      -1.026   7.369  11.449  1.00  0.00    -0.042 N 
ATOM     14  H13 UNL     1      -1.956   7.438  11.864  1.00  0.00     0.277 HD
ATOM     15  H12 UNL     1      -0.556   6.888  12.215  1.00  0.00     0.277 HD
ATOM     16  H11 UNL     1      -0.621   8.288  11.268  1.00  0.00     0.277 HD
ENDBRANCH  10  13
BRANCH  10  17
HETATM   17  N2  UNL     1      -1.203   7.498   9.083  1.00  0.00    -0.042 N 
ATOM     18  H23 UNL     1      -0.471   7.355   8.388  1.00  0.00     0.277 HD
ATOM     19  H22 UNL     1      -2.004   7.225   8.513  1.00  0.00     0.277 HD
ATOM     20  H21 UNL     1      -1.261   8.471   9.382  1.00  0.00     0.277 HD
ENDBRANCH  10  17
BRANCH   9  21
HETATM   21  N3  UNL     1      -2.620   5.441   8.957  1.00  0.00    -0.062 N 
ATOM     22  H33 UNL     1      -3.590   5.599   9.227  1.00  0.00     0.275 HD
ATOM     23  H32 UNL     1      -2.489   6.311   8.443  1.00  0.00     0.275 HD
ATOM     24  H31 UNL     1      -2.489   4.608   8.382  1.00  0.00     0.275 HD
ENDBRANCH   9  21
ENDBRANCH   1   9
BRANCH   8  25
HETATM   25  C15 UNL     1      -4.322   6.334  10.938  1.00  0.00     0.172 C 
HETATM   26  C16 UNL     1      -5.179   7.008  12.037  1.00  0.00     0.044 C 
HETATM   27  C17 UNL     1      -6.007   8.113  11.480  1.00  0.00     0.084 C 
HETATM   28  C18 UNL     1      -6.671   7.758  10.174  1.00  0.00     0.264 C 
HETATM   29  F4  UNL     1      -6.831   8.907   9.427  1.00  0.00    -0.204 F 
HETATM   30  F5  UNL     1      -7.923   7.210  10.373  1.00  0.00    -0.204 F 
HETATM   31  C19 UNL     1      -5.855   6.787   9.360  1.00  0.00     0.247 C 
HETATM   32  O1  UNL     1      -5.299   5.755  10.062  1.00  0.00    -0.374 OA
ENDBRANCH   8  25
BRANCH   5  33
HETATM   33  N5  UNL     1      -4.665   3.052  14.366  1.00  0.00    -0.197 N 
HETATM   34  C8  UNL     1      -5.743   3.792  14.882  1.00  0.00     0.082 C 
HETATM   35  C9  UNL     1      -6.582   3.112  15.924  1.00  0.00     0.058 C 
HETATM   36  C10 UNL     1      -5.692   2.152  16.697  1.00  0.00     0.100 C 
HETATM   37  C12 UNL     1      -5.298   1.102  15.656  1.00  0.00     0.034 C 
HETATM   38  C13 UNL     1      -4.241   1.759  14.821  1.00  0.00     0.147 C 
BRANCH  36  39
HETATM   39  C11 UNL     1      -6.350   1.540  17.888  1.00  0.00     0.391 C 
HETATM   40  F1  UNL     1      -7.659   1.159  17.582  1.00  0.00    -0.171 F 
HETATM   41  F2  UNL     1      -6.406   2.424  18.953  1.00  0.00    -0.171 F 
HETATM   42  F3  UNL     1      -5.682   0.378  18.202  1.00  0.00    -0.171 F 
ENDBRANCH  36  39
ENDBRANCH   5  33
TORSDOF 7
ENDMDL
MODEL 3
REMARK VINA RESULT: -7.665253253      1.151      1.405
REMARK  7 active torsions:
REMARK  status: ('A' for Active; 'I' for Inactive)
REMARK    1  A    between atoms: N1_1  and  C1_5 
REMARK    2  A    between atoms: C1_5  and  N2_6 
REMARK    3  A    between atoms: C4_12  and  N3_13 
REMARK    4  A    between atoms: C4_12  and  C5_17 
REMARK    5  A    between atoms: C7_21  and  N5_22 
REMARK    6  A    between atoms: C10_25  and  C11_26 
REMARK    7  A    between atoms: C14_34  and  C15_35 
ROOT
HETATM    1  C5  UNL     1      -2.728   4.848  10.879  1.00  0.00     0.024 A 
HETATM    2  C6  UNL     1      -2.245   3.737  11.504  1.00  0.00     0.118 A 
HETATM    3  N4  UNL     1      -2.796   3.185  12.625  1.00  0.00    -0.201 N 
ATOM      4  H4  UNL     1      -2.395   2.351  13.053  1.00  0.00     0.183 HD
HETATM    5  C7  UNL     1      -3.872   3.774  13.140  1.00  0.00     0.684 A 
HETATM    6  N6  UNL     1      -4.367   4.864  12.551  1.00  0.00    -0.192 N 
ATOM      7  H6  UNL     1      -5.193   5.289  12.973  1.00  0.00     0.184 HD
HETATM    8  C14 UNL     1      -3.863   5.455  11.437  1.00  0.00     0.065 A 
ENDROOT
BRANCH   1   9
HETATM    9  C4  UNL     1      -2.179   5.508   9.724  1.00  0.00     0.212 C 
HETATM   10  C1  UNL     1      -0.794   5.281   9.252  1.00  0.00     0.319 C 
HETATM   11  C2  UNL     1      -1.258   4.582   7.956  1.00  0.00     0.075 C 
HETATM   12  C3  UNL     1      -2.636   4.993   8.368  1.00  0.00     0.053 C 
BRANCH  10  13
HETATM   13  N1  UNL     1       0.144   4.448   9.882  1.00  0.00    -0.042 N 
ATOM     14  H13 UNL     1       0.885   4.982  10.338  1.00  0.00     0.277 HD
ATOM     15  H12 UNL     1      -0.243   3.995  10.710  1.00  0.00     0.277 HD
ATOM     16  H11 UNL     1       0.515   3.772   9.215  1.00  0.00     0.277 HD
ENDBRANCH  10  13
BRANCH  10  17
HETATM   17  N2  UNL     1      -0.129   6.535   8.778  1.00  0.00    -0.042 N 
ATOM     18  H23 UNL     1      -0.804   7.266   8.559  1.00  0.00     0.277 HD
ATOM     19  H22 UNL     1       0.368   7.012   9.531  1.00  0.00     0.277 HD
ATOM     20  H21 UNL     1       0.482   6.329   7.988  1.00  0.00     0.277 HD
ENDBRANCH  10  17
BRANCH   9  21
HETATM   21  N3  UNL     1      -2.327   6.970   9.888  1.00  0.00    -0.062 N 
ATOM     22  H33 UNL     1      -2.093   7.298  10.825  1.00  0.00     0.275 HD
ATOM     23  H32 UNL     1      -1.621   7.508   9.387  1.00  0.00     0.275 HD
ATOM     24  H31 UNL     1      -3.282   7.195   9.607  1.00  0.00     0.275 HD
ENDBRANCH   9  21
ENDBRANCH   1   9
BRANCH   8  25
HETATM   25  C15 UNL     1      -4.620   6.584  10.944  1.00  0.00     0.172 C 
HETATM   26  C16 UNL     1      -5.626   6.977  12.052  1.00  0.00     0.044 C 
HETATM   27  C17 UNL     1      -6.516   8.086  11.610  1.00  0.00     0.084 C 
HETATM   28  C18 UNL     1      -7.033   7.908  10.205  1.00  0.00     0.264 C 
HETATM   29  F4  UNL     1      -7.249   9.153   9.647  1.00  0.00    -0.204 F 
HETATM   30  F5  UNL     1      -8.235   7.228  10.188  1.00  0.00    -0.204 F 
HETATM   31  C19 UNL     1      -6.059   7.170   9.323  1.00  0.00     0.247 C 
HETATM   32  O1  UNL     1      -5.459   6.083   9.893  1.00  0.00    -0.374 OA
ENDBRANCH   8  25
BRANCH   5  33
HETATM   33  N5  UNL     1      -4.533   3.244  14.332  1.00  0.00    -0.197 N 
HETATM   34  C8  UNL     1      -3.848   2.393  15.218  1.00  0.00     0.082 C 
HETATM   35  C9  UNL     1      -4.583   1.996  16.465  1.00  0.00     0.058 C 
HETATM   36  C10 UNL     1      -6.070   1.966  16.150  1.00  0.00     0.100 C 
HETATM   37  C12 UNL     1      -6.409   3.428  15.852  1.00  0.00     0.034 C 
HETATM   38  C13 UNL     1      -5.895   3.673  14.466  1.00  0.00     0.147 C 
BRANCH  36  39
HETATM   39  C11 UNL     1      -6.911   1.407  17.249  1.00  0.00     0.391 C 
HETATM   40  F1  UNL     1      -6.449   0.143  17.625  1.00  0.00    -0.171 F 
HETATM   41  F2  UNL     1      -8.235   1.277  16.865  1.00  0.00    -0.171 F 
HETATM   42  F3  UNL     1      -6.760   2.209  18.358  1.00  0.00    -0.171 F 
ENDBRANCH  36  39
ENDBRANCH   5  33
TORSDOF 7
ENDMDL
MODEL 4
REMARK VINA RESULT: -7.348842003      2.920      3.387
REMARK  7 active torsions:
REMARK  status: ('A' for Active; 'I' for Inactive)
REMARK    1  A    between atoms: N1_1  and  C1_5 
REMARK    2  A    between atoms: C1_5  and  N2_6 
REMARK    3  A    between atoms: C4_12  and  N3_13 
REMARK    4  A    between atoms: C4_12  and  C5_17 
REMARK    5  A    between atoms: C7_21  and  N5_22 
REMARK    6  A    between atoms: C10_25  and  C11_26 
REMARK    7  A    between atoms: C14_34  and  C15_35 
ROOT
HETATM    1  C5  UNL     1      -3.274   4.796  10.717  1.00  0.00     0.024 A 
HETATM    2  C6  UNL     1      -3.986   3.634  10.721  1.00  0.00     0.118 A 
HETATM    3  N4  UNL     1      -4.475   3.035  11.847  1.00  0.00    -0.201 N 
ATOM      4  H4  UNL     1      -5.004   2.165  11.793  1.00  0.00     0.183 HD
HETATM    5  C7  UNL     1      -4.237   3.627  13.015  1.00  0.00     0.684 A 
HETATM    6  N6  UNL     1      -3.542   4.765  13.043  1.00  0.00    -0.192 N 
ATOM      7  H6  UNL     1      -3.378   5.190  13.956  1.00  0.00     0.184 HD
HETATM    8  C14 UNL     1      -3.033   5.405  11.958  1.00  0.00     0.065 A 
ENDROOT
BRANCH   1   9
HETATM    9  C4  UNL     1      -2.694   5.461   9.579  1.00  0.00     0.212 C 
HETATM   10  C1  UNL     1      -1.251   5.388   9.257  1.00  0.00     0.319 C 
HETATM   11  C2  UNL     1      -1.492   4.571   7.970  1.00  0.00     0.075 C 
HETATM   12  C3  UNL     1      -2.945   4.824   8.222  1.00  0.00     0.053 C 
BRANCH  10  13
HETATM   13  N1  UNL     1      -0.289   4.715  10.025  1.00  0.00    -0.042 N 
ATOM     14  H13 UNL     1      -0.652   3.846  10.418  1.00  0.00     0.277 HD
ATOM     15  H12 UNL     1       0.452   4.318   9.446  1.00  0.00     0.277 HD
ATOM     16  H11 UNL     1       0.080   5.335  10.745  1.00  0.00     0.277 HD
ENDBRANCH  10  13
BRANCH  10  17
HETATM   17  N2  UNL     1      -0.698   6.691   8.770  1.00  0.00    -0.042 N 
ATOM     18  H23 UNL     1       0.045   7.040   9.373  1.00  0.00     0.277 HD
ATOM     19  H22 UNL     1      -0.155   6.578   7.913  1.00  0.00     0.277 HD
ATOM     20  H21 UNL     1      -1.451   7.369   8.659  1.00  0.00     0.277 HD
ENDBRANCH  10  17
BRANCH   9  21
HETATM   21  N3  UNL     1      -3.036   6.899   9.636  1.00  0.00    -0.062 N 
ATOM     22  H33 UNL     1      -3.944   7.083  10.062  1.00  0.00     0.275 HD
ATOM     23  H32 UNL     1      -2.474   7.422  10.308  1.00  0.00     0.275 HD
ATOM     24  H31 UNL     1      -2.957   7.251   8.682  1.00  0.00     0.275 HD
ENDBRANCH   9  21
ENDBRANCH   1   9
BRANCH   8  25
HETATM   25  C15 UNL     1      -2.381   6.664  12.237  1.00  0.00     0.172 C 
HETATM   26  C16 UNL     1      -1.581   6.483  13.549  1.00  0.00     0.044 C 
HETATM   27  C17 UNL     1      -0.932   7.755  13.971  1.00  0.00     0.084 C 
HETATM   28  C18 UNL     1      -1.838   8.953  13.846  1.00  0.00     0.264 C 
HETATM   29  F4  UNL     1      -1.068  10.072  13.600  1.00  0.00    -0.204 F 
HETATM   30  F5  UNL     1      -2.544   9.180  15.011  1.00  0.00    -0.204 F 
HETATM   31  C19 UNL     1      -2.824   8.813  12.715  1.00  0.00     0.247 C 
HETATM   32  O1  UNL     1      -3.417   7.587  12.602  1.00  0.00    -0.374 OA
ENDBRANCH   8  25
BRANCH   5  33
HETATM   33  N5  UNL     1      -4.733   3.061  14.269  1.00  0.00    -0.197 N 
HETATM   34  C8  UNL     1      -3.952   2.160  15.013  1.00  0.00     0.082 C 
HETATM   35  C9  UNL     1      -4.510   1.727  16.337  1.00  0.00     0.058 C 
HETATM   36  C10 UNL     1      -6.027   1.741  16.240  1.00  0.00     0.100 C 
HETATM   37  C12 UNL     1      -6.365   3.221  16.051  1.00  0.00     0.034 C 
HETATM   38  C13 UNL     1      -6.049   3.514  14.615  1.00  0.00     0.147 C 
BRANCH  36  39
HETATM   39  C11 UNL     1      -6.716   1.155  17.427  1.00  0.00     0.391 C 
HETATM   40  F1  UNL     1      -6.711   2.060  18.492  1.00  0.00    -0.171 F 
HETATM   41  F2  UNL     1      -6.098  -0.007  17.856  1.00  0.00    -0.171 F 
HETATM   42  F3  UNL     1      -8.041   0.960  17.104  1.00  0.00    -0.171 F 
ENDBRANCH  36  39
ENDBRANCH   5  33
TORSDOF 7
ENDMDL
MODEL 5
REMARK VINA RESULT: -7.311633138      1.677      2.189
REMARK  7 active torsions:
REMARK  status: ('A' for Active; 'I' for Inactive)
REMARK    1  A    between atoms: N1_1  and  C1_5 
REMARK    2  A    between atoms: C1_5  and  N2_6 
REMARK    3  A    between atoms: C4_12  and  N3_13 
REMARK    4  A    between atoms: C4_12  and  C5_17 
REMARK    5  A    between atoms: C7_21  and  N5_22 
REMARK    6  A    between atoms: C10_25  and  C11_26 
REMARK    7  A    between atoms: C14_34  and  C15_35 
ROOT
HETATM    1  C5  UNL     1      -1.975   5.171  11.591  1.00  0.00     0.024 A 
HETATM    2  C6  UNL     1      -1.521   4.195  12.428  1.00  0.00     0.118 A 
HETATM    3  N4  UNL     1      -2.290   3.568  13.366  1.00  0.00    -0.201 N 
ATOM      4  H4  UNL     1      -1.901   2.842  13.967  1.00  0.00     0.183 HD
HETATM    5  C7  UNL     1      -3.565   3.939  13.470  1.00  0.00     0.684 A 
HETATM    6  N6  UNL     1      -4.037   4.893  12.666  1.00  0.00    -0.192 N 
ATOM      7  H6  UNL     1      -5.018   5.151  12.774  1.00  0.00     0.184 HD
HETATM    8  C14 UNL     1      -3.321   5.548  11.716  1.00  0.00     0.065 A 
ENDROOT
BRANCH   1   9
HETATM    9  C4  UNL     1      -1.216   5.902  10.610  1.00  0.00     0.212 C 
HETATM   10  C1  UNL     1       0.037   5.384  10.016  1.00  0.00     0.319 C 
HETATM   11  C2  UNL     1      -0.592   5.226   8.615  1.00  0.00     0.075 C 
HETATM   12  C3  UNL     1      -1.779   5.925   9.198  1.00  0.00     0.053 C 
BRANCH  10  13
HETATM   13  N1  UNL     1       0.646   4.168  10.358  1.00  0.00    -0.042 N 
ATOM     14  H13 UNL     1      -0.015   3.391  10.345  1.00  0.00     0.277 HD
ATOM     15  H12 UNL     1       1.277   3.838   9.627  1.00  0.00     0.277 HD
ATOM     16  H11 UNL     1       1.116   4.254  11.259  1.00  0.00     0.277 HD
ENDBRANCH  10  13
BRANCH  10  17
HETATM   17  N2  UNL     1       1.076   6.446   9.836  1.00  0.00    -0.042 N 
ATOM     18  H23 UNL     1       0.846   7.080   9.072  1.00  0.00     0.277 HD
ATOM     19  H22 UNL     1       1.066   7.123  10.600  1.00  0.00     0.277 HD
ATOM     20  H21 UNL     1       1.994   6.019   9.716  1.00  0.00     0.277 HD
ENDBRANCH  10  17
BRANCH   9  21
HETATM   21  N3  UNL     1      -0.899   7.243  11.149  1.00  0.00    -0.062 N 
ATOM     22  H33 UNL     1      -0.316   7.216  11.985  1.00  0.00     0.275 HD
ATOM     23  H32 UNL     1      -0.254   7.771  10.562  1.00  0.00     0.275 HD
ATOM     24  H31 UNL     1      -1.792   7.713  11.293  1.00  0.00     0.275 HD
ENDBRANCH   9  21
ENDBRANCH   1   9
BRANCH   8  25
HETATM   25  C15 UNL     1      -4.074   6.489  10.919  1.00  0.00     0.172 C 
HETATM   26  C16 UNL     1      -4.743   7.484  11.897  1.00  0.00     0.044 C 
HETATM   27  C17 UNL     1      -5.614   8.453  11.177  1.00  0.00     0.084 C 
HETATM   28  C18 UNL     1      -6.472   7.807  10.118  1.00  0.00     0.264 C 
HETATM   29  F4  UNL     1      -6.709   8.725   9.114  1.00  0.00    -0.204 F 
HETATM   30  F5  UNL     1      -7.695   7.415  10.624  1.00  0.00    -0.204 F 
HETATM   31  C19 UNL     1      -5.809   6.605   9.497  1.00  0.00     0.247 C 
HETATM   32  O1  UNL     1      -5.184   5.762  10.372  1.00  0.00    -0.374 OA
ENDBRANCH   8  25
BRANCH   5  33
HETATM   33  N5  UNL     1      -4.462   3.313  14.440  1.00  0.00    -0.197 N 
HETATM   34  C8  UNL     1      -5.621   3.975  14.883  1.00  0.00     0.082 C 
HETATM   35  C9  UNL     1      -6.528   3.198  15.793  1.00  0.00     0.058 C 
HETATM   36  C10 UNL     1      -5.675   2.231  16.599  1.00  0.00     0.100 C 
HETATM   37  C12 UNL     1      -5.129   1.264  15.546  1.00  0.00     0.034 C 
HETATM   38  C13 UNL     1      -4.025   2.014  14.863  1.00  0.00     0.147 C 
BRANCH  36  39
HETATM   39  C11 UNL     1      -6.421   1.521  17.679  1.00  0.00     0.391 C 
HETATM   40  F1  UNL     1      -5.724   0.380  18.087  1.00  0.00    -0.171 F 
HETATM   41  F2  UNL     1      -7.677   1.120  17.256  1.00  0.00    -0.171 F 
HETATM   42  F3  UNL     1      -6.473   2.345  18.781  1.00  0.00    -0.171 F 
ENDBRANCH  36  39
ENDBRANCH   5  33
TORSDOF 7
ENDMDL
