MODEL 1
REMARK VINA RESULT: -7.037391660      0.000      0.000
REMARK  8 active torsions:
REMARK  status: ('A' for Active; 'I' for Inactive)
REMARK    1  A    between atoms: C2_2  and  C3_3 
REMARK    2  A    between atoms: C3_3  and  C4_4 
REMARK    3  A    between atoms: C4_4  and  O1_6 
REMARK    4  A    between atoms: C4_4  and  C6_8 
REMARK    5  A    between atoms: C6_8  and  O2_9 
REMARK    6  A    between atoms: C6_8  and  C7_11 
REMARK    7  A    between atoms: C7_11  and  N1_12 
REMARK    8  A    between atoms: N1_12  and  C8_14 
ROOT
HETATM    1  C7  UNL     1      15.386   9.805  10.047  1.00  0.00     0.154 C 
ENDROOT
BRANCH   1   2
HETATM    2  C6  UNL     1      16.663  10.137   9.358  1.00  0.00     0.169 C 
BRANCH   2   3
HETATM    3  C4  UNL     1      17.409   8.932   8.804  1.00  0.00     0.081 C 
HETATM    4  C5  UNL     1      17.652   9.108   7.349  1.00  0.00     0.049 C 
BRANCH   3   5
HETATM    5  C3  UNL     1      16.554   7.731   9.143  1.00  0.00     0.040 C 
BRANCH   5   6
HETATM    6  C2  UNL     1      16.040   6.980   7.964  1.00  0.00    -0.002 C 
HETATM    7  C1  UNL     1      16.002   5.504   8.366  1.00  0.00     0.005 C 
ENDBRANCH   5   6
ENDBRANCH   3   5
BRANCH   3   8
HETATM    8  O1  UNL     1      18.626   8.821   9.474  1.00  0.00    -0.388 OA
ATOM      9  H1  UNL     1      19.326   8.781   8.832  1.00  0.00     0.210 HD
ENDBRANCH   3   8
ENDBRANCH   2   3
BRANCH   2  10
HETATM   10  O2  UNL     1      17.446  10.970  10.116  1.00  0.00    -0.391 OA
ATOM     11  H2  UNL     1      17.891  11.642   9.612  1.00  0.00     0.210 HD
ENDBRANCH   2  10
ENDBRANCH   1   2
BRANCH   1  12
HETATM   12  N1  UNL     1      14.904  10.810  10.963  1.00  0.00    -0.387 N 
ATOM     13  H1  UNL     1      14.804  11.756  10.595  1.00  0.00     0.159 HD
BRANCH  12  14
HETATM   14  C8  UNL     1      14.559  10.614  12.313  1.00  0.00     0.030 A 
HETATM   15  C9  UNL     1      14.860   9.405  12.926  1.00  0.00     0.054 A 
HETATM   16  C10 UNL     1      14.517   9.162  14.236  1.00  0.00     0.054 A 
HETATM   17 CL1  UNL     1      14.899   7.634  15.003  1.00  0.00    -0.083 Cl
HETATM   18  C11 UNL     1      13.862  10.118  14.983  1.00  0.00     0.050 A 
HETATM   19 BR1  UNL     1      13.359   9.851  16.799  1.00  0.00    -0.048 Br
HETATM   20  C12 UNL     1      13.549  11.331  14.404  1.00  0.00     0.032 A 
HETATM   21 BR2  UNL     1      12.648  12.688  15.382  1.00  0.00    -0.050 Br
HETATM   22  C13 UNL     1      13.913  11.536  13.075  1.00  0.00     0.049 A 
ENDBRANCH  12  14
ENDBRANCH   1  12
TORSDOF 8
ENDMDL
MODEL 2
REMARK VINA RESULT: -7.026752058      4.295      7.062
REMARK  8 active torsions:
REMARK  status: ('A' for Active; 'I' for Inactive)
REMARK    1  A    between atoms: C2_2  and  C3_3 
REMARK    2  A    between atoms: C3_3  and  C4_4 
REMARK    3  A    between atoms: C4_4  and  O1_6 
REMARK    4  A    between atoms: C4_4  and  C6_8 
REMARK    5  A    between atoms: C6_8  and  O2_9 
REMARK    6  A    between atoms: C6_8  and  C7_11 
REMARK    7  A    between atoms: C7_11  and  N1_12 
REMARK    8  A    between atoms: N1_12  and  C8_14 
ROOT
HETATM    1  C7  UNL     1      14.789  10.687  12.196  1.00  0.00     0.154 C 
ENDROOT
BRANCH   1   2
HETATM    2  C6  UNL     1      13.539  11.496  12.179  1.00  0.00     0.169 C 
BRANCH   2   3
HETATM    3  C4  UNL     1      12.884  11.667  13.541  1.00  0.00     0.081 C 
HETATM    4  C5  UNL     1      13.194  13.012  14.091  1.00  0.00     0.049 C 
BRANCH   3   5
HETATM    5  C3  UNL     1      13.396  10.523  14.388  1.00  0.00     0.040 C 
BRANCH   5   6
HETATM    6  C2  UNL     1      13.304  10.747  15.858  1.00  0.00    -0.002 C 
HETATM    7  C1  UNL     1      13.747   9.445  16.529  1.00  0.00     0.005 C 
ENDBRANCH   5   6
ENDBRANCH   3   5
BRANCH   3   8
HETATM    8  O1  UNL     1      11.505  11.529  13.388  1.00  0.00    -0.388 OA
ATOM      9  H1  UNL     1      11.151  12.346  13.056  1.00  0.00     0.210 HD
ENDBRANCH   3   8
ENDBRANCH   2   3
BRANCH   2  10
HETATM   10  O2  UNL     1      12.676  11.073  11.200  1.00  0.00    -0.391 OA
ATOM     11  H2  UNL     1      12.743  11.567  10.391  1.00  0.00     0.210 HD
ENDBRANCH   2  10
ENDBRANCH   1   2
BRANCH   1  12
HETATM   12  N1  UNL     1      15.587  10.768  10.998  1.00  0.00    -0.387 N 
ATOM     13  H1  UNL     1      15.827  11.703  10.668  1.00  0.00     0.159 HD
BRANCH  12  14
HETATM   14  C8  UNL     1      16.069   9.685  10.239  1.00  0.00     0.030 A 
HETATM   15  C9  UNL     1      16.661   9.925   9.006  1.00  0.00     0.054 A 
HETATM   16  C10 UNL     1      17.122   8.894   8.220  1.00  0.00     0.054 A 
HETATM   17 CL1  UNL     1      17.866   9.204   6.666  1.00  0.00    -0.083 Cl
HETATM   18  C11 UNL     1      17.009   7.585   8.637  1.00  0.00     0.050 A 
HETATM   19 BR1  UNL     1      17.625   6.110   7.603  1.00  0.00    -0.048 Br
HETATM   20  C12 UNL     1      16.426   7.311   9.857  1.00  0.00     0.032 A 
HETATM   21 BR2  UNL     1      16.244   5.528  10.486  1.00  0.00    -0.050 Br
HETATM   22  C13 UNL     1      15.972   8.384  10.622  1.00  0.00     0.049 A 
ENDBRANCH  12  14
ENDBRANCH   1  12
TORSDOF 8
ENDMDL
MODEL 3
REMARK VINA RESULT: -7.011581890      4.136      7.050
REMARK  8 active torsions:
REMARK  status: ('A' for Active; 'I' for Inactive)
REMARK    1  A    between atoms: C2_2  and  C3_3 
REMARK    2  A    between atoms: C3_3  and  C4_4 
REMARK    3  A    between atoms: C4_4  and  O1_6 
REMARK    4  A    between atoms: C4_4  and  C6_8 
REMARK    5  A    between atoms: C6_8  and  O2_9 
REMARK    6  A    between atoms: C6_8  and  C7_11 
REMARK    7  A    between atoms: C7_11  and  N1_12 
REMARK    8  A    between atoms: N1_12  and  C8_14 
ROOT
HETATM    1  C7  UNL     1      13.487  11.000  11.243  1.00  0.00     0.154 C 
ENDROOT
BRANCH   1   2
HETATM    2  C6  UNL     1      13.111  12.082  12.195  1.00  0.00     0.169 C 
BRANCH   2   3
HETATM    3  C4  UNL     1      13.526  11.821  13.635  1.00  0.00     0.081 C 
HETATM    4  C5  UNL     1      14.159  10.482  13.750  1.00  0.00     0.049 C 
BRANCH   3   5
HETATM    5  C3  UNL     1      12.266  11.978  14.458  1.00  0.00     0.040 C 
BRANCH   5   6
HETATM    6  C2  UNL     1      12.437  12.754  15.718  1.00  0.00    -0.002 C 
HETATM    7  C1  UNL     1      11.809  11.920  16.836  1.00  0.00     0.005 C 
ENDBRANCH   5   6
ENDBRANCH   3   5
BRANCH   3   8
HETATM    8  O1  UNL     1      14.436  12.806  14.016  1.00  0.00    -0.388 OA
ATOM      9  H1  UNL     1      15.317  12.475  13.885  1.00  0.00     0.210 HD
ENDBRANCH   3   8
ENDBRANCH   2   3
BRANCH   2  10
HETATM   10  O2  UNL     1      11.796  12.445  12.055  1.00  0.00    -0.391 OA
ATOM     11  H2  UNL     1      11.221  11.723  11.828  1.00  0.00     0.210 HD
ENDBRANCH   2  10
ENDBRANCH   1   2
BRANCH   1  12
HETATM   12  N1  UNL     1      14.849  11.045  10.772  1.00  0.00    -0.387 N 
ATOM     13  H1  UNL     1      15.316  11.951  10.802  1.00  0.00     0.159 HD
BRANCH  12  14
HETATM   14  C8  UNL     1      15.598   9.962  10.274  1.00  0.00     0.030 A 
HETATM   15  C9  UNL     1      16.277  10.098   9.070  1.00  0.00     0.054 A 
HETATM   16  C10 UNL     1      17.000   9.057   8.534  1.00  0.00     0.054 A 
HETATM   17 CL1  UNL     1      17.853   9.235   7.016  1.00  0.00    -0.083 Cl
HETATM   18  C11 UNL     1      17.071   7.842   9.182  1.00  0.00     0.050 A 
HETATM   19 BR1  UNL     1      18.052   6.359   8.501  1.00  0.00    -0.048 Br
HETATM   20  C12 UNL     1      16.408   7.673  10.380  1.00  0.00     0.032 A 
HETATM   21 BR2  UNL     1      16.470   6.023  11.319  1.00  0.00    -0.050 Br
HETATM   22  C13 UNL     1      15.688   8.752  10.887  1.00  0.00     0.049 A 
ENDBRANCH  12  14
ENDBRANCH   1  12
TORSDOF 8
ENDMDL
MODEL 4
REMARK VINA RESULT: -6.973162092      1.479      2.105
REMARK  8 active torsions:
REMARK  status: ('A' for Active; 'I' for Inactive)
REMARK    1  A    between atoms: C2_2  and  C3_3 
REMARK    2  A    between atoms: C3_3  and  C4_4 
REMARK    3  A    between atoms: C4_4  and  O1_6 
REMARK    4  A    between atoms: C4_4  and  C6_8 
REMARK    5  A    between atoms: C6_8  and  O2_9 
REMARK    6  A    between atoms: C6_8  and  C7_11 
REMARK    7  A    between atoms: C7_11  and  N1_12 
REMARK    8  A    between atoms: N1_12  and  C8_14 
ROOT
HETATM    1  C7  UNL     1      15.441   9.868   9.870  1.00  0.00     0.154 C 
ENDROOT
BRANCH   1   2
HETATM    2  C6  UNL     1      16.748  10.125   9.206  1.00  0.00     0.169 C 
BRANCH   2   3
HETATM    3  C4  UNL     1      17.476   8.870   8.746  1.00  0.00     0.081 C 
HETATM    4  C5  UNL     1      17.741   8.940   7.286  1.00  0.00     0.049 C 
BRANCH   3   5
HETATM    5  C3  UNL     1      16.592   7.713   9.155  1.00  0.00     0.040 C 
BRANCH   5   6
HETATM    6  C2  UNL     1      16.001   6.949   8.021  1.00  0.00    -0.002 C 
HETATM    7  C1  UNL     1      15.950   5.484   8.457  1.00  0.00     0.005 C 
ENDBRANCH   5   6
ENDBRANCH   3   5
BRANCH   3   8
HETATM    8  O1  UNL     1      18.682   8.782   9.439  1.00  0.00    -0.388 OA
ATOM      9  H1  UNL     1      18.498   8.744  10.371  1.00  0.00     0.210 HD
ENDBRANCH   3   8
ENDBRANCH   2   3
BRANCH   2  10
HETATM   10  O2  UNL     1      17.530  10.979   9.941  1.00  0.00    -0.391 OA
ATOM     11  H2  UNL     1      17.099  11.795  10.167  1.00  0.00     0.210 HD
ENDBRANCH   2  10
ENDBRANCH   1   2
BRANCH   1  12
HETATM   12  N1  UNL     1      15.036  10.863  10.832  1.00  0.00    -0.387 N 
ATOM     13  H1  UNL     1      15.046  11.834  10.521  1.00  0.00     0.159 HD
BRANCH  12  14
HETATM   14  C8  UNL     1      14.629  10.627  12.159  1.00  0.00     0.030 A 
HETATM   15  C9  UNL     1      13.969  11.628  12.858  1.00  0.00     0.054 A 
HETATM   16  C10 UNL     1      13.576  11.449  14.165  1.00  0.00     0.054 A 
HETATM   17 CL1  UNL     1      12.745  12.717  15.042  1.00  0.00    -0.083 Cl
HETATM   18  C11 UNL     1      13.829  10.263  14.821  1.00  0.00     0.050 A 
HETATM   19 BR1  UNL     1      13.315   9.945  16.626  1.00  0.00    -0.048 Br
HETATM   20  C12 UNL     1      14.483   9.247  14.154  1.00  0.00     0.032 A 
HETATM   21 BR2  UNL     1      14.857   7.590  15.003  1.00  0.00    -0.050 Br
HETATM   22  C13 UNL     1      14.863   9.470  12.832  1.00  0.00     0.049 A 
ENDBRANCH  12  14
ENDBRANCH   1  12
TORSDOF 8
ENDMDL
MODEL 5
REMARK VINA RESULT: -6.914161757      4.277      7.673
REMARK  8 active torsions:
REMARK  status: ('A' for Active; 'I' for Inactive)
REMARK    1  A    between atoms: C2_2  and  C3_3 
REMARK    2  A    between atoms: C3_3  and  C4_4 
REMARK    3  A    between atoms: C4_4  and  O1_6 
REMARK    4  A    between atoms: C4_4  and  C6_8 
REMARK    5  A    between atoms: C6_8  and  O2_9 
REMARK    6  A    between atoms: C6_8  and  C7_11 
REMARK    7  A    between atoms: C7_11  and  N1_12 
REMARK    8  A    between atoms: N1_12  and  C8_14 
ROOT
HETATM    1  C7  UNL     1      12.949  11.561  14.349  1.00  0.00     0.154 C 
ENDROOT
BRANCH   1   2
HETATM    2  C6  UNL     1      13.082  12.347  15.606  1.00  0.00     0.169 C 
BRANCH   2   3
HETATM    3  C4  UNL     1      13.062  11.508  16.875  1.00  0.00     0.081 C 
HETATM    4  C5  UNL     1      11.719  11.571  17.507  1.00  0.00     0.049 C 
BRANCH   3   5
HETATM    5  C3  UNL     1      14.175  12.052  17.742  1.00  0.00     0.040 C 
BRANCH   5   6
HETATM    6  C2  UNL     1      13.718  12.797  18.948  1.00  0.00    -0.002 C 
HETATM    7  C1  UNL     1      14.975  13.331  19.637  1.00  0.00     0.005 C 
ENDBRANCH   5   6
ENDBRANCH   3   5
BRANCH   3   8
HETATM    8  O1  UNL     1      13.360  10.189  16.536  1.00  0.00    -0.388 OA
ATOM      9  H1  UNL     1      14.121  10.184  15.967  1.00  0.00     0.210 HD
ENDBRANCH   3   8
ENDBRANCH   2   3
BRANCH   2  10
HETATM   10  O2  UNL     1      12.216  13.410  15.632  1.00  0.00    -0.391 OA
ATOM     11  H2  UNL     1      11.320  13.180  15.413  1.00  0.00     0.210 HD
ENDBRANCH   2  10
ENDBRANCH   1   2
BRANCH   1  12
HETATM   12  N1  UNL     1      14.138  11.504  13.533  1.00  0.00    -0.387 N 
ATOM     13  H1  UNL     1      14.635  12.382  13.384  1.00  0.00     0.159 HD
BRANCH  12  14
HETATM   14  C8  UNL     1      14.679  10.357  12.923  1.00  0.00     0.030 A 
HETATM   15  C9  UNL     1      15.070  10.412  11.592  1.00  0.00     0.054 A 
HETATM   16  C10 UNL     1      15.581   9.308  10.949  1.00  0.00     0.054 A 
HETATM   17 CL1  UNL     1      16.071   9.384   9.270  1.00  0.00    -0.083 Cl
HETATM   18  C11 UNL     1      15.719   8.107  11.613  1.00  0.00     0.050 A 
HETATM   19 BR1  UNL     1      16.418   6.540  10.788  1.00  0.00    -0.048 Br
HETATM   20  C12 UNL     1      15.341   8.018  12.936  1.00  0.00     0.032 A 
HETATM   21 BR2  UNL     1      15.509   6.392  13.904  1.00  0.00    -0.050 Br
HETATM   22  C13 UNL     1      14.829   9.159  13.549  1.00  0.00     0.049 A 
ENDBRANCH  12  14
ENDBRANCH   1  12
TORSDOF 8
ENDMDL
