MODEL 1
REMARK VINA RESULT: -10.935641416      0.000      0.000
REMARK  8 active torsions:
REMARK  status: ('A' for Active; 'I' for Inactive)
REMARK    1  A    between atoms: N1_1  and  C1_4 
REMARK    2  A    between atoms: C2_7  and  C3_8 
REMARK    3  A    between atoms: C3_8  and  C4_9 
REMARK    4  A    between atoms: N3_10  and  C5_12 
REMARK    5  A    between atoms: N5_24  and  C15_25 
REMARK    6  A    between atoms: C15_25  and  C16_26 
REMARK    7  A    between atoms: C16_26  and  C17_27 
REMARK    8  A    between atoms: C20_30  and  C21_31 
ROOT
HETATM    1  C1  UNL     1      14.159  11.711  10.970  1.00  0.00     0.678 A 
HETATM    2  N2  UNL     1      15.247  11.117  10.475  1.00  0.00    -0.194 N 
ATOM      3  H2  UNL     1      15.664  11.331   9.568  1.00  0.00     0.184 HD
HETATM    4  C2  UNL     1      15.727  10.179  11.353  1.00  0.00     0.047 A 
HETATM    5  C14 UNL     1      14.865  10.235  12.420  1.00  0.00     0.134 A 
HETATM    6  N5  UNL     1      13.918  11.159  12.190  1.00  0.00    -0.192 N 
ENDROOT
BRANCH   4   7
HETATM    7  C3  UNL     1      16.939   9.347  11.106  1.00  0.00     0.103 C 
BRANCH   7   8
HETATM    8  C4  UNL     1      16.544   8.259  10.077  1.00  0.00     0.067 C 
HETATM    9  N3  UNL     1      16.608   6.980  10.494  1.00  0.00    -0.368 N 
ATOM     10  H3  UNL     1      17.579   6.757  10.272  1.00  0.00     0.165 HD
BRANCH   9  11
HETATM   11  C5  UNL     1      16.239   5.932  10.964  1.00  0.00     0.045 A 
HETATM   12  C6  UNL     1      16.432   4.711  10.272  1.00  0.00     0.047 A 
HETATM   13  C7  UNL     1      16.014   3.518  10.782  1.00  0.00     0.090 A 
HETATM   14  N4  UNL     1      15.400   3.470  11.971  1.00  0.00    -0.365 N 
HETATM   15  C8  UNL     1      15.187   4.590  12.677  1.00  0.00     0.044 A 
ATOM     16  H4  UNL     1      15.090   2.573  12.344  1.00  0.00     0.165 HD
HETATM   17  C9  UNL     1      14.543   4.471  13.911  1.00  0.00     0.030 A 
HETATM   18  C13 UNL     1      15.599   5.810  12.187  1.00  0.00     0.017 A 
HETATM   19  C10 UNL     1      14.300   5.580  14.679  1.00  0.00     0.002 A 
HETATM   20  C11 UNL     1      14.695   6.798  14.222  1.00  0.00     0.001 A 
HETATM   21  C12 UNL     1      15.333   6.903  12.996  1.00  0.00     0.016 A 
ENDBRANCH   9  11
ENDBRANCH   7   8
ENDBRANCH   4   7
BRANCH   1  22
HETATM   22  N1  UNL     1      13.449  12.645  10.390  1.00  0.00    -0.234 N 
ATOM     23  H12 UNL     1      13.813  13.428   9.846  1.00  0.00     0.174 HD
ATOM     24  H11 UNL     1      12.433  12.730  10.401  1.00  0.00     0.174 HD
ENDBRANCH   1  22
BRANCH   6  25
HETATM   25  C15 UNL     1      12.807  11.576  13.039  1.00  0.00     0.151 C 
BRANCH  25  26
HETATM   26  C16 UNL     1      13.357  12.377  14.182  1.00  0.00     0.059 C 
BRANCH  26  27
HETATM   27  C17 UNL     1      12.954  11.891  15.505  1.00  0.00    -0.057 A 
HETATM   28  C18 UNL     1      13.401  10.772  16.148  1.00  0.00     0.008 A 
HETATM   29  C19 UNL     1      12.918  10.425  17.418  1.00  0.00     0.017 A 
HETATM   30  C20 UNL     1      11.985  11.196  18.051  1.00  0.00     0.047 A 
HETATM   31  C22 UNL     1      11.513  12.336  17.425  1.00  0.00     0.017 A 
HETATM   32  C23 UNL     1      12.001  12.644  16.196  1.00  0.00     0.008 A 
BRANCH  30  33
HETATM   33  C21 UNL     1      11.470  10.835  19.376  1.00  0.00     0.417 C 
HETATM   34  F1  UNL     1      12.171  11.517  20.369  1.00  0.00    -0.166 F 
HETATM   35  F2  UNL     1      10.134  11.247  19.480  1.00  0.00    -0.166 F 
HETATM   36  F3  UNL     1      11.506   9.489  19.622  1.00  0.00    -0.166 F 
ENDBRANCH  30  33
ENDBRANCH  26  27
ENDBRANCH  25  26
ENDBRANCH   6  25
TORSDOF 8
ENDMDL
MODEL 2
REMARK VINA RESULT: -10.727921428      1.423      1.957
REMARK  8 active torsions:
REMARK  status: ('A' for Active; 'I' for Inactive)
REMARK    1  A    between atoms: N1_1  and  C1_4 
REMARK    2  A    between atoms: C2_7  and  C3_8 
REMARK    3  A    between atoms: C3_8  and  C4_9 
REMARK    4  A    between atoms: N3_10  and  C5_12 
REMARK    5  A    between atoms: N5_24  and  C15_25 
REMARK    6  A    between atoms: C15_25  and  C16_26 
REMARK    7  A    between atoms: C16_26  and  C17_27 
REMARK    8  A    between atoms: C20_30  and  C21_31 
ROOT
HETATM    1  C1  UNL     1      12.698  11.932  12.121  1.00  0.00     0.678 A 
HETATM    2  N2  UNL     1      13.561  11.631  11.148  1.00  0.00    -0.194 N 
ATOM      3  H2  UNL     1      13.435  11.869  10.165  1.00  0.00     0.184 HD
HETATM    4  C2  UNL     1      14.643  10.955  11.655  1.00  0.00     0.047 A 
HETATM    5  C14 UNL     1      14.389  10.862  13.001  1.00  0.00     0.134 A 
HETATM    6  N5  UNL     1      13.215  11.450  13.283  1.00  0.00    -0.192 N 
ENDROOT
BRANCH   4   7
HETATM    7  C3  UNL     1      15.794  10.485  10.833  1.00  0.00     0.103 C 
BRANCH   7   8
HETATM    8  C4  UNL     1      16.647   9.556  11.731  1.00  0.00     0.067 C 
HETATM    9  N3  UNL     1      16.232   8.281  11.851  1.00  0.00    -0.368 N 
ATOM     10  H3  UNL     1      15.591   8.364  12.640  1.00  0.00     0.165 HD
BRANCH   9  11
HETATM   11  C5  UNL     1      16.141   7.102  11.611  1.00  0.00     0.045 A 
HETATM   12  C6  UNL     1      16.630   6.563  10.396  1.00  0.00     0.047 A 
HETATM   13  C7  UNL     1      16.529   5.235  10.103  1.00  0.00     0.090 A 
HETATM   14  N4  UNL     1      15.954   4.394  10.972  1.00  0.00    -0.365 N 
HETATM   15  C8  UNL     1      15.471   4.840  12.140  1.00  0.00     0.044 A 
ATOM     16  H4  UNL     1      15.883   3.403  10.742  1.00  0.00     0.165 HD
HETATM   17  C9  UNL     1      14.885   3.911  13.003  1.00  0.00     0.030 A 
HETATM   18  C13 UNL     1      15.560   6.177  12.463  1.00  0.00     0.017 A 
HETATM   19  C10 UNL     1      14.377   4.308  14.212  1.00  0.00     0.002 A 
HETATM   20  C11 UNL     1      14.450   5.620  14.559  1.00  0.00     0.001 A 
HETATM   21  C12 UNL     1      15.033   6.533  13.695  1.00  0.00     0.016 A 
ENDBRANCH   9  11
ENDBRANCH   7   8
ENDBRANCH   4   7
BRANCH   1  22
HETATM   22  N1  UNL     1      11.561  12.566  11.984  1.00  0.00    -0.234 N 
ATOM     23  H12 UNL     1      11.415  13.570  12.087  1.00  0.00     0.174 HD
ATOM     24  H11 UNL     1      10.657  12.149  11.761  1.00  0.00     0.174 HD
ENDBRANCH   1  22
BRANCH   6  25
HETATM   25  C15 UNL     1      12.547  11.610  14.570  1.00  0.00     0.151 C 
BRANCH  25  26
HETATM   26  C16 UNL     1      13.367  10.922  15.621  1.00  0.00     0.059 C 
BRANCH  26  27
HETATM   27  C17 UNL     1      13.180  11.458  16.973  1.00  0.00    -0.057 A 
HETATM   28  C18 UNL     1      14.003  12.315  17.646  1.00  0.00     0.008 A 
HETATM   29  C19 UNL     1      13.697  12.741  18.946  1.00  0.00     0.017 A 
HETATM   30  C20 UNL     1      12.565  12.312  19.581  1.00  0.00     0.047 A 
HETATM   31  C22 UNL     1      11.712  11.444  18.925  1.00  0.00     0.017 A 
HETATM   32  C23 UNL     1      12.037  11.050  17.666  1.00  0.00     0.008 A 
BRANCH  30  33
HETATM   33  C21 UNL     1      12.244  12.748  20.943  1.00  0.00     0.417 C 
HETATM   34  F1  UNL     1      13.067  12.102  21.864  1.00  0.00    -0.166 F 
HETATM   35  F2  UNL     1      12.513  14.118  21.065  1.00  0.00    -0.166 F 
HETATM   36  F3  UNL     1      10.931  12.556  21.278  1.00  0.00    -0.166 F 
ENDBRANCH  30  33
ENDBRANCH  26  27
ENDBRANCH  25  26
ENDBRANCH   6  25
TORSDOF 8
ENDMDL
MODEL 3
REMARK VINA RESULT: -10.685358267      1.516      2.586
REMARK  8 active torsions:
REMARK  status: ('A' for Active; 'I' for Inactive)
REMARK    1  A    between atoms: N1_1  and  C1_4 
REMARK    2  A    between atoms: C2_7  and  C3_8 
REMARK    3  A    between atoms: C3_8  and  C4_9 
REMARK    4  A    between atoms: N3_10  and  C5_12 
REMARK    5  A    between atoms: N5_24  and  C15_25 
REMARK    6  A    between atoms: C15_25  and  C16_26 
REMARK    7  A    between atoms: C16_26  and  C17_27 
REMARK    8  A    between atoms: C20_30  and  C21_31 
ROOT
HETATM    1  C1  UNL     1      13.006  11.857  12.141  1.00  0.00     0.678 A 
HETATM    2  N2  UNL     1      13.954  11.501  11.272  1.00  0.00    -0.194 N 
ATOM      3  H2  UNL     1      13.905  11.654  10.264  1.00  0.00     0.184 HD
HETATM    4  C2  UNL     1      15.004  10.901  11.920  1.00  0.00     0.047 A 
HETATM    5  C14 UNL     1      14.640  10.911  13.244  1.00  0.00     0.134 A 
HETATM    6  N5  UNL     1      13.434  11.487  13.379  1.00  0.00    -0.192 N 
ENDROOT
BRANCH   4   7
HETATM    7  C3  UNL     1      16.230  10.398  11.237  1.00  0.00     0.103 C 
BRANCH   7   8
HETATM    8  C4  UNL     1      15.909   8.975  10.714  1.00  0.00     0.067 C 
HETATM    9  N3  UNL     1      15.930   7.979  11.619  1.00  0.00    -0.368 N 
ATOM     10  H3  UNL     1      16.913   7.710  11.583  1.00  0.00     0.165 HD
BRANCH   9  11
HETATM   11  C5  UNL     1      15.516   7.203  12.446  1.00  0.00     0.045 A 
HETATM   12  C6  UNL     1      15.005   7.659  13.686  1.00  0.00     0.047 A 
HETATM   13  C7  UNL     1      14.542   6.798  14.636  1.00  0.00     0.090 A 
HETATM   14  N4  UNL     1      14.558   5.478  14.416  1.00  0.00    -0.365 N 
HETATM   15  C8  UNL     1      15.028   4.981  13.263  1.00  0.00     0.044 A 
ATOM     16  H4  UNL     1      14.209   4.843  15.134  1.00  0.00     0.165 HD
HETATM   17  C9  UNL     1      15.015   3.594  13.096  1.00  0.00     0.030 A 
HETATM   18  C13 UNL     1      15.503   5.827  12.284  1.00  0.00     0.017 A 
HETATM   19  C10 UNL     1      15.480   3.029  11.937  1.00  0.00     0.002 A 
HETATM   20  C11 UNL     1      15.955   3.837  10.953  1.00  0.00     0.001 A 
HETATM   21  C12 UNL     1      15.962   5.212  11.130  1.00  0.00     0.016 A 
ENDBRANCH   9  11
ENDBRANCH   7   8
ENDBRANCH   4   7
BRANCH   1  22
HETATM   22  N1  UNL     1      11.871  12.445  11.859  1.00  0.00    -0.234 N 
ATOM     23  H12 UNL     1      10.973  11.982  11.713  1.00  0.00     0.174 HD
ATOM     24  H11 UNL     1      11.720  13.446  11.739  1.00  0.00     0.174 HD
ENDBRANCH   1  22
BRANCH   6  25
HETATM   25  C15 UNL     1      12.657  11.733  14.589  1.00  0.00     0.151 C 
BRANCH  25  26
HETATM   26  C16 UNL     1      13.186  10.852  15.681  1.00  0.00     0.059 C 
BRANCH  26  27
HETATM   27  C17 UNL     1      13.062  11.423  17.026  1.00  0.00    -0.057 A 
HETATM   28  C18 UNL     1      13.928  12.278  17.647  1.00  0.00     0.008 A 
HETATM   29  C19 UNL     1      13.681  12.742  18.946  1.00  0.00     0.017 A 
HETATM   30  C20 UNL     1      12.565  12.354  19.632  1.00  0.00     0.047 A 
HETATM   31  C22 UNL     1      11.668  11.490  19.030  1.00  0.00     0.017 A 
HETATM   32  C23 UNL     1      11.937  11.059  17.770  1.00  0.00     0.008 A 
BRANCH  30  33
HETATM   33  C21 UNL     1      12.305  12.830  20.995  1.00  0.00     0.417 C 
HETATM   34  F1  UNL     1      13.164  12.205  21.897  1.00  0.00    -0.166 F 
HETATM   35  F2  UNL     1      12.585  14.201  21.066  1.00  0.00    -0.166 F 
HETATM   36  F3  UNL     1      11.007  12.654  21.391  1.00  0.00    -0.166 F 
ENDBRANCH  30  33
ENDBRANCH  26  27
ENDBRANCH  25  26
ENDBRANCH   6  25
TORSDOF 8
ENDMDL
MODEL 4
REMARK VINA RESULT: -10.620659267      1.921      3.218
REMARK  8 active torsions:
REMARK  status: ('A' for Active; 'I' for Inactive)
REMARK    1  A    between atoms: N1_1  and  C1_4 
REMARK    2  A    between atoms: C2_7  and  C3_8 
REMARK    3  A    between atoms: C3_8  and  C4_9 
REMARK    4  A    between atoms: N3_10  and  C5_12 
REMARK    5  A    between atoms: N5_24  and  C15_25 
REMARK    6  A    between atoms: C15_25  and  C16_26 
REMARK    7  A    between atoms: C16_26  and  C17_27 
REMARK    8  A    between atoms: C20_30  and  C21_31 
ROOT
HETATM    1  C1  UNL     1      16.817   9.710   8.692  1.00  0.00     0.678 A 
HETATM    2  N2  UNL     1      16.861   8.527   8.077  1.00  0.00    -0.194 N 
ATOM      3  H2  UNL     1      17.336   8.349   7.192  1.00  0.00     0.184 HD
HETATM    4  C2  UNL     1      16.178   7.581   8.800  1.00  0.00     0.047 A 
HETATM    5  C14 UNL     1      15.713   8.260   9.900  1.00  0.00     0.134 A 
HETATM    6  N5  UNL     1      16.097   9.546   9.834  1.00  0.00    -0.192 N 
ENDROOT
BRANCH   4   7
HETATM    7  C3  UNL     1      16.048   6.153   8.395  1.00  0.00     0.103 C 
BRANCH   7   8
HETATM    8  C4  UNL     1      17.222   5.383   9.049  1.00  0.00     0.067 C 
HETATM    9  N3  UNL     1      17.042   4.970  10.318  1.00  0.00    -0.368 N 
ATOM     10  H3  UNL     1      17.366   5.790  10.832  1.00  0.00     0.165 HD
BRANCH   9  11
HETATM   11  C5  UNL     1      16.739   4.239  11.230  1.00  0.00     0.045 A 
HETATM   12  C6  UNL     1      17.161   2.888  11.255  1.00  0.00     0.047 A 
HETATM   13  C7  UNL     1      16.821   2.044  12.271  1.00  0.00     0.090 A 
HETATM   14  N4  UNL     1      16.066   2.481  13.287  1.00  0.00    -0.365 N 
HETATM   15  C8  UNL     1      15.634   3.750  13.323  1.00  0.00     0.044 A 
ATOM     16  H4  UNL     1      15.817   1.842  14.042  1.00  0.00     0.165 HD
HETATM   17  C9  UNL     1      14.852   4.143  14.412  1.00  0.00     0.030 A 
HETATM   18  C13 UNL     1      15.962   4.625  12.310  1.00  0.00     0.017 A 
HETATM   19  C10 UNL     1      14.383   5.428  14.505  1.00  0.00     0.002 A 
HETATM   20  C11 UNL     1      14.691   6.314  13.521  1.00  0.00     0.001 A 
HETATM   21  C12 UNL     1      15.467   5.913  12.446  1.00  0.00     0.016 A 
ENDBRANCH   9  11
ENDBRANCH   7   8
ENDBRANCH   4   7
BRANCH   1  22
HETATM   22  N1  UNL     1      17.357  10.826   8.272  1.00  0.00    -0.234 N 
ATOM     23  H12 UNL     1      17.786  10.982   7.360  1.00  0.00     0.174 HD
ATOM     24  H11 UNL     1      17.434  11.698   8.797  1.00  0.00     0.174 HD
ENDBRANCH   1  22
BRANCH   6  25
HETATM   25  C15 UNL     1      15.852  10.633  10.776  1.00  0.00     0.151 C 
BRANCH  25  26
HETATM   26  C16 UNL     1      14.371  10.769  10.971  1.00  0.00     0.059 C 
BRANCH  26  27
HETATM   27  C17 UNL     1      13.958  10.874  12.374  1.00  0.00    -0.057 A 
HETATM   28  C18 UNL     1      13.136  11.814  12.928  1.00  0.00     0.008 A 
HETATM   29  C19 UNL     1      12.830  11.793  14.296  1.00  0.00     0.017 A 
HETATM   30  C20 UNL     1      13.345  10.831  15.118  1.00  0.00     0.047 A 
HETATM   31  C22 UNL     1      14.180   9.865  14.587  1.00  0.00     0.017 A 
HETATM   32  C23 UNL     1      14.456   9.913  13.258  1.00  0.00     0.008 A 
BRANCH  30  33
HETATM   33  C21 UNL     1      13.036  10.808  16.551  1.00  0.00     0.417 C 
HETATM   34  F1  UNL     1      13.192   9.519  17.059  1.00  0.00    -0.166 F 
HETATM   35  F2  UNL     1      13.954  11.617  17.235  1.00  0.00    -0.166 F 
HETATM   36  F3  UNL     1      11.782  11.274  16.842  1.00  0.00    -0.166 F 
ENDBRANCH  30  33
ENDBRANCH  26  27
ENDBRANCH  25  26
ENDBRANCH   6  25
TORSDOF 8
ENDMDL
MODEL 5
REMARK VINA RESULT: -10.545508790      1.269      1.962
REMARK  8 active torsions:
REMARK  status: ('A' for Active; 'I' for Inactive)
REMARK    1  A    between atoms: N1_1  and  C1_4 
REMARK    2  A    between atoms: C2_7  and  C3_8 
REMARK    3  A    between atoms: C3_8  and  C4_9 
REMARK    4  A    between atoms: N3_10  and  C5_12 
REMARK    5  A    between atoms: N5_24  and  C15_25 
REMARK    6  A    between atoms: C15_25  and  C16_26 
REMARK    7  A    between atoms: C16_26  and  C17_27 
REMARK    8  A    between atoms: C20_30  and  C21_31 
ROOT
HETATM    1  C1  UNL     1      14.326  11.615  10.937  1.00  0.00     0.678 A 
HETATM    2  N2  UNL     1      15.451  11.280  10.302  1.00  0.00    -0.194 N 
ATOM      3  H2  UNL     1      15.772  11.697   9.428  1.00  0.00     0.184 HD
HETATM    4  C2  UNL     1      16.118  10.296  10.987  1.00  0.00     0.047 A 
HETATM    5  C14 UNL     1      15.330  10.049  12.085  1.00  0.00     0.134 A 
HETATM    6  N5  UNL     1      14.249  10.844  12.055  1.00  0.00    -0.192 N 
ENDROOT
BRANCH   4   7
HETATM    7  C3  UNL     1      17.416   9.707  10.552  1.00  0.00     0.103 C 
BRANCH   7   8
HETATM    8  C4  UNL     1      17.228   9.215   9.095  1.00  0.00     0.067 C 
HETATM    9  N3  UNL     1      17.303   7.886   8.890  1.00  0.00    -0.368 N 
ATOM     10  H3  UNL     1      18.306   7.774   8.739  1.00  0.00     0.165 HD
BRANCH   9  11
HETATM   11  C5  UNL     1      16.929   6.745   8.772  1.00  0.00     0.045 A 
HETATM   12  C6  UNL     1      16.861   6.125   7.501  1.00  0.00     0.047 A 
HETATM   13  C7  UNL     1      16.432   4.839   7.347  1.00  0.00     0.090 A 
HETATM   14  N4  UNL     1      16.059   4.120   8.413  1.00  0.00    -0.365 N 
HETATM   15  C8  UNL     1      16.100   4.648   9.644  1.00  0.00     0.044 A 
ATOM     16  H4  UNL     1      15.739   3.160   8.286  1.00  0.00     0.165 HD
HETATM   17  C9  UNL     1      15.699   3.844  10.714  1.00  0.00     0.030 A 
HETATM   18  C13 UNL     1      16.529   5.945   9.831  1.00  0.00     0.017 A 
HETATM   19  C10 UNL     1      15.722   4.328  11.996  1.00  0.00     0.002 A 
HETATM   20  C11 UNL     1      16.141   5.603  12.211  1.00  0.00     0.001 A 
HETATM   21  C12 UNL     1      16.536   6.392  11.142  1.00  0.00     0.016 A 
ENDBRANCH   9  11
ENDBRANCH   7   8
ENDBRANCH   4   7
BRANCH   1  22
HETATM   22  N1  UNL     1      13.454  12.512  10.554  1.00  0.00    -0.234 N 
ATOM     23  H12 UNL     1      13.010  12.568   9.637  1.00  0.00     0.174 HD
ATOM     24  H11 UNL     1      13.096  13.288  11.112  1.00  0.00     0.174 HD
ENDBRANCH   1  22
BRANCH   6  25
HETATM   25  C15 UNL     1      13.150  10.947  13.009  1.00  0.00     0.151 C 
BRANCH  25  26
HETATM   26  C16 UNL     1      13.523  11.952  14.058  1.00  0.00     0.059 C 
BRANCH  26  27
HETATM   27  C17 UNL     1      13.063  11.610  15.408  1.00  0.00    -0.057 A 
HETATM   28  C18 UNL     1      13.436  10.535  16.163  1.00  0.00     0.008 A 
HETATM   29  C19 UNL     1      12.905  10.332  17.444  1.00  0.00     0.017 A 
HETATM   30  C20 UNL     1      11.998  11.204  17.978  1.00  0.00     0.047 A 
HETATM   31  C22 UNL     1      11.602  12.302  17.238  1.00  0.00     0.017 A 
HETATM   32  C23 UNL     1      12.135  12.471  16.000  1.00  0.00     0.008 A 
BRANCH  30  33
HETATM   33  C21 UNL     1      11.434  10.992  19.315  1.00  0.00     0.417 C 
HETATM   34  F1  UNL     1      11.495   9.642  19.657  1.00  0.00    -0.166 F 
HETATM   35  F2  UNL     1      12.213  11.676  20.258  1.00  0.00    -0.166 F 
HETATM   36  F3  UNL     1      10.149  11.445  19.438  1.00  0.00    -0.166 F 
ENDBRANCH  30  33
ENDBRANCH  26  27
ENDBRANCH  25  26
ENDBRANCH   6  25
TORSDOF 8
ENDMDL
