MODEL 1
REMARK VINA RESULT: -7.710054935      0.000      0.000
REMARK  8 active torsions:
REMARK  status: ('A' for Active; 'I' for Inactive)
REMARK    1  A    between atoms: C2_2  and  C3_3 
REMARK    2  A    between atoms: C3_3  and  N1_4 
REMARK    3  A    between atoms: C4_5  and  N2_6 
REMARK    4  A    between atoms: N2_6  and  C5_8 
REMARK    5  A    between atoms: C5_8  and  C6_9 
REMARK    6  A    between atoms: C6_9  and  C7_10 
REMARK    7  A    between atoms: C9_14  and  O1_15 
REMARK    8  A    between atoms: C10_17  and  C11_18 
ROOT
HETATM    1  N2  UNL     1      15.577   8.768  12.075  1.00  0.00    -0.225 N 
ATOM      2  H2  UNL     1      15.622   7.760  12.229  1.00  0.00     0.177 HD
ENDROOT
BRANCH   1   3
HETATM    3  C4  UNL     1      14.881   9.411  12.916  1.00  0.00     0.684 A 
HETATM    4  N1  UNL     1      14.737   8.867  14.136  1.00  0.00    -0.146 N 
HETATM    5  C15 UNL     1      14.002   9.543  15.031  1.00  0.00     0.282 A 
HETATM    6  C14 UNL     1      13.413  10.770  14.692  1.00  0.00     0.118 A 
HETATM    7  O2  UNL     1      13.813   9.115  16.191  1.00  0.00    -0.266 OA
HETATM    8  C13 UNL     1      13.596  11.277  13.430  1.00  0.00     0.142 A 
HETATM    9 BR1  UNL     1      12.364  11.761  15.935  1.00  0.00    -0.042 Br
HETATM   10  N4  UNL     1      14.335  10.581  12.555  1.00  0.00    -0.179 N 
HETATM   11 CL1  UNL     1      12.858  12.816  12.996  1.00  0.00    -0.062 Cl
ATOM     12  H4  UNL     1      14.481  10.942  11.612  1.00  0.00     0.185 HD
BRANCH   4  13
HETATM   13  C3  UNL     1      15.343   7.626  14.458  1.00  0.00     0.151 C 
BRANCH  13  14
HETATM   14  C2  UNL     1      14.434   6.434  14.374  1.00  0.00     0.016 C 
HETATM   15  C1  UNL     1      14.937   5.535  13.265  1.00  0.00     0.006 C 
ENDBRANCH  13  14
ENDBRANCH   4  13
ENDBRANCH   1   3
BRANCH   1  16
HETATM   16  C5  UNL     1      16.305   9.238  10.951  1.00  0.00     0.142 C 
BRANCH  16  17
HETATM   17  C6  UNL     1      15.617   8.935   9.642  1.00  0.00     0.061 C 
BRANCH  17  18
HETATM   18  C7  UNL     1      16.520   8.386   8.620  1.00  0.00    -0.028 A 
HETATM   19  C8  UNL     1      17.185   9.138   7.658  1.00  0.00     0.098 A 
HETATM   20  N3  UNL     1      17.906   8.297   6.900  1.00  0.00    -0.346 N 
HETATM   21  C9  UNL     1      17.713   7.052   7.360  1.00  0.00     0.149 A 
ATOM     22  H3  UNL     1      18.498   8.560   6.112  1.00  0.00     0.167 HD
HETATM   23  C10 UNL     1      16.855   7.066   8.433  1.00  0.00     0.034 A 
BRANCH  21  24
HETATM   24  O1  UNL     1      18.316   5.940   6.797  1.00  0.00    -0.346 OA
ATOM     25  H1  UNL     1      18.045   5.051   6.993  1.00  0.00     0.219 HD
ENDBRANCH  21  24
BRANCH  23  26
HETATM   26  C11 UNL     1      16.399   5.897   9.217  1.00  0.00     0.204 C 
HETATM   27  C12 UNL     1      15.675   4.877   8.334  1.00  0.00     0.050 C 
HETATM   28  F1  UNL     1      17.529   5.243   9.700  1.00  0.00    -0.245 F 
ENDBRANCH  23  26
ENDBRANCH  17  18
ENDBRANCH  16  17
ENDBRANCH   1  16
TORSDOF 8
ENDMDL
MODEL 2
REMARK VINA RESULT: -7.666188155      1.296      1.412
REMARK  8 active torsions:
REMARK  status: ('A' for Active; 'I' for Inactive)
REMARK    1  A    between atoms: C2_2  and  C3_3 
REMARK    2  A    between atoms: C3_3  and  N1_4 
REMARK    3  A    between atoms: C4_5  and  N2_6 
REMARK    4  A    between atoms: N2_6  and  C5_8 
REMARK    5  A    between atoms: C5_8  and  C6_9 
REMARK    6  A    between atoms: C6_9  and  C7_10 
REMARK    7  A    between atoms: C9_14  and  O1_15 
REMARK    8  A    between atoms: C10_17  and  C11_18 
ROOT
HETATM    1  N2  UNL     1      15.397   9.788  11.268  1.00  0.00    -0.225 N 
ATOM      2  H2  UNL     1      15.037   8.988  10.746  1.00  0.00     0.177 HD
ENDROOT
BRANCH   1   3
HETATM    3  C4  UNL     1      14.890   9.953  12.417  1.00  0.00     0.684 A 
HETATM    4  N1  UNL     1      14.942   8.913  13.266  1.00  0.00    -0.146 N 
HETATM    5  C15 UNL     1      14.407   9.082  14.484  1.00  0.00     0.282 A 
HETATM    6  C14 UNL     1      13.820  10.304  14.844  1.00  0.00     0.118 A 
HETATM    7  O2  UNL     1      14.409   8.170  15.340  1.00  0.00    -0.266 OA
HETATM    8  C13 UNL     1      13.797  11.331  13.935  1.00  0.00     0.142 A 
HETATM    9 BR1  UNL     1      13.052  10.584  16.564  1.00  0.00    -0.042 Br
HETATM   10  N4  UNL     1      14.338  11.136  12.724  1.00  0.00    -0.179 N 
HETATM   11 CL1  UNL     1      13.060  12.869  14.379  1.00  0.00    -0.062 Cl
ATOM     12  H4  UNL     1      14.329  11.888  12.036  1.00  0.00     0.185 HD
BRANCH   4  13
HETATM   13  C3  UNL     1      15.541   7.687  12.881  1.00  0.00     0.151 C 
BRANCH  13  14
HETATM   14  C2  UNL     1      16.970   7.516  13.309  1.00  0.00     0.016 C 
HETATM   15  C1  UNL     1      17.187   6.059  13.655  1.00  0.00     0.006 C 
ENDBRANCH  13  14
ENDBRANCH   4  13
ENDBRANCH   1   3
BRANCH   1  16
HETATM   16  C5  UNL     1      16.391  10.547  10.597  1.00  0.00     0.142 C 
BRANCH  16  17
HETATM   17  C6  UNL     1      17.644   9.753  10.320  1.00  0.00     0.061 C 
BRANCH  17  18
HETATM   18  C7  UNL     1      17.614   9.044   9.032  1.00  0.00    -0.028 A 
HETATM   19  C8  UNL     1      17.533   9.657   7.787  1.00  0.00     0.098 A 
HETATM   20  N3  UNL     1      17.520   8.695   6.852  1.00  0.00    -0.346 N 
HETATM   21  C9  UNL     1      17.591   7.508   7.473  1.00  0.00     0.149 A 
ATOM     22  H3  UNL     1      17.466   8.841   5.843  1.00  0.00     0.167 HD
HETATM   23  C10 UNL     1      17.651   7.684   8.834  1.00  0.00     0.034 A 
BRANCH  21  24
HETATM   24  O1  UNL     1      17.599   6.302   6.793  1.00  0.00    -0.346 OA
ATOM     25  H1  UNL     1      16.831   5.747   6.718  1.00  0.00     0.219 HD
ENDBRANCH  21  24
BRANCH  23  26
HETATM   26  C11 UNL     1      17.744   6.623   9.861  1.00  0.00     0.204 C 
HETATM   27  C12 UNL     1      16.487   5.748   9.877  1.00  0.00     0.050 C 
HETATM   28  F1  UNL     1      18.788   5.775   9.502  1.00  0.00    -0.245 F 
ENDBRANCH  23  26
ENDBRANCH  17  18
ENDBRANCH  16  17
ENDBRANCH   1  16
TORSDOF 8
ENDMDL
MODEL 3
REMARK VINA RESULT: -7.614790220      4.179      6.766
REMARK  8 active torsions:
REMARK  status: ('A' for Active; 'I' for Inactive)
REMARK    1  A    between atoms: C2_2  and  C3_3 
REMARK    2  A    between atoms: C3_3  and  N1_4 
REMARK    3  A    between atoms: C4_5  and  N2_6 
REMARK    4  A    between atoms: N2_6  and  C5_8 
REMARK    5  A    between atoms: C5_8  and  C6_9 
REMARK    6  A    between atoms: C6_9  and  C7_10 
REMARK    7  A    between atoms: C9_14  and  O1_15 
REMARK    8  A    between atoms: C10_17  and  C11_18 
ROOT
HETATM    1  N2  UNL     1      16.314   7.129  12.667  1.00  0.00    -0.225 N 
ATOM      2  H2  UNL     1      16.204   6.447  13.418  1.00  0.00     0.177 HD
ENDROOT
BRANCH   1   3
HETATM    3  C4  UNL     1      16.330   6.643  11.497  1.00  0.00     0.684 A 
HETATM    4  N1  UNL     1      16.296   5.304  11.388  1.00  0.00    -0.146 N 
HETATM    5  C15 UNL     1      16.312   4.784  10.152  1.00  0.00     0.282 A 
HETATM    6  C14 UNL     1      16.361   5.618   9.026  1.00  0.00     0.118 A 
HETATM    7  O2  UNL     1      16.283   3.550   9.953  1.00  0.00    -0.266 OA
HETATM    8  C13 UNL     1      16.393   6.979   9.199  1.00  0.00     0.142 A 
HETATM    9 BR1  UNL     1      16.383   4.919   7.254  1.00  0.00    -0.042 Br
HETATM   10  N4  UNL     1      16.377   7.473  10.445  1.00  0.00    -0.179 N 
HETATM   11 CL1  UNL     1      16.456   8.034   7.789  1.00  0.00    -0.062 Cl
ATOM     12  H4  UNL     1      16.401   8.482  10.592  1.00  0.00     0.185 HD
BRANCH   4  13
HETATM   13  C3  UNL     1      16.245   4.480  12.540  1.00  0.00     0.151 C 
BRANCH  13  14
HETATM   14  C2  UNL     1      14.889   3.927  12.867  1.00  0.00     0.016 C 
HETATM   15  C1  UNL     1      14.447   4.513  14.191  1.00  0.00     0.006 C 
ENDBRANCH  13  14
ENDBRANCH   4  13
ENDBRANCH   1   3
BRANCH   1  16
HETATM   16  C5  UNL     1      16.427   8.479  13.090  1.00  0.00     0.142 C 
BRANCH  16  17
HETATM   17  C6  UNL     1      15.102   9.076  13.496  1.00  0.00     0.061 C 
BRANCH  17  18
HETATM   18  C7  UNL     1      14.668  10.180  12.628  1.00  0.00    -0.028 A 
HETATM   19  C8  UNL     1      15.114  10.395  11.329  1.00  0.00     0.098 A 
HETATM   20  N3  UNL     1      14.508  11.496  10.859  1.00  0.00    -0.346 N 
HETATM   21  C9  UNL     1      13.702  11.970  11.821  1.00  0.00     0.149 A 
ATOM     22  H3  UNL     1      14.638  11.902   9.932  1.00  0.00     0.167 HD
HETATM   23  C10 UNL     1      13.773  11.177  12.940  1.00  0.00     0.034 A 
BRANCH  21  24
HETATM   24  O1  UNL     1      12.926  13.106  11.660  1.00  0.00    -0.346 OA
ATOM     25  H1  UNL     1      11.989  13.073  11.503  1.00  0.00     0.219 HD
ENDBRANCH  21  24
BRANCH  23  26
HETATM   26  C11 UNL     1      13.032  11.363  14.206  1.00  0.00     0.204 C 
HETATM   27  C12 UNL     1      13.429  12.669  14.900  1.00  0.00     0.050 C 
HETATM   28  F1  UNL     1      11.683  11.498  13.893  1.00  0.00    -0.245 F 
ENDBRANCH  23  26
ENDBRANCH  17  18
ENDBRANCH  16  17
ENDBRANCH   1  16
TORSDOF 8
ENDMDL
MODEL 4
REMARK VINA RESULT: -7.586921360      2.727      4.254
REMARK  8 active torsions:
REMARK  status: ('A' for Active; 'I' for Inactive)
REMARK    1  A    between atoms: C2_2  and  C3_3 
REMARK    2  A    between atoms: C3_3  and  N1_4 
REMARK    3  A    between atoms: C4_5  and  N2_6 
REMARK    4  A    between atoms: N2_6  and  C5_8 
REMARK    5  A    between atoms: C5_8  and  C6_9 
REMARK    6  A    between atoms: C6_9  and  C7_10 
REMARK    7  A    between atoms: C9_14  and  O1_15 
REMARK    8  A    between atoms: C10_17  and  C11_18 
ROOT
HETATM    1  N2  UNL     1      16.450   7.884  11.817  1.00  0.00    -0.225 N 
ATOM      2  H2  UNL     1      17.069   8.010  11.015  1.00  0.00     0.177 HD
ENDROOT
BRANCH   1   3
HETATM    3  C4  UNL     1      15.643   8.838  12.028  1.00  0.00     0.684 A 
HETATM    4  N1  UNL     1      15.305   9.599  10.974  1.00  0.00    -0.146 N 
HETATM    5  C15 UNL     1      14.450  10.610  11.191  1.00  0.00     0.282 A 
HETATM    6  C14 UNL     1      13.937  10.850  12.474  1.00  0.00     0.118 A 
HETATM    7  O2  UNL     1      14.079  11.371  10.270  1.00  0.00    -0.266 OA
HETATM    8  C13 UNL     1      14.318  10.038  13.512  1.00  0.00     0.142 A 
HETATM    9 BR1  UNL     1      12.720  12.273  12.822  1.00  0.00    -0.042 Br
HETATM   10  N4  UNL     1      15.174   9.035  13.268  1.00  0.00    -0.179 N 
HETATM   11 CL1  UNL     1      13.680  10.334  15.127  1.00  0.00    -0.062 Cl
ATOM     12  H4  UNL     1      15.469   8.422  14.028  1.00  0.00     0.185 HD
BRANCH   4  13
HETATM   13  C3  UNL     1      15.835   9.338   9.685  1.00  0.00     0.151 C 
BRANCH  13  14
HETATM   14  C2  UNL     1      17.045  10.148   9.319  1.00  0.00     0.016 C 
HETATM   15  C1  UNL     1      17.485   9.736   7.930  1.00  0.00     0.006 C 
ENDBRANCH  13  14
ENDBRANCH   4  13
ENDBRANCH   1   3
BRANCH   1  16
HETATM   16  C5  UNL     1      16.623   6.668  12.527  1.00  0.00     0.142 C 
BRANCH  16  17
HETATM   17  C6  UNL     1      15.659   5.594  12.088  1.00  0.00     0.061 C 
BRANCH  17  18
HETATM   18  C7  UNL     1      16.302   4.498  11.348  1.00  0.00    -0.028 A 
HETATM   19  C8  UNL     1      16.829   3.348  11.925  1.00  0.00     0.098 A 
HETATM   20  N3  UNL     1      17.336   2.587  10.943  1.00  0.00    -0.346 N 
HETATM   21  C9  UNL     1      17.142   3.224   9.779  1.00  0.00     0.149 A 
ATOM     22  H3  UNL     1      17.791   1.681  11.062  1.00  0.00     0.167 HD
HETATM   23  C10 UNL     1      16.500   4.419   9.989  1.00  0.00     0.034 A 
BRANCH  21  24
HETATM   24  O1  UNL     1      17.551   2.707   8.562  1.00  0.00    -0.346 OA
ATOM     25  H1  UNL     1      17.454   3.178   7.742  1.00  0.00     0.219 HD
ENDBRANCH  21  24
BRANCH  23  26
HETATM   26  C11 UNL     1      16.103   5.404   8.959  1.00  0.00     0.204 C 
HETATM   27  C12 UNL     1      17.324   5.992   8.247  1.00  0.00     0.050 C 
HETATM   28  F1  UNL     1      15.384   4.727   7.978  1.00  0.00    -0.245 F 
ENDBRANCH  23  26
ENDBRANCH  17  18
ENDBRANCH  16  17
ENDBRANCH   1  16
TORSDOF 8
ENDMDL
MODEL 5
REMARK VINA RESULT: -7.560961026      4.130      7.618
REMARK  8 active torsions:
REMARK  status: ('A' for Active; 'I' for Inactive)
REMARK    1  A    between atoms: C2_2  and  C3_3 
REMARK    2  A    between atoms: C3_3  and  N1_4 
REMARK    3  A    between atoms: C4_5  and  N2_6 
REMARK    4  A    between atoms: N2_6  and  C5_8 
REMARK    5  A    between atoms: C5_8  and  C6_9 
REMARK    6  A    between atoms: C6_9  and  C7_10 
REMARK    7  A    between atoms: C9_14  and  O1_15 
REMARK    8  A    between atoms: C10_17  and  C11_18 
ROOT
HETATM    1  N2  UNL     1      15.975   8.609  12.802  1.00  0.00    -0.225 N 
ATOM      2  H2  UNL     1      16.626   8.443  13.570  1.00  0.00     0.177 HD
ENDROOT
BRANCH   1   3
HETATM    3  C4  UNL     1      16.075   7.804  11.828  1.00  0.00     0.684 A 
HETATM    4  N1  UNL     1      16.069   6.491  12.115  1.00  0.00    -0.146 N 
HETATM    5  C15 UNL     1      16.173   5.635  11.089  1.00  0.00     0.282 A 
HETATM    6  C14 UNL     1      16.283   6.105   9.772  1.00  0.00     0.118 A 
HETATM    7  O2  UNL     1      16.176   4.396  11.259  1.00  0.00    -0.266 OA
HETATM    8  C13 UNL     1      16.282   7.458   9.540  1.00  0.00     0.142 A 
HETATM    9 BR1  UNL     1      16.431   4.921   8.288  1.00  0.00    -0.042 Br
HETATM   10  N4  UNL     1      16.177   8.293  10.584  1.00  0.00    -0.179 N 
HETATM   11 CL1  UNL     1      16.421   8.057   7.890  1.00  0.00    -0.062 Cl
ATOM     12  H4  UNL     1      16.176   9.301  10.431  1.00  0.00     0.185 HD
BRANCH   4  13
HETATM   13  C3  UNL     1      15.956   6.038  13.453  1.00  0.00     0.151 C 
BRANCH  13  14
HETATM   14  C2  UNL     1      14.553   5.773  13.919  1.00  0.00     0.016 C 
HETATM   15  C1  UNL     1      14.460   4.320  14.331  1.00  0.00     0.006 C 
ENDBRANCH  13  14
ENDBRANCH   4  13
ENDBRANCH   1   3
BRANCH   1  16
HETATM   16  C5  UNL     1      15.094   9.707  12.985  1.00  0.00     0.142 C 
BRANCH  16  17
HETATM   17  C6  UNL     1      14.222   9.558  14.207  1.00  0.00     0.061 C 
BRANCH  17  18
HETATM   18  C7  UNL     1      13.445  10.765  14.522  1.00  0.00    -0.028 A 
HETATM   19  C8  UNL     1      12.889  11.623  13.580  1.00  0.00     0.098 A 
HETATM   20  N3  UNL     1      12.264  12.612  14.238  1.00  0.00    -0.346 N 
HETATM   21  C9  UNL     1      12.413  12.397  15.554  1.00  0.00     0.149 A 
ATOM     22  H3  UNL     1      11.763  13.391  13.811  1.00  0.00     0.167 HD
HETATM   23  C10 UNL     1      13.144  11.254  15.772  1.00  0.00     0.034 A 
BRANCH  21  24
HETATM   24  O1  UNL     1      11.886  13.239  16.518  1.00  0.00    -0.346 OA
ATOM     25  H1  UNL     1      12.427  13.774  17.087  1.00  0.00     0.219 HD
ENDBRANCH  21  24
BRANCH  23  26
HETATM   26  C11 UNL     1      13.516  10.678  17.083  1.00  0.00     0.204 C 
HETATM   27  C12 UNL     1      14.176  11.723  17.986  1.00  0.00     0.050 C 
HETATM   28  F1  UNL     1      12.342  10.306  17.732  1.00  0.00    -0.245 F 
ENDBRANCH  23  26
ENDBRANCH  17  18
ENDBRANCH  16  17
ENDBRANCH   1  16
TORSDOF 8
ENDMDL
