MODEL 1
REMARK VINA RESULT: -6.277268844      0.000      0.000
REMARK  7 active torsions:
REMARK  status: ('A' for Active; 'I' for Inactive)
REMARK    1  A    between atoms: C2_2  and  C3_3 
REMARK    2  A    between atoms: C3_3  and  C4_4 
REMARK    3  A    between atoms: C4_4  and  C5_5 
REMARK    4  A    between atoms: C5_5  and  C6_6 
REMARK    5  A    between atoms: C9_10  and  N1_11 
REMARK    6  A    between atoms: C12_16  and  N3_17 
REMARK    7  A    between atoms: C16_27  and  O1_28 
ROOT
HETATM    1  N1  UNL     1      -4.123   3.164  14.296  1.00  0.00    -0.322 N 
HETATM    2  C10 UNL     1      -4.256   2.110  15.154  1.00  0.00     0.185 A 
HETATM    3  N2  UNL     1      -4.280   0.963  14.490  1.00  0.00    -0.346 N 
ATOM      4  H2  UNL     1      -4.371   0.028  14.889  1.00  0.00     0.167 HD
HETATM    5  C11 UNL     1      -4.162   1.275  13.188  1.00  0.00     0.122 A 
HETATM    6  C12 UNL     1      -4.125   0.497  12.053  1.00  0.00     0.131 A 
HETATM    7  N4  UNL     1      -3.997   1.082  10.850  1.00  0.00    -0.337 N 
ATOM      8  H4  UNL     1      -3.969   0.514  10.004  1.00  0.00     0.168 HD
HETATM    9  C13 UNL     1      -3.904   2.424  10.767  1.00  0.00     0.183 A 
HETATM   10  N5  UNL     1      -3.937   3.205  11.871  1.00  0.00    -0.336 N 
ATOM     11  H5  UNL     1      -3.864   4.219  11.783  1.00  0.00     0.168 HD
HETATM   12  C14 UNL     1      -4.064   2.647  13.071  1.00  0.00     0.140 A 
ENDROOT
BRANCH   1  13
HETATM   13  C9  UNL     1      -4.066   4.554  14.728  1.00  0.00     0.095 C 
HETATM   14  C8  UNL     1      -2.810   5.202  14.274  1.00  0.00     0.027 C 
HETATM   15  C7  UNL     1      -2.954   6.576  13.732  1.00  0.00     0.015 C 
HETATM   16  C5  UNL     1      -3.928   7.455  14.446  1.00  0.00    -0.002 C 
HETATM   17  C16 UNL     1      -5.165   6.717  14.903  1.00  0.00     0.129 C 
HETATM   18  C15 UNL     1      -5.248   5.347  14.215  1.00  0.00     0.058 C 
BRANCH  16  19
HETATM   19  C4  UNL     1      -3.321   8.300  15.523  1.00  0.00     0.039 C 
BRANCH  19  20
HETATM   20  C3  UNL     1      -1.882   8.490  15.434  1.00  0.00    -0.030 C 
BRANCH  20  21
HETATM   21  C2  UNL     1      -1.291   9.676  15.331  1.00  0.00    -0.035 C 
HETATM   22  C1  UNL     1      -1.813  10.817  14.585  1.00  0.00     0.036 C 
ENDBRANCH  20  21
ENDBRANCH  19  20
ENDBRANCH  16  19
BRANCH  16  23
HETATM   23  C6  UNL     1      -4.417   8.465  13.391  1.00  0.00     0.097 C 
HETATM   24 BR1  UNL     1      -3.288   8.378  11.818  1.00  0.00    -0.096 Br
ENDBRANCH  16  23
BRANCH  17  25
HETATM   25  O1  UNL     1      -6.341   7.381  14.557  1.00  0.00    -0.395 OA
ATOM     26  H1  UNL     1      -6.920   6.844  14.030  1.00  0.00     0.210 HD
ENDBRANCH  17  25
ENDBRANCH   1  13
BRANCH   6  27
HETATM   27  N3  UNL     1      -4.215  -0.780  12.156  1.00  0.00    -0.383 N 
ATOM     28  H32 UNL     1      -3.398  -1.343  12.394  1.00  0.00     0.157 HD
ATOM     29  H31 UNL     1      -5.113  -1.236  11.997  1.00  0.00     0.157 HD
ENDBRANCH   6  27
TORSDOF 7
ENDMDL
MODEL 2
REMARK VINA RESULT: -6.170299048      3.163      4.599
REMARK  7 active torsions:
REMARK  status: ('A' for Active; 'I' for Inactive)
REMARK    1  A    between atoms: C2_2  and  C3_3 
REMARK    2  A    between atoms: C3_3  and  C4_4 
REMARK    3  A    between atoms: C4_4  and  C5_5 
REMARK    4  A    between atoms: C5_5  and  C6_6 
REMARK    5  A    between atoms: C9_10  and  N1_11 
REMARK    6  A    between atoms: C12_16  and  N3_17 
REMARK    7  A    between atoms: C16_27  and  O1_28 
ROOT
HETATM    1  N1  UNL     1      -4.494   2.396  14.184  1.00  0.00    -0.322 N 
HETATM    2  C10 UNL     1      -3.905   1.166  14.112  1.00  0.00     0.185 A 
HETATM    3  N2  UNL     1      -4.236   0.424  15.160  1.00  0.00    -0.346 N 
ATOM      4  H2  UNL     1      -3.934  -0.532  15.351  1.00  0.00     0.167 HD
HETATM    5  C11 UNL     1      -5.049   1.179  15.919  1.00  0.00     0.122 A 
HETATM    6  C12 UNL     1      -5.691   0.932  17.111  1.00  0.00     0.131 A 
HETATM    7  N4  UNL     1      -6.460   1.886  17.661  1.00  0.00    -0.337 N 
ATOM      8  H4  UNL     1      -6.940   1.711  18.544  1.00  0.00     0.168 HD
HETATM    9  C13 UNL     1      -6.596   3.075  17.041  1.00  0.00     0.183 A 
HETATM   10  N5  UNL     1      -5.974   3.336  15.870  1.00  0.00    -0.336 N 
ATOM     11  H5  UNL     1      -6.092   4.244  15.419  1.00  0.00     0.168 HD
HETATM   12  C14 UNL     1      -5.207   2.407  15.307  1.00  0.00     0.140 A 
ENDROOT
BRANCH   1  13
HETATM   13  C9  UNL     1      -4.320   3.433  13.177  1.00  0.00     0.095 C 
HETATM   14  C8  UNL     1      -3.294   4.421  13.602  1.00  0.00     0.027 C 
HETATM   15  C7  UNL     1      -2.337   4.846  12.551  1.00  0.00     0.015 C 
HETATM   16  C5  UNL     1      -2.916   5.042  11.188  1.00  0.00    -0.002 C 
HETATM   17  C16 UNL     1      -3.972   4.019  10.842  1.00  0.00     0.129 C 
HETATM   18  C15 UNL     1      -3.925   2.852  11.838  1.00  0.00     0.058 C 
BRANCH  16  19
HETATM   19  C4  UNL     1      -3.346   6.447  10.898  1.00  0.00     0.039 C 
BRANCH  19  20
HETATM   20  C3  UNL     1      -4.752   6.734  11.132  1.00  0.00    -0.030 C 
BRANCH  20  21
HETATM   21  C2  UNL     1      -5.207   7.458  12.150  1.00  0.00    -0.035 C 
HETATM   22  C1  UNL     1      -5.966   6.938  13.283  1.00  0.00     0.036 C 
ENDBRANCH  20  21
ENDBRANCH  19  20
ENDBRANCH  16  19
BRANCH  16  23
HETATM   23  C6  UNL     1      -1.755   4.784  10.209  1.00  0.00     0.097 C 
HETATM   24 BR1  UNL     1      -0.082   4.671  11.181  1.00  0.00    -0.096 Br
ENDBRANCH  16  23
BRANCH  17  25
HETATM   25  O1  UNL     1      -3.771   3.448   9.586  1.00  0.00    -0.395 OA
ATOM     26  H1  UNL     1      -4.489   2.884   9.324  1.00  0.00     0.210 HD
ENDBRANCH  17  25
ENDBRANCH   1  13
BRANCH   6  27
HETATM   27  N3  UNL     1      -5.548  -0.208  17.684  1.00  0.00    -0.383 N 
ATOM     28  H32 UNL     1      -4.988  -0.944  17.250  1.00  0.00     0.157 HD
ATOM     29  H31 UNL     1      -5.999  -0.381  18.582  1.00  0.00     0.157 HD
ENDBRANCH   6  27
TORSDOF 7
ENDMDL
MODEL 3
REMARK VINA RESULT: -6.020232529      1.035      1.948
REMARK  7 active torsions:
REMARK  status: ('A' for Active; 'I' for Inactive)
REMARK    1  A    between atoms: C2_2  and  C3_3 
REMARK    2  A    between atoms: C3_3  and  C4_4 
REMARK    3  A    between atoms: C4_4  and  C5_5 
REMARK    4  A    between atoms: C5_5  and  C6_6 
REMARK    5  A    between atoms: C9_10  and  N1_11 
REMARK    6  A    between atoms: C12_16  and  N3_17 
REMARK    7  A    between atoms: C16_27  and  O1_28 
ROOT
HETATM    1  N1  UNL     1      -3.752   3.942  12.601  1.00  0.00    -0.322 N 
HETATM    2  C10 UNL     1      -3.720   4.119  11.248  1.00  0.00     0.185 A 
HETATM    3  N2  UNL     1      -3.840   2.959  10.617  1.00  0.00    -0.346 N 
ATOM      4  H2  UNL     1      -3.846   2.810   9.608  1.00  0.00     0.167 HD
HETATM    5  C11 UNL     1      -3.951   2.019  11.572  1.00  0.00     0.122 A 
HETATM    6  C12 UNL     1      -4.100   0.652  11.507  1.00  0.00     0.131 A 
HETATM    7  N4  UNL     1      -4.189  -0.061  12.642  1.00  0.00    -0.337 N 
ATOM      8  H4  UNL     1      -4.299  -1.075  12.603  1.00  0.00     0.168 HD
HETATM    9  C13 UNL     1      -4.132   0.568  13.832  1.00  0.00     0.183 A 
HETATM   10  N5  UNL     1      -3.987   1.910  13.916  1.00  0.00    -0.336 N 
ATOM     11  H5  UNL     1      -3.946   2.364  14.829  1.00  0.00     0.168 HD
HETATM   12  C14 UNL     1      -3.897   2.635  12.806  1.00  0.00     0.140 A 
ENDROOT
BRANCH   1  13
HETATM   13  C9  UNL     1      -3.643   5.033  13.560  1.00  0.00     0.095 C 
HETATM   14  C8  UNL     1      -2.830   6.147  13.010  1.00  0.00     0.027 C 
HETATM   15  C7  UNL     1      -3.357   7.511  13.257  1.00  0.00     0.015 C 
HETATM   16  C5  UNL     1      -3.961   7.739  14.605  1.00  0.00    -0.002 C 
HETATM   17  C16 UNL     1      -4.745   6.550  15.108  1.00  0.00     0.129 C 
HETATM   18  C15 UNL     1      -5.001   5.561  13.963  1.00  0.00     0.058 C 
BRANCH  16  19
HETATM   19  C4  UNL     1      -3.007   8.283  15.622  1.00  0.00     0.039 C 
BRANCH  19  20
HETATM   20  C3  UNL     1      -1.713   8.701  15.108  1.00  0.00    -0.030 C 
BRANCH  20  21
HETATM   21  C2  UNL     1      -1.258   9.950  15.158  1.00  0.00    -0.035 C 
HETATM   22  C1  UNL     1      -1.864  11.096  14.488  1.00  0.00     0.036 C 
ENDBRANCH  20  21
ENDBRANCH  19  20
ENDBRANCH  16  19
BRANCH  16  23
HETATM   23  C6  UNL     1      -4.996   8.862  14.405  1.00  0.00     0.097 C 
HETATM   24 BR1  UNL     1      -4.881   9.555  12.599  1.00  0.00    -0.096 Br
ENDBRANCH  16  23
BRANCH  17  25
HETATM   25  O1  UNL     1      -6.006   6.906  15.584  1.00  0.00    -0.395 OA
ATOM     26  H1  UNL     1      -6.263   7.780  15.316  1.00  0.00     0.210 HD
ENDBRANCH  17  25
ENDBRANCH   1  13
BRANCH   6  27
HETATM   27  N3  UNL     1      -4.152   0.074  10.361  1.00  0.00    -0.383 N 
ATOM     28  H32 UNL     1      -4.313   0.614   9.511  1.00  0.00     0.157 HD
ATOM     29  H31 UNL     1      -4.032  -0.937  10.302  1.00  0.00     0.157 HD
ENDBRANCH   6  27
TORSDOF 7
ENDMDL
MODEL 4
REMARK VINA RESULT: -5.996955075      3.822      6.201
REMARK  7 active torsions:
REMARK  status: ('A' for Active; 'I' for Inactive)
REMARK    1  A    between atoms: C2_2  and  C3_3 
REMARK    2  A    between atoms: C3_3  and  C4_4 
REMARK    3  A    between atoms: C4_4  and  C5_5 
REMARK    4  A    between atoms: C5_5  and  C6_6 
REMARK    5  A    between atoms: C9_10  and  N1_11 
REMARK    6  A    between atoms: C12_16  and  N3_17 
REMARK    7  A    between atoms: C16_27  and  O1_28 
ROOT
HETATM    1  N1  UNL     1      -1.659   4.800  11.446  1.00  0.00    -0.322 N 
HETATM    2  C10 UNL     1      -2.275   5.631  10.555  1.00  0.00     0.185 A 
HETATM    3  N2  UNL     1      -1.396   6.154   9.712  1.00  0.00    -0.346 N 
ATOM      4  H2  UNL     1      -1.592   6.804   8.950  1.00  0.00     0.167 HD
HETATM    5  C11 UNL     1      -0.196   5.656  10.059  1.00  0.00     0.122 A 
HETATM    6  C12 UNL     1       1.065   5.846   9.541  1.00  0.00     0.131 A 
HETATM    7  N4  UNL     1       2.112   5.210  10.092  1.00  0.00    -0.337 N 
ATOM      8  H4  UNL     1       3.050   5.345   9.715  1.00  0.00     0.168 HD
HETATM    9  C13 UNL     1       1.917   4.394  11.147  1.00  0.00     0.183 A 
HETATM   10  N5  UNL     1       0.687   4.195  11.669  1.00  0.00    -0.336 N 
ATOM     11  H5  UNL     1       0.564   3.572  12.468  1.00  0.00     0.168 HD
HETATM   12  C14 UNL     1      -0.364   4.814  11.139  1.00  0.00     0.140 A 
ENDROOT
BRANCH   1  13
HETATM   13  C9  UNL     1      -2.363   4.079  12.497  1.00  0.00     0.095 C 
HETATM   14  C8  UNL     1      -2.229   4.774  13.803  1.00  0.00     0.027 C 
HETATM   15  C7  UNL     1      -3.466   4.858  14.617  1.00  0.00     0.015 C 
HETATM   16  C5  UNL     1      -4.334   3.642  14.604  1.00  0.00    -0.002 C 
HETATM   17  C16 UNL     1      -4.395   2.975  13.251  1.00  0.00     0.129 C 
HETATM   18  C15 UNL     1      -3.830   3.911  12.173  1.00  0.00     0.058 C 
BRANCH  16  19
HETATM   19  C4  UNL     1      -4.062   2.680  15.719  1.00  0.00     0.039 C 
BRANCH  19  20
HETATM   20  C3  UNL     1      -4.908   1.497  15.746  1.00  0.00    -0.030 C 
BRANCH  20  21
HETATM   21  C2  UNL     1      -5.497   1.026  16.841  1.00  0.00    -0.035 C 
HETATM   22  C1  UNL     1      -6.892   1.248  17.211  1.00  0.00     0.036 C 
ENDBRANCH  20  21
ENDBRANCH  19  20
ENDBRANCH  16  19
BRANCH  16  23
HETATM   23  C6  UNL     1      -5.761   4.156  14.876  1.00  0.00     0.097 C 
HETATM   24 BR1  UNL     1      -5.808   6.088  14.731  1.00  0.00    -0.096 Br
ENDBRANCH  16  23
BRANCH  17  25
HETATM   25  O1  UNL     1      -5.701   2.692  12.853  1.00  0.00    -0.395 OA
ATOM     26  H1  UNL     1      -5.791   1.815  12.497  1.00  0.00     0.210 HD
ENDBRANCH  17  25
ENDBRANCH   1  13
BRANCH   6  27
HETATM   27  N3  UNL     1       1.227   6.628   8.535  1.00  0.00    -0.383 N 
ATOM     28  H32 UNL     1       0.735   7.521   8.483  1.00  0.00     0.157 HD
ATOM     29  H31 UNL     1       1.854   6.354   7.779  1.00  0.00     0.157 HD
ENDBRANCH   6  27
TORSDOF 7
ENDMDL
MODEL 5
REMARK VINA RESULT: -5.992046778      1.809      3.051
REMARK  7 active torsions:
REMARK  status: ('A' for Active; 'I' for Inactive)
REMARK    1  A    between atoms: C2_2  and  C3_3 
REMARK    2  A    between atoms: C3_3  and  C4_4 
REMARK    3  A    between atoms: C4_4  and  C5_5 
REMARK    4  A    between atoms: C5_5  and  C6_6 
REMARK    5  A    between atoms: C9_10  and  N1_11 
REMARK    6  A    between atoms: C12_16  and  N3_17 
REMARK    7  A    between atoms: C16_27  and  O1_28 
ROOT
HETATM    1  N1  UNL     1      -3.753   3.871  12.359  1.00  0.00    -0.322 N 
HETATM    2  C10 UNL     1      -3.611   3.574  11.033  1.00  0.00     0.185 A 
HETATM    3  N2  UNL     1      -3.706   2.267  10.830  1.00  0.00    -0.346 N 
ATOM      4  H2  UNL     1      -3.637   1.781   9.936  1.00  0.00     0.167 HD
HETATM    5  C11 UNL     1      -3.911   1.710  12.037  1.00  0.00     0.122 A 
HETATM    6  C12 UNL     1      -4.083   0.403  12.431  1.00  0.00     0.131 A 
HETATM    7  N4  UNL     1      -4.276   0.120  13.730  1.00  0.00    -0.337 N 
ATOM      8  H4  UNL     1      -4.404  -0.846  14.031  1.00  0.00     0.168 HD
HETATM    9  C13 UNL     1      -4.298   1.120  14.634  1.00  0.00     0.183 A 
HETATM   10  N5  UNL     1      -4.132   2.410  14.266  1.00  0.00    -0.336 N 
ATOM     11  H5  UNL     1      -4.153   3.149  14.969  1.00  0.00     0.168 HD
HETATM   12  C14 UNL     1      -3.940   2.712  12.985  1.00  0.00     0.140 A 
ENDROOT
BRANCH   1  13
HETATM   13  C9  UNL     1      -3.695   5.224  12.893  1.00  0.00     0.095 C 
HETATM   14  C8  UNL     1      -2.945   5.260  14.174  1.00  0.00     0.027 C 
HETATM   15  C7  UNL     1      -1.995   6.389  14.332  1.00  0.00     0.015 C 
HETATM   16  C5  UNL     1      -2.461   7.707  13.803  1.00  0.00    -0.002 C 
HETATM   17  C16 UNL     1      -3.241   7.584  12.516  1.00  0.00     0.129 C 
HETATM   18  C15 UNL     1      -3.055   6.184  11.915  1.00  0.00     0.058 C 
BRANCH  16  19
HETATM   19  C4  UNL     1      -3.141   8.572  14.819  1.00  0.00     0.039 C 
BRANCH  19  20
HETATM   20  C3  UNL     1      -4.521   8.921  14.522  1.00  0.00    -0.030 C 
BRANCH  20  21
HETATM   21  C2  UNL     1      -5.571   8.437  15.179  1.00  0.00    -0.035 C 
HETATM   22  C1  UNL     1      -5.948   7.029  15.247  1.00  0.00     0.036 C 
ENDBRANCH  20  21
ENDBRANCH  19  20
ENDBRANCH  16  19
BRANCH  16  23
HETATM   23  C6  UNL     1      -1.178   8.477  13.436  1.00  0.00     0.097 C 
HETATM   24 BR1  UNL     1      -0.747   9.749  14.834  1.00  0.00    -0.096 Br
ENDBRANCH  16  23
BRANCH  17  25
HETATM   25  O1  UNL     1      -2.800   8.473  11.537  1.00  0.00    -0.395 OA
ATOM     26  H1  UNL     1      -3.463   8.650  10.881  1.00  0.00     0.210 HD
ENDBRANCH  17  25
ENDBRANCH   1  13
BRANCH   6  27
HETATM   27  N3  UNL     1      -4.058  -0.534  11.552  1.00  0.00    -0.383 N 
ATOM     28  H32 UNL     1      -3.228  -1.114  11.431  1.00  0.00     0.157 HD
ATOM     29  H31 UNL     1      -4.878  -0.699  10.969  1.00  0.00     0.157 HD
ENDBRANCH   6  27
TORSDOF 7
ENDMDL
