MODEL 1
REMARK VINA RESULT: -6.822013884      0.000      0.000
REMARK  6 active torsions:
REMARK  status: ('A' for Active; 'I' for Inactive)
REMARK    1  A    between atoms: C3_3  and  N1_5 
REMARK    2  A    between atoms: N1_5  and  C5_6 
REMARK    3  A    between atoms: C6_9  and  N3_10 
REMARK    4  A    between atoms: C10_16  and  S1_17 
REMARK    5  A    between atoms: S1_17  and  C11_18 
REMARK    6  A    between atoms: C17_26  and  N6_27 
ROOT
HETATM    1  C1  UNL     1      -6.374   2.063  18.285  1.00  0.00     0.015 C 
HETATM    2  C2  UNL     1      -5.940   1.892  17.175  1.00  0.00    -0.078 C 
HETATM    3  C3  UNL     1      -5.420   1.689  15.786  1.00  0.00     0.239 C 
HETATM    4  C4  UNL     1      -4.132   0.852  16.004  1.00  0.00     0.061 C 
ENDROOT
BRANCH   3   5
HETATM    5  N1  UNL     1      -5.197   2.810  15.091  1.00  0.00    -0.410 NA
BRANCH   5   6
HETATM    6  C5  UNL     1      -4.699   3.667  14.407  1.00  0.00     0.218 A 
HETATM    7  N2  UNL     1      -4.301   4.887  14.897  1.00  0.00    -0.162 N 
HETATM    8  C6  UNL     1      -3.751   5.847  14.163  1.00  0.00     0.682 A 
ATOM      9  H2  UNL     1      -4.437   5.066  15.892  1.00  0.00     0.187 HD
HETATM   10  N4  UNL     1      -3.545   5.672  12.850  1.00  0.00    -0.186 N 
HETATM   11  C9  UNL     1      -3.901   4.507  12.271  1.00  0.00     0.115 A 
ATOM     12  H4  UNL     1      -3.122   6.414  12.292  1.00  0.00     0.184 HD
HETATM   13  C10 UNL     1      -3.695   4.306  10.907  1.00  0.00     0.116 A 
HETATM   14  C18 UNL     1      -4.471   3.507  13.025  1.00  0.00     0.137 A 
HETATM   15  N5  UNL     1      -4.058   3.136  10.355  1.00  0.00    -0.184 N 
HETATM   16  C17 UNL     1      -4.617   2.148  11.074  1.00  0.00     0.677 A 
ATOM     17  H5  UNL     1      -3.906   2.994   9.357  1.00  0.00     0.185 HD
HETATM   18  N7  UNL     1      -4.800   2.382  12.396  1.00  0.00    -0.185 N 
ATOM     19  H7  UNL     1      -5.224   1.639  12.951  1.00  0.00     0.184 HD
BRANCH   8  20
HETATM   20  N3  UNL     1      -3.385   7.070  14.805  1.00  0.00    -0.226 N 
HETATM   21  C7  UNL     1      -2.093   7.688  14.603  1.00  0.00     0.168 C 
HETATM   22  C8  UNL     1      -4.365   7.681  15.681  1.00  0.00     0.168 C 
ENDBRANCH   8  20
BRANCH  13  23
HETATM   23  S1  UNL     1      -2.951   5.627   9.963  1.00  0.00    -0.104 SA
BRANCH  23  24
HETATM   24  C11 UNL     1      -3.033   5.180   8.202  1.00  0.00     0.054 C 
HETATM   25  C12 UNL     1      -3.649   6.345   7.462  1.00  0.00     0.015 C 
HETATM   26  C13 UNL     1      -3.795   6.041   5.983  1.00  0.00     0.001 C 
HETATM   27  C14 UNL     1      -2.516   5.539   5.390  1.00  0.00     0.000 C 
HETATM   28  C15 UNL     1      -1.365   5.551   6.371  1.00  0.00     0.001 C 
HETATM   29  C16 UNL     1      -1.682   4.824   7.647  1.00  0.00     0.015 C 
ENDBRANCH  23  24
ENDBRANCH  13  23
BRANCH  16  30
HETATM   30  N6  UNL     1      -4.976   1.006  10.549  1.00  0.00    -0.234 N 
ATOM     31  H62 UNL     1      -4.537   0.672   9.690  1.00  0.00     0.174 HD
ATOM     32  H61 UNL     1      -5.692   0.409  10.962  1.00  0.00     0.174 HD
ENDBRANCH  16  30
ENDBRANCH   5   6
ENDBRANCH   3   5
TORSDOF 6
ENDMDL
MODEL 2
REMARK VINA RESULT: -6.811046450      2.552      7.068
REMARK  6 active torsions:
REMARK  status: ('A' for Active; 'I' for Inactive)
REMARK    1  A    between atoms: C3_3  and  N1_5 
REMARK    2  A    between atoms: N1_5  and  C5_6 
REMARK    3  A    between atoms: C6_9  and  N3_10 
REMARK    4  A    between atoms: C10_16  and  S1_17 
REMARK    5  A    between atoms: S1_17  and  C11_18 
REMARK    6  A    between atoms: C17_26  and  N6_27 
ROOT
HETATM    1  C1  UNL     1       2.886   5.038  11.493  1.00  0.00     0.015 C 
HETATM    2  C2  UNL     1       1.845   4.708  10.985  1.00  0.00    -0.078 C 
HETATM    3  C3  UNL     1       0.550   4.280  10.368  1.00  0.00     0.239 C 
HETATM    4  C4  UNL     1       0.387   5.249   9.168  1.00  0.00     0.061 C 
ENDROOT
BRANCH   3   5
HETATM    5  N1  UNL     1      -0.505   4.293  11.190  1.00  0.00    -0.410 NA
BRANCH   5   6
HETATM    6  C5  UNL     1      -1.356   4.624  11.974  1.00  0.00     0.218 A 
HETATM    7  N2  UNL     1      -1.320   5.808  12.670  1.00  0.00    -0.162 N 
HETATM    8  C6  UNL     1      -2.247   6.195  13.540  1.00  0.00     0.682 A 
ATOM      9  H2  UNL     1      -0.530   6.431  12.507  1.00  0.00     0.187 HD
HETATM   10  N4  UNL     1      -3.311   5.420  13.797  1.00  0.00    -0.186 N 
HETATM   11  C9  UNL     1      -3.440   4.236  13.164  1.00  0.00     0.115 A 
ATOM     12  H4  UNL     1      -4.018   5.724  14.467  1.00  0.00     0.184 HD
HETATM   13  C10 UNL     1      -4.538   3.418  13.418  1.00  0.00     0.116 A 
HETATM   14  C18 UNL     1      -2.484   3.829  12.261  1.00  0.00     0.137 A 
HETATM   15  N5  UNL     1      -4.643   2.243  12.774  1.00  0.00    -0.184 N 
HETATM   16  C17 UNL     1      -3.721   1.827  11.889  1.00  0.00     0.677 A 
ATOM     17  H5  UNL     1      -5.449   1.648  12.964  1.00  0.00     0.185 HD
HETATM   18  N7  UNL     1      -2.668   2.651  11.670  1.00  0.00    -0.185 N 
ATOM     19  H7  UNL     1      -1.962   2.345  11.001  1.00  0.00     0.184 HD
BRANCH   8  20
HETATM   20  N3  UNL     1      -2.082   7.454  14.194  1.00  0.00    -0.226 N 
HETATM   21  C7  UNL     1      -0.878   8.243  14.051  1.00  0.00     0.168 C 
HETATM   22  C8  UNL     1      -3.177   7.924  15.020  1.00  0.00     0.168 C 
ENDBRANCH   8  20
BRANCH  13  23
HETATM   23  S1  UNL     1      -5.757   3.983  14.595  1.00  0.00    -0.104 SA
BRANCH  23  24
HETATM   24  C11 UNL     1      -5.583   2.992  16.110  1.00  0.00     0.054 C 
HETATM   25  C12 UNL     1      -6.856   2.196  16.286  1.00  0.00     0.015 C 
HETATM   26  C13 UNL     1      -6.815   1.367  17.555  1.00  0.00     0.001 C 
HETATM   27  C14 UNL     1      -5.562   0.556  17.649  1.00  0.00     0.000 C 
HETATM   28  C15 UNL     1      -4.688   0.674  16.420  1.00  0.00     0.001 C 
HETATM   29  C16 UNL     1      -4.375   2.099  16.065  1.00  0.00     0.015 C 
ENDBRANCH  23  24
ENDBRANCH  13  23
BRANCH  16  30
HETATM   30  N6  UNL     1      -3.810   0.686  11.257  1.00  0.00    -0.234 N 
ATOM     31  H62 UNL     1      -3.860  -0.190  11.777  1.00  0.00     0.174 HD
ATOM     32  H61 UNL     1      -3.835   0.619  10.240  1.00  0.00     0.174 HD
ENDBRANCH  16  30
ENDBRANCH   5   6
ENDBRANCH   3   5
TORSDOF 6
ENDMDL
MODEL 3
REMARK VINA RESULT: -6.805336535      2.032      7.616
REMARK  6 active torsions:
REMARK  status: ('A' for Active; 'I' for Inactive)
REMARK    1  A    between atoms: C3_3  and  N1_5 
REMARK    2  A    between atoms: N1_5  and  C5_6 
REMARK    3  A    between atoms: C6_9  and  N3_10 
REMARK    4  A    between atoms: C10_16  and  S1_17 
REMARK    5  A    between atoms: S1_17  and  C11_18 
REMARK    6  A    between atoms: C17_26  and  N6_27 
ROOT
HETATM    1  C1  UNL     1      -0.177   6.717   6.711  1.00  0.00     0.015 C 
HETATM    2  C2  UNL     1      -1.023   5.913   7.008  1.00  0.00    -0.078 C 
HETATM    3  C3  UNL     1      -2.058   4.899   7.384  1.00  0.00     0.239 C 
HETATM    4  C4  UNL     1      -3.371   5.498   6.815  1.00  0.00     0.061 C 
ENDROOT
BRANCH   3   5
HETATM    5  N1  UNL     1      -2.139   4.624   8.691  1.00  0.00    -0.410 NA
BRANCH   5   6
HETATM    6  C5  UNL     1      -2.152   4.708   9.892  1.00  0.00     0.218 A 
HETATM    7  N2  UNL     1      -1.305   5.525  10.599  1.00  0.00    -0.162 N 
HETATM    8  C6  UNL     1      -1.300   5.634  11.923  1.00  0.00     0.682 A 
ATOM      9  H2  UNL     1      -0.635   6.085  10.073  1.00  0.00     0.187 HD
HETATM   10  N4  UNL     1      -2.158   4.925  12.672  1.00  0.00    -0.186 N 
HETATM   11  C9  UNL     1      -3.033   4.093  12.072  1.00  0.00     0.115 A 
ATOM     12  H4  UNL     1      -2.148   5.014  13.688  1.00  0.00     0.184 HD
HETATM   13  C10 UNL     1      -3.932   3.348  12.832  1.00  0.00     0.116 A 
HETATM   14  C18 UNL     1      -3.044   3.975  10.701  1.00  0.00     0.137 A 
HETATM   15  N5  UNL     1      -4.793   2.526  12.210  1.00  0.00    -0.184 N 
HETATM   16  C17 UNL     1      -4.820   2.396  10.872  1.00  0.00     0.677 A 
ATOM     17  H5  UNL     1      -5.449   1.983  12.771  1.00  0.00     0.185 HD
HETATM   18  N7  UNL     1      -3.930   3.137  10.169  1.00  0.00    -0.185 N 
ATOM     19  H7  UNL     1      -3.941   3.046   9.153  1.00  0.00     0.184 HD
BRANCH   8  20
HETATM   20  N3  UNL     1      -0.361   6.524  12.529  1.00  0.00    -0.226 N 
HETATM   21  C7  UNL     1       1.049   6.487  12.211  1.00  0.00     0.168 C 
HETATM   22  C8  UNL     1      -0.876   7.481  13.490  1.00  0.00     0.168 C 
ENDBRANCH   8  20
BRANCH  13  23
HETATM   23  S1  UNL     1      -3.887   3.530  14.608  1.00  0.00    -0.104 SA
BRANCH  23  24
HETATM   24  C11 UNL     1      -5.116   2.398  15.325  1.00  0.00     0.054 C 
HETATM   25  C12 UNL     1      -4.426   1.596  16.405  1.00  0.00     0.015 C 
HETATM   26  C13 UNL     1      -5.371   0.590  17.032  1.00  0.00     0.001 C 
HETATM   27  C14 UNL     1      -6.656   1.226  17.461  1.00  0.00     0.000 C 
HETATM   28  C15 UNL     1      -6.666   2.726  17.264  1.00  0.00     0.001 C 
HETATM   29  C16 UNL     1      -6.314   3.130  15.861  1.00  0.00     0.015 C 
ENDBRANCH  23  24
ENDBRANCH  13  23
BRANCH  16  30
HETATM   30  N6  UNL     1      -5.652   1.599  10.255  1.00  0.00    -0.234 N 
ATOM     31  H62 UNL     1      -5.667   0.602  10.469  1.00  0.00     0.174 HD
ATOM     32  H61 UNL     1      -6.310   1.928   9.548  1.00  0.00     0.174 HD
ENDBRANCH  16  30
ENDBRANCH   5   6
ENDBRANCH   3   5
TORSDOF 6
ENDMDL
MODEL 4
REMARK VINA RESULT: -6.799169840      2.571      7.920
REMARK  6 active torsions:
REMARK  status: ('A' for Active; 'I' for Inactive)
REMARK    1  A    between atoms: C3_3  and  N1_5 
REMARK    2  A    between atoms: N1_5  and  C5_6 
REMARK    3  A    between atoms: C6_9  and  N3_10 
REMARK    4  A    between atoms: C10_16  and  S1_17 
REMARK    5  A    between atoms: S1_17  and  C11_18 
REMARK    6  A    between atoms: C17_26  and  N6_27 
ROOT
HETATM    1  C1  UNL     1       2.417   4.691  11.065  1.00  0.00     0.015 C 
HETATM    2  C2  UNL     1       1.287   4.742  10.653  1.00  0.00    -0.078 C 
HETATM    3  C3  UNL     1      -0.120   4.782  10.143  1.00  0.00     0.239 C 
HETATM    4  C4  UNL     1      -0.334   6.279   9.797  1.00  0.00     0.061 C 
ENDROOT
BRANCH   3   5
HETATM    5  N1  UNL     1      -1.046   4.308  10.984  1.00  0.00    -0.410 NA
BRANCH   5   6
HETATM    6  C5  UNL     1      -2.084   3.960  11.483  1.00  0.00     0.218 A 
HETATM    7  N2  UNL     1      -2.810   2.881  11.041  1.00  0.00    -0.162 N 
HETATM    8  C6  UNL     1      -3.957   2.478  11.575  1.00  0.00     0.682 A 
ATOM      9  H2  UNL     1      -2.442   2.354  10.249  1.00  0.00     0.187 HD
HETATM   10  N4  UNL     1      -4.492   3.128  12.619  1.00  0.00    -0.186 N 
HETATM   11  C9  UNL     1      -3.856   4.202  13.130  1.00  0.00     0.115 A 
ATOM     12  H4  UNL     1      -5.374   2.813  13.024  1.00  0.00     0.184 HD
HETATM   13  C10 UNL     1      -4.395   4.890  14.214  1.00  0.00     0.116 A 
HETATM   14  C18 UNL     1      -2.667   4.625  12.582  1.00  0.00     0.137 A 
HETATM   15  N5  UNL     1      -3.742   5.957  14.704  1.00  0.00    -0.184 N 
HETATM   16  C17 UNL     1      -2.580   6.386  14.183  1.00  0.00     0.677 A 
ATOM     17  H5  UNL     1      -4.141   6.458  15.498  1.00  0.00     0.185 HD
HETATM   18  N7  UNL     1      -2.088   5.690  13.130  1.00  0.00    -0.185 N 
ATOM     19  H7  UNL     1      -1.207   6.008  12.727  1.00  0.00     0.184 HD
BRANCH   8  20
HETATM   20  N3  UNL     1      -4.607   1.337  11.012  1.00  0.00    -0.226 N 
HETATM   21  C7  UNL     1      -5.679   1.460  10.050  1.00  0.00     0.168 C 
HETATM   22  C8  UNL     1      -4.149   0.030  11.442  1.00  0.00     0.168 C 
ENDBRANCH   8  20
BRANCH  13  23
HETATM   23  S1  UNL     1      -5.939   4.309  14.898  1.00  0.00    -0.104 SA
BRANCH  23  24
HETATM   24  C11 UNL     1      -5.561   3.158  16.254  1.00  0.00     0.054 C 
HETATM   25  C12 UNL     1      -6.840   2.436  16.614  1.00  0.00     0.015 C 
HETATM   26  C13 UNL     1      -6.624   1.481  17.771  1.00  0.00     0.001 C 
HETATM   27  C14 UNL     1      -5.452   0.580  17.537  1.00  0.00     0.000 C 
HETATM   28  C15 UNL     1      -4.829   0.764  16.172  1.00  0.00     0.001 C 
HETATM   29  C16 UNL     1      -4.467   2.194  15.887  1.00  0.00     0.015 C 
ENDBRANCH  23  24
ENDBRANCH  13  23
BRANCH  16  30
HETATM   30  N6  UNL     1      -1.934   7.423  14.650  1.00  0.00    -0.234 N 
ATOM     31  H62 UNL     1      -2.440   8.184  15.103  1.00  0.00     0.174 HD
ATOM     32  H61 UNL     1      -0.921   7.518  14.586  1.00  0.00     0.174 HD
ENDBRANCH  16  30
ENDBRANCH   5   6
ENDBRANCH   3   5
TORSDOF 6
ENDMDL
MODEL 5
REMARK VINA RESULT: -6.750081230      1.554      2.187
REMARK  6 active torsions:
REMARK  status: ('A' for Active; 'I' for Inactive)
REMARK    1  A    between atoms: C3_3  and  N1_5 
REMARK    2  A    between atoms: N1_5  and  C5_6 
REMARK    3  A    between atoms: C6_9  and  N3_10 
REMARK    4  A    between atoms: C10_16  and  S1_17 
REMARK    5  A    between atoms: S1_17  and  C11_18 
REMARK    6  A    between atoms: C17_26  and  N6_27 
ROOT
HETATM    1  C1  UNL     1      -6.021   1.760  18.270  1.00  0.00     0.015 C 
HETATM    2  C2  UNL     1      -5.678   1.732  17.116  1.00  0.00    -0.078 C 
HETATM    3  C3  UNL     1      -5.269   1.713  15.676  1.00  0.00     0.239 C 
HETATM    4  C4  UNL     1      -4.230   0.562  15.614  1.00  0.00     0.061 C 
ENDROOT
BRANCH   3   5
HETATM    5  N1  UNL     1      -4.790   2.869  15.204  1.00  0.00    -0.410 NA
BRANCH   5   6
HETATM    6  C5  UNL     1      -4.407   3.754  14.483  1.00  0.00     0.218 A 
HETATM    7  N2  UNL     1      -4.003   4.982  14.946  1.00  0.00    -0.162 N 
HETATM    8  C6  UNL     1      -3.578   5.973  14.170  1.00  0.00     0.682 A 
ATOM      9  H2  UNL     1      -4.030   5.143  15.952  1.00  0.00     0.187 HD
HETATM   10  N4  UNL     1      -3.517   5.823  12.839  1.00  0.00    -0.186 N 
HETATM   11  C9  UNL     1      -3.892   4.652  12.284  1.00  0.00     0.115 A 
ATOM     12  H4  UNL     1      -3.190   6.589  12.250  1.00  0.00     0.184 HD
HETATM   13  C10 UNL     1      -3.837   4.478  10.903  1.00  0.00     0.116 A 
HETATM   14  C18 UNL     1      -4.333   3.621  13.081  1.00  0.00     0.137 A 
HETATM   15  N5  UNL     1      -4.216   3.302  10.375  1.00  0.00    -0.184 N 
HETATM   16  C17 UNL     1      -4.650   2.283  11.136  1.00  0.00     0.677 A 
ATOM     17  H5  UNL     1      -4.174   3.179   9.364  1.00  0.00     0.185 HD
HETATM   18  N7  UNL     1      -4.689   2.492  12.474  1.00  0.00    -0.185 N 
ATOM     19  H7  UNL     1      -5.018   1.725  13.061  1.00  0.00     0.184 HD
BRANCH   8  20
HETATM   20  N3  UNL     1      -3.187   7.201  14.788  1.00  0.00    -0.226 N 
HETATM   21  C7  UNL     1      -1.865   7.761  14.616  1.00  0.00     0.168 C 
HETATM   22  C8  UNL     1      -4.174   7.878  15.606  1.00  0.00     0.168 C 
ENDBRANCH   8  20
BRANCH  13  23
HETATM   23  S1  UNL     1      -3.257   5.840   9.903  1.00  0.00    -0.104 SA
BRANCH  23  24
HETATM   24  C11 UNL     1      -4.696   6.598   9.090  1.00  0.00     0.054 C 
HETATM   25  C12 UNL     1      -5.601   7.142  10.172  1.00  0.00     0.015 C 
HETATM   26  C13 UNL     1      -6.854   7.758   9.582  1.00  0.00     0.001 C 
HETATM   27  C14 UNL     1      -6.534   8.736   8.496  1.00  0.00     0.000 C 
HETATM   28  C15 UNL     1      -5.048   8.953   8.315  1.00  0.00     0.001 C 
HETATM   29  C16 UNL     1      -4.295   7.669   8.115  1.00  0.00     0.015 C 
ENDBRANCH  23  24
ENDBRANCH  13  23
BRANCH  16  30
HETATM   30  N6  UNL     1      -5.023   1.134  10.635  1.00  0.00    -0.234 N 
ATOM     31  H62 UNL     1      -4.481   0.290  10.821  1.00  0.00     0.174 HD
ATOM     32  H61 UNL     1      -5.852   1.029  10.051  1.00  0.00     0.174 HD
ENDBRANCH  16  30
ENDBRANCH   5   6
ENDBRANCH   3   5
TORSDOF 6
ENDMDL
