MODEL 1
REMARK VINA RESULT: -7.510419683      0.000      0.000
REMARK  8 active torsions:
REMARK  status: ('A' for Active; 'I' for Inactive)
REMARK    1  A    between atoms: O1_1  and  C1_3 
REMARK    2  A    between atoms: C1_3  and  C2_4 
REMARK    3  A    between atoms: C3_6  and  O3_7 
REMARK    4  A    between atoms: O3_7  and  C4_8 
REMARK    5  A    between atoms: C7_11  and  C8_12 
REMARK    6  A    between atoms: C17_22  and  O4_23 
REMARK    7  A    between atoms: C18_25  and  O5_26 
REMARK    8  A    between atoms: C19_28  and  O6_29 
ROOT
HETATM    1  C2  UNL     1      -4.776   1.810  16.114  1.00  0.00     0.179 C 
HETATM    2  O2  UNL     1      -5.546   2.675  15.335  1.00  0.00    -0.348 OA
HETATM    3  C3  UNL     1      -4.735   3.269  14.349  1.00  0.00     0.298 C 
HETATM    4  C17 UNL     1      -4.309   2.211  13.323  1.00  0.00     0.205 C 
HETATM    5  C18 UNL     1      -4.696   0.860  13.867  1.00  0.00     0.183 C 
HETATM    6  C19 UNL     1      -4.169   0.736  15.265  1.00  0.00     0.180 C 
ENDROOT
BRANCH   3   7
HETATM    7  O3  UNL     1      -5.555   4.186  13.684  1.00  0.00    -0.318 OA
BRANCH   7   8
HETATM    8  C4  UNL     1      -5.358   5.547  13.574  1.00  0.00     0.073 A 
HETATM    9  C5  UNL     1      -4.478   6.130  12.694  1.00  0.00     0.037 A 
HETATM   10  C6  UNL     1      -4.346   7.528  12.654  1.00  0.00     0.012 A 
HETATM   11  C7  UNL     1      -5.067   8.361  13.470  1.00  0.00    -0.032 A 
HETATM   12  C15 UNL     1      -5.950   7.757  14.351  1.00  0.00     0.043 A 
HETATM   13 CL1  UNL     1      -6.905   8.722  15.430  1.00  0.00    -0.084 Cl
HETATM   14  C16 UNL     1      -6.092   6.394  14.403  1.00  0.00     0.061 A 
BRANCH  11  15
HETATM   15  C8  UNL     1      -4.920   9.829  13.404  1.00  0.00     0.020 C 
HETATM   16  C9  UNL     1      -3.956  10.270  14.446  1.00  0.00     0.009 C 
HETATM   17  C10 UNL     1      -2.519  10.320  14.087  1.00  0.00     0.001 C 
HETATM   18  C11 UNL     1      -2.140  11.713  13.697  1.00  0.00     0.000 C 
HETATM   19  C12 UNL     1      -3.176  12.240  12.748  1.00  0.00     0.000 C 
HETATM   20  C13 UNL     1      -3.457  11.129  11.773  1.00  0.00     0.001 C 
HETATM   21  C14 UNL     1      -4.741  10.383  12.055  1.00  0.00     0.009 C 
ENDBRANCH  11  15
ENDBRANCH   7   8
ENDBRANCH   3   7
BRANCH   4  22
HETATM   22  O4  UNL     1      -4.976   2.413  12.109  1.00  0.00    -0.388 OA
ATOM     23  H4  UNL     1      -4.638   1.824  11.443  1.00  0.00     0.210 HD
ENDBRANCH   4  22
BRANCH   1  24
HETATM   24  C1  UNL     1      -5.683   1.281  17.201  1.00  0.00     0.198 C 
BRANCH  24  25
HETATM   25  O1  UNL     1      -6.767   0.588  16.679  1.00  0.00    -0.398 OA
ATOM     26  H1  UNL     1      -7.305   0.205  17.362  1.00  0.00     0.209 HD
ENDBRANCH  24  25
ENDBRANCH   1  24
BRANCH   5  27
HETATM   27  O5  UNL     1      -4.175  -0.142  13.040  1.00  0.00    -0.390 OA
ATOM     28  H5  UNL     1      -3.234  -0.195  13.159  1.00  0.00     0.210 HD
ENDBRANCH   5  27
BRANCH   6  29
HETATM   29  O6  UNL     1      -4.402  -0.535  15.797  1.00  0.00    -0.390 OA
ATOM     30  H6  UNL     1      -5.195  -0.558  16.319  1.00  0.00     0.210 HD
ENDBRANCH   6  29
TORSDOF 8
ENDMDL
MODEL 2
REMARK VINA RESULT: -7.227816221      1.413      1.927
REMARK  8 active torsions:
REMARK  status: ('A' for Active; 'I' for Inactive)
REMARK    1  A    between atoms: O1_1  and  C1_3 
REMARK    2  A    between atoms: C1_3  and  C2_4 
REMARK    3  A    between atoms: C3_6  and  O3_7 
REMARK    4  A    between atoms: O3_7  and  C4_8 
REMARK    5  A    between atoms: C7_11  and  C8_12 
REMARK    6  A    between atoms: C17_22  and  O4_23 
REMARK    7  A    between atoms: C18_25  and  O5_26 
REMARK    8  A    between atoms: C19_28  and  O6_29 
ROOT
HETATM    1  C2  UNL     1      -3.884   1.630  13.884  1.00  0.00     0.179 C 
HETATM    2  O2  UNL     1      -4.531   2.788  13.449  1.00  0.00    -0.348 OA
HETATM    3  C3  UNL     1      -3.881   3.289  12.305  1.00  0.00     0.298 C 
HETATM    4  C17 UNL     1      -4.103   2.337  11.123  1.00  0.00     0.205 C 
HETATM    5  C18 UNL     1      -4.724   1.073  11.661  1.00  0.00     0.183 C 
HETATM    6  C19 UNL     1      -3.898   0.584  12.813  1.00  0.00     0.180 C 
ENDROOT
BRANCH   3   7
HETATM    7  O3  UNL     1      -4.526   4.491  11.998  1.00  0.00    -0.318 OA
BRANCH   7   8
HETATM    8  C4  UNL     1      -4.262   5.735  12.533  1.00  0.00     0.073 A 
HETATM    9  C5  UNL     1      -3.147   6.482  12.237  1.00  0.00     0.037 A 
HETATM   10  C6  UNL     1      -2.966   7.740  12.833  1.00  0.00     0.012 A 
HETATM   11  C7  UNL     1      -3.865   8.274  13.720  1.00  0.00    -0.032 A 
HETATM   12  C15 UNL     1      -4.983   7.508  14.007  1.00  0.00     0.043 A 
HETATM   13 CL1  UNL     1      -6.178   8.089  15.122  1.00  0.00    -0.084 Cl
HETATM   14  C16 UNL     1      -5.177   6.277  13.434  1.00  0.00     0.061 A 
BRANCH  11  15
HETATM   15  C8  UNL     1      -3.659   9.604  14.328  1.00  0.00     0.020 C 
HETATM   16  C9  UNL     1      -2.301   9.660  14.929  1.00  0.00     0.009 C 
HETATM   17  C10 UNL     1      -1.179  10.110  14.072  1.00  0.00     0.001 C 
HETATM   18  C11 UNL     1      -0.918  11.565  14.299  1.00  0.00     0.000 C 
HETATM   19  C12 UNL     1      -2.229  12.294  14.272  1.00  0.00     0.000 C 
HETATM   20  C13 UNL     1      -2.997  11.737  13.104  1.00  0.00     0.001 C 
HETATM   21  C14 UNL     1      -4.066  10.745  13.496  1.00  0.00     0.009 C 
ENDBRANCH  11  15
ENDBRANCH   7   8
ENDBRANCH   3   7
BRANCH   4  22
HETATM   22  O4  UNL     1      -4.982   2.907  10.196  1.00  0.00    -0.388 OA
ATOM     23  H4  UNL     1      -5.187   3.803  10.439  1.00  0.00     0.210 HD
ENDBRANCH   4  22
BRANCH   1  24
HETATM   24  C1  UNL     1      -4.573   1.200  15.158  1.00  0.00     0.198 C 
BRANCH  24  25
HETATM   25  O1  UNL     1      -3.684   0.637  16.064  1.00  0.00    -0.398 OA
ATOM     26  H1  UNL     1      -3.843  -0.292  16.186  1.00  0.00     0.209 HD
ENDBRANCH  24  25
ENDBRANCH   1  24
BRANCH   5  27
HETATM   27  O5  UNL     1      -4.788   0.115  10.642  1.00  0.00    -0.390 OA
ATOM     28  H5  UNL     1      -5.497  -0.492  10.823  1.00  0.00     0.210 HD
ENDBRANCH   5  27
BRANCH   6  29
HETATM   29  O6  UNL     1      -4.357  -0.644  13.297  1.00  0.00    -0.390 OA
ATOM     30  H6  UNL     1      -4.384  -1.303  12.614  1.00  0.00     0.210 HD
ENDBRANCH   6  29
TORSDOF 8
ENDMDL
MODEL 3
REMARK VINA RESULT: -7.036650801      1.647      2.196
REMARK  8 active torsions:
REMARK  status: ('A' for Active; 'I' for Inactive)
REMARK    1  A    between atoms: O1_1  and  C1_3 
REMARK    2  A    between atoms: C1_3  and  C2_4 
REMARK    3  A    between atoms: C3_6  and  O3_7 
REMARK    4  A    between atoms: O3_7  and  C4_8 
REMARK    5  A    between atoms: C7_11  and  C8_12 
REMARK    6  A    between atoms: C17_22  and  O4_23 
REMARK    7  A    between atoms: C18_25  and  O5_26 
REMARK    8  A    between atoms: C19_28  and  O6_29 
ROOT
HETATM    1  C2  UNL     1      -4.578   1.653  16.422  1.00  0.00     0.179 C 
HETATM    2  O2  UNL     1      -5.220   2.774  15.894  1.00  0.00    -0.348 OA
HETATM    3  C3  UNL     1      -4.343   3.452  15.026  1.00  0.00     0.298 C 
HETATM    4  C17 UNL     1      -4.098   2.606  13.771  1.00  0.00     0.205 C 
HETATM    5  C18 UNL     1      -4.676   1.237  14.019  1.00  0.00     0.183 C 
HETATM    6  C19 UNL     1      -4.153   0.723  15.327  1.00  0.00     0.180 C 
ENDROOT
BRANCH   3   7
HETATM    7  O3  UNL     1      -5.025   4.606  14.623  1.00  0.00    -0.318 OA
BRANCH   7   8
HETATM    8  C4  UNL     1      -4.481   5.850  14.382  1.00  0.00     0.073 A 
HETATM    9  C5  UNL     1      -5.179   7.030  14.481  1.00  0.00     0.037 A 
HETATM   10  C6  UNL     1      -4.538   8.251  14.215  1.00  0.00     0.012 A 
HETATM   11  C7  UNL     1      -3.218   8.327  13.851  1.00  0.00    -0.032 A 
HETATM   12  C15 UNL     1      -2.529   7.129  13.756  1.00  0.00     0.043 A 
HETATM   13 CL1  UNL     1      -0.856   7.116  13.296  1.00  0.00    -0.084 Cl
HETATM   14  C16 UNL     1      -3.139   5.928  14.013  1.00  0.00     0.061 A 
BRANCH  11  15
HETATM   15  C8  UNL     1      -2.560   9.623  13.586  1.00  0.00     0.020 C 
HETATM   16  C9  UNL     1      -2.772   9.995  12.162  1.00  0.00     0.009 C 
HETATM   17  C10 UNL     1      -3.982  10.778  11.820  1.00  0.00     0.001 C 
HETATM   18  C11 UNL     1      -3.644  12.232  11.748  1.00  0.00     0.000 C 
HETATM   19  C12 UNL     1      -2.827  12.592  12.954  1.00  0.00     0.000 C 
HETATM   20  C13 UNL     1      -3.495  11.929  14.128  1.00  0.00     0.001 C 
HETATM   21  C14 UNL     1      -2.804  10.668  14.590  1.00  0.00     0.009 C 
ENDBRANCH  11  15
ENDBRANCH   7   8
ENDBRANCH   3   7
BRANCH   4  22
HETATM   22  O4  UNL     1      -4.744   3.172  12.666  1.00  0.00    -0.388 OA
ATOM     23  H4  UNL     1      -5.280   2.522  12.226  1.00  0.00     0.210 HD
ENDBRANCH   4  22
BRANCH   1  24
HETATM   24  C1  UNL     1      -5.538   1.027  17.407  1.00  0.00     0.198 C 
BRANCH  24  25
HETATM   25  O1  UNL     1      -6.721   0.631  16.797  1.00  0.00    -0.398 OA
ATOM     26  H1  UNL     1      -6.736  -0.304  16.627  1.00  0.00     0.209 HD
ENDBRANCH  24  25
ENDBRANCH   1  24
BRANCH   5  27
HETATM   27  O5  UNL     1      -4.326   0.384  12.965  1.00  0.00    -0.390 OA
ATOM     28  H5  UNL     1      -5.024  -0.243  12.819  1.00  0.00     0.210 HD
ENDBRANCH   5  27
BRANCH   6  29
HETATM   29  O6  UNL     1      -4.568  -0.588  15.573  1.00  0.00    -0.390 OA
ATOM     30  H6  UNL     1      -3.957  -1.222  15.217  1.00  0.00     0.210 HD
ENDBRANCH   6  29
TORSDOF 8
ENDMDL
MODEL 4
REMARK VINA RESULT: -6.956389493      1.345      1.617
REMARK  8 active torsions:
REMARK  status: ('A' for Active; 'I' for Inactive)
REMARK    1  A    between atoms: O1_1  and  C1_3 
REMARK    2  A    between atoms: C1_3  and  C2_4 
REMARK    3  A    between atoms: C3_6  and  O3_7 
REMARK    4  A    between atoms: O3_7  and  C4_8 
REMARK    5  A    between atoms: C7_11  and  C8_12 
REMARK    6  A    between atoms: C17_22  and  O4_23 
REMARK    7  A    between atoms: C18_25  and  O5_26 
REMARK    8  A    between atoms: C19_28  and  O6_29 
ROOT
HETATM    1  C2  UNL     1      -4.759   1.704  16.475  1.00  0.00     0.179 C 
HETATM    2  O2  UNL     1      -5.441   2.755  15.858  1.00  0.00    -0.348 OA
HETATM    3  C3  UNL     1      -4.568   3.435  14.989  1.00  0.00     0.298 C 
HETATM    4  C17 UNL     1      -4.221   2.537  13.794  1.00  0.00     0.205 C 
HETATM    5  C18 UNL     1      -4.731   1.152  14.098  1.00  0.00     0.183 C 
HETATM    6  C19 UNL     1      -4.236   0.743  15.453  1.00  0.00     0.180 C 
ENDROOT
BRANCH   3   7
HETATM    7  O3  UNL     1      -5.297   4.522  14.493  1.00  0.00    -0.318 OA
BRANCH   7   8
HETATM    8  C4  UNL     1      -4.790   5.722  14.036  1.00  0.00     0.073 A 
HETATM    9  C5  UNL     1      -3.738   6.387  14.619  1.00  0.00     0.037 A 
HETATM   10  C6  UNL     1      -3.292   7.605  14.082  1.00  0.00     0.012 A 
HETATM   11  C7  UNL     1      -3.869   8.180  12.979  1.00  0.00    -0.032 A 
HETATM   12  C15 UNL     1      -4.928   7.496  12.403  1.00  0.00     0.043 A 
HETATM   13 CL1  UNL     1      -5.731   8.142  11.008  1.00  0.00    -0.084 Cl
HETATM   14  C16 UNL     1      -5.376   6.305  12.915  1.00  0.00     0.061 A 
BRANCH  11  15
HETATM   15  C8  UNL     1      -3.377   9.457  12.423  1.00  0.00     0.020 C 
HETATM   16  C9  UNL     1      -4.181  10.575  12.984  1.00  0.00     0.009 C 
HETATM   17  C10 UNL     1      -3.724  11.192  14.252  1.00  0.00     0.001 C 
HETATM   18  C11 UNL     1      -2.928  12.423  13.960  1.00  0.00     0.000 C 
HETATM   19  C12 UNL     1      -1.942  12.107  12.875  1.00  0.00     0.000 C 
HETATM   20  C13 UNL     1      -1.347  10.770  13.224  1.00  0.00     0.001 C 
HETATM   21  C14 UNL     1      -1.917   9.622  12.424  1.00  0.00     0.009 C 
ENDBRANCH  11  15
ENDBRANCH   7   8
ENDBRANCH   3   7
BRANCH   4  22
HETATM   22  O4  UNL     1      -4.851   3.002  12.635  1.00  0.00    -0.388 OA
ATOM     23  H4  UNL     1      -4.293   2.868  11.877  1.00  0.00     0.210 HD
ENDBRANCH   4  22
BRANCH   1  24
HETATM   24  C1  UNL     1      -5.724   1.078  17.456  1.00  0.00     0.198 C 
BRANCH  24  25
HETATM   25  O1  UNL     1      -6.840   0.550  16.819  1.00  0.00    -0.398 OA
ATOM     26  H1  UNL     1      -6.599  -0.036  16.112  1.00  0.00     0.209 HD
ENDBRANCH  24  25
ENDBRANCH   1  24
BRANCH   5  27
HETATM   27  O5  UNL     1      -4.288   0.265  13.109  1.00  0.00    -0.390 OA
ATOM     28  H5  UNL     1      -3.807  -0.448  13.515  1.00  0.00     0.210 HD
ENDBRANCH   5  27
BRANCH   6  29
HETATM   29  O6  UNL     1      -4.586  -0.575  15.757  1.00  0.00    -0.390 OA
ATOM     30  H6  UNL     1      -3.981  -0.965  16.378  1.00  0.00     0.210 HD
ENDBRANCH   6  29
TORSDOF 8
ENDMDL
MODEL 5
REMARK VINA RESULT: -6.884909162      1.533      1.872
REMARK  8 active torsions:
REMARK  status: ('A' for Active; 'I' for Inactive)
REMARK    1  A    between atoms: O1_1  and  C1_3 
REMARK    2  A    between atoms: C1_3  and  C2_4 
REMARK    3  A    between atoms: C3_6  and  O3_7 
REMARK    4  A    between atoms: O3_7  and  C4_8 
REMARK    5  A    between atoms: C7_11  and  C8_12 
REMARK    6  A    between atoms: C17_22  and  O4_23 
REMARK    7  A    between atoms: C18_25  and  O5_26 
REMARK    8  A    between atoms: C19_28  and  O6_29 
ROOT
HETATM    1  C2  UNL     1      -4.798   1.669  16.478  1.00  0.00     0.179 C 
HETATM    2  O2  UNL     1      -5.529   2.716  15.916  1.00  0.00    -0.348 OA
HETATM    3  C3  UNL     1      -4.694   3.474  15.073  1.00  0.00     0.298 C 
HETATM    4  C17 UNL     1      -4.320   2.648  13.835  1.00  0.00     0.205 C 
HETATM    5  C18 UNL     1      -4.767   1.229  14.077  1.00  0.00     0.183 C 
HETATM    6  C19 UNL     1      -4.243   0.779  15.407  1.00  0.00     0.180 C 
ENDROOT
BRANCH   3   7
HETATM    7  O3  UNL     1      -5.472   4.550  14.635  1.00  0.00    -0.318 OA
BRANCH   7   8
HETATM    8  C4  UNL     1      -5.022   5.788  14.226  1.00  0.00     0.073 A 
HETATM    9  C5  UNL     1      -5.685   6.593  13.331  1.00  0.00     0.037 A 
HETATM   10  C6  UNL     1      -5.146   7.841  12.974  1.00  0.00     0.012 A 
HETATM   11  C7  UNL     1      -3.962   8.306  13.485  1.00  0.00    -0.032 A 
HETATM   12  C15 UNL     1      -3.307   7.482  14.386  1.00  0.00     0.043 A 
HETATM   13 CL1  UNL     1      -1.798   7.976  15.085  1.00  0.00    -0.084 Cl
HETATM   14  C16 UNL     1      -3.819   6.262  14.745  1.00  0.00     0.061 A 
BRANCH  11  15
HETATM   15  C8  UNL     1      -3.419   9.626  13.104  1.00  0.00     0.020 C 
HETATM   16  C9  UNL     1      -2.332   9.437  12.108  1.00  0.00     0.009 C 
HETATM   17  C10 UNL     1      -2.702   9.409  10.673  1.00  0.00     0.001 C 
HETATM   18  C11 UNL     1      -2.494  10.761  10.068  1.00  0.00     0.000 C 
HETATM   19  C12 UNL     1      -3.092  11.789  10.983  1.00  0.00     0.000 C 
HETATM   20  C13 UNL     1      -4.426  11.243  11.414  1.00  0.00     0.001 C 
HETATM   21  C14 UNL     1      -4.423  10.657  12.806  1.00  0.00     0.009 C 
ENDBRANCH  11  15
ENDBRANCH   7   8
ENDBRANCH   3   7
BRANCH   4  22
HETATM   22  O4  UNL     1      -4.980   3.139  12.703  1.00  0.00    -0.388 OA
ATOM     23  H4  UNL     1      -4.503   2.907  11.914  1.00  0.00     0.210 HD
ENDBRANCH   4  22
BRANCH   1  24
HETATM   24  C1  UNL     1      -5.725   0.956  17.435  1.00  0.00     0.198 C 
BRANCH  24  25
HETATM   25  O1  UNL     1      -6.891   0.534  16.809  1.00  0.00    -0.398 OA
ATOM     26  H1  UNL     1      -7.661   0.719  17.332  1.00  0.00     0.209 HD
ENDBRANCH  24  25
ENDBRANCH   1  24
BRANCH   5  27
HETATM   27  O5  UNL     1      -4.296   0.409  13.045  1.00  0.00    -0.390 OA
ATOM     28  H5  UNL     1      -4.490  -0.499  13.248  1.00  0.00     0.210 HD
ENDBRANCH   5  27
BRANCH   6  29
HETATM   29  O6  UNL     1      -4.534  -0.566  15.653  1.00  0.00    -0.390 OA
ATOM     30  H6  UNL     1      -5.017  -0.957  14.935  1.00  0.00     0.210 HD
ENDBRANCH   6  29
TORSDOF 8
ENDMDL
