MODEL 1
REMARK VINA RESULT: -6.818857653      0.000      0.000
REMARK  5 active torsions:
REMARK  status: ('A' for Active; 'I' for Inactive)
REMARK    1  A    between atoms: C2_2  and  O1_4 
REMARK    2  A    between atoms: O1_4  and  C4_5 
REMARK    3  A    between atoms: C4_5  and  C6_7 
REMARK    4  A    between atoms: C9_11  and  O2_12 
REMARK    5  A    between atoms: C11_15  and  O3_16 
ROOT
HETATM    1  C6  UNL     1       8.043 -27.317  16.768  1.00  0.00     0.005 A 
HETATM    2  C7  UNL     1       8.662 -26.106  16.431  1.00  0.00     0.034 A 
HETATM    3  C8  UNL     1       9.486 -26.009  15.330  1.00  0.00     0.044 A 
HETATM    4 BR1  UNL     1      10.340 -24.348  14.856  1.00  0.00    -0.048 Br
HETATM    5  C9  UNL     1       9.745 -27.082  14.508  1.00  0.00     0.085 A 
HETATM    6  C10 UNL     1       9.148 -28.282  14.819  1.00  0.00     0.075 A 
HETATM    7  C11 UNL     1       8.317 -28.386  15.929  1.00  0.00     0.077 A 
ENDROOT
BRANCH   1   8
HETATM    8  C4  UNL     1       7.142 -27.375  17.939  1.00  0.00     0.153 C 
HETATM    9  C5  UNL     1       6.485 -25.990  18.087  1.00  0.00     0.045 C 
BRANCH   8  10
HETATM   10  O1  UNL     1       6.088 -28.278  17.787  1.00  0.00    -0.377 OA
BRANCH  10  11
HETATM   11  C2  UNL     1       5.714 -28.756  19.036  1.00  0.00     0.114 C 
HETATM   12  C1  UNL     1       4.630 -29.828  18.889  1.00  0.00     0.039 C 
HETATM   13  C3  UNL     1       6.874 -29.419  19.742  1.00  0.00     0.039 C 
ENDBRANCH  10  11
ENDBRANCH   8  10
ENDBRANCH   1   8
BRANCH   7  14
HETATM   14  O3  UNL     1       7.737 -29.605  16.210  1.00  0.00    -0.360 OA
ATOM     15  H3  UNL     1       8.199 -30.394  15.952  1.00  0.00     0.217 HD
ENDBRANCH   7  14
BRANCH   5  16
HETATM   16  O2  UNL     1      10.576 -26.984  13.399  1.00  0.00    -0.359 OA
ATOM     17  H2  UNL     1      10.880 -27.748  12.923  1.00  0.00     0.217 HD
ENDBRANCH   5  16
TORSDOF 5
ENDMDL
MODEL 2
REMARK VINA RESULT: -6.559814740      2.836      5.410
REMARK  5 active torsions:
REMARK  status: ('A' for Active; 'I' for Inactive)
REMARK    1  A    between atoms: C2_2  and  O1_4 
REMARK    2  A    between atoms: O1_4  and  C4_5 
REMARK    3  A    between atoms: C4_5  and  C6_7 
REMARK    4  A    between atoms: C9_11  and  O2_12 
REMARK    5  A    between atoms: C11_15  and  O3_16 
ROOT
HETATM    1  C6  UNL     1       8.247 -28.004  17.624  1.00  0.00     0.005 A 
HETATM    2  C7  UNL     1       7.526 -27.488  18.708  1.00  0.00     0.034 A 
HETATM    3  C8  UNL     1       7.422 -28.185  19.893  1.00  0.00     0.044 A 
HETATM    4 BR1  UNL     1       6.434 -27.484  21.391  1.00  0.00    -0.048 Br
HETATM    5  C9  UNL     1       8.014 -29.415  20.077  1.00  0.00     0.085 A 
HETATM    6  C10 UNL     1       8.729 -29.942  19.026  1.00  0.00     0.075 A 
HETATM    7  C11 UNL     1       8.836 -29.242  17.829  1.00  0.00     0.077 A 
ENDROOT
BRANCH   1   8
HETATM    8  C4  UNL     1       8.361 -27.213  16.380  1.00  0.00     0.153 C 
HETATM    9  C5  UNL     1       7.986 -25.759  16.720  1.00  0.00     0.045 C 
BRANCH   8  10
HETATM   10  O1  UNL     1       9.660 -27.159  15.871  1.00  0.00    -0.377 OA
BRANCH  10  11
HETATM   11  C2  UNL     1       9.603 -26.964  14.498  1.00  0.00     0.114 C 
HETATM   12  C1  UNL     1      10.874 -26.261  14.010  1.00  0.00     0.039 C 
HETATM   13  C3  UNL     1       9.536 -28.280  13.758  1.00  0.00     0.039 C 
ENDBRANCH  10  11
ENDBRANCH   8  10
ENDBRANCH   1   8
BRANCH   7  14
HETATM   14  O3  UNL     1       9.558 -29.803  16.797  1.00  0.00    -0.360 OA
ATOM     15  H3  UNL     1      10.434 -30.124  16.981  1.00  0.00     0.217 HD
ENDBRANCH   7  14
BRANCH   5  16
HETATM   16  O2  UNL     1       7.910 -30.117  21.271  1.00  0.00    -0.359 OA
ATOM     17  H2  UNL     1       8.193 -31.020  21.355  1.00  0.00     0.217 HD
ENDBRANCH   5  16
TORSDOF 5
ENDMDL
MODEL 3
REMARK VINA RESULT: -6.522577990      1.666      1.941
REMARK  5 active torsions:
REMARK  status: ('A' for Active; 'I' for Inactive)
REMARK    1  A    between atoms: C2_2  and  O1_4 
REMARK    2  A    between atoms: O1_4  and  C4_5 
REMARK    3  A    between atoms: C4_5  and  C6_7 
REMARK    4  A    between atoms: C9_11  and  O2_12 
REMARK    5  A    between atoms: C11_15  and  O3_16 
ROOT
HETATM    1  C6  UNL     1       8.113 -26.672  16.801  1.00  0.00     0.005 A 
HETATM    2  C7  UNL     1       8.939 -25.841  16.033  1.00  0.00     0.034 A 
HETATM    3  C8  UNL     1       9.601 -26.323  14.924  1.00  0.00     0.044 A 
HETATM    4 BR1  UNL     1      10.739 -25.189  13.859  1.00  0.00    -0.048 Br
HETATM    5  C9  UNL     1       9.490 -27.632  14.511  1.00  0.00     0.085 A 
HETATM    6  C10 UNL     1       8.683 -28.467  15.250  1.00  0.00     0.075 A 
HETATM    7  C11 UNL     1       8.014 -27.985  16.370  1.00  0.00     0.077 A 
ENDROOT
BRANCH   1   8
HETATM    8  C4  UNL     1       7.395 -26.112  17.966  1.00  0.00     0.153 C 
HETATM    9  C5  UNL     1       5.941 -25.850  17.532  1.00  0.00     0.045 C 
BRANCH   8  10
HETATM   10  O1  UNL     1       7.315 -26.991  19.047  1.00  0.00    -0.377 OA
BRANCH  10  11
HETATM   11  C2  UNL     1       6.778 -26.324  20.139  1.00  0.00     0.114 C 
HETATM   12  C1  UNL     1       6.487 -27.312  21.273  1.00  0.00     0.039 C 
HETATM   13  C3  UNL     1       7.752 -25.312  20.698  1.00  0.00     0.039 C 
ENDBRANCH  10  11
ENDBRANCH   8  10
ENDBRANCH   1   8
BRANCH   7  14
HETATM   14  O3  UNL     1       7.216 -28.852  17.086  1.00  0.00    -0.360 OA
ATOM     15  H3  UNL     1       6.839 -29.598  16.634  1.00  0.00     0.217 HD
ENDBRANCH   7  14
BRANCH   5  16
HETATM   16  O2  UNL     1      10.158 -28.117  13.394  1.00  0.00    -0.359 OA
ATOM     17  H2  UNL     1      10.395 -29.032  13.302  1.00  0.00     0.217 HD
ENDBRANCH   5  16
TORSDOF 5
ENDMDL
MODEL 4
REMARK VINA RESULT: -6.323648895      2.476      5.417
REMARK  5 active torsions:
REMARK  status: ('A' for Active; 'I' for Inactive)
REMARK    1  A    between atoms: C2_2  and  O1_4 
REMARK    2  A    between atoms: O1_4  and  C4_5 
REMARK    3  A    between atoms: C4_5  and  C6_7 
REMARK    4  A    between atoms: C9_11  and  O2_12 
REMARK    5  A    between atoms: C11_15  and  O3_16 
ROOT
HETATM    1  C6  UNL     1       9.071 -28.500  16.105  1.00  0.00     0.005 A 
HETATM    2  C7  UNL     1       8.172 -27.733  16.858  1.00  0.00     0.034 A 
HETATM    3  C8  UNL     1       7.603 -28.229  18.011  1.00  0.00     0.044 A 
HETATM    4 BR1  UNL     1       6.367 -27.182  19.055  1.00  0.00    -0.048 Br
HETATM    5  C9  UNL     1       7.882 -29.491  18.486  1.00  0.00     0.085 A 
HETATM    6  C10 UNL     1       8.763 -30.263  17.764  1.00  0.00     0.075 A 
HETATM    7  C11 UNL     1       9.339 -29.767  16.598  1.00  0.00     0.077 A 
ENDROOT
BRANCH   1   8
HETATM    8  C4  UNL     1       9.685 -27.922  14.890  1.00  0.00     0.153 C 
HETATM    9  C5  UNL     1       9.133 -28.699  13.680  1.00  0.00     0.045 C 
BRANCH   8  10
HETATM   10  O1  UNL     1       9.339 -26.588  14.671  1.00  0.00    -0.377 OA
BRANCH  10  11
HETATM   11  C2  UNL     1      10.489 -25.810  14.696  1.00  0.00     0.114 C 
HETATM   12  C1  UNL     1      11.033 -25.625  13.276  1.00  0.00     0.039 C 
HETATM   13  C3  UNL     1      10.203 -24.423  15.224  1.00  0.00     0.039 C 
ENDBRANCH  10  11
ENDBRANCH   8  10
ENDBRANCH   1   8
BRANCH   7  14
HETATM   14  O3  UNL     1      10.216 -30.570  15.901  1.00  0.00    -0.360 OA
ATOM     15  H3  UNL     1      10.487 -31.392  16.294  1.00  0.00     0.217 HD
ENDBRANCH   7  14
BRANCH   5  16
HETATM   16  O2  UNL     1       7.309 -29.991  19.648  1.00  0.00    -0.359 OA
ATOM     17  H2  UNL     1       7.591 -30.807  20.043  1.00  0.00     0.217 HD
ENDBRANCH   5  16
TORSDOF 5
ENDMDL
MODEL 5
REMARK VINA RESULT: -6.086463928      2.293      3.447
REMARK  5 active torsions:
REMARK  status: ('A' for Active; 'I' for Inactive)
REMARK    1  A    between atoms: C2_2  and  O1_4 
REMARK    2  A    between atoms: O1_4  and  C4_5 
REMARK    3  A    between atoms: C4_5  and  C6_7 
REMARK    4  A    between atoms: C9_11  and  O2_12 
REMARK    5  A    between atoms: C11_15  and  O3_16 
ROOT
HETATM    1  C6  UNL     1       6.477 -28.025  18.562  1.00  0.00     0.005 A 
HETATM    2  C7  UNL     1       7.418 -28.897  17.999  1.00  0.00     0.034 A 
HETATM    3  C8  UNL     1       8.255 -28.484  16.985  1.00  0.00     0.044 A 
HETATM    4 BR1  UNL     1       9.555 -29.674  16.205  1.00  0.00    -0.048 Br
HETATM    5  C9  UNL     1       8.215 -27.207  16.471  1.00  0.00     0.085 A 
HETATM    6  C10 UNL     1       7.298 -26.332  17.009  1.00  0.00     0.075 A 
HETATM    7  C11 UNL     1       6.451 -26.745  18.032  1.00  0.00     0.077 A 
ENDROOT
BRANCH   1   8
HETATM    8  C4  UNL     1       5.617 -28.495  19.670  1.00  0.00     0.153 C 
HETATM    9  C5  UNL     1       6.238 -27.990  20.984  1.00  0.00     0.045 C 
BRANCH   8  10
HETATM   10  O1  UNL     1       4.325 -27.967  19.635  1.00  0.00    -0.377 OA
BRANCH  10  11
HETATM   11  C2  UNL     1       3.435 -28.966  19.263  1.00  0.00     0.114 C 
HETATM   12  C1  UNL     1       2.261 -29.021  20.246  1.00  0.00     0.039 C 
HETATM   13  C3  UNL     1       2.836 -28.690  17.903  1.00  0.00     0.039 C 
ENDBRANCH  10  11
ENDBRANCH   8  10
ENDBRANCH   1   8
BRANCH   7  14
HETATM   14  O3  UNL     1       5.545 -25.841  18.544  1.00  0.00    -0.360 OA
ATOM     15  H3  UNL     1       5.876 -25.086  19.016  1.00  0.00     0.217 HD
ENDBRANCH   7  14
BRANCH   5  16
HETATM   16  O2  UNL     1       9.058 -26.791  15.449  1.00  0.00    -0.359 OA
ATOM     17  H2  UNL     1       9.529 -25.967  15.483  1.00  0.00     0.217 HD
ENDBRANCH   5  16
TORSDOF 5
ENDMDL
