MODEL 1
REMARK VINA RESULT: -7.141982246      0.000      0.000
REMARK  6 active torsions:
REMARK  status: ('A' for Active; 'I' for Inactive)
REMARK    1  A    between atoms: C2_2  and  C3_3 
REMARK    2  A    between atoms: C3_3  and  C4_4 
REMARK    3  A    between atoms: C4_4  and  N1_5 
REMARK    4  A    between atoms: C5_6  and  O1_7 
REMARK    5  A    between atoms: C7_11  and  N2_12 
REMARK    6  A    between atoms: N2_12  and  C8_14 
ROOT
HETATM    1  N1  UNL     1       7.482 -28.586  19.020  1.00  0.00    -0.282 N 
HETATM    2  C5  UNL     1       8.115 -29.485  19.779  1.00  0.00     0.169 A 
HETATM    3  C6  UNL     1       9.228 -29.919  19.066  1.00  0.00     0.202 A 
HETATM    4  O2  UNL     1       9.229 -29.286  17.934  1.00  0.00    -0.287 OA
HETATM    5  C7  UNL     1       8.199 -28.476  17.863  1.00  0.00     0.233 A 
ENDROOT
BRANCH   1   6
HETATM    6  C4  UNL     1       6.279 -27.821  19.254  1.00  0.00     0.043 C 
HETATM    7  C10 UNL     1       6.459 -26.359  18.883  1.00  0.00     0.031 C 
HETATM    8  C11 UNL     1       7.619 -25.830  19.656  1.00  0.00     0.002 C 
HETATM    9  C12 UNL     1       7.239 -25.822  21.097  1.00  0.00     0.000 C 
HETATM   10  C13 UNL     1       6.415 -26.925  21.615  1.00  0.00     0.002 C 
HETATM   11  C14 UNL     1       5.764 -27.855  20.655  1.00  0.00     0.031 C 
BRANCH   6  12
HETATM   12  C3  UNL     1       5.215 -28.368  18.345  1.00  0.00     0.031 C 
BRANCH  12  13
HETATM   13  C2  UNL     1       4.227 -29.301  18.958  1.00  0.00    -0.002 C 
HETATM   14  C1  UNL     1       2.871 -28.935  18.303  1.00  0.00     0.005 C 
ENDBRANCH  12  13
ENDBRANCH   6  12
ENDBRANCH   1   6
BRANCH   2  15
HETATM   15  O1  UNL     1       7.759 -29.930  21.046  1.00  0.00    -0.344 OA
ATOM     16  H1  UNL     1       6.968 -30.391  21.301  1.00  0.00     0.219 HD
ENDBRANCH   2  15
BRANCH   5  17
HETATM   17  N2  UNL     1       7.991 -27.750  16.844  1.00  0.00    -0.294 N 
ATOM     18  H2  UNL     1       7.019 -27.514  16.642  1.00  0.00     0.169 HD
BRANCH  17  19
HETATM   19  C8  UNL     1       8.970 -27.232  15.955  1.00  0.00     0.321 C 
HETATM   20  C9  UNL     1       8.973 -25.717  15.962  1.00  0.00     0.117 C 
HETATM   21  F1  UNL     1      10.221 -27.727  16.218  1.00  0.00    -0.183 F 
HETATM   22  F2  UNL     1       8.638 -27.651  14.662  1.00  0.00    -0.183 F 
ENDBRANCH  17  19
ENDBRANCH   5  17
TORSDOF 6
ENDMDL
MODEL 2
REMARK VINA RESULT: -7.114376428      2.013      3.040
REMARK  6 active torsions:
REMARK  status: ('A' for Active; 'I' for Inactive)
REMARK    1  A    between atoms: C2_2  and  C3_3 
REMARK    2  A    between atoms: C3_3  and  C4_4 
REMARK    3  A    between atoms: C4_4  and  N1_5 
REMARK    4  A    between atoms: C5_6  and  O1_7 
REMARK    5  A    between atoms: C7_11  and  N2_12 
REMARK    6  A    between atoms: N2_12  and  C8_14 
ROOT
HETATM    1  N1  UNL     1       7.027 -27.711  17.834  1.00  0.00    -0.282 N 
HETATM    2  C5  UNL     1       6.802 -26.435  18.160  1.00  0.00     0.169 A 
HETATM    3  C6  UNL     1       7.428 -25.647  17.199  1.00  0.00     0.202 A 
HETATM    4  O2  UNL     1       7.992 -26.450  16.351  1.00  0.00    -0.287 OA
HETATM    5  C7  UNL     1       7.778 -27.698  16.693  1.00  0.00     0.233 A 
ENDROOT
BRANCH   1   6
HETATM    6  C4  UNL     1       6.621 -28.943  18.472  1.00  0.00     0.043 C 
HETATM    7  C10 UNL     1       6.896 -28.920  19.965  1.00  0.00     0.031 C 
HETATM    8  C11 UNL     1       8.347 -28.640  20.161  1.00  0.00     0.002 C 
HETATM    9  C12 UNL     1       9.110 -29.809  19.643  1.00  0.00     0.000 C 
HETATM   10  C13 UNL     1       8.620 -30.492  18.435  1.00  0.00     0.002 C 
HETATM   11  C14 UNL     1       7.256 -30.181  17.931  1.00  0.00     0.031 C 
BRANCH   6  12
HETATM   12  C3  UNL     1       5.133 -29.064  18.309  1.00  0.00     0.031 C 
BRANCH  12  13
HETATM   13  C2  UNL     1       4.312 -28.939  19.548  1.00  0.00    -0.002 C 
HETATM   14  C1  UNL     1       2.850 -29.162  19.083  1.00  0.00     0.005 C 
ENDBRANCH  12  13
ENDBRANCH   6  12
ENDBRANCH   1   6
BRANCH   2  15
HETATM   15  O1  UNL     1       6.086 -25.948  19.245  1.00  0.00    -0.344 OA
ATOM     16  H1  UNL     1       5.819 -25.051  19.412  1.00  0.00     0.219 HD
ENDBRANCH   2  15
BRANCH   5  17
HETATM   17  N2  UNL     1       8.236 -28.664  16.011  1.00  0.00    -0.294 N 
ATOM     18  H2  UNL     1       7.591 -29.429  15.811  1.00  0.00     0.169 HD
BRANCH  17  19
HETATM   19  C8  UNL     1       9.554 -28.791  15.496  1.00  0.00     0.321 C 
HETATM   20  C9  UNL     1       9.665 -28.186  14.112  1.00  0.00     0.117 C 
HETATM   21  F1  UNL     1      10.493 -28.260  16.342  1.00  0.00    -0.183 F 
HETATM   22  F2  UNL     1       9.840 -30.156  15.388  1.00  0.00    -0.183 F 
ENDBRANCH  17  19
ENDBRANCH   5  17
TORSDOF 6
ENDMDL
MODEL 3
REMARK VINA RESULT: -7.101750744      1.930      3.144
REMARK  6 active torsions:
REMARK  status: ('A' for Active; 'I' for Inactive)
REMARK    1  A    between atoms: C2_2  and  C3_3 
REMARK    2  A    between atoms: C3_3  and  C4_4 
REMARK    3  A    between atoms: C4_4  and  N1_5 
REMARK    4  A    between atoms: C5_6  and  O1_7 
REMARK    5  A    between atoms: C7_11  and  N2_12 
REMARK    6  A    between atoms: N2_12  and  C8_14 
ROOT
HETATM    1  N1  UNL     1       6.824 -27.794  17.994  1.00  0.00    -0.282 N 
HETATM    2  C5  UNL     1       6.353 -26.739  18.666  1.00  0.00     0.169 A 
HETATM    3  C6  UNL     1       6.675 -25.603  17.930  1.00  0.00     0.202 A 
HETATM    4  O2  UNL     1       7.311 -25.999  16.871  1.00  0.00    -0.287 OA
HETATM    5  C7  UNL     1       7.423 -27.307  16.868  1.00  0.00     0.233 A 
ENDROOT
BRANCH   1   6
HETATM    6  C4  UNL     1       6.779 -29.208  18.290  1.00  0.00     0.043 C 
HETATM    7  C10 UNL     1       7.080 -29.487  19.752  1.00  0.00     0.031 C 
HETATM    8  C11 UNL     1       8.408 -28.891  20.070  1.00  0.00     0.002 C 
HETATM    9  C12 UNL     1       9.441 -29.648  19.309  1.00  0.00     0.000 C 
HETATM   10  C13 UNL     1       9.117 -30.112  17.951  1.00  0.00     0.002 C 
HETATM   11  C14 UNL     1       7.706 -30.057  17.485  1.00  0.00     0.031 C 
BRANCH   6  12
HETATM   12  C3  UNL     1       5.373 -29.675  18.042  1.00  0.00     0.031 C 
BRANCH  12  13
HETATM   13  C2  UNL     1       4.547 -29.980  19.245  1.00  0.00    -0.002 C 
HETATM   14  C1  UNL     1       3.229 -29.193  19.037  1.00  0.00     0.005 C 
ENDBRANCH  12  13
ENDBRANCH   6  12
ENDBRANCH   1   6
BRANCH   2  15
HETATM   15  O1  UNL     1       5.668 -26.736  19.875  1.00  0.00    -0.344 OA
ATOM     16  H1  UNL     1       4.752 -26.940  20.025  1.00  0.00     0.219 HD
ENDBRANCH   2  15
BRANCH   5  17
HETATM   17  N2  UNL     1       8.010 -27.924  15.929  1.00  0.00    -0.294 N 
ATOM     18  H2  UNL     1       7.589 -28.801  15.624  1.00  0.00     0.169 HD
BRANCH  17  19
HETATM   19  C8  UNL     1       9.194 -27.518  15.256  1.00  0.00     0.321 C 
HETATM   20  C9  UNL     1       9.539 -28.470  14.128  1.00  0.00     0.117 C 
HETATM   21  F1  UNL     1       9.115 -26.227  14.802  1.00  0.00    -0.183 F 
HETATM   22  F2  UNL     1      10.244 -27.555  16.179  1.00  0.00    -0.183 F 
ENDBRANCH  17  19
ENDBRANCH   5  17
TORSDOF 6
ENDMDL
MODEL 4
REMARK VINA RESULT: -7.011532563      2.454      3.939
REMARK  6 active torsions:
REMARK  status: ('A' for Active; 'I' for Inactive)
REMARK    1  A    between atoms: C2_2  and  C3_3 
REMARK    2  A    between atoms: C3_3  and  C4_4 
REMARK    3  A    between atoms: C4_4  and  N1_5 
REMARK    4  A    between atoms: C5_6  and  O1_7 
REMARK    5  A    between atoms: C7_11  and  N2_12 
REMARK    6  A    between atoms: N2_12  and  C8_14 
ROOT
HETATM    1  N1  UNL     1       7.394 -27.766  17.281  1.00  0.00    -0.282 N 
HETATM    2  C5  UNL     1       6.150 -27.361  17.555  1.00  0.00     0.169 A 
HETATM    3  C6  UNL     1       6.120 -25.980  17.393  1.00  0.00     0.202 A 
HETATM    4  O2  UNL     1       7.311 -25.609  17.038  1.00  0.00    -0.287 OA
HETATM    5  C7  UNL     1       8.108 -26.648  16.958  1.00  0.00     0.233 A 
ENDROOT
BRANCH   1   6
HETATM    6  C4  UNL     1       7.990 -29.083  17.291  1.00  0.00     0.043 C 
HETATM    7  C10 UNL     1       7.164 -30.069  18.097  1.00  0.00     0.031 C 
HETATM    8  C11 UNL     1       7.003 -29.517  19.472  1.00  0.00     0.002 C 
HETATM    9  C12 UNL     1       8.345 -29.512  20.120  1.00  0.00     0.000 C 
HETATM   10  C13 UNL     1       9.523 -29.188  19.300  1.00  0.00     0.002 C 
HETATM   11  C14 UNL     1       9.384 -29.146  17.821  1.00  0.00     0.031 C 
BRANCH   6  12
HETATM   12  C3  UNL     1       7.998 -29.583  15.874  1.00  0.00     0.031 C 
BRANCH  12  13
HETATM   13  C2  UNL     1       9.325 -29.952  15.303  1.00  0.00    -0.002 C 
HETATM   14  C1  UNL     1       9.102 -29.997  13.770  1.00  0.00     0.005 C 
ENDBRANCH  12  13
ENDBRANCH   6  12
ENDBRANCH   1   6
BRANCH   2  15
HETATM   15  O1  UNL     1       5.065 -28.141  17.935  1.00  0.00    -0.344 OA
ATOM     16  H1  UNL     1       5.057 -29.071  18.130  1.00  0.00     0.219 HD
ENDBRANCH   2  15
BRANCH   5  17
HETATM   17  N2  UNL     1       9.327 -26.530  16.627  1.00  0.00    -0.294 N 
ATOM     18  H2  UNL     1      10.013 -26.603  17.378  1.00  0.00     0.169 HD
BRANCH  17  19
HETATM   19  C8  UNL     1       9.834 -26.306  15.319  1.00  0.00     0.321 C 
HETATM   20  C9  UNL     1      10.030 -24.828  15.051  1.00  0.00     0.117 C 
HETATM   21  F1  UNL     1      10.990 -27.005  15.087  1.00  0.00    -0.183 F 
HETATM   22  F2  UNL     1       8.887 -26.783  14.407  1.00  0.00    -0.183 F 
ENDBRANCH  17  19
ENDBRANCH   5  17
TORSDOF 6
ENDMDL
MODEL 5
REMARK VINA RESULT: -6.933189112      0.723      2.889
REMARK  6 active torsions:
REMARK  status: ('A' for Active; 'I' for Inactive)
REMARK    1  A    between atoms: C2_2  and  C3_3 
REMARK    2  A    between atoms: C3_3  and  C4_4 
REMARK    3  A    between atoms: C4_4  and  N1_5 
REMARK    4  A    between atoms: C5_6  and  O1_7 
REMARK    5  A    between atoms: C7_11  and  N2_12 
REMARK    6  A    between atoms: N2_12  and  C8_14 
ROOT
HETATM    1  N1  UNL     1       7.665 -28.470  18.953  1.00  0.00    -0.282 N 
HETATM    2  C5  UNL     1       8.090 -29.561  19.596  1.00  0.00     0.169 A 
HETATM    3  C6  UNL     1       8.867 -30.292  18.703  1.00  0.00     0.202 A 
HETATM    4  O2  UNL     1       8.884 -29.637  17.583  1.00  0.00    -0.287 OA
HETATM    5  C7  UNL     1       8.175 -28.537  17.688  1.00  0.00     0.233 A 
ENDROOT
BRANCH   1   6
HETATM    6  C4  UNL     1       6.831 -27.373  19.388  1.00  0.00     0.043 C 
HETATM    7  C10 UNL     1       5.734 -27.838  20.329  1.00  0.00     0.031 C 
HETATM    8  C11 UNL     1       4.949 -28.896  19.631  1.00  0.00     0.002 C 
HETATM    9  C12 UNL     1       4.237 -28.256  18.490  1.00  0.00     0.000 C 
HETATM   10  C13 UNL     1       4.922 -27.192  17.738  1.00  0.00     0.002 C 
HETATM   11  C14 UNL     1       6.169 -26.603  18.293  1.00  0.00     0.031 C 
BRANCH   6  12
HETATM   12  C3  UNL     1       7.700 -26.431  20.171  1.00  0.00     0.031 C 
BRANCH  12  13
HETATM   13  C2  UNL     1       7.001 -25.416  21.010  1.00  0.00    -0.002 C 
HETATM   14  C1  UNL     1       8.084 -24.360  21.346  1.00  0.00     0.005 C 
ENDBRANCH  12  13
ENDBRANCH   6  12
ENDBRANCH   1   6
BRANCH   2  15
HETATM   15  O1  UNL     1       7.827 -29.932  20.909  1.00  0.00    -0.344 OA
ATOM     16  H1  UNL     1       8.209 -30.651  21.398  1.00  0.00     0.219 HD
ENDBRANCH   2  15
BRANCH   5  17
HETATM   17  N2  UNL     1       8.045 -27.733  16.716  1.00  0.00    -0.294 N 
ATOM     18  H2  UNL     1       7.100 -27.407  16.516  1.00  0.00     0.169 HD
BRANCH  17  19
HETATM   19  C8  UNL     1       9.080 -27.240  15.877  1.00  0.00     0.321 C 
HETATM   20  C9  UNL     1       9.100 -25.725  15.861  1.00  0.00     0.117 C 
HETATM   21  F1  UNL     1      10.308 -27.744  16.220  1.00  0.00    -0.183 F 
HETATM   22  F2  UNL     1       8.818 -27.676  14.574  1.00  0.00    -0.183 F 
ENDBRANCH  17  19
ENDBRANCH   5  17
TORSDOF 6
ENDMDL
