MODEL 1
REMARK VINA RESULT: -7.712501960      0.000      0.000
REMARK  7 active torsions:
REMARK  status: ('A' for Active; 'I' for Inactive)
REMARK    1  A    between atoms: C2_2  and  O1_5 
REMARK    2  A    between atoms: O1_5  and  C5_6 
REMARK    3  A    between atoms: C5_6  and  C6_8 
REMARK    4  A    between atoms: C8_10  and  C9_11 
REMARK    5  A    between atoms: C10_12  and  C11_13 
REMARK    6  A    between atoms: C11_13  and  O3_14 
REMARK    7  A    between atoms: N1_16  and  O4_18 
ROOT
HETATM    1  C6  UNL     1       7.033 -28.288  19.186  1.00  0.00     0.082 A 
HETATM    2  C7  UNL     1       7.349 -28.059  17.871  1.00  0.00     0.032 A 
HETATM    3  C8  UNL     1       8.408 -28.702  17.251  1.00  0.00    -0.032 A 
HETATM    4  C12 UNL     1       9.144 -29.582  17.982  1.00  0.00     0.057 A 
HETATM    5  C13 UNL     1       8.866 -29.847  19.307  1.00  0.00     0.156 A 
HETATM    6  F1  UNL     1       9.631 -30.730  19.981  1.00  0.00    -0.203 F 
HETATM    7  C14 UNL     1       7.800 -29.183  19.888  1.00  0.00     0.171 A 
HETATM    8  F2  UNL     1       7.541 -29.460  21.203  1.00  0.00    -0.202 F 
ENDROOT
BRANCH   3   9
HETATM    9  C9  UNL     1       8.681 -28.398  15.834  1.00  0.00     0.016 C 
HETATM   10  C10 UNL     1       9.741 -27.746  15.432  1.00  0.00     0.058 C 
BRANCH  10  11
HETATM   11  C11 UNL     1      10.040 -27.432  14.067  1.00  0.00     0.159 C 
HETATM   12  N1  UNL     1      10.731 -26.483  13.662  1.00  0.00    -0.248 N 
ATOM     13  H1  UNL     1      10.805 -26.459  12.644  1.00  0.00     0.196 HD
BRANCH  11  14
HETATM   14  O3  UNL     1       9.479 -28.308  13.078  1.00  0.00    -0.345 OA
ATOM     15  H3  UNL     1       8.941 -27.897  12.412  1.00  0.00     0.219 HD
ENDBRANCH  11  14
BRANCH  12  16
HETATM   16  O4  UNL     1      11.393 -25.497  14.240  1.00  0.00    -0.288 OA
ATOM     17  H4  UNL     1      11.370 -25.084  15.095  1.00  0.00     0.244 HD
ENDBRANCH  12  16
ENDBRANCH  10  11
ENDBRANCH   3   9
BRANCH   1  18
HETATM   18  C5  UNL     1       5.921 -27.595  19.788  1.00  0.00     0.297 C 
HETATM   19  O2  UNL     1       5.973 -26.347  19.993  1.00  0.00    -0.259 OA
BRANCH  18  20
HETATM   20  O1  UNL     1       4.744 -28.219  20.178  1.00  0.00    -0.307 OA
BRANCH  20  21
HETATM   21  C2  UNL     1       3.893 -28.912  19.292  1.00  0.00     0.060 C 
HETATM   22  C1  UNL     1       4.375 -30.317  19.003  1.00  0.00     0.046 C 
HETATM   23  C3  UNL     1       3.636 -28.186  18.013  1.00  0.00     0.046 C 
HETATM   24  C4  UNL     1       2.545 -29.033  20.015  1.00  0.00     0.046 C 
ENDBRANCH  20  21
ENDBRANCH  18  20
ENDBRANCH   1  18
TORSDOF 7
ENDMDL
MODEL 2
REMARK VINA RESULT: -7.685558500      1.446      1.943
REMARK  7 active torsions:
REMARK  status: ('A' for Active; 'I' for Inactive)
REMARK    1  A    between atoms: C2_2  and  O1_5 
REMARK    2  A    between atoms: O1_5  and  C5_6 
REMARK    3  A    between atoms: C5_6  and  C6_8 
REMARK    4  A    between atoms: C8_10  and  C9_11 
REMARK    5  A    between atoms: C10_12  and  C11_13 
REMARK    6  A    between atoms: C11_13  and  O3_14 
REMARK    7  A    between atoms: N1_16  and  O4_18 
ROOT
HETATM    1  C6  UNL     1       6.620 -28.395  18.974  1.00  0.00     0.082 A 
HETATM    2  C7  UNL     1       7.179 -28.605  17.739  1.00  0.00     0.032 A 
HETATM    3  C8  UNL     1       8.314 -29.383  17.573  1.00  0.00    -0.032 A 
HETATM    4  C12 UNL     1       8.875 -29.947  18.676  1.00  0.00     0.057 A 
HETATM    5  C13 UNL     1       8.350 -29.767  19.940  1.00  0.00     0.156 A 
HETATM    6  F1  UNL     1       8.950 -30.352  20.996  1.00  0.00    -0.203 F 
HETATM    7  C14 UNL     1       7.216 -28.982  20.061  1.00  0.00     0.171 A 
HETATM    8  F2  UNL     1       6.712 -28.815  21.323  1.00  0.00    -0.202 F 
ENDROOT
BRANCH   3   9
HETATM    9  C9  UNL     1       8.851 -29.557  16.211  1.00  0.00     0.016 C 
HETATM   10  C10 UNL     1       8.432 -28.867  15.181  1.00  0.00     0.058 C 
BRANCH  10  11
HETATM   11  C11 UNL     1       8.929 -29.008  13.846  1.00  0.00     0.159 C 
HETATM   12  N1  UNL     1       8.537 -29.824  12.994  1.00  0.00    -0.248 N 
ATOM     13  H1  UNL     1       9.040 -29.739  12.111  1.00  0.00     0.196 HD
BRANCH  11  14
HETATM   14  O3  UNL     1       9.984 -28.115  13.464  1.00  0.00    -0.345 OA
ATOM     15  H3  UNL     1      10.130 -28.012  12.531  1.00  0.00     0.219 HD
ENDBRANCH  11  14
BRANCH  12  16
HETATM   16  O4  UNL     1       7.621 -30.775  12.966  1.00  0.00    -0.288 OA
ATOM     17  H4  UNL     1       7.574 -31.671  13.277  1.00  0.00     0.244 HD
ENDBRANCH  12  16
ENDBRANCH  10  11
ENDBRANCH   3   9
BRANCH   1  18
HETATM   18  C5  UNL     1       5.439 -27.577  19.098  1.00  0.00     0.297 C 
HETATM   19  O2  UNL     1       5.419 -26.398  18.635  1.00  0.00    -0.259 OA
BRANCH  18  20
HETATM   20  O1  UNL     1       4.269 -28.000  19.713  1.00  0.00    -0.307 OA
BRANCH  20  21
HETATM   21  C2  UNL     1       3.388 -28.948  19.152  1.00  0.00     0.060 C 
HETATM   22  C1  UNL     1       4.012 -30.321  19.032  1.00  0.00     0.046 C 
HETATM   23  C3  UNL     1       2.812 -28.532  17.839  1.00  0.00     0.046 C 
HETATM   24  C4  UNL     1       2.217 -29.065  20.137  1.00  0.00     0.046 C 
ENDBRANCH  20  21
ENDBRANCH  18  20
ENDBRANCH   1  18
TORSDOF 7
ENDMDL
MODEL 3
REMARK VINA RESULT: -7.649393510      3.815      7.123
REMARK  7 active torsions:
REMARK  status: ('A' for Active; 'I' for Inactive)
REMARK    1  A    between atoms: C2_2  and  O1_5 
REMARK    2  A    between atoms: O1_5  and  C5_6 
REMARK    3  A    between atoms: C5_6  and  C6_8 
REMARK    4  A    between atoms: C8_10  and  C9_11 
REMARK    5  A    between atoms: C10_12  and  C11_13 
REMARK    6  A    between atoms: C11_13  and  O3_14 
REMARK    7  A    between atoms: N1_16  and  O4_18 
ROOT
HETATM    1  C6  UNL     1       7.829 -28.273  17.331  1.00  0.00     0.082 A 
HETATM    2  C7  UNL     1       6.875 -28.896  18.096  1.00  0.00     0.032 A 
HETATM    3  C8  UNL     1       5.749 -28.227  18.548  1.00  0.00    -0.032 A 
HETATM    4  C12 UNL     1       5.601 -26.917  18.213  1.00  0.00     0.057 A 
HETATM    5  C13 UNL     1       6.531 -26.246  17.446  1.00  0.00     0.156 A 
HETATM    6  F1  UNL     1       6.330 -24.947  17.146  1.00  0.00    -0.203 F 
HETATM    7  C14 UNL     1       7.641 -26.951  17.016  1.00  0.00     0.171 A 
HETATM    8  F2  UNL     1       8.552 -26.267  16.257  1.00  0.00    -0.202 F 
ENDROOT
BRANCH   3   9
HETATM    9  C9  UNL     1       4.773 -28.970  19.365  1.00  0.00     0.016 C 
HETATM   10  C10 UNL     1       3.483 -28.760  19.309  1.00  0.00     0.058 C 
BRANCH  10  11
HETATM   11  C11 UNL     1       2.505 -29.460  20.086  1.00  0.00     0.159 C 
HETATM   12  N1  UNL     1       1.817 -28.988  21.007  1.00  0.00    -0.248 N 
ATOM     13  H1  UNL     1       1.187 -29.678  21.417  1.00  0.00     0.196 HD
BRANCH  11  14
HETATM   14  O3  UNL     1       2.310 -30.844  19.762  1.00  0.00    -0.345 OA
ATOM     15  H3  UNL     1       2.886 -31.205  19.098  1.00  0.00     0.219 HD
ENDBRANCH  11  14
BRANCH  12  16
HETATM   16  O4  UNL     1       1.711 -27.802  21.578  1.00  0.00    -0.288 OA
ATOM     17  H4  UNL     1       1.369 -27.484  22.405  1.00  0.00     0.244 HD
ENDBRANCH  12  16
ENDBRANCH  10  11
ENDBRANCH   3   9
BRANCH   1  18
HETATM   18  C5  UNL     1       8.985 -29.010  16.885  1.00  0.00     0.297 C 
HETATM   19  O2  UNL     1      10.129 -28.775  17.375  1.00  0.00    -0.259 OA
BRANCH  18  20
HETATM   20  O1  UNL     1       8.940 -30.002  15.915  1.00  0.00    -0.307 OA
BRANCH  20  21
HETATM   21  C2  UNL     1       9.185 -29.771  14.545  1.00  0.00     0.060 C 
HETATM   22  C1  UNL     1       9.816 -28.420  14.288  1.00  0.00     0.046 C 
HETATM   23  C3  UNL     1       7.980 -29.946  13.681  1.00  0.00     0.046 C 
HETATM   24  C4  UNL     1      10.202 -30.838  14.116  1.00  0.00     0.046 C 
ENDBRANCH  20  21
ENDBRANCH  18  20
ENDBRANCH   1  18
TORSDOF 7
ENDMDL
MODEL 4
REMARK VINA RESULT: -7.634791602      3.260      6.411
REMARK  7 active torsions:
REMARK  status: ('A' for Active; 'I' for Inactive)
REMARK    1  A    between atoms: C2_2  and  O1_5 
REMARK    2  A    between atoms: O1_5  and  C5_6 
REMARK    3  A    between atoms: C5_6  and  C6_8 
REMARK    4  A    between atoms: C8_10  and  C9_11 
REMARK    5  A    between atoms: C10_12  and  C11_13 
REMARK    6  A    between atoms: C11_13  and  O3_14 
REMARK    7  A    between atoms: N1_16  and  O4_18 
ROOT
HETATM    1  C6  UNL     1       8.270 -28.161  17.185  1.00  0.00     0.082 A 
HETATM    2  C7  UNL     1       7.643 -27.290  18.039  1.00  0.00     0.032 A 
HETATM    3  C8  UNL     1       7.578 -27.523  19.403  1.00  0.00    -0.032 A 
HETATM    4  C12 UNL     1       8.158 -28.653  19.891  1.00  0.00     0.057 A 
HETATM    5  C13 UNL     1       8.801 -29.560  19.074  1.00  0.00     0.156 A 
HETATM    6  F1  UNL     1       9.357 -30.662  19.615  1.00  0.00    -0.203 F 
HETATM    7  C14 UNL     1       8.842 -29.288  17.717  1.00  0.00     0.171 A 
HETATM    8  F2  UNL     1       9.483 -30.201  16.923  1.00  0.00    -0.202 F 
ENDROOT
BRANCH   3   9
HETATM    9  C9  UNL     1       6.885 -26.536  20.252  1.00  0.00     0.016 C 
HETATM   10  C10 UNL     1       7.443 -25.425  20.660  1.00  0.00     0.058 C 
BRANCH  10  11
HETATM   11  C11 UNL     1       6.803 -24.444  21.484  1.00  0.00     0.159 C 
HETATM   12  N1  UNL     1       7.366 -23.630  22.235  1.00  0.00    -0.248 N 
ATOM     13  H1  UNL     1       6.704 -23.028  22.725  1.00  0.00     0.196 HD
BRANCH  11  14
HETATM   14  O3  UNL     1       5.370 -24.407  21.429  1.00  0.00    -0.345 OA
ATOM     15  H3  UNL     1       4.956 -23.636  21.797  1.00  0.00     0.219 HD
ENDBRANCH  11  14
BRANCH  12  16
HETATM   16  O4  UNL     1       8.621 -23.363  22.548  1.00  0.00    -0.288 OA
ATOM     17  H4  UNL     1       9.074 -23.101  23.341  1.00  0.00     0.244 HD
ENDBRANCH  12  16
ENDBRANCH  10  11
ENDBRANCH   3   9
BRANCH   1  18
HETATM   18  C5  UNL     1       8.311 -27.876  15.772  1.00  0.00     0.297 C 
HETATM   19  O2  UNL     1       8.060 -28.781  14.923  1.00  0.00    -0.259 OA
BRANCH  18  20
HETATM   20  O1  UNL     1       8.619 -26.629  15.246  1.00  0.00    -0.307 OA
BRANCH  20  21
HETATM   21  C2  UNL     1       9.929 -26.217  14.922  1.00  0.00     0.060 C 
HETATM   22  C1  UNL     1      10.256 -26.420  13.458  1.00  0.00     0.046 C 
HETATM   23  C3  UNL     1      10.985 -26.841  15.773  1.00  0.00     0.046 C 
HETATM   24  C4  UNL     1       9.972 -24.707  15.192  1.00  0.00     0.046 C 
ENDBRANCH  20  21
ENDBRANCH  18  20
ENDBRANCH   1  18
TORSDOF 7
ENDMDL
MODEL 5
REMARK VINA RESULT: -7.550196639      1.373      2.586
REMARK  7 active torsions:
REMARK  status: ('A' for Active; 'I' for Inactive)
REMARK    1  A    between atoms: C2_2  and  O1_5 
REMARK    2  A    between atoms: O1_5  and  C5_6 
REMARK    3  A    between atoms: C5_6  and  C6_8 
REMARK    4  A    between atoms: C8_10  and  C9_11 
REMARK    5  A    between atoms: C10_12  and  C11_13 
REMARK    6  A    between atoms: C11_13  and  O3_14 
REMARK    7  A    between atoms: N1_16  and  O4_18 
ROOT
HETATM    1  C6  UNL     1       6.981 -28.255  19.200  1.00  0.00     0.082 A 
HETATM    2  C7  UNL     1       7.286 -28.043  17.880  1.00  0.00     0.032 A 
HETATM    3  C8  UNL     1       8.337 -28.698  17.258  1.00  0.00    -0.032 A 
HETATM    4  C12 UNL     1       9.076 -29.572  17.994  1.00  0.00     0.057 A 
HETATM    5  C13 UNL     1       8.809 -29.820  19.324  1.00  0.00     0.156 A 
HETATM    6  F1  UNL     1       9.576 -30.698  20.002  1.00  0.00    -0.203 F 
HETATM    7  C14 UNL     1       7.750 -29.145  19.906  1.00  0.00     0.171 A 
HETATM    8  F2  UNL     1       7.502 -29.405  21.227  1.00  0.00    -0.202 F 
ENDROOT
BRANCH   3   9
HETATM    9  C9  UNL     1       8.599 -28.412  15.835  1.00  0.00     0.016 C 
HETATM   10  C10 UNL     1       9.686 -27.821  15.411  1.00  0.00     0.058 C 
BRANCH  10  11
HETATM   11  C11 UNL     1       9.975 -27.526  14.040  1.00  0.00     0.159 C 
HETATM   12  N1  UNL     1      10.662 -26.582  13.616  1.00  0.00    -0.248 N 
ATOM     13  H1  UNL     1      10.728 -26.573  12.598  1.00  0.00     0.196 HD
BRANCH  11  14
HETATM   14  O3  UNL     1       9.407 -28.416  13.067  1.00  0.00    -0.345 OA
ATOM     15  H3  UNL     1       8.462 -28.501  13.078  1.00  0.00     0.219 HD
ENDBRANCH  11  14
BRANCH  12  16
HETATM   16  O4  UNL     1      11.327 -25.587  14.175  1.00  0.00    -0.288 OA
ATOM     17  H4  UNL     1      12.214 -25.255  14.114  1.00  0.00     0.244 HD
ENDBRANCH  12  16
ENDBRANCH  10  11
ENDBRANCH   3   9
BRANCH   1  18
HETATM   18  C5  UNL     1       5.877 -27.551  19.804  1.00  0.00     0.297 C 
HETATM   19  O2  UNL     1       4.811 -28.162  20.111  1.00  0.00    -0.259 OA
BRANCH  18  20
HETATM   20  O1  UNL     1       5.893 -26.192  20.089  1.00  0.00    -0.307 OA
BRANCH  20  21
HETATM   21  C2  UNL     1       6.600 -25.626  21.170  1.00  0.00     0.060 C 
HETATM   22  C1  UNL     1       8.032 -25.289  20.815  1.00  0.00     0.046 C 
HETATM   23  C3  UNL     1       6.562 -26.453  22.413  1.00  0.00     0.046 C 
HETATM   24  C4  UNL     1       5.888 -24.305  21.491  1.00  0.00     0.046 C 
ENDBRANCH  20  21
ENDBRANCH  18  20
ENDBRANCH   1  18
TORSDOF 7
ENDMDL
