MODEL 1
REMARK VINA RESULT: -7.120501930      0.000      0.000
REMARK  6 active torsions:
REMARK  status: ('A' for Active; 'I' for Inactive)
REMARK    1  A    between atoms: C2_2  and  O1_5 
REMARK    2  A    between atoms: O1_5  and  C5_6 
REMARK    3  A    between atoms: C11_12  and  C12_13 
REMARK    4  A    between atoms: C12_13  and  C13_14 
REMARK    5  A    between atoms: C13_14  and  O2_15 
REMARK    6  A    between atoms: C21_24  and  O3_25 
ROOT
HETATM    1  C5  UNL     1     -31.357  -6.853 -26.258  1.00  0.00     0.144 C 
HETATM    2  C6  UNL     1     -32.130  -7.932 -26.368  1.00  0.00    -0.024 C 
HETATM    3  C7  UNL     1     -32.550  -8.567 -27.677  1.00  0.00     0.044 C 
HETATM    4  C8  UNL     1     -33.868  -9.061 -27.219  1.00  0.00    -0.001 C 
HETATM    5  C9  UNL     1     -34.577 -10.102 -27.933  1.00  0.00     0.006 C 
HETATM    6  C10 UNL     1     -35.159 -10.989 -26.809  1.00  0.00     0.006 C 
HETATM    7  C11 UNL     1     -34.751 -10.227 -25.533  1.00  0.00    -0.003 C 
HETATM    8  C14 UNL     1     -33.392  -9.841 -25.942  1.00  0.00    -0.029 C 
HETATM    9  C15 UNL     1     -32.476 -10.945 -26.398  1.00  0.00     0.016 C 
HETATM   10  C16 UNL     1     -32.714  -8.755 -25.262  1.00  0.00     0.028 C 
HETATM   11  C17 UNL     1     -31.488  -9.136 -24.455  1.00  0.00     0.012 C 
HETATM   12  C18 UNL     1     -31.317  -8.141 -23.379  1.00  0.00     0.035 C 
HETATM   13  C19 UNL     1     -30.845  -6.791 -23.667  1.00  0.00     0.063 C 
HETATM   14  C20 UNL     1     -31.573  -5.844 -22.699  1.00  0.00     0.041 C 
HETATM   15  C21 UNL     1     -29.364  -6.666 -23.287  1.00  0.00     0.215 C 
HETATM   16  C22 UNL     1     -28.857  -5.304 -23.592  1.00  0.00     0.159 C 
HETATM   17  O4  UNL     1     -27.751  -5.013 -23.204  1.00  0.00    -0.295 OA
HETATM   18  C23 UNL     1     -29.633  -4.289 -24.339  1.00  0.00     0.101 C 
HETATM   19  C24 UNL     1     -30.764  -4.825 -25.136  1.00  0.00     0.133 C 
HETATM   20  N1  UNL     1     -30.993  -6.268 -24.978  1.00  0.00    -0.349 N 
ENDROOT
BRANCH   1  21
HETATM   21  O1  UNL     1     -30.894  -6.269 -27.372  1.00  0.00    -0.326 OA
BRANCH  21  22
HETATM   22  C2  UNL     1     -29.761  -6.295 -28.119  1.00  0.00     0.058 C 
HETATM   23  C1  UNL     1     -28.999  -4.977 -28.260  1.00  0.00     0.045 C 
HETATM   24  C3  UNL     1     -30.203  -6.585 -29.577  1.00  0.00     0.045 C 
HETATM   25  C4  UNL     1     -28.689  -7.297 -27.781  1.00  0.00     0.045 C 
ENDBRANCH  21  22
ENDBRANCH   1  21
BRANCH  15  26
HETATM   26  O3  UNL     1     -29.301  -6.881 -21.906  1.00  0.00    -0.386 OA
ATOM     27  H3  UNL     1     -28.444  -7.254 -21.738  1.00  0.00     0.210 HD
ENDBRANCH  15  26
BRANCH   7  28
HETATM   28  C12 UNL     1     -35.048 -10.880 -24.275  1.00  0.00     0.031 C 
BRANCH  28  29
HETATM   29  C13 UNL     1     -35.761 -12.183 -24.239  1.00  0.00     0.164 C 
BRANCH  29  30
HETATM   30  O2  UNL     1     -36.480 -12.181 -22.998  1.00  0.00    -0.401 OA
ATOM     31  H2  UNL     1     -37.348 -11.861 -23.215  1.00  0.00     0.209 HD
ENDBRANCH  29  30
ENDBRANCH  28  29
ENDBRANCH   7  28
TORSDOF 6
ENDMDL
MODEL 2
REMARK VINA RESULT: -6.723771680      1.475      1.867
REMARK  6 active torsions:
REMARK  status: ('A' for Active; 'I' for Inactive)
REMARK    1  A    between atoms: C2_2  and  O1_5 
REMARK    2  A    between atoms: O1_5  and  C5_6 
REMARK    3  A    between atoms: C11_12  and  C12_13 
REMARK    4  A    between atoms: C12_13  and  C13_14 
REMARK    5  A    between atoms: C13_14  and  O2_15 
REMARK    6  A    between atoms: C21_24  and  O3_25 
ROOT
HETATM    1  C5  UNL     1     -32.222  -7.125 -25.992  1.00  0.00     0.144 C 
HETATM    2  C6  UNL     1     -32.832  -8.308 -25.949  1.00  0.00    -0.024 C 
HETATM    3  C7  UNL     1     -33.490  -8.986 -27.132  1.00  0.00     0.044 C 
HETATM    4  C8  UNL     1     -34.552  -9.681 -26.369  1.00  0.00    -0.001 C 
HETATM    5  C9  UNL     1     -35.268 -10.811 -26.923  1.00  0.00     0.006 C 
HETATM    6  C10 UNL     1     -35.393 -11.787 -25.731  1.00  0.00     0.006 C 
HETATM    7  C11 UNL     1     -34.774 -10.984 -24.570  1.00  0.00    -0.003 C 
HETATM    8  C14 UNL     1     -33.644 -10.391 -25.302  1.00  0.00    -0.029 C 
HETATM    9  C15 UNL     1     -32.734 -11.338 -26.038  1.00  0.00     0.016 C 
HETATM   10  C16 UNL     1     -32.974  -9.221 -24.771  1.00  0.00     0.028 C 
HETATM   11  C17 UNL     1     -31.535  -9.419 -24.334  1.00  0.00     0.012 C 
HETATM   12  C18 UNL     1     -31.228  -8.419 -23.293  1.00  0.00     0.035 C 
HETATM   13  C19 UNL     1     -31.051  -7.010 -23.627  1.00  0.00     0.063 C 
HETATM   14  C20 UNL     1     -31.622  -6.195 -22.456  1.00  0.00     0.041 C 
HETATM   15  C21 UNL     1     -29.556  -6.664 -23.644  1.00  0.00     0.215 C 
HETATM   16  C22 UNL     1     -29.352  -5.238 -24.003  1.00  0.00     0.159 C 
HETATM   17  O4  UNL     1     -28.236  -4.785 -23.905  1.00  0.00    -0.295 OA
HETATM   18  C23 UNL     1     -30.437  -4.346 -24.467  1.00  0.00     0.101 C 
HETATM   19  C24 UNL     1     -31.651  -5.041 -24.965  1.00  0.00     0.133 C 
HETATM   20  N1  UNL     1     -31.618  -6.503 -24.825  1.00  0.00    -0.349 N 
ENDROOT
BRANCH   1  21
HETATM   21  O1  UNL     1     -32.163  -6.466 -27.158  1.00  0.00    -0.326 OA
BRANCH  21  22
HETATM   22  C2  UNL     1     -33.024  -5.837 -27.997  1.00  0.00     0.058 C 
HETATM   23  C1  UNL     1     -33.338  -6.542 -29.318  1.00  0.00     0.045 C 
HETATM   24  C3  UNL     1     -32.312  -4.542 -28.468  1.00  0.00     0.045 C 
HETATM   25  C4  UNL     1     -34.376  -5.426 -27.478  1.00  0.00     0.045 C 
ENDBRANCH  21  22
ENDBRANCH   1  21
BRANCH  15  26
HETATM   26  O3  UNL     1     -29.096  -6.880 -22.340  1.00  0.00    -0.386 OA
ATOM     27  H3  UNL     1     -28.923  -6.020 -21.978  1.00  0.00     0.210 HD
ENDBRANCH  15  26
BRANCH   7  28
HETATM   28  C12 UNL     1     -34.626 -11.687 -23.313  1.00  0.00     0.031 C 
BRANCH  28  29
HETATM   29  C13 UNL     1     -35.430 -12.901 -23.016  1.00  0.00     0.164 C 
BRANCH  29  30
HETATM   30  O2  UNL     1     -36.500 -12.445 -22.177  1.00  0.00    -0.401 OA
ATOM     31  H2  UNL     1     -37.082 -13.191 -22.091  1.00  0.00     0.209 HD
ENDBRANCH  29  30
ENDBRANCH  28  29
ENDBRANCH   7  28
TORSDOF 6
ENDMDL
MODEL 3
REMARK VINA RESULT: -6.719960999      2.034      4.685
REMARK  6 active torsions:
REMARK  status: ('A' for Active; 'I' for Inactive)
REMARK    1  A    between atoms: C2_2  and  O1_5 
REMARK    2  A    between atoms: O1_5  and  C5_6 
REMARK    3  A    between atoms: C11_12  and  C12_13 
REMARK    4  A    between atoms: C12_13  and  C13_14 
REMARK    5  A    between atoms: C13_14  and  O2_15 
REMARK    6  A    between atoms: C21_24  and  O3_25 
ROOT
HETATM    1  C5  UNL     1     -30.127  -7.514 -26.641  1.00  0.00     0.144 C 
HETATM    2  C6  UNL     1     -31.249  -8.110 -26.241  1.00  0.00    -0.024 C 
HETATM    3  C7  UNL     1     -31.824  -8.024 -24.843  1.00  0.00     0.044 C 
HETATM    4  C8  UNL     1     -32.442  -9.369 -24.823  1.00  0.00    -0.001 C 
HETATM    5  C9  UNL     1     -33.482  -9.712 -23.875  1.00  0.00     0.006 C 
HETATM    6  C10 UNL     1     -34.481 -10.543 -24.711  1.00  0.00     0.006 C 
HETATM    7  C11 UNL     1     -33.778 -10.641 -26.079  1.00  0.00    -0.003 C 
HETATM    8  C14 UNL     1     -33.269  -9.263 -26.154  1.00  0.00    -0.029 C 
HETATM    9  C15 UNL     1     -34.270  -8.154 -25.981  1.00  0.00     0.016 C 
HETATM   10  C16 UNL     1     -32.184  -8.944 -27.061  1.00  0.00     0.028 C 
HETATM   11  C17 UNL     1     -32.529  -8.015 -28.210  1.00  0.00     0.012 C 
HETATM   12  C18 UNL     1     -31.598  -8.292 -29.321  1.00  0.00     0.035 C 
HETATM   13  C19 UNL     1     -30.200  -7.876 -29.257  1.00  0.00     0.063 C 
HETATM   14  C20 UNL     1     -29.376  -8.961 -29.969  1.00  0.00     0.041 C 
HETATM   15  C21 UNL     1     -29.994  -6.616 -30.106  1.00  0.00     0.215 C 
HETATM   16  C22 UNL     1     -28.582  -6.163 -30.039  1.00  0.00     0.159 C 
HETATM   17  O4  UNL     1     -28.238  -5.273 -30.779  1.00  0.00    -0.295 OA
HETATM   18  C23 UNL     1     -27.578  -6.743 -29.119  1.00  0.00     0.101 C 
HETATM   19  C24 UNL     1     -28.141  -7.503 -27.975  1.00  0.00     0.133 C 
HETATM   20  N1  UNL     1     -29.604  -7.639 -27.992  1.00  0.00    -0.349 N 
ENDROOT
BRANCH   1  21
HETATM   21  O1  UNL     1     -29.438  -6.770 -25.765  1.00  0.00    -0.326 OA
BRANCH  21  22
HETATM   22  C2  UNL     1     -29.389  -5.472 -25.375  1.00  0.00     0.058 C 
HETATM   23  C1  UNL     1     -28.161  -4.668 -25.806  1.00  0.00     0.045 C 
HETATM   24  C3  UNL     1     -29.258  -5.481 -23.829  1.00  0.00     0.045 C 
HETATM   25  C4  UNL     1     -30.546  -4.568 -25.708  1.00  0.00     0.045 C 
ENDBRANCH  21  22
ENDBRANCH   1  21
BRANCH  15  26
HETATM   26  O3  UNL     1     -30.296  -6.984 -31.422  1.00  0.00    -0.386 OA
ATOM     27  H3  UNL     1     -29.463  -7.032 -31.878  1.00  0.00     0.210 HD
ENDBRANCH  15  26
BRANCH   7  28
HETATM   28  C12 UNL     1     -34.534 -11.269 -27.143  1.00  0.00     0.031 C 
BRANCH  28  29
HETATM   29  C13 UNL     1     -35.526 -10.498 -27.937  1.00  0.00     0.164 C 
BRANCH  29  30
HETATM   30  O2  UNL     1     -36.787 -11.126 -27.670  1.00  0.00    -0.401 OA
ATOM     31  H2  UNL     1     -37.202 -11.219 -28.520  1.00  0.00     0.209 HD
ENDBRANCH  29  30
ENDBRANCH  28  29
ENDBRANCH   7  28
TORSDOF 6
ENDMDL
MODEL 4
REMARK VINA RESULT: -6.710134064      2.313      3.543
REMARK  6 active torsions:
REMARK  status: ('A' for Active; 'I' for Inactive)
REMARK    1  A    between atoms: C2_2  and  O1_5 
REMARK    2  A    between atoms: O1_5  and  C5_6 
REMARK    3  A    between atoms: C11_12  and  C12_13 
REMARK    4  A    between atoms: C12_13  and  C13_14 
REMARK    5  A    between atoms: C13_14  and  O2_15 
REMARK    6  A    between atoms: C21_24  and  O3_25 
ROOT
HETATM    1  C5  UNL     1     -31.750  -7.096 -27.133  1.00  0.00     0.144 C 
HETATM    2  C6  UNL     1     -31.944  -8.205 -26.423  1.00  0.00    -0.024 C 
HETATM    3  C7  UNL     1     -30.922  -9.308 -26.243  1.00  0.00     0.044 C 
HETATM    4  C8  UNL     1     -31.887 -10.427 -26.139  1.00  0.00    -0.001 C 
HETATM    5  C9  UNL     1     -31.510 -11.701 -25.564  1.00  0.00     0.006 C 
HETATM    6  C10 UNL     1     -32.740 -12.100 -24.717  1.00  0.00     0.006 C 
HETATM    7  C11 UNL     1     -33.742 -10.969 -25.024  1.00  0.00    -0.003 C 
HETATM    8  C14 UNL     1     -32.800  -9.840 -25.004  1.00  0.00    -0.029 C 
HETATM    9  C15 UNL     1     -31.950  -9.681 -23.773  1.00  0.00     0.016 C 
HETATM   10  C16 UNL     1     -33.161  -8.588 -25.639  1.00  0.00     0.028 C 
HETATM   11  C17 UNL     1     -33.342  -7.400 -24.713  1.00  0.00     0.012 C 
HETATM   12  C18 UNL     1     -34.275  -6.454 -25.355  1.00  0.00     0.035 C 
HETATM   13  C19 UNL     1     -33.863  -5.644 -26.497  1.00  0.00     0.063 C 
HETATM   14  C20 UNL     1     -35.087  -5.510 -27.417  1.00  0.00     0.041 C 
HETATM   15  C21 UNL     1     -33.568  -4.211 -26.037  1.00  0.00     0.215 C 
HETATM   16  C22 UNL     1     -33.127  -3.373 -27.182  1.00  0.00     0.159 C 
HETATM   17  O4  UNL     1     -33.008  -2.185 -26.999  1.00  0.00    -0.295 OA
HETATM   18  C23 UNL     1     -32.830  -3.914 -28.526  1.00  0.00     0.101 C 
HETATM   19  C24 UNL     1     -32.582  -5.376 -28.574  1.00  0.00     0.133 C 
HETATM   20  N1  UNL     1     -32.767  -6.070 -27.291  1.00  0.00    -0.349 N 
ENDROOT
BRANCH   1  21
HETATM   21  O1  UNL     1     -30.568  -6.910 -27.739  1.00  0.00    -0.326 OA
BRANCH  21  22
HETATM   22  C2  UNL     1     -29.371  -6.343 -27.446  1.00  0.00     0.058 C 
HETATM   23  C1  UNL     1     -29.013  -5.061 -28.200  1.00  0.00     0.045 C 
HETATM   24  C3  UNL     1     -28.283  -7.334 -27.934  1.00  0.00     0.045 C 
HETATM   25  C4  UNL     1     -29.052  -6.017 -26.011  1.00  0.00     0.045 C 
ENDBRANCH  21  22
ENDBRANCH   1  21
BRANCH  15  26
HETATM   26  O3  UNL     1     -34.777  -3.709 -25.540  1.00  0.00    -0.386 OA
ATOM     27  H3  UNL     1     -34.639  -3.569 -24.611  1.00  0.00     0.210 HD
ENDBRANCH  15  26
BRANCH   7  28
HETATM   28  C12 UNL     1     -34.978 -10.988 -24.270  1.00  0.00     0.031 C 
BRANCH  28  29
HETATM   29  C13 UNL     1     -35.793 -12.226 -24.166  1.00  0.00     0.164 C 
BRANCH  29  30
HETATM   30  O2  UNL     1     -36.404 -12.164 -22.870  1.00  0.00    -0.401 OA
ATOM     31  H2  UNL     1     -36.158 -12.975 -22.441  1.00  0.00     0.209 HD
ENDBRANCH  29  30
ENDBRANCH  28  29
ENDBRANCH   7  28
TORSDOF 6
ENDMDL
MODEL 5
REMARK VINA RESULT: -6.645075014      2.133      4.672
REMARK  6 active torsions:
REMARK  status: ('A' for Active; 'I' for Inactive)
REMARK    1  A    between atoms: C2_2  and  O1_5 
REMARK    2  A    between atoms: O1_5  and  C5_6 
REMARK    3  A    between atoms: C11_12  and  C12_13 
REMARK    4  A    between atoms: C12_13  and  C13_14 
REMARK    5  A    between atoms: C13_14  and  O2_15 
REMARK    6  A    between atoms: C21_24  and  O3_25 
ROOT
HETATM    1  C5  UNL     1     -30.452  -7.813 -26.806  1.00  0.00     0.144 C 
HETATM    2  C6  UNL     1     -31.070  -8.705 -26.033  1.00  0.00    -0.024 C 
HETATM    3  C7  UNL     1     -30.718  -8.989 -24.588  1.00  0.00     0.044 C 
HETATM    4  C8  UNL     1     -31.089 -10.423 -24.595  1.00  0.00    -0.001 C 
HETATM    5  C9  UNL     1     -31.339 -11.147 -23.366  1.00  0.00     0.006 C 
HETATM    6  C10 UNL     1     -32.564 -12.028 -23.702  1.00  0.00     0.006 C 
HETATM    7  C11 UNL     1     -32.794 -11.732 -25.197  1.00  0.00    -0.003 C 
HETATM    8  C14 UNL     1     -32.545 -10.282 -25.166  1.00  0.00    -0.029 C 
HETATM    9  C15 UNL     1     -33.344  -9.473 -24.180  1.00  0.00     0.016 C 
HETATM   10  C16 UNL     1     -32.233  -9.577 -26.393  1.00  0.00     0.028 C 
HETATM   11  C17 UNL     1     -33.264  -8.570 -26.863  1.00  0.00     0.012 C 
HETATM   12  C18 UNL     1     -33.144  -8.437 -28.328  1.00  0.00     0.035 C 
HETATM   13  C19 UNL     1     -32.017  -7.734 -28.932  1.00  0.00     0.063 C 
HETATM   14  C20 UNL     1     -31.679  -8.467 -30.240  1.00  0.00     0.041 C 
HETATM   15  C21 UNL     1     -32.458  -6.334 -29.379  1.00  0.00     0.215 C 
HETATM   16  C22 UNL     1     -31.320  -5.592 -29.979  1.00  0.00     0.159 C 
HETATM   17  O4  UNL     1     -31.555  -4.535 -30.514  1.00  0.00    -0.295 OA
HETATM   18  C23 UNL     1     -29.924  -6.079 -29.959  1.00  0.00     0.101 C 
HETATM   19  C24 UNL     1     -29.639  -7.128 -28.948  1.00  0.00     0.133 C 
HETATM   20  N1  UNL     1     -30.814  -7.586 -28.195  1.00  0.00    -0.349 N 
ENDROOT
BRANCH   1  21
HETATM   21  O1  UNL     1     -29.447  -7.092 -26.290  1.00  0.00    -0.326 OA
BRANCH  21  22
HETATM   22  C2  UNL     1     -29.272  -5.859 -25.752  1.00  0.00     0.058 C 
HETATM   23  C1  UNL     1     -29.012  -5.795 -24.246  1.00  0.00     0.045 C 
HETATM   24  C3  UNL     1     -30.630  -5.123 -25.890  1.00  0.00     0.045 C 
HETATM   25  C4  UNL     1     -28.223  -4.951 -26.338  1.00  0.00     0.045 C 
ENDBRANCH  21  22
ENDBRANCH   1  21
BRANCH  15  26
HETATM   26  O3  UNL     1     -33.442  -6.532 -30.354  1.00  0.00    -0.386 OA
ATOM     27  H3  UNL     1     -34.236  -6.141 -30.008  1.00  0.00     0.210 HD
ENDBRANCH  15  26
BRANCH   7  28
HETATM   28  C12 UNL     1     -33.972 -12.325 -25.792  1.00  0.00     0.031 C 
BRANCH  28  29
HETATM   29  C13 UNL     1     -35.187 -11.512 -26.060  1.00  0.00     0.164 C 
BRANCH  29  30
HETATM   30  O2  UNL     1     -35.268 -11.421 -27.489  1.00  0.00    -0.401 OA
ATOM     31  H2  UNL     1     -35.756 -10.623 -27.660  1.00  0.00     0.209 HD
ENDBRANCH  29  30
ENDBRANCH  28  29
ENDBRANCH   7  28
TORSDOF 6
ENDMDL
