MODEL 1
REMARK VINA RESULT: -8.256719852      0.000      0.000
REMARK  5 active torsions:
REMARK  status: ('A' for Active; 'I' for Inactive)
REMARK    1  A    between atoms: C2_2  and  N1_3 
REMARK       I    between atoms: N1_3  and  C3_5 
REMARK    2  A    between atoms: C3_5  and  O2_7 
REMARK    3  A    between atoms: O2_7  and  C4_8 
REMARK    4  A    between atoms: C17_21  and  O3_22 
REMARK    5  A    between atoms: O3_22  and  S1_23 
ROOT
HETATM    1  C4  UNL     1     -30.374 -11.545 -23.569  1.00  0.00     0.138 C 
HETATM    2  C5  UNL     1     -29.640 -10.299 -23.135  1.00  0.00     0.033 C 
HETATM    3  C6  UNL     1     -29.808  -9.080 -23.922  1.00  0.00     0.007 C 
HETATM    4  C7  UNL     1     -31.011  -8.912 -24.777  1.00  0.00    -0.010 C 
HETATM    5  C8  UNL     1     -31.999  -7.902 -24.239  1.00  0.00     0.005 C 
HETATM    6  C9  UNL     1     -33.066  -7.482 -25.155  1.00  0.00     0.005 C 
HETATM    7  C10 UNL     1     -34.211  -8.407 -25.442  1.00  0.00    -0.010 C 
HETATM    8  C11 UNL     1     -34.207  -8.619 -26.963  1.00  0.00     0.005 C 
HETATM    9  C12 UNL     1     -32.863  -9.346 -27.106  1.00  0.00     0.006 C 
HETATM   10  C13 UNL     1     -32.835 -10.214 -25.897  1.00  0.00    -0.005 C 
HETATM   11  C14 UNL     1     -33.882  -9.742 -24.936  1.00  0.00     0.000 C 
HETATM   12  C15 UNL     1     -34.852 -10.808 -24.715  1.00  0.00     0.017 C 
HETATM   13  C16 UNL     1     -35.514 -11.422 -25.886  1.00  0.00     0.013 C 
HETATM   14  C17 UNL     1     -34.199 -11.829 -23.790  1.00  0.00     0.149 C 
HETATM   15  C18 UNL     1     -32.783 -12.149 -24.035  1.00  0.00     0.041 C 
HETATM   16  C19 UNL     1     -31.800 -11.055 -23.884  1.00  0.00     0.022 C 
HETATM   17  C20 UNL     1     -31.567 -10.232 -25.130  1.00  0.00     0.001 C 
ENDROOT
BRANCH   1  18
HETATM   18  O2  UNL     1     -29.793 -12.171 -24.667  1.00  0.00    -0.298 OA
BRANCH  18  19
HETATM   19  C3  UNL     1     -29.480 -13.521 -24.593  1.00  0.00     0.360 C 
HETATM   20  N1  UNL     1     -30.356 -14.516 -25.097  1.00  0.00    -0.337 N 
ATOM     21  H1  UNL     1     -31.242 -14.248 -25.526  1.00  0.00     0.164 HD
HETATM   22  O1  UNL     1     -28.376 -13.834 -24.057  1.00  0.00    -0.239 OA
BRANCH  20  23
HETATM   23  C2  UNL     1     -29.990 -15.908 -24.999  1.00  0.00     0.120 C 
HETATM   24  C1  UNL     1     -29.356 -16.317 -26.311  1.00  0.00     0.026 C 
ENDBRANCH  20  23
ENDBRANCH  18  19
ENDBRANCH   1  18
BRANCH  14  25
HETATM   25  O3  UNL     1     -34.948 -13.003 -23.919  1.00  0.00    -0.251 OA
BRANCH  25  26
HETATM   26  S1  UNL     1     -35.778 -13.400 -22.538  1.00  0.00     0.251 S 
HETATM   27  O4  UNL     1     -36.532 -12.160 -22.077  1.00  0.00    -0.572 OA
HETATM   28  O5  UNL     1     -34.914 -13.844 -21.417  1.00  0.00    -0.572 OA
HETATM   29  O6  UNL     1     -36.972 -14.565 -22.844  1.00  0.00    -0.572 OA
ENDBRANCH  25  26
ENDBRANCH  14  25
TORSDOF 5
ENDMDL
MODEL 2
REMARK VINA RESULT: -7.713476365      3.212      5.585
REMARK  5 active torsions:
REMARK  status: ('A' for Active; 'I' for Inactive)
REMARK    1  A    between atoms: C2_2  and  N1_3 
REMARK       I    between atoms: N1_3  and  C3_5 
REMARK    2  A    between atoms: C3_5  and  O2_7 
REMARK    3  A    between atoms: O2_7  and  C4_8 
REMARK    4  A    between atoms: C17_21  and  O3_22 
REMARK    5  A    between atoms: O3_22  and  S1_23 
ROOT
HETATM    1  C4  UNL     1     -34.169 -10.850 -25.680  1.00  0.00     0.138 C 
HETATM    2  C5  UNL     1     -34.464 -11.109 -27.138  1.00  0.00     0.033 C 
HETATM    3  C6  UNL     1     -34.861  -9.983 -27.980  1.00  0.00     0.007 C 
HETATM    4  C7  UNL     1     -34.500  -8.598 -27.582  1.00  0.00    -0.010 C 
HETATM    5  C8  UNL     1     -33.412  -7.987 -28.434  1.00  0.00     0.005 C 
HETATM    6  C9  UNL     1     -33.197  -6.544 -28.282  1.00  0.00     0.005 C 
HETATM    7  C10 UNL     1     -32.499  -6.016 -27.065  1.00  0.00    -0.010 C 
HETATM    8  C11 UNL     1     -33.485  -5.039 -26.407  1.00  0.00     0.005 C 
HETATM    9  C12 UNL     1     -34.591  -6.029 -26.021  1.00  0.00     0.006 C 
HETATM   10  C13 UNL     1     -33.819  -7.229 -25.598  1.00  0.00    -0.005 C 
HETATM   11  C14 UNL     1     -32.405  -7.088 -26.069  1.00  0.00     0.000 C 
HETATM   12  C15 UNL     1     -31.509  -7.075 -24.920  1.00  0.00     0.017 C 
HETATM   13  C16 UNL     1     -31.755  -6.099 -23.836  1.00  0.00     0.013 C 
HETATM   14  C17 UNL     1     -31.394  -8.511 -24.420  1.00  0.00     0.149 C 
HETATM   15  C18 UNL     1     -32.627  -9.314 -24.395  1.00  0.00     0.041 C 
HETATM   16  C19 UNL     1     -33.293  -9.584 -25.688  1.00  0.00     0.022 C 
HETATM   17  C20 UNL     1     -34.288  -8.533 -26.123  1.00  0.00     0.001 C 
ENDROOT
BRANCH   1  18
HETATM   18  O2  UNL     1     -35.315 -10.676 -24.910  1.00  0.00    -0.298 OA
BRANCH  18  19
HETATM   19  C3  UNL     1     -35.671 -11.652 -23.990  1.00  0.00     0.360 C 
HETATM   20  N1  UNL     1     -34.770 -12.679 -23.610  1.00  0.00    -0.337 N 
ATOM     21  H1  UNL     1     -33.834 -12.714 -24.014  1.00  0.00     0.164 HD
HETATM   22  O1  UNL     1     -36.836 -11.591 -23.498  1.00  0.00    -0.239 OA
BRANCH  20  23
HETATM   23  C2  UNL     1     -35.181 -13.673 -22.649  1.00  0.00     0.120 C 
HETATM   24  C1  UNL     1     -34.535 -13.338 -21.322  1.00  0.00     0.026 C 
ENDBRANCH  20  23
ENDBRANCH  18  19
ENDBRANCH   1  18
BRANCH  14  25
HETATM   25  O3  UNL     1     -30.892  -8.429 -23.117  1.00  0.00    -0.251 OA
BRANCH  25  26
HETATM   26  S1  UNL     1     -29.762  -9.597 -22.781  1.00  0.00     0.251 S 
HETATM   27  O4  UNL     1     -29.396  -9.478 -21.308  1.00  0.00    -0.572 OA
HETATM   28  O5  UNL     1     -28.510  -9.474 -23.568  1.00  0.00    -0.572 OA
HETATM   29  O6  UNL     1     -30.407 -11.155 -22.960  1.00  0.00    -0.572 OA
ENDBRANCH  25  26
ENDBRANCH  14  25
TORSDOF 5
ENDMDL
MODEL 3
REMARK VINA RESULT: -7.695039463      3.865      6.184
REMARK  5 active torsions:
REMARK  status: ('A' for Active; 'I' for Inactive)
REMARK    1  A    between atoms: C2_2  and  N1_3 
REMARK       I    between atoms: N1_3  and  C3_5 
REMARK    2  A    between atoms: C3_5  and  O2_7 
REMARK    3  A    between atoms: O2_7  and  C4_8 
REMARK    4  A    between atoms: C17_21  and  O3_22 
REMARK    5  A    between atoms: O3_22  and  S1_23 
ROOT
HETATM    1  C4  UNL     1     -33.632  -9.958 -25.514  1.00  0.00     0.138 C 
HETATM    2  C5  UNL     1     -33.564 -10.476 -26.931  1.00  0.00     0.033 C 
HETATM    3  C6  UNL     1     -33.997  -9.599 -28.016  1.00  0.00     0.007 C 
HETATM    4  C7  UNL     1     -34.009  -8.127 -27.817  1.00  0.00    -0.010 C 
HETATM    5  C8  UNL     1     -32.913  -7.406 -28.568  1.00  0.00     0.005 C 
HETATM    6  C9  UNL     1     -33.027  -5.945 -28.643  1.00  0.00     0.005 C 
HETATM    7  C10 UNL     1     -32.714  -5.108 -27.439  1.00  0.00    -0.010 C 
HETATM    8  C11 UNL     1     -33.988  -4.303 -27.145  1.00  0.00     0.005 C 
HETATM    9  C12 UNL     1     -34.929  -5.458 -26.781  1.00  0.00     0.006 C 
HETATM   10  C13 UNL     1     -34.037  -6.378 -26.024  1.00  0.00    -0.005 C 
HETATM   11  C14 UNL     1     -32.613  -5.981 -26.266  1.00  0.00     0.000 C 
HETATM   12  C15 UNL     1     -31.994  -5.604 -25.002  1.00  0.00     0.017 C 
HETATM   13  C16 UNL     1     -32.646  -4.571 -24.170  1.00  0.00     0.013 C 
HETATM   14  C17 UNL     1     -31.699  -6.892 -24.241  1.00  0.00     0.149 C 
HETATM   15  C18 UNL     1     -32.726  -7.946 -24.282  1.00  0.00     0.041 C 
HETATM   16  C19 UNL     1     -33.044  -8.538 -25.600  1.00  0.00     0.022 C 
HETATM   17  C20 UNL     1     -34.118  -7.814 -26.379  1.00  0.00     0.001 C 
ENDROOT
BRANCH   1  18
HETATM   18  O2  UNL     1     -34.923  -9.948 -24.994  1.00  0.00    -0.298 OA
BRANCH  18  19
HETATM   19  C3  UNL     1     -35.524 -11.148 -24.642  1.00  0.00     0.360 C 
HETATM   20  N1  UNL     1     -35.108 -11.881 -23.502  1.00  0.00    -0.337 N 
ATOM     21  H1  UNL     1     -34.350 -11.531 -22.916  1.00  0.00     0.164 HD
HETATM   22  O1  UNL     1     -36.463 -11.567 -25.381  1.00  0.00    -0.239 OA
BRANCH  20  23
HETATM   23  C2  UNL     1     -35.762 -13.124 -23.173  1.00  0.00     0.120 C 
HETATM   24  C1  UNL     1     -35.595 -13.362 -21.687  1.00  0.00     0.026 C 
ENDBRANCH  20  23
ENDBRANCH  18  19
ENDBRANCH   1  18
BRANCH  14  25
HETATM   25  O3  UNL     1     -31.501  -6.518 -22.908  1.00  0.00    -0.251 OA
BRANCH  25  26
HETATM   26  S1  UNL     1     -30.009  -6.950 -22.325  1.00  0.00     0.251 S 
HETATM   27  O4  UNL     1     -29.958  -6.570 -20.851  1.00  0.00    -0.572 OA
HETATM   28  O5  UNL     1     -28.875  -6.274 -23.003  1.00  0.00    -0.572 OA
HETATM   29  O6  UNL     1     -29.789  -8.630 -22.366  1.00  0.00    -0.572 OA
ENDBRANCH  25  26
ENDBRANCH  14  25
TORSDOF 5
ENDMDL
MODEL 4
REMARK VINA RESULT: -7.668707601      3.797      6.079
REMARK  5 active torsions:
REMARK  status: ('A' for Active; 'I' for Inactive)
REMARK    1  A    between atoms: C2_2  and  N1_3 
REMARK       I    between atoms: N1_3  and  C3_5 
REMARK    2  A    between atoms: C3_5  and  O2_7 
REMARK    3  A    between atoms: O2_7  and  C4_8 
REMARK    4  A    between atoms: C17_21  and  O3_22 
REMARK    5  A    between atoms: O3_22  and  S1_23 
ROOT
HETATM    1  C4  UNL     1     -29.649  -9.428 -23.847  1.00  0.00     0.138 C 
HETATM    2  C5  UNL     1     -28.453 -10.348 -23.900  1.00  0.00     0.033 C 
HETATM    3  C6  UNL     1     -28.630 -11.745 -23.514  1.00  0.00     0.007 C 
HETATM    4  C7  UNL     1     -29.980 -12.362 -23.566  1.00  0.00    -0.010 C 
HETATM    5  C8  UNL     1     -30.151 -13.350 -24.697  1.00  0.00     0.005 C 
HETATM    6  C9  UNL     1     -31.349 -14.196 -24.650  1.00  0.00     0.005 C 
HETATM    7  C10 UNL     1     -32.687 -13.615 -24.993  1.00  0.00    -0.010 C 
HETATM    8  C11 UNL     1     -33.569 -13.832 -23.755  1.00  0.00     0.005 C 
HETATM    9  C12 UNL     1     -32.820 -12.936 -22.760  1.00  0.00     0.006 C 
HETATM   10  C13 UNL     1     -32.416 -11.780 -23.607  1.00  0.00    -0.005 C 
HETATM   11  C14 UNL     1     -32.572 -12.155 -25.048  1.00  0.00     0.000 C 
HETATM   12  C15 UNL     1     -33.544 -11.269 -25.676  1.00  0.00     0.017 C 
HETATM   13  C16 UNL     1     -34.884 -11.134 -25.066  1.00  0.00     0.013 C 
HETATM   14  C17 UNL     1     -32.852  -9.930 -25.909  1.00  0.00     0.149 C 
HETATM   15  C18 UNL     1     -31.975  -9.433 -24.836  1.00  0.00     0.041 C 
HETATM   16  C19 UNL     1     -30.783 -10.241 -24.499  1.00  0.00     0.022 C 
HETATM   17  C20 UNL     1     -31.015 -11.316 -23.463  1.00  0.00     0.001 C 
ENDROOT
BRANCH   1  18
HETATM   18  O2  UNL     1     -29.980  -9.031 -22.556  1.00  0.00    -0.298 OA
BRANCH  18  19
HETATM   19  C3  UNL     1     -29.992  -7.680 -22.241  1.00  0.00     0.360 C 
HETATM   20  N1  UNL     1     -30.149  -7.229 -20.906  1.00  0.00    -0.337 N 
ATOM     21  H1  UNL     1     -30.257  -7.902 -20.148  1.00  0.00     0.164 HD
HETATM   22  O1  UNL     1     -29.856  -6.858 -23.195  1.00  0.00    -0.239 OA
BRANCH  20  23
HETATM   23  C2  UNL     1     -30.155  -5.814 -20.624  1.00  0.00     0.120 C 
HETATM   24  C1  UNL     1     -30.883  -5.602 -19.313  1.00  0.00     0.026 C 
ENDBRANCH  20  23
ENDBRANCH  18  19
ENDBRANCH   1  18
BRANCH  14  25
HETATM   25  O3  UNL     1     -33.873  -8.997 -26.115  1.00  0.00    -0.251 OA
BRANCH  25  26
HETATM   26  S1  UNL     1     -33.670  -8.106 -27.500  1.00  0.00     0.251 S 
HETATM   27  O4  UNL     1     -34.652  -6.944 -27.453  1.00  0.00    -0.572 OA
HETATM   28  O5  UNL     1     -33.926  -8.862 -28.751  1.00  0.00    -0.572 OA
HETATM   29  O6  UNL     1     -32.132  -7.394 -27.560  1.00  0.00    -0.572 OA
ENDBRANCH  25  26
ENDBRANCH  14  25
TORSDOF 5
ENDMDL
MODEL 5
REMARK VINA RESULT: -7.461489848      3.714      6.003
REMARK  5 active torsions:
REMARK  status: ('A' for Active; 'I' for Inactive)
REMARK    1  A    between atoms: C2_2  and  N1_3 
REMARK       I    between atoms: N1_3  and  C3_5 
REMARK    2  A    between atoms: C3_5  and  O2_7 
REMARK    3  A    between atoms: O2_7  and  C4_8 
REMARK    4  A    between atoms: C17_21  and  O3_22 
REMARK    5  A    between atoms: O3_22  and  S1_23 
ROOT
HETATM    1  C4  UNL     1     -33.368  -9.347 -27.463  1.00  0.00     0.138 C 
HETATM    2  C5  UNL     1     -33.236  -9.071 -28.941  1.00  0.00     0.033 C 
HETATM    3  C6  UNL     1     -33.598  -7.746 -29.438  1.00  0.00     0.007 C 
HETATM    4  C7  UNL     1     -33.596  -6.583 -28.514  1.00  0.00    -0.010 C 
HETATM    5  C8  UNL     1     -32.452  -5.624 -28.749  1.00  0.00     0.005 C 
HETATM    6  C9  UNL     1     -32.538  -4.327 -28.069  1.00  0.00     0.005 C 
HETATM    7  C10 UNL     1     -32.273  -4.236 -26.596  1.00  0.00    -0.010 C 
HETATM    8  C11 UNL     1     -33.548  -3.644 -25.977  1.00  0.00     0.005 C 
HETATM    9  C12 UNL     1     -34.525  -4.784 -26.291  1.00  0.00     0.006 C 
HETATM   10  C13 UNL     1     -33.688  -5.996 -26.080  1.00  0.00    -0.005 C 
HETATM   11  C14 UNL     1     -32.247  -5.589 -26.034  1.00  0.00     0.000 C 
HETATM   12  C15 UNL     1     -31.687  -5.936 -24.734  1.00  0.00     0.017 C 
HETATM   13  C16 UNL     1     -32.365  -5.449 -23.513  1.00  0.00     0.013 C 
HETATM   14  C17 UNL     1     -31.453  -7.443 -24.730  1.00  0.00     0.149 C 
HETATM   15  C18 UNL     1     -32.494  -8.286 -25.343  1.00  0.00     0.041 C 
HETATM   16  C19 UNL     1     -32.754  -8.108 -26.788  1.00  0.00     0.022 C 
HETATM   17  C20 UNL     1     -33.774  -7.045 -27.124  1.00  0.00     0.001 C 
ENDROOT
BRANCH   1  18
HETATM   18  O2  UNL     1     -34.683  -9.552 -27.057  1.00  0.00    -0.298 OA
BRANCH  18  19
HETATM   19  C3  UNL     1     -35.000 -10.687 -26.325  1.00  0.00     0.360 C 
HETATM   20  N1  UNL     1     -35.269 -10.623 -24.934  1.00  0.00    -0.337 N 
ATOM     21  H1  UNL     1     -35.233  -9.728 -24.447  1.00  0.00     0.164 HD
HETATM   22  O1  UNL     1     -35.041 -11.789 -26.947  1.00  0.00    -0.239 OA
BRANCH  20  23
HETATM   23  C2  UNL     1     -35.595 -11.827 -24.211  1.00  0.00     0.120 C 
HETATM   24  C1  UNL     1     -34.317 -12.373 -23.610  1.00  0.00     0.026 C 
ENDBRANCH  20  23
ENDBRANCH  18  19
ENDBRANCH   1  18
BRANCH  14  25
HETATM   25  O3  UNL     1     -31.319  -7.811 -23.387  1.00  0.00    -0.251 OA
BRANCH  25  26
HETATM   26  S1  UNL     1     -30.223  -9.035 -23.155  1.00  0.00     0.251 S 
HETATM   27  O4  UNL     1     -29.702  -8.928 -21.728  1.00  0.00    -0.572 OA
HETATM   28  O5  UNL     1     -29.053  -8.983 -24.066  1.00  0.00    -0.572 OA
HETATM   29  O6  UNL     1     -30.963 -10.558 -23.251  1.00  0.00    -0.572 OA
ENDBRANCH  25  26
ENDBRANCH  14  25
TORSDOF 5
ENDMDL
