MODEL 1
REMARK VINA RESULT: -7.674264295      0.000      0.000
REMARK  5 active torsions:
REMARK  status: ('A' for Active; 'I' for Inactive)
REMARK    1  A    between atoms: C2_2  and  C4_4 
REMARK    2  A    between atoms: C11_11  and  O1_12 
REMARK    3  A    between atoms: C14_16  and  C15_17 
REMARK    4  A    between atoms: C15_17  and  O2_18 
REMARK    5  A    between atoms: C16_21  and  C17_22 
ROOT
HETATM    1  C4  UNL     1       5.885  15.328 -46.419  1.00  0.00     0.019 C 
HETATM    2  C5  UNL     1       4.968  14.144 -46.807  1.00  0.00     0.010 C 
HETATM    3  C6  UNL     1       4.904  13.190 -45.677  1.00  0.00     0.006 C 
HETATM    4  C7  UNL     1       4.098  13.845 -44.576  1.00  0.00    -0.008 C 
HETATM    5  C8  UNL     1       2.661  13.415 -44.832  1.00  0.00     0.011 C 
HETATM    6  C9  UNL     1       4.291  15.317 -44.451  1.00  0.00    -0.009 C 
HETATM    7  C10 UNL     1       3.047  16.052 -44.796  1.00  0.00     0.018 C 
HETATM    8  C11 UNL     1       4.485  15.569 -42.936  1.00  0.00     0.127 C 
HETATM    9  C12 UNL     1       4.671  16.994 -42.615  1.00  0.00     0.041 C 
HETATM   10  C13 UNL     1       5.584  17.779 -43.508  1.00  0.00     0.032 C 
HETATM   11  C14 UNL     1       5.299  19.223 -43.308  1.00  0.00     0.157 C 
HETATM   12  O3  UNL     1       4.997  19.975 -44.451  1.00  0.00    -0.341 OA
HETATM   13  C16 UNL     1       4.490  19.359 -45.583  1.00  0.00     0.104 C 
HETATM   14  C18 UNL     1       4.785  18.101 -45.848  1.00  0.00     0.023 C 
HETATM   15  C19 UNL     1       5.662  17.334 -44.937  1.00  0.00    -0.012 C 
HETATM   16  C20 UNL     1       7.066  17.797 -45.403  1.00  0.00     0.020 C 
HETATM   17  C21 UNL     1       5.566  15.842 -45.075  1.00  0.00     0.017 C 
ENDROOT
BRANCH   1  18
HETATM   18  C2  UNL     1       7.232  14.781 -46.670  1.00  0.00    -0.088 C 
HETATM   19  C1  UNL     1       8.334  14.928 -45.990  1.00  0.00     0.014 C 
HETATM   20  C3  UNL     1       7.379  13.911 -47.916  1.00  0.00     0.043 C 
ENDBRANCH   1  18
BRANCH   8  21
HETATM   21  O1  UNL     1       5.587  14.844 -42.475  1.00  0.00    -0.395 OA
ATOM     22  H1  UNL     1       5.292  14.046 -42.052  1.00  0.00     0.210 HD
ENDBRANCH   8  21
BRANCH  11  23
HETATM   23  C15 UNL     1       6.452  19.957 -42.605  1.00  0.00     0.197 C 
BRANCH  23  24
HETATM   24  O2  UNL     1       6.043  21.227 -42.205  1.00  0.00    -0.398 OA
ATOM     25  H2  UNL     1       6.655  21.586 -41.574  1.00  0.00     0.209 HD
ENDBRANCH  23  24
ENDBRANCH  11  23
BRANCH  13  26
HETATM   26  C17 UNL     1       3.632  20.127 -46.468  1.00  0.00     0.294 C 
HETATM   27  O4  UNL     1       3.024  21.144 -46.062  1.00  0.00    -0.299 OA
ENDBRANCH  13  26
TORSDOF 5
ENDMDL
MODEL 2
REMARK VINA RESULT: -6.947177822      2.796      6.054
REMARK  5 active torsions:
REMARK  status: ('A' for Active; 'I' for Inactive)
REMARK    1  A    between atoms: C2_2  and  C4_4 
REMARK    2  A    between atoms: C11_11  and  O1_12 
REMARK    3  A    between atoms: C14_16  and  C15_17 
REMARK    4  A    between atoms: C15_17  and  O2_18 
REMARK    5  A    between atoms: C16_21  and  C17_22 
ROOT
HETATM    1  C4  UNL     1       5.941  19.450 -43.894  1.00  0.00     0.019 C 
HETATM    2  C5  UNL     1       4.417  19.553 -43.652  1.00  0.00     0.010 C 
HETATM    3  C6  UNL     1       3.895  20.752 -44.346  1.00  0.00     0.006 C 
HETATM    4  C7  UNL     1       3.944  20.472 -45.833  1.00  0.00    -0.008 C 
HETATM    5  C8  UNL     1       2.588  19.868 -46.165  1.00  0.00     0.011 C 
HETATM    6  C9  UNL     1       5.111  19.658 -46.278  1.00  0.00    -0.009 C 
HETATM    7  C10 UNL     1       4.675  18.332 -46.785  1.00  0.00     0.018 C 
HETATM    8  C11 UNL     1       5.660  20.392 -47.525  1.00  0.00     0.127 C 
HETATM    9  C12 UNL     1       6.820  19.709 -48.123  1.00  0.00     0.041 C 
HETATM   10  C13 UNL     1       7.866  19.194 -47.181  1.00  0.00     0.032 C 
HETATM   11  C14 UNL     1       8.684  18.186 -47.902  1.00  0.00     0.157 C 
HETATM   12  O3  UNL     1       8.805  16.922 -47.310  1.00  0.00    -0.341 OA
HETATM   13  C16 UNL     1       7.844  16.469 -46.421  1.00  0.00     0.104 C 
HETATM   14  C18 UNL     1       7.150  17.324 -45.695  1.00  0.00     0.023 C 
HETATM   15  C19 UNL     1       7.391  18.778 -45.821  1.00  0.00    -0.012 C 
HETATM   16  C20 UNL     1       8.633  18.961 -44.913  1.00  0.00     0.020 C 
HETATM   17  C21 UNL     1       6.278  19.649 -45.315  1.00  0.00     0.017 C 
ENDROOT
BRANCH   1  18
HETATM   18  C2  UNL     1       6.484  20.392 -42.896  1.00  0.00    -0.088 C 
HETATM   19  C1  UNL     1       6.653  20.243 -41.612  1.00  0.00     0.014 C 
HETATM   20  C3  UNL     1       6.914  21.756 -43.429  1.00  0.00     0.043 C 
ENDBRANCH   1  18
BRANCH   8  21
HETATM   21  O1  UNL     1       6.020  21.698 -47.184  1.00  0.00    -0.395 OA
ATOM     22  H1  UNL     1       6.959  21.806 -47.275  1.00  0.00     0.210 HD
ENDBRANCH   8  21
BRANCH  11  23
HETATM   23  C15 UNL     1      10.119  18.674 -48.165  1.00  0.00     0.197 C 
BRANCH  23  24
HETATM   24  O2  UNL     1      10.268  19.990 -47.732  1.00  0.00    -0.398 OA
ATOM     25  H2  UNL     1       9.431  20.439 -47.753  1.00  0.00     0.209 HD
ENDBRANCH  23  24
ENDBRANCH  11  23
BRANCH  13  26
HETATM   26  C17 UNL     1       7.620  15.039 -46.308  1.00  0.00     0.294 C 
HETATM   27  O4  UNL     1       6.852  14.569 -45.436  1.00  0.00    -0.299 OA
ENDBRANCH  13  26
TORSDOF 5
ENDMDL
MODEL 3
REMARK VINA RESULT: -6.748286036      1.593      3.991
REMARK  5 active torsions:
REMARK  status: ('A' for Active; 'I' for Inactive)
REMARK    1  A    between atoms: C2_2  and  C4_4 
REMARK    2  A    between atoms: C11_11  and  O1_12 
REMARK    3  A    between atoms: C14_16  and  C15_17 
REMARK    4  A    between atoms: C15_17  and  O2_18 
REMARK    5  A    between atoms: C16_21  and  C17_22 
ROOT
HETATM    1  C4  UNL     1       4.790  15.606 -43.795  1.00  0.00     0.019 C 
HETATM    2  C5  UNL     1       5.934  14.565 -43.810  1.00  0.00     0.010 C 
HETATM    3  C6  UNL     1       6.113  14.060 -45.189  1.00  0.00     0.006 C 
HETATM    4  C7  UNL     1       6.717  15.180 -46.008  1.00  0.00    -0.008 C 
HETATM    5  C8  UNL     1       8.221  14.983 -45.897  1.00  0.00     0.011 C 
HETATM    6  C9  UNL     1       6.242  16.546 -45.646  1.00  0.00    -0.009 C 
HETATM    7  C10 UNL     1       7.343  17.359 -45.068  1.00  0.00     0.018 C 
HETATM    8  C11 UNL     1       5.918  17.230 -46.996  1.00  0.00     0.127 C 
HETATM    9  C12 UNL     1       5.449  18.616 -46.833  1.00  0.00     0.041 C 
HETATM   10  C13 UNL     1       4.456  18.875 -45.739  1.00  0.00     0.032 C 
HETATM   11  C14 UNL     1       4.453  20.332 -45.452  1.00  0.00     0.157 C 
HETATM   12  O3  UNL     1       4.672  20.719 -44.124  1.00  0.00    -0.341 OA
HETATM   13  C16 UNL     1       5.350  19.882 -43.252  1.00  0.00     0.104 C 
HETATM   14  C18 UNL     1       5.313  18.574 -43.417  1.00  0.00     0.023 C 
HETATM   15  C19 UNL     1       4.546  17.985 -44.536  1.00  0.00    -0.012 C 
HETATM   16  C20 UNL     1       3.109  17.988 -43.955  1.00  0.00     0.020 C 
HETATM   17  C21 UNL     1       4.929  16.578 -44.894  1.00  0.00     0.017 C 
ENDROOT
BRANCH   1  18
HETATM   18  C2  UNL     1       3.587  14.753 -43.749  1.00  0.00    -0.088 C 
HETATM   19  C1  UNL     1       2.639  14.694 -42.856  1.00  0.00     0.014 C 
HETATM   20  C3  UNL     1       3.411  13.782 -44.913  1.00  0.00     0.043 C 
ENDBRANCH   1  18
BRANCH   8  21
HETATM   21  O1  UNL     1       4.948  16.491 -47.678  1.00  0.00    -0.395 OA
ATOM     22  H1  UNL     1       4.638  15.782 -47.126  1.00  0.00     0.210 HD
ENDBRANCH   8  21
BRANCH  11  23
HETATM   23  C15 UNL     1       3.143  21.012 -45.884  1.00  0.00     0.197 C 
BRANCH  23  24
HETATM   24  O2  UNL     1       2.447  21.472 -44.769  1.00  0.00    -0.398 OA
ATOM     25  H2  UNL     1       1.514  21.484 -44.945  1.00  0.00     0.209 HD
ENDBRANCH  23  24
ENDBRANCH  11  23
BRANCH  13  26
HETATM   26  C17 UNL     1       6.098  20.476 -42.157  1.00  0.00     0.294 C 
HETATM   27  O4  UNL     1       6.832  21.475 -42.339  1.00  0.00    -0.299 OA
ENDBRANCH  13  26
TORSDOF 5
ENDMDL
MODEL 4
REMARK VINA RESULT: -6.672455289      3.301      4.985
REMARK  5 active torsions:
REMARK  status: ('A' for Active; 'I' for Inactive)
REMARK    1  A    between atoms: C2_2  and  C4_4 
REMARK    2  A    between atoms: C11_11  and  O1_12 
REMARK    3  A    between atoms: C14_16  and  C15_17 
REMARK    4  A    between atoms: C15_17  and  O2_18 
REMARK    5  A    between atoms: C16_21  and  C17_22 
ROOT
HETATM    1  C4  UNL     1       6.615  19.633 -46.656  1.00  0.00     0.019 C 
HETATM    2  C5  UNL     1       5.356  18.766 -46.889  1.00  0.00     0.010 C 
HETATM    3  C6  UNL     1       5.012  18.062 -45.633  1.00  0.00     0.006 C 
HETATM    4  C7  UNL     1       4.487  19.098 -44.662  1.00  0.00    -0.008 C 
HETATM    5  C8  UNL     1       2.983  19.124 -44.889  1.00  0.00     0.011 C 
HETATM    6  C9  UNL     1       5.149  20.431 -44.750  1.00  0.00    -0.009 C 
HETATM    7  C10 UNL     1       4.203  21.468 -45.233  1.00  0.00     0.018 C 
HETATM    8  C11 UNL     1       5.449  20.827 -43.284  1.00  0.00     0.127 C 
HETATM    9  C12 UNL     1       6.094  22.146 -43.172  1.00  0.00     0.041 C 
HETATM   10  C13 UNL     1       7.191  22.453 -44.146  1.00  0.00     0.032 C 
HETATM   11  C14 UNL     1       7.393  23.924 -44.170  1.00  0.00     0.157 C 
HETATM   12  O3  UNL     1       7.325  24.556 -45.418  1.00  0.00    -0.341 OA
HETATM   13  C16 UNL     1       6.620  23.976 -46.460  1.00  0.00     0.104 C 
HETATM   14  C18 UNL     1       6.486  22.665 -46.528  1.00  0.00     0.023 C 
HETATM   15  C19 UNL     1       7.088  21.800 -45.492  1.00  0.00    -0.012 C 
HETATM   16  C20 UNL     1       8.555  21.710 -45.983  1.00  0.00     0.020 C 
HETATM   17  C21 UNL     1       6.511  20.416 -45.411  1.00  0.00     0.017 C 
ENDROOT
BRANCH   1  18
HETATM   18  C2  UNL     1       7.707  18.649 -46.787  1.00  0.00    -0.088 C 
HETATM   19  C1  UNL     1       8.177  18.059 -47.850  1.00  0.00     0.014 C 
HETATM   20  C3  UNL     1       8.401  18.244 -45.489  1.00  0.00     0.043 C 
ENDBRANCH   1  18
BRANCH   8  21
HETATM   21  O1  UNL     1       6.268  19.862 -42.692  1.00  0.00    -0.395 OA
ATOM     22  H1  UNL     1       6.296  19.998 -41.752  1.00  0.00     0.210 HD
ENDBRANCH   8  21
BRANCH  11  23
HETATM   23  C15 UNL     1       8.738  24.341 -43.552  1.00  0.00     0.197 C 
BRANCH  23  24
HETATM   24  O2  UNL     1       8.549  24.801 -42.250  1.00  0.00    -0.398 OA
ATOM     25  H2  UNL     1       8.692  24.097 -41.630  1.00  0.00     0.209 HD
ENDBRANCH  23  24
ENDBRANCH  11  23
BRANCH  13  26
HETATM   26  C17 UNL     1       6.036  24.840 -47.471  1.00  0.00     0.294 C 
HETATM   27  O4  UNL     1       6.681  25.172 -48.493  1.00  0.00    -0.299 OA
ENDBRANCH  13  26
TORSDOF 5
ENDMDL
MODEL 5
REMARK VINA RESULT: -6.398693222      2.182      5.673
REMARK  5 active torsions:
REMARK  status: ('A' for Active; 'I' for Inactive)
REMARK    1  A    between atoms: C2_2  and  C4_4 
REMARK    2  A    between atoms: C11_11  and  O1_12 
REMARK    3  A    between atoms: C14_16  and  C15_17 
REMARK    4  A    between atoms: C15_17  and  O2_18 
REMARK    5  A    between atoms: C16_21  and  C17_22 
ROOT
HETATM    1  C4  UNL     1       3.893  19.098 -44.372  1.00  0.00     0.019 C 
HETATM    2  C5  UNL     1       3.684  19.996 -45.613  1.00  0.00     0.010 C 
HETATM    3  C6  UNL     1       4.995  20.516 -46.062  1.00  0.00     0.006 C 
HETATM    4  C7  UNL     1       5.763  19.355 -46.658  1.00  0.00    -0.008 C 
HETATM    5  C8  UNL     1       5.413  19.371 -48.138  1.00  0.00     0.011 C 
HETATM    6  C9  UNL     1       5.541  18.046 -45.982  1.00  0.00    -0.009 C 
HETATM    7  C10 UNL     1       4.840  17.092 -46.881  1.00  0.00     0.018 C 
HETATM    8  C11 UNL     1       6.955  17.443 -45.800  1.00  0.00     0.127 C 
HETATM    9  C12 UNL     1       6.930  16.118 -45.158  1.00  0.00     0.041 C 
HETATM   10  C13 UNL     1       6.014  15.947 -43.984  1.00  0.00     0.032 C 
HETATM   11  C14 UNL     1       5.799  14.493 -43.772  1.00  0.00     0.157 C 
HETATM   12  O3  UNL     1       4.472  14.045 -43.735  1.00  0.00    -0.341 OA
HETATM   13  C16 UNL     1       3.469  14.771 -44.356  1.00  0.00     0.104 C 
HETATM   14  C18 UNL     1       3.577  16.079 -44.493  1.00  0.00     0.023 C 
HETATM   15  C19 UNL     1       4.772  16.785 -43.982  1.00  0.00    -0.012 C 
HETATM   16  C20 UNL     1       4.418  16.936 -42.480  1.00  0.00     0.020 C 
HETATM   17  C21 UNL     1       5.001  18.147 -44.572  1.00  0.00     0.017 C 
ENDROOT
BRANCH   1  18
HETATM   18  C2  UNL     1       3.991  20.085 -43.279  1.00  0.00    -0.088 C 
HETATM   19  C1  UNL     1       3.066  20.819 -42.731  1.00  0.00     0.014 C 
HETATM   20  C3  UNL     1       5.385  20.295 -42.693  1.00  0.00     0.043 C 
ENDBRANCH   1  18
BRANCH   8  21
HETATM   21  O1  UNL     1       7.742  18.310 -45.038  1.00  0.00    -0.395 OA
ATOM     22  H1  UNL     1       7.727  18.041 -44.127  1.00  0.00     0.210 HD
ENDBRANCH   8  21
BRANCH  11  23
HETATM   23  C15 UNL     1       6.458  13.985 -42.479  1.00  0.00     0.197 C 
BRANCH  23  24
HETATM   24  O2  UNL     1       7.212  12.843 -42.738  1.00  0.00    -0.398 OA
ATOM     25  H2  UNL     1       6.878  12.108 -42.239  1.00  0.00     0.209 HD
ENDBRANCH  23  24
ENDBRANCH  11  23
BRANCH  13  26
HETATM   26  C17 UNL     1       2.302  14.063 -44.851  1.00  0.00     0.294 C 
HETATM   27  O4  UNL     1       1.485  13.528 -44.065  1.00  0.00    -0.299 OA
ENDBRANCH  13  26
TORSDOF 5
ENDMDL
