MODEL 1
REMARK VINA RESULT: -7.522932228      0.000      0.000
REMARK  6 active torsions:
REMARK  status: ('A' for Active; 'I' for Inactive)
REMARK    1  A    between atoms: C5_5  and  C6_6 
REMARK    2  A    between atoms: C6_6  and  C8_8 
REMARK    3  A    between atoms: C8_8  and  O1_9 
REMARK    4  A    between atoms: C8_8  and  C9_11 
REMARK    5  A    between atoms: C9_11  and  O2_12 
REMARK    6  A    between atoms: C9_11  and  C10_14 
ROOT
HETATM    1  C1  UNL     1       3.041  14.897 -44.567  1.00  0.00     0.015 C 
HETATM    2  C2  UNL     1       4.156  15.594 -44.647  1.00  0.00    -0.076 C 
HETATM    3  C3  UNL     1       4.786  16.070 -45.958  1.00  0.00     0.023 C 
HETATM    4  C4  UNL     1       4.360  17.502 -46.108  1.00  0.00     0.018 C 
HETATM    5  C5  UNL     1       5.491  18.503 -45.805  1.00  0.00     0.038 C 
HETATM    6  C13 UNL     1       6.170  18.129 -44.560  1.00  0.00     0.167 A 
HETATM    7  O3  UNL     1       7.583  18.597 -44.461  1.00  0.00    -0.296 OA
HETATM    8  C14 UNL     1       6.616  19.030 -43.505  1.00  0.00     0.296 A 
HETATM    9  O4  UNL     1       6.671  19.795 -42.484  1.00  0.00    -0.262 OA
HETATM   10  C15 UNL     1       6.209  16.628 -44.297  1.00  0.00     0.052 C 
HETATM   11  C16 UNL     1       5.041  16.085 -43.555  1.00  0.00    -0.017 C 
HETATM   12  C17 UNL     1       5.362  15.043 -42.534  1.00  0.00     0.020 C 
HETATM   13  C18 UNL     1       4.231  17.104 -42.782  1.00  0.00     0.020 C 
HETATM   14  C19 UNL     1       6.209  15.846 -45.578  1.00  0.00    -0.032 C 
HETATM   15  C20 UNL     1       7.270  16.118 -46.560  1.00  0.00     0.016 C 
HETATM   16  C21 UNL     1       6.338  14.333 -45.317  1.00  0.00     0.016 C 
ENDROOT
BRANCH   5  17
HETATM   17  C6  UNL     1       5.022  19.917 -46.037  1.00  0.00     0.020 C 
HETATM   18  C7  UNL     1       3.529  19.800 -46.466  1.00  0.00     0.013 C 
BRANCH  17  19
HETATM   19  C8  UNL     1       5.664  20.708 -47.064  1.00  0.00     0.151 C 
BRANCH  19  20
HETATM   20  O1  UNL     1       5.038  20.643 -48.357  1.00  0.00    -0.393 OA
ATOM     21  H1  UNL     1       5.567  20.972 -49.074  1.00  0.00     0.210 HD
ENDBRANCH  19  20
BRANCH  19  22
HETATM   22  C9  UNL     1       7.100  20.618 -47.394  1.00  0.00     0.150 C 
BRANCH  22  23
HETATM   23  O2  UNL     1       7.937  21.030 -46.317  1.00  0.00    -0.393 OA
ATOM     24  H2  UNL     1       8.629  21.617 -46.597  1.00  0.00     0.210 HD
ENDBRANCH  22  23
BRANCH  22  25
HETATM   25  C10 UNL     1       7.714  19.597 -48.238  1.00  0.00     0.009 C 
HETATM   26  C11 UNL     1       9.060  19.123 -47.559  1.00  0.00     0.012 C 
HETATM   27  C12 UNL     1       8.284  20.270 -49.509  1.00  0.00     0.012 C 
ENDBRANCH  22  25
ENDBRANCH  19  22
ENDBRANCH  17  19
ENDBRANCH   5  17
TORSDOF 6
ENDMDL
MODEL 2
REMARK VINA RESULT: -7.522617104      2.278      5.658
REMARK  6 active torsions:
REMARK  status: ('A' for Active; 'I' for Inactive)
REMARK    1  A    between atoms: C5_5  and  C6_6 
REMARK    2  A    between atoms: C6_6  and  C8_8 
REMARK    3  A    between atoms: C8_8  and  O1_9 
REMARK    4  A    between atoms: C8_8  and  C9_11 
REMARK    5  A    between atoms: C9_11  and  O2_12 
REMARK    6  A    between atoms: C9_11  and  C10_14 
ROOT
HETATM    1  C1  UNL     1       8.506  17.296 -47.447  1.00  0.00     0.015 C 
HETATM    2  C2  UNL     1       7.598  18.028 -46.834  1.00  0.00    -0.076 C 
HETATM    3  C3  UNL     1       6.088  17.809 -46.949  1.00  0.00     0.023 C 
HETATM    4  C4  UNL     1       5.702  17.035 -45.722  1.00  0.00     0.018 C 
HETATM    5  C5  UNL     1       4.973  17.895 -44.671  1.00  0.00     0.038 C 
HETATM    6  C13 UNL     1       5.689  19.159 -44.474  1.00  0.00     0.167 A 
HETATM    7  O3  UNL     1       4.838  20.284 -43.989  1.00  0.00    -0.296 OA
HETATM    8  C14 UNL     1       5.941  19.830 -43.204  1.00  0.00     0.296 A 
HETATM    9  O4  UNL     1       6.425  20.188 -42.079  1.00  0.00    -0.262 OA
HETATM   10  C15 UNL     1       6.395  19.678 -45.722  1.00  0.00     0.052 C 
HETATM   11  C16 UNL     1       7.783  19.184 -45.915  1.00  0.00    -0.017 C 
HETATM   12  C17 UNL     1       8.757  20.198 -46.422  1.00  0.00     0.020 C 
HETATM   13  C18 UNL     1       8.457  18.633 -44.676  1.00  0.00     0.020 C 
HETATM   14  C19 UNL     1       5.688  19.245 -46.972  1.00  0.00    -0.032 C 
HETATM   15  C20 UNL     1       4.268  19.595 -47.127  1.00  0.00     0.016 C 
HETATM   16  C21 UNL     1       6.348  19.841 -48.230  1.00  0.00     0.016 C 
ENDROOT
BRANCH   5  17
HETATM   17  C6  UNL     1       4.554  17.049 -43.495  1.00  0.00     0.020 C 
HETATM   18  C7  UNL     1       5.601  15.899 -43.409  1.00  0.00     0.013 C 
BRANCH  17  19
HETATM   19  C8  UNL     1       3.262  16.401 -43.524  1.00  0.00     0.151 C 
BRANCH  19  20
HETATM   20  O1  UNL     1       2.417  16.685 -42.396  1.00  0.00    -0.393 OA
ATOM     21  H1  UNL     1       1.540  16.976 -42.617  1.00  0.00     0.210 HD
ENDBRANCH  19  20
BRANCH  19  22
HETATM   22  C9  UNL     1       3.075  14.948 -43.712  1.00  0.00     0.150 C 
BRANCH  22  23
HETATM   23  O2  UNL     1       2.255  14.366 -42.703  1.00  0.00    -0.393 OA
ATOM     24  H2  UNL     1       2.472  13.457 -42.536  1.00  0.00     0.210 HD
ENDBRANCH  22  23
BRANCH  22  25
HETATM   25  C10 UNL     1       2.971  14.266 -44.999  1.00  0.00     0.009 C 
HETATM   26  C11 UNL     1       1.994  13.034 -44.840  1.00  0.00     0.012 C 
HETATM   27  C12 UNL     1       4.295  13.518 -45.280  1.00  0.00     0.012 C 
ENDBRANCH  22  25
ENDBRANCH  19  22
ENDBRANCH  17  19
ENDBRANCH   5  17
TORSDOF 6
ENDMDL
MODEL 3
REMARK VINA RESULT: -7.459181302      2.132      5.946
REMARK  6 active torsions:
REMARK  status: ('A' for Active; 'I' for Inactive)
REMARK    1  A    between atoms: C5_5  and  C6_6 
REMARK    2  A    between atoms: C6_6  and  C8_8 
REMARK    3  A    between atoms: C8_8  and  O1_9 
REMARK    4  A    between atoms: C8_8  and  C9_11 
REMARK    5  A    between atoms: C9_11  and  O2_12 
REMARK    6  A    between atoms: C9_11  and  C10_14 
ROOT
HETATM    1  C1  UNL     1       3.139  21.010 -45.599  1.00  0.00     0.015 C 
HETATM    2  C2  UNL     1       4.333  20.594 -45.230  1.00  0.00    -0.076 C 
HETATM    3  C3  UNL     1       4.607  19.742 -43.988  1.00  0.00     0.023 C 
HETATM    4  C4  UNL     1       4.719  18.331 -44.491  1.00  0.00     0.018 C 
HETATM    5  C5  UNL     1       6.171  17.817 -44.526  1.00  0.00     0.038 C 
HETATM    6  C13 UNL     1       7.043  18.822 -45.141  1.00  0.00     0.167 A 
HETATM    7  O3  UNL     1       8.471  18.747 -44.716  1.00  0.00    -0.296 OA
HETATM    8  C14 UNL     1       8.123  18.578 -46.090  1.00  0.00     0.296 A 
HETATM    9  O4  UNL     1       8.802  18.357 -47.148  1.00  0.00    -0.262 OA
HETATM   10  C15 UNL     1       6.610  20.262 -44.891  1.00  0.00     0.052 C 
HETATM   11  C16 UNL     1       5.652  20.816 -45.884  1.00  0.00    -0.017 C 
HETATM   12  C17 UNL     1       5.891  22.238 -46.276  1.00  0.00     0.020 C 
HETATM   13  C18 UNL     1       5.594  20.087 -47.209  1.00  0.00     0.020 C 
HETATM   14  C19 UNL     1       5.883  20.398 -43.585  1.00  0.00    -0.032 C 
HETATM   15  C20 UNL     1       6.565  19.955 -42.359  1.00  0.00     0.016 C 
HETATM   16  C21 UNL     1       5.522  21.865 -43.288  1.00  0.00     0.016 C 
ENDROOT
BRANCH   5  17
HETATM   17  C6  UNL     1       6.211  16.378 -44.973  1.00  0.00     0.020 C 
HETATM   18  C7  UNL     1       5.698  16.379 -46.445  1.00  0.00     0.013 C 
BRANCH  17  19
HETATM   19  C8  UNL     1       5.400  15.405 -44.276  1.00  0.00     0.151 C 
BRANCH  19  20
HETATM   20  O1  UNL     1       6.137  14.456 -43.487  1.00  0.00    -0.393 OA
ATOM     21  H1  UNL     1       5.670  14.113 -42.735  1.00  0.00     0.210 HD
ENDBRANCH  19  20
BRANCH  19  22
HETATM   22  C9  UNL     1       4.383  14.560 -44.934  1.00  0.00     0.150 C 
BRANCH  22  23
HETATM   23  O2  UNL     1       4.880  13.270 -45.275  1.00  0.00    -0.393 OA
ATOM     24  H2  UNL     1       4.873  13.112 -46.212  1.00  0.00     0.210 HD
ENDBRANCH  22  23
BRANCH  22  25
HETATM   25  C10 UNL     1       2.955  14.563 -44.631  1.00  0.00     0.009 C 
HETATM   26  C11 UNL     1       2.772  14.620 -43.062  1.00  0.00     0.012 C 
HETATM   27  C12 UNL     1       2.377  13.156 -44.913  1.00  0.00     0.012 C 
ENDBRANCH  22  25
ENDBRANCH  19  22
ENDBRANCH  17  19
ENDBRANCH   5  17
TORSDOF 6
ENDMDL
MODEL 4
REMARK VINA RESULT: -7.444479677      2.075      4.402
REMARK  6 active torsions:
REMARK  status: ('A' for Active; 'I' for Inactive)
REMARK    1  A    between atoms: C5_5  and  C6_6 
REMARK    2  A    between atoms: C6_6  and  C8_8 
REMARK    3  A    between atoms: C8_8  and  O1_9 
REMARK    4  A    between atoms: C8_8  and  C9_11 
REMARK    5  A    between atoms: C9_11  and  O2_12 
REMARK    6  A    between atoms: C9_11  and  C10_14 
ROOT
HETATM    1  C1  UNL     1       5.756  14.525 -42.927  1.00  0.00     0.015 C 
HETATM    2  C2  UNL     1       5.383  15.428 -43.811  1.00  0.00    -0.076 C 
HETATM    3  C3  UNL     1       4.675  16.740 -43.462  1.00  0.00     0.023 C 
HETATM    4  C4  UNL     1       5.754  17.784 -43.455  1.00  0.00     0.018 C 
HETATM    5  C5  UNL     1       5.717  18.698 -44.695  1.00  0.00     0.038 C 
HETATM    6  C13 UNL     1       5.570  17.889 -45.909  1.00  0.00     0.167 A 
HETATM    7  O3  UNL     1       4.936  18.602 -47.056  1.00  0.00    -0.296 OA
HETATM    8  C14 UNL     1       6.262  18.086 -47.177  1.00  0.00     0.296 A 
HETATM    9  O4  UNL     1       7.121  18.084 -48.121  1.00  0.00    -0.262 OA
HETATM   10  C15 UNL     1       4.762  16.611 -45.714  1.00  0.00     0.052 C 
HETATM   11  C16 UNL     1       5.548  15.423 -45.291  1.00  0.00    -0.017 C 
HETATM   12  C17 UNL     1       5.149  14.133 -45.931  1.00  0.00     0.020 C 
HETATM   13  C18 UNL     1       7.037  15.503 -45.549  1.00  0.00     0.020 C 
HETATM   14  C19 UNL     1       3.742  16.768 -44.624  1.00  0.00    -0.032 C 
HETATM   15  C20 UNL     1       2.764  17.861 -44.737  1.00  0.00     0.016 C 
HETATM   16  C21 UNL     1       2.865  15.510 -44.485  1.00  0.00     0.016 C 
ENDROOT
BRANCH   5  17
HETATM   17  C6  UNL     1       6.778  19.765 -44.598  1.00  0.00     0.020 C 
HETATM   18  C7  UNL     1       8.085  19.022 -44.188  1.00  0.00     0.013 C 
BRANCH  17  19
HETATM   19  C8  UNL     1       6.614  20.829 -43.633  1.00  0.00     0.151 C 
BRANCH  19  20
HETATM   20  O1  UNL     1       6.874  20.455 -42.270  1.00  0.00    -0.393 OA
ATOM     21  H1  UNL     1       7.247  21.143 -41.731  1.00  0.00     0.210 HD
ENDBRANCH  19  20
BRANCH  19  22
HETATM   22  C9  UNL     1       5.394  21.653 -43.516  1.00  0.00     0.150 C 
BRANCH  22  23
HETATM   23  O2  UNL     1       5.064  22.319 -44.732  1.00  0.00    -0.393 OA
ATOM     24  H2  UNL     1       4.846  23.234 -44.599  1.00  0.00     0.210 HD
ENDBRANCH  22  23
BRANCH  22  25
HETATM   25  C10 UNL     1       4.224  21.326 -42.707  1.00  0.00     0.009 C 
HETATM   26  C11 UNL     1       2.963  21.238 -43.655  1.00  0.00     0.012 C 
HETATM   27  C12 UNL     1       3.834  22.561 -41.863  1.00  0.00     0.012 C 
ENDBRANCH  22  25
ENDBRANCH  19  22
ENDBRANCH  17  19
ENDBRANCH   5  17
TORSDOF 6
ENDMDL
MODEL 5
REMARK VINA RESULT: -7.333545108      1.303      1.702
REMARK  6 active torsions:
REMARK  status: ('A' for Active; 'I' for Inactive)
REMARK    1  A    between atoms: C5_5  and  C6_6 
REMARK    2  A    between atoms: C6_6  and  C8_8 
REMARK    3  A    between atoms: C8_8  and  O1_9 
REMARK    4  A    between atoms: C8_8  and  C9_11 
REMARK    5  A    between atoms: C9_11  and  O2_12 
REMARK    6  A    between atoms: C9_11  and  C10_14 
ROOT
HETATM    1  C1  UNL     1       2.841  16.318 -44.891  1.00  0.00     0.015 C 
HETATM    2  C2  UNL     1       4.100  16.701 -44.829  1.00  0.00    -0.076 C 
HETATM    3  C3  UNL     1       5.085  16.627 -45.998  1.00  0.00     0.023 C 
HETATM    4  C4  UNL     1       5.118  18.011 -46.579  1.00  0.00     0.018 C 
HETATM    5  C5  UNL     1       6.403  18.783 -46.223  1.00  0.00     0.038 C 
HETATM    6  C13 UNL     1       6.689  18.647 -44.792  1.00  0.00     0.167 A 
HETATM    7  O3  UNL     1       8.128  18.802 -44.430  1.00  0.00    -0.296 OA
HETATM    8  C14 UNL     1       7.153  19.695 -43.891  1.00  0.00     0.296 A 
HETATM    9  O4  UNL     1       7.218  20.691 -43.096  1.00  0.00    -0.262 OA
HETATM   10  C15 UNL     1       6.250  17.316 -44.192  1.00  0.00     0.052 C 
HETATM   11  C16 UNL     1       4.854  17.281 -43.683  1.00  0.00    -0.017 C 
HETATM   12  C17 UNL     1       4.659  16.536 -42.403  1.00  0.00     0.020 C 
HETATM   13  C18 UNL     1       4.227  18.631 -43.408  1.00  0.00     0.020 C 
HETATM   14  C19 UNL     1       6.282  16.216 -45.212  1.00  0.00    -0.032 C 
HETATM   15  C20 UNL     1       7.549  15.953 -45.912  1.00  0.00     0.016 C 
HETATM   16  C21 UNL     1       5.925  14.854 -44.587  1.00  0.00     0.016 C 
ENDROOT
BRANCH   5  17
HETATM   17  C6  UNL     1       6.407  20.136 -46.889  1.00  0.00     0.020 C 
HETATM   18  C7  UNL     1       5.247  20.098 -47.929  1.00  0.00     0.013 C 
BRANCH  17  19
HETATM   19  C8  UNL     1       7.580  20.550 -47.627  1.00  0.00     0.151 C 
BRANCH  19  20
HETATM   20  O1  UNL     1       7.647  21.956 -47.917  1.00  0.00    -0.393 OA
ATOM     21  H1  UNL     1       8.225  22.454 -47.351  1.00  0.00     0.210 HD
ENDBRANCH  19  20
BRANCH  19  22
HETATM   22  C9  UNL     1       8.012  19.935 -48.898  1.00  0.00     0.150 C 
BRANCH  22  23
HETATM   23  O2  UNL     1       7.978  20.851 -49.989  1.00  0.00    -0.393 OA
ATOM     24  H2  UNL     1       7.574  21.679 -49.758  1.00  0.00     0.210 HD
ENDBRANCH  22  23
BRANCH  22  25
HETATM   25  C10 UNL     1       9.046  18.914 -49.038  1.00  0.00     0.009 C 
HETATM   26  C11 UNL     1       8.348  17.498 -49.118  1.00  0.00     0.012 C 
HETATM   27  C12 UNL     1       9.791  18.764 -47.691  1.00  0.00     0.012 C 
ENDBRANCH  22  25
ENDBRANCH  19  22
ENDBRANCH  17  19
ENDBRANCH   5  17
TORSDOF 6
ENDMDL
