MODEL 1
REMARK VINA RESULT: -7.874774889      0.000      0.000
REMARK  5 active torsions:
REMARK  status: ('A' for Active; 'I' for Inactive)
REMARK    1  A    between atoms: C3_3  and  C4_4 
REMARK    2  A    between atoms: C6_6  and  C7_7 
REMARK    3  A    between atoms: C7_7  and  C9_9 
REMARK    4  A    between atoms: C9_9  and  O1_10 
REMARK    5  A    between atoms: C15_17  and  O2_18 
ROOT
HETATM    1  C1  UNL     1       8.461  18.442 -49.696  1.00  0.00     0.012 C 
HETATM    2  C2  UNL     1       7.841  18.787 -48.730  1.00  0.00    -0.116 C 
HETATM    3  C3  UNL     1       7.116  19.242 -47.595  1.00  0.00     0.107 C 
ENDROOT
BRANCH   3   4
HETATM    4  C4  UNL     1       7.165  18.453 -46.323  1.00  0.00    -0.003 C 
HETATM    5  C5  UNL     1       8.649  18.500 -45.989  1.00  0.00     0.021 C 
HETATM    6  C6  UNL     1       6.523  17.169 -46.198  1.00  0.00    -0.063 C 
HETATM    7  C10 UNL     1       5.116  17.245 -46.756  1.00  0.00     0.036 C 
HETATM    8  C11 UNL     1       4.325  18.417 -46.336  1.00  0.00     0.014 C 
HETATM    9  C12 UNL     1       4.976  19.452 -45.472  1.00  0.00    -0.027 C 
HETATM   10  C13 UNL     1       4.659  20.812 -46.145  1.00  0.00     0.016 C 
HETATM   11  C14 UNL     1       6.431  19.415 -45.311  1.00  0.00     0.036 C 
HETATM   12  C20 UNL     1       4.141  19.498 -44.189  1.00  0.00    -0.002 C 
HETATM   13  C15 UNL     1       6.906  19.239 -43.895  1.00  0.00     0.124 C 
HETATM   14  C16 UNL     1       6.239  20.415 -43.136  1.00  0.00     0.047 C 
HETATM   15  C17 UNL     1       4.782  20.216 -43.050  1.00  0.00     0.099 C 
HETATM   16  C18 UNL     1       4.023  21.474 -42.796  1.00  0.00     0.264 C 
HETATM   17  O3  UNL     1       4.445  22.397 -42.059  1.00  0.00    -0.265 OA
HETATM   18  O4  UNL     1       2.863  21.373 -43.503  1.00  0.00    -0.320 OA
HETATM   19  C19 UNL     1       2.852  20.290 -44.387  1.00  0.00     0.189 C 
HETATM   20  C21 UNL     1       3.691  18.157 -43.678  1.00  0.00     0.019 C 
BRANCH   6  21
HETATM   21  C7  UNL     1       7.112  15.866 -46.297  1.00  0.00    -0.041 C 
HETATM   22  C8  UNL     1       6.677  14.908 -45.427  1.00  0.00     0.021 C 
BRANCH  21  23
HETATM   23  C9  UNL     1       8.059  15.336 -47.284  1.00  0.00     0.202 C 
BRANCH  23  24
HETATM   24  O1  UNL     1       7.902  14.092 -47.776  1.00  0.00    -0.396 OA
ATOM     25  H1  UNL     1       8.630  13.646 -48.192  1.00  0.00     0.209 HD
ENDBRANCH  23  24
ENDBRANCH  21  23
ENDBRANCH   6  21
BRANCH  13  26
HETATM   26  O2  UNL     1       8.258  19.621 -43.719  1.00  0.00    -0.395 OA
ATOM     27  H2  UNL     1       8.744  19.012 -43.175  1.00  0.00     0.210 HD
ENDBRANCH  13  26
ENDBRANCH   3   4
TORSDOF 5
ENDMDL
MODEL 2
REMARK VINA RESULT: -7.727243262      1.052      1.133
REMARK  5 active torsions:
REMARK  status: ('A' for Active; 'I' for Inactive)
REMARK    1  A    between atoms: C3_3  and  C4_4 
REMARK    2  A    between atoms: C6_6  and  C7_7 
REMARK    3  A    between atoms: C7_7  and  C9_9 
REMARK    4  A    between atoms: C9_9  and  O1_10 
REMARK    5  A    between atoms: C15_17  and  O2_18 
ROOT
HETATM    1  C1  UNL     1       8.714  20.429 -49.811  1.00  0.00     0.012 C 
HETATM    2  C2  UNL     1       7.959  19.821 -49.106  1.00  0.00    -0.116 C 
HETATM    3  C3  UNL     1       7.031  19.135 -48.276  1.00  0.00     0.107 C 
ENDROOT
BRANCH   3   4
HETATM    4  C4  UNL     1       7.524  18.395 -47.072  1.00  0.00    -0.003 C 
HETATM    5  C5  UNL     1       8.996  18.783 -47.054  1.00  0.00     0.021 C 
HETATM    6  C6  UNL     1       7.229  17.001 -46.860  1.00  0.00    -0.063 C 
HETATM    7  C10 UNL     1       5.755  16.749 -47.108  1.00  0.00     0.036 C 
HETATM    8  C11 UNL     1       4.829  17.716 -46.489  1.00  0.00     0.014 C 
HETATM    9  C12 UNL     1       5.399  18.883 -45.745  1.00  0.00    -0.027 C 
HETATM   10  C13 UNL     1       4.650  20.127 -46.288  1.00  0.00     0.016 C 
HETATM   11  C14 UNL     1       6.826  19.179 -45.894  1.00  0.00     0.036 C 
HETATM   12  C20 UNL     1       4.867  18.756 -44.314  1.00  0.00    -0.002 C 
HETATM   13  C15 UNL     1       7.617  19.135 -44.616  1.00  0.00     0.124 C 
HETATM   14  C16 UNL     1       6.880  20.138 -43.694  1.00  0.00     0.047 C 
HETATM   15  C17 UNL     1       5.557  19.615 -43.310  1.00  0.00     0.099 C 
HETATM   16  C18 UNL     1       4.607  20.672 -42.858  1.00  0.00     0.264 C 
HETATM   17  O3  UNL     1       4.957  21.677 -42.195  1.00  0.00    -0.265 OA
HETATM   18  O4  UNL     1       3.377  20.301 -43.310  1.00  0.00    -0.320 OA
HETATM   19  C19 UNL     1       3.421  19.232 -44.210  1.00  0.00     0.189 C 
HETATM   20  C21 UNL     1       4.849  17.355 -43.768  1.00  0.00     0.019 C 
BRANCH   6  21
HETATM   21  C7  UNL     1       8.060  15.865 -47.127  1.00  0.00    -0.041 C 
HETATM   22  C8  UNL     1       8.054  14.849 -46.214  1.00  0.00     0.021 C 
BRANCH  21  23
HETATM   23  C9  UNL     1       8.863  15.546 -48.313  1.00  0.00     0.202 C 
BRANCH  23  24
HETATM   24  O1  UNL     1       8.534  14.500 -49.094  1.00  0.00    -0.396 OA
ATOM     25  H1  UNL     1       7.622  14.320 -49.294  1.00  0.00     0.209 HD
ENDBRANCH  23  24
ENDBRANCH  21  23
ENDBRANCH   6  21
BRANCH  13  26
HETATM   26  O2  UNL     1       8.855  19.816 -44.715  1.00  0.00    -0.395 OA
ATOM     27  H2  UNL     1       8.800  20.720 -44.429  1.00  0.00     0.210 HD
ENDBRANCH  13  26
ENDBRANCH   3   4
TORSDOF 5
ENDMDL
MODEL 3
REMARK VINA RESULT: -7.650848447      2.248      3.990
REMARK  5 active torsions:
REMARK  status: ('A' for Active; 'I' for Inactive)
REMARK    1  A    between atoms: C3_3  and  C4_4 
REMARK    2  A    between atoms: C6_6  and  C7_7 
REMARK    3  A    between atoms: C7_7  and  C9_9 
REMARK    4  A    between atoms: C9_9  and  O1_10 
REMARK    5  A    between atoms: C15_17  and  O2_18 
ROOT
HETATM    1  C1  UNL     1       9.090  15.946 -48.612  1.00  0.00     0.012 C 
HETATM    2  C2  UNL     1       8.382  16.684 -47.986  1.00  0.00    -0.116 C 
HETATM    3  C3  UNL     1       7.507  17.526 -47.248  1.00  0.00     0.107 C 
ENDROOT
BRANCH   3   4
HETATM    4  C4  UNL     1       7.561  19.008 -47.453  1.00  0.00    -0.003 C 
HETATM    5  C5  UNL     1       7.117  19.134 -48.904  1.00  0.00     0.021 C 
HETATM    6  C6  UNL     1       8.708  19.789 -47.068  1.00  0.00    -0.063 C 
HETATM    7  C10 UNL     1       9.142  19.402 -45.668  1.00  0.00     0.036 C 
HETATM    8  C11 UNL     1       8.059  19.291 -44.672  1.00  0.00     0.014 C 
HETATM    9  C12 UNL     1       6.645  19.492 -45.120  1.00  0.00    -0.027 C 
HETATM   10  C13 UNL     1       5.854  18.289 -44.547  1.00  0.00     0.016 C 
HETATM   11  C14 UNL     1       6.363  19.509 -46.558  1.00  0.00     0.036 C 
HETATM   12  C20 UNL     1       6.120  20.674 -44.300  1.00  0.00    -0.002 C 
HETATM   13  C15 UNL     1       5.751  20.785 -47.066  1.00  0.00     0.124 C 
HETATM   14  C16 UNL     1       4.481  20.956 -46.193  1.00  0.00     0.047 C 
HETATM   15  C17 UNL     1       4.847  21.268 -44.801  1.00  0.00     0.099 C 
HETATM   16  C18 UNL     1       3.766  20.967 -43.819  1.00  0.00     0.264 C 
HETATM   17  O3  UNL     1       2.547  21.132 -44.063  1.00  0.00    -0.265 OA
HETATM   18  O4  UNL     1       4.384  20.509 -42.695  1.00  0.00    -0.320 OA
HETATM   19  C19 UNL     1       5.745  20.251 -42.883  1.00  0.00     0.189 C 
HETATM   20  C21 UNL     1       7.099  21.801 -44.116  1.00  0.00     0.019 C 
BRANCH   6  21
HETATM   21  C7  UNL     1       9.780  20.263 -47.892  1.00  0.00    -0.041 C 
HETATM   22  C8  UNL     1      10.838  19.425 -48.098  1.00  0.00     0.021 C 
BRANCH  21  23
HETATM   23  C9  UNL     1       9.889  21.502 -48.671  1.00  0.00     0.202 C 
BRANCH  23  24
HETATM   24  O1  UNL     1       8.782  22.100 -49.152  1.00  0.00    -0.396 OA
ATOM     25  H1  UNL     1       8.795  23.025 -49.372  1.00  0.00     0.209 HD
ENDBRANCH  23  24
ENDBRANCH  21  23
ENDBRANCH   6  21
BRANCH  13  26
HETATM   26  O2  UNL     1       5.117  20.626 -48.323  1.00  0.00    -0.395 OA
ATOM     27  H2  UNL     1       5.260  21.365 -48.902  1.00  0.00     0.210 HD
ENDBRANCH  13  26
ENDBRANCH   3   4
TORSDOF 5
ENDMDL
MODEL 4
REMARK VINA RESULT: -7.649534508      2.556      5.281
REMARK  5 active torsions:
REMARK  status: ('A' for Active; 'I' for Inactive)
REMARK    1  A    between atoms: C3_3  and  C4_4 
REMARK    2  A    between atoms: C6_6  and  C7_7 
REMARK    3  A    between atoms: C7_7  and  C9_9 
REMARK    4  A    between atoms: C9_9  and  O1_10 
REMARK    5  A    between atoms: C15_17  and  O2_18 
ROOT
HETATM    1  C1  UNL     1       5.229  21.255 -42.822  1.00  0.00     0.012 C 
HETATM    2  C2  UNL     1       5.392  20.102 -43.106  1.00  0.00    -0.116 C 
HETATM    3  C3  UNL     1       5.629  18.738 -43.424  1.00  0.00     0.107 C 
ENDROOT
BRANCH   3   4
HETATM    4  C4  UNL     1       5.135  18.186 -44.725  1.00  0.00    -0.003 C 
HETATM    5  C5  UNL     1       3.714  18.731 -44.771  1.00  0.00     0.021 C 
HETATM    6  C6  UNL     1       5.296  16.798 -45.075  1.00  0.00    -0.063 C 
HETATM    7  C10 UNL     1       6.719  16.361 -44.785  1.00  0.00     0.036 C 
HETATM    8  C11 UNL     1       7.775  17.281 -45.248  1.00  0.00     0.014 C 
HETATM    9  C12 UNL     1       7.375  18.575 -45.885  1.00  0.00    -0.027 C 
HETATM   10  C13 UNL     1       8.215  19.666 -45.173  1.00  0.00     0.016 C 
HETATM   11  C14 UNL     1       5.980  19.008 -45.773  1.00  0.00     0.036 C 
HETATM   12  C20 UNL     1       7.976  18.541 -47.294  1.00  0.00    -0.002 C 
HETATM   13  C15 UNL     1       5.266  19.184 -47.085  1.00  0.00     0.124 C 
HETATM   14  C16 UNL     1       6.157  20.192 -47.855  1.00  0.00     0.047 C 
HETATM   15  C17 UNL     1       7.439  19.570 -48.229  1.00  0.00     0.099 C 
HETATM   16  C18 UNL     1       8.519  20.558 -48.515  1.00  0.00     0.264 C 
HETATM   17  O3  UNL     1       8.315  21.659 -49.080  1.00  0.00    -0.265 OA
HETATM   18  O4  UNL     1       9.675  20.010 -48.049  1.00  0.00    -0.320 OA
HETATM   19  C19 UNL     1       9.466  18.864 -47.275  1.00  0.00     0.189 C 
HETATM   20  C21 UNL     1       7.881  17.211 -47.989  1.00  0.00     0.019 C 
BRANCH   6  21
HETATM   21  C7  UNL     1       4.338  15.737 -44.976  1.00  0.00    -0.041 C 
HETATM   22  C8  UNL     1       4.637  14.555 -45.589  1.00  0.00     0.021 C 
BRANCH  21  23
HETATM   23  C9  UNL     1       3.091  15.667 -44.205  1.00  0.00     0.202 C 
BRANCH  23  24
HETATM   24  O1  UNL     1       2.354  14.540 -44.210  1.00  0.00    -0.396 OA
ATOM     25  H1  UNL     1       2.388  13.943 -43.471  1.00  0.00     0.209 HD
ENDBRANCH  23  24
ENDBRANCH  21  23
ENDBRANCH   6  21
BRANCH  13  26
HETATM   26  O2  UNL     1       4.101  19.982 -46.973  1.00  0.00    -0.395 OA
ATOM     27  H2  UNL     1       4.208  20.703 -46.364  1.00  0.00     0.210 HD
ENDBRANCH  13  26
ENDBRANCH   3   4
TORSDOF 5
ENDMDL
MODEL 5
REMARK VINA RESULT: -7.525779308      2.448      5.406
REMARK  5 active torsions:
REMARK  status: ('A' for Active; 'I' for Inactive)
REMARK    1  A    between atoms: C3_3  and  C4_4 
REMARK    2  A    between atoms: C6_6  and  C7_7 
REMARK    3  A    between atoms: C7_7  and  C9_9 
REMARK    4  A    between atoms: C9_9  and  O1_10 
REMARK    5  A    between atoms: C15_17  and  O2_18 
ROOT
HETATM    1  C1  UNL     1       7.414  20.240 -48.163  1.00  0.00     0.012 C 
HETATM    2  C2  UNL     1       6.587  19.527 -47.669  1.00  0.00    -0.116 C 
HETATM    3  C3  UNL     1       5.577  18.692 -47.120  1.00  0.00     0.107 C 
ENDROOT
BRANCH   3   4
HETATM    4  C4  UNL     1       5.387  18.642 -45.636  1.00  0.00    -0.003 C 
HETATM    5  C5  UNL     1       4.419  19.794 -45.410  1.00  0.00     0.021 C 
HETATM    6  C6  UNL     1       6.503  18.559 -44.727  1.00  0.00    -0.063 C 
HETATM    7  C10 UNL     1       7.472  17.496 -45.205  1.00  0.00     0.036 C 
HETATM    8  C11 UNL     1       6.863  16.216 -45.614  1.00  0.00     0.014 C 
HETATM    9  C12 UNL     1       5.372  16.090 -45.597  1.00  0.00    -0.027 C 
HETATM   10  C13 UNL     1       4.991  15.492 -46.976  1.00  0.00     0.016 C 
HETATM   11  C14 UNL     1       4.569  17.306 -45.453  1.00  0.00     0.036 C 
HETATM   12  C20 UNL     1       5.069  14.944 -44.628  1.00  0.00    -0.002 C 
HETATM   13  C15 UNL     1       3.675  17.333 -44.244  1.00  0.00     0.124 C 
HETATM   14  C16 UNL     1       2.817  16.051 -44.394  1.00  0.00     0.047 C 
HETATM   15  C17 UNL     1       3.644  14.848 -44.197  1.00  0.00     0.099 C 
HETATM   16  C18 UNL     1       3.053  13.614 -44.790  1.00  0.00     0.264 C 
HETATM   17  O3  UNL     1       1.821  13.376 -44.801  1.00  0.00    -0.265 OA
HETATM   18  O4  UNL     1       4.095  12.881 -45.272  1.00  0.00    -0.320 OA
HETATM   19  C19 UNL     1       5.304  13.583 -45.276  1.00  0.00     0.189 C 
HETATM   20  C21 UNL     1       5.915  14.926 -43.384  1.00  0.00     0.019 C 
BRANCH   6  21
HETATM   21  C7  UNL     1       7.127  19.614 -43.985  1.00  0.00    -0.041 C 
HETATM   22  C8  UNL     1       8.175  20.265 -44.570  1.00  0.00     0.021 C 
BRANCH  21  23
HETATM   23  C9  UNL     1       6.746  20.211 -42.700  1.00  0.00     0.202 C 
BRANCH  23  24
HETATM   24  O1  UNL     1       6.674  21.550 -42.568  1.00  0.00    -0.396 OA
ATOM     25  H1  UNL     1       6.626  22.105 -43.338  1.00  0.00     0.209 HD
ENDBRANCH  23  24
ENDBRANCH  21  23
ENDBRANCH   6  21
BRANCH  13  26
HETATM   26  O2  UNL     1       2.636  18.290 -44.352  1.00  0.00    -0.395 OA
ATOM     27  H2  UNL     1       2.784  19.056 -43.810  1.00  0.00     0.210 HD
ENDBRANCH  13  26
ENDBRANCH   3   4
TORSDOF 5
ENDMDL
