MODEL 1
REMARK VINA RESULT: -8.736821418      0.000      0.000
REMARK  8 active torsions:
REMARK  status: ('A' for Active; 'I' for Inactive)
REMARK    1  A    between atoms: C4_6  and  N2_7 
REMARK    2  A    between atoms: N2_7  and  C5_9 
REMARK    3  A    between atoms: C8_12  and  C9_13 
REMARK    4  A    between atoms: C9_13  and  N3_16 
REMARK    5  A    between atoms: C14_22  and  C15_23 
REMARK    6  A    between atoms: N5_27  and  C17_29 
REMARK    7  A    between atoms: C17_29  and  C18_30 
REMARK    8  A    between atoms: N6_33  and  S1_34 
ROOT
HETATM    1  C1  UNL     1       9.939 -20.090  47.476  1.00  0.00     0.052 C 
HETATM    2  C2  UNL     1       9.170 -18.923  46.911  1.00  0.00    -0.019 A 
HETATM    3  C3  UNL     1       8.523 -19.088  45.702  1.00  0.00     0.098 A 
HETATM    4  N1  UNL     1       7.827 -18.109  45.111  1.00  0.00    -0.351 N 
ATOM      5  H1  UNL     1       7.369 -18.293  44.218  1.00  0.00     0.166 HD
HETATM    6  C4  UNL     1       7.715 -16.869  45.675  1.00  0.00     0.119 A 
HETATM    7  C14 UNL     1       8.347 -16.676  46.873  1.00  0.00     0.100 A 
HETATM    8  C16 UNL     1       9.088 -17.702  47.518  1.00  0.00     0.058 A 
HETATM    9  N5  UNL     1       9.601 -17.426  48.600  1.00  0.00    -0.368 N 
ATOM     10  H5  UNL     1       9.378 -16.452  48.806  1.00  0.00     0.165 HD
ENDROOT
BRANCH   6  11
HETATM   11  N2  UNL     1       6.903 -15.909  44.992  1.00  0.00    -0.371 N 
ATOM     12  H2  UNL     1       7.337 -15.050  44.655  1.00  0.00     0.161 HD
BRANCH  11  13
HETATM   13  C5  UNL     1       5.480 -16.115  44.761  1.00  0.00     0.083 C 
HETATM   14  C6  UNL     1       5.261 -16.831  43.472  1.00  0.00     0.025 C 
HETATM   15  C7  UNL     1       3.752 -16.959  43.195  1.00  0.00     0.009 C 
HETATM   16  C8  UNL     1       3.283 -15.518  43.015  1.00  0.00     0.020 C 
HETATM   17  C12 UNL     1       3.369 -14.841  44.344  1.00  0.00     0.009 C 
HETATM   18  C13 UNL     1       4.822 -14.741  44.761  1.00  0.00     0.025 C 
BRANCH  16  19
HETATM   19  C9  UNL     1       1.887 -15.475  42.432  1.00  0.00     0.120 C 
HETATM   20  C10 UNL     1       1.313 -16.855  42.249  1.00  0.00     0.046 C 
HETATM   21  C11 UNL     1       0.938 -14.706  43.322  1.00  0.00     0.046 C 
BRANCH  19  22
HETATM   22  N3  UNL     1       1.907 -14.828  41.152  1.00  0.00    -0.071 N 
ATOM     23  H33 UNL     1       2.569 -14.052  41.128  1.00  0.00     0.275 HD
ATOM     24  H32 UNL     1       2.337 -15.413  40.436  1.00  0.00     0.275 HD
ATOM     25  H31 UNL     1       0.966 -14.535  40.892  1.00  0.00     0.275 HD
ENDBRANCH  19  22
ENDBRANCH  16  19
ENDBRANCH  11  13
ENDBRANCH   6  11
BRANCH   7  26
HETATM   26  C15 UNL     1       8.303 -15.358  47.496  1.00  0.00     0.271 C 
HETATM   27  N4  UNL     1       7.030 -14.674  47.632  1.00  0.00    -0.057 NA
HETATM   28  O1  UNL     1       9.264 -14.711  47.952  1.00  0.00    -0.271 OA
ENDBRANCH   7  26
BRANCH   9  29
HETATM   29  C17 UNL     1      10.353 -17.906  49.642  1.00  0.00     0.066 C 
BRANCH  29  30
HETATM   30  C18 UNL     1      11.765 -17.428  49.831  1.00  0.00     0.033 C 
HETATM   31  C19 UNL     1      12.601 -17.543  48.587  1.00  0.00     0.056 C 
HETATM   32  C20 UNL     1      14.035 -17.255  48.814  1.00  0.00     0.079 C 
HETATM   33  N6  UNL     1      14.598 -17.643  50.032  1.00  0.00    -0.291 N 
HETATM   34  C22 UNL     1      13.763 -17.881  51.132  1.00  0.00     0.079 C 
HETATM   35  C23 UNL     1      12.399 -18.409  50.834  1.00  0.00     0.056 C 
BRANCH  33  36
HETATM   36  S1  UNL     1      16.122 -18.398  50.007  1.00  0.00     0.115 S 
HETATM   37  C21 UNL     1      16.096 -20.165  50.165  1.00  0.00     0.153 C 
HETATM   38  O2  UNL     1      16.964 -17.899  48.870  1.00  0.00    -0.235 OA
ENDBRANCH  33  36
ENDBRANCH  29  30
ENDBRANCH   9  29
TORSDOF 8
ENDMDL
MODEL 2
REMARK VINA RESULT: -8.427400901      4.706     10.321
REMARK  8 active torsions:
REMARK  status: ('A' for Active; 'I' for Inactive)
REMARK    1  A    between atoms: C4_6  and  N2_7 
REMARK    2  A    between atoms: N2_7  and  C5_9 
REMARK    3  A    between atoms: C8_12  and  C9_13 
REMARK    4  A    between atoms: C9_13  and  N3_16 
REMARK    5  A    between atoms: C14_22  and  C15_23 
REMARK    6  A    between atoms: N5_27  and  C17_29 
REMARK    7  A    between atoms: C17_29  and  C18_30 
REMARK    8  A    between atoms: N6_33  and  S1_34 
ROOT
HETATM    1  C1  UNL     1       2.478 -15.064  43.804  1.00  0.00     0.052 C 
HETATM    2  C2  UNL     1       3.844 -15.586  44.170  1.00  0.00    -0.019 A 
HETATM    3  C3  UNL     1       4.825 -14.675  44.509  1.00  0.00     0.098 A 
HETATM    4  N1  UNL     1       6.072 -15.038  44.835  1.00  0.00    -0.351 N 
ATOM      5  H1  UNL     1       6.753 -14.318  45.078  1.00  0.00     0.166 HD
HETATM    6  C4  UNL     1       6.455 -16.350  44.851  1.00  0.00     0.119 A 
HETATM    7  C14 UNL     1       5.504 -17.276  44.518  1.00  0.00     0.100 A 
HETATM    8  C16 UNL     1       4.175 -16.912  44.172  1.00  0.00     0.058 A 
HETATM    9  N5  UNL     1       3.396 -17.825  43.908  1.00  0.00    -0.368 N 
ATOM     10  H5  UNL     1       3.911 -18.701  43.987  1.00  0.00     0.165 HD
ENDROOT
BRANCH   6  11
HETATM   11  N2  UNL     1       7.793 -16.638  45.267  1.00  0.00    -0.371 N 
ATOM     12  H2  UNL     1       8.563 -16.403  44.641  1.00  0.00     0.161 HD
BRANCH  11  13
HETATM   13  C5  UNL     1       8.094 -17.253  46.552  1.00  0.00     0.083 C 
HETATM   14  C6  UNL     1       8.866 -16.310  47.412  1.00  0.00     0.025 C 
HETATM   15  C7  UNL     1       9.259 -17.004  48.728  1.00  0.00     0.009 C 
HETATM   16  C8  UNL     1      10.204 -18.120  48.293  1.00  0.00     0.020 C 
HETATM   17  C12 UNL     1       9.398 -19.138  47.552  1.00  0.00     0.009 C 
HETATM   18  C13 UNL     1       8.881 -18.526  46.267  1.00  0.00     0.025 C 
BRANCH  16  19
HETATM   19  C9  UNL     1      10.927 -18.710  49.486  1.00  0.00     0.120 C 
HETATM   20  C10 UNL     1      10.202 -19.907  50.044  1.00  0.00     0.046 C 
HETATM   21  C11 UNL     1      12.323 -19.158  49.121  1.00  0.00     0.046 C 
BRANCH  19  22
HETATM   22  N3  UNL     1      11.039 -17.731  50.527  1.00  0.00    -0.071 N 
ATOM     23  H33 UNL     1      10.415 -16.939  50.375  1.00  0.00     0.275 HD
ATOM     24  H32 UNL     1      10.645 -18.064  51.407  1.00  0.00     0.275 HD
ATOM     25  H31 UNL     1      12.010 -17.438  50.630  1.00  0.00     0.275 HD
ENDBRANCH  19  22
ENDBRANCH  16  19
ENDBRANCH  11  13
ENDBRANCH   6  11
BRANCH   7  26
HETATM   26  C15 UNL     1       5.870 -18.686  44.469  1.00  0.00     0.271 C 
HETATM   27  N4  UNL     1       5.442 -19.573  45.537  1.00  0.00    -0.057 NA
HETATM   28  O1  UNL     1       6.533 -19.260  43.585  1.00  0.00    -0.271 OA
ENDBRANCH   7  26
BRANCH   9  29
HETATM   29  C17 UNL     1       2.109 -18.135  43.548  1.00  0.00     0.066 C 
BRANCH  29  30
HETATM   30  C18 UNL     1       1.763 -19.537  43.128  1.00  0.00     0.033 C 
HETATM   31  C19 UNL     1       2.449 -20.588  43.955  1.00  0.00     0.056 C 
HETATM   32  C20 UNL     1       2.264 -21.960  43.430  1.00  0.00     0.079 C 
HETATM   33  N6  UNL     1       2.210 -22.132  42.045  1.00  0.00    -0.291 N 
HETATM   34  C22 UNL     1       1.903 -21.037  41.226  1.00  0.00     0.079 C 
HETATM   35  C23 UNL     1       2.343 -19.696  41.712  1.00  0.00     0.056 C 
BRANCH  33  36
HETATM   36  S1  UNL     1       3.087 -23.419  41.362  1.00  0.00     0.115 S 
HETATM   37  C21 UNL     1       2.454 -24.038  39.824  1.00  0.00     0.153 C 
HETATM   38  O2  UNL     1       4.559 -23.132  41.344  1.00  0.00    -0.235 OA
ENDBRANCH  33  36
ENDBRANCH  29  30
ENDBRANCH   9  29
TORSDOF 8
ENDMDL
MODEL 3
REMARK VINA RESULT: -8.378561971      4.150     10.846
REMARK  8 active torsions:
REMARK  status: ('A' for Active; 'I' for Inactive)
REMARK    1  A    between atoms: C4_6  and  N2_7 
REMARK    2  A    between atoms: N2_7  and  C5_9 
REMARK    3  A    between atoms: C8_12  and  C9_13 
REMARK    4  A    between atoms: C9_13  and  N3_16 
REMARK    5  A    between atoms: C14_22  and  C15_23 
REMARK    6  A    between atoms: N5_27  and  C17_29 
REMARK    7  A    between atoms: C17_29  and  C18_30 
REMARK    8  A    between atoms: N6_33  and  S1_34 
ROOT
HETATM    1  C1  UNL     1       6.000 -14.229  46.401  1.00  0.00     0.052 C 
HETATM    2  C2  UNL     1       6.957 -15.335  46.768  1.00  0.00    -0.019 A 
HETATM    3  C3  UNL     1       7.852 -15.113  47.796  1.00  0.00     0.098 A 
HETATM    4  N1  UNL     1       8.750 -16.025  48.187  1.00  0.00    -0.351 N 
ATOM      5  H1  UNL     1       9.385 -15.803  48.954  1.00  0.00     0.166 HD
HETATM    6  C4  UNL     1       8.838 -17.248  47.582  1.00  0.00     0.119 A 
HETATM    7  C14 UNL     1       7.965 -17.496  46.559  1.00  0.00     0.100 A 
HETATM    8  C16 UNL     1       7.002 -16.543  46.131  1.00  0.00     0.058 A 
HETATM    9  N5  UNL     1       6.254 -16.876  45.215  1.00  0.00    -0.368 N 
ATOM     10  H5  UNL     1       6.514 -17.822  44.935  1.00  0.00     0.165 HD
ENDROOT
BRANCH   6  11
HETATM   11  N2  UNL     1       9.793 -18.173  48.110  1.00  0.00    -0.371 N 
ATOM     12  H2  UNL     1       9.770 -19.141  47.788  1.00  0.00     0.161 HD
BRANCH  11  13
HETATM   13  C5  UNL     1      10.797 -17.782  49.090  1.00  0.00     0.083 C 
HETATM   14  C6  UNL     1      12.111 -17.550  48.425  1.00  0.00     0.025 C 
HETATM   15  C7  UNL     1      13.184 -17.230  49.481  1.00  0.00     0.009 C 
HETATM   16  C8  UNL     1      13.295 -18.513  50.299  1.00  0.00     0.020 C 
HETATM   17  C12 UNL     1      12.029 -18.670  51.078  1.00  0.00     0.009 C 
HETATM   18  C13 UNL     1      10.879 -18.903  50.120  1.00  0.00     0.025 C 
BRANCH  16  19
HETATM   19  C9  UNL     1      14.521 -18.482  51.187  1.00  0.00     0.120 C 
HETATM   20  C10 UNL     1      15.555 -17.511  50.680  1.00  0.00     0.046 C 
HETATM   21  C11 UNL     1      14.173 -18.073  52.599  1.00  0.00     0.046 C 
BRANCH  19  22
HETATM   22  N3  UNL     1      15.121 -19.783  51.242  1.00  0.00    -0.071 N 
ATOM     23  H33 UNL     1      15.108 -20.249  50.335  1.00  0.00     0.275 HD
ATOM     24  H32 UNL     1      16.132 -19.732  51.370  1.00  0.00     0.275 HD
ATOM     25  H31 UNL     1      14.674 -20.345  51.966  1.00  0.00     0.275 HD
ENDBRANCH  19  22
ENDBRANCH  16  19
ENDBRANCH  11  13
ENDBRANCH   6  11
BRANCH   7  26
HETATM   26  C15 UNL     1       8.047 -18.765  45.845  1.00  0.00     0.271 C 
HETATM   27  N4  UNL     1       7.446 -19.952  46.426  1.00  0.00    -0.057 NA
HETATM   28  O1  UNL     1       8.591 -18.973  44.744  1.00  0.00    -0.271 OA
ENDBRANCH   7  26
BRANCH   9  29
HETATM   29  C17 UNL     1       5.209 -16.483  44.419  1.00  0.00     0.066 C 
BRANCH  29  30
HETATM   30  C18 UNL     1       4.007 -17.373  44.262  1.00  0.00     0.033 C 
HETATM   31  C19 UNL     1       4.320 -18.830  44.462  1.00  0.00     0.056 C 
HETATM   32  C20 UNL     1       3.189 -19.724  44.124  1.00  0.00     0.079 C 
HETATM   33  N6  UNL     1       2.358 -19.360  43.062  1.00  0.00    -0.291 N 
HETATM   34  C22 UNL     1       2.328 -18.025  42.636  1.00  0.00     0.079 C 
HETATM   35  C23 UNL     1       3.593 -17.248  42.785  1.00  0.00     0.056 C 
BRANCH  33  36
HETATM   36  S1  UNL     1       1.907 -20.564  41.948  1.00  0.00     0.115 S 
HETATM   37  C21 UNL     1       0.997 -21.926  42.629  1.00  0.00     0.153 C 
HETATM   38  O2  UNL     1       1.287 -19.969  40.718  1.00  0.00    -0.235 OA
ENDBRANCH  33  36
ENDBRANCH  29  30
ENDBRANCH   9  29
TORSDOF 8
ENDMDL
MODEL 4
REMARK VINA RESULT: -8.291998040      3.519      4.863
REMARK  8 active torsions:
REMARK  status: ('A' for Active; 'I' for Inactive)
REMARK    1  A    between atoms: C4_6  and  N2_7 
REMARK    2  A    between atoms: N2_7  and  C5_9 
REMARK    3  A    between atoms: C8_12  and  C9_13 
REMARK    4  A    between atoms: C9_13  and  N3_16 
REMARK    5  A    between atoms: C14_22  and  C15_23 
REMARK    6  A    between atoms: N5_27  and  C17_29 
REMARK    7  A    between atoms: C17_29  and  C18_30 
REMARK    8  A    between atoms: N6_33  and  S1_34 
ROOT
HETATM    1  C1  UNL     1       6.445 -14.367  47.135  1.00  0.00     0.052 C 
HETATM    2  C2  UNL     1       6.214 -15.494  46.160  1.00  0.00    -0.019 A 
HETATM    3  C3  UNL     1       5.162 -15.387  45.271  1.00  0.00     0.098 A 
HETATM    4  N1  UNL     1       4.866 -16.339  44.378  1.00  0.00    -0.351 N 
ATOM      5  H1  UNL     1       4.077 -16.202  43.747  1.00  0.00     0.166 HD
HETATM    6  C4  UNL     1       5.596 -17.492  44.292  1.00  0.00     0.119 A 
HETATM    7  C14 UNL     1       6.644 -17.626  45.161  1.00  0.00     0.100 A 
HETATM    8  C16 UNL     1       6.977 -16.627  46.114  1.00  0.00     0.058 A 
HETATM    9  N5  UNL     1       7.949 -16.842  46.834  1.00  0.00    -0.368 N 
ATOM     10  H5  UNL     1       8.322 -17.757  46.582  1.00  0.00     0.165 HD
ENDROOT
BRANCH   6  11
HETATM   11  N2  UNL     1       5.234 -18.422  43.267  1.00  0.00    -0.371 N 
ATOM     12  H2  UNL     1       5.924 -18.660  42.554  1.00  0.00     0.161 HD
BRANCH  11  13
HETATM   13  C5  UNL     1       3.918 -19.041  43.206  1.00  0.00     0.083 C 
HETATM   14  C6  UNL     1       3.905 -20.315  43.981  1.00  0.00     0.025 C 
HETATM   15  C7  UNL     1       2.538 -21.006  43.831  1.00  0.00     0.009 C 
HETATM   16  C8  UNL     1       2.460 -21.359  42.349  1.00  0.00     0.020 C 
HETATM   17  C12 UNL     1       2.328 -20.084  41.581  1.00  0.00     0.009 C 
HETATM   18  C13 UNL     1       3.599 -19.275  41.734  1.00  0.00     0.025 C 
BRANCH  16  19
HETATM   19  C9  UNL     1       1.318 -22.317  42.082  1.00  0.00     0.120 C 
HETATM   20  C10 UNL     1       0.648 -22.035  40.763  1.00  0.00     0.046 C 
HETATM   21  C11 UNL     1       1.793 -23.751  42.049  1.00  0.00     0.046 C 
BRANCH  19  22
HETATM   22  N3  UNL     1       0.331 -22.206  43.116  1.00  0.00    -0.071 N 
ATOM     23  H33 UNL     1       0.751 -22.018  44.027  1.00  0.00     0.275 HD
ATOM     24  H32 UNL     1      -0.220 -21.353  43.028  1.00  0.00     0.275 HD
ATOM     25  H31 UNL     1      -0.256 -23.039  43.132  1.00  0.00     0.275 HD
ENDBRANCH  19  22
ENDBRANCH  16  19
ENDBRANCH  11  13
ENDBRANCH   6  11
BRANCH   7  26
HETATM   26  C15 UNL     1       7.427 -18.857  45.148  1.00  0.00     0.271 C 
HETATM   27  N4  UNL     1       6.896 -20.048  45.788  1.00  0.00    -0.057 NA
HETATM   28  O1  UNL     1       8.546 -19.030  44.630  1.00  0.00    -0.271 OA
ENDBRANCH   7  26
BRANCH   9  29
HETATM   29  C17 UNL     1       8.733 -16.341  47.842  1.00  0.00     0.066 C 
BRANCH  29  30
HETATM   30  C18 UNL     1       9.557 -17.273  48.687  1.00  0.00     0.033 C 
HETATM   31  C19 UNL     1      11.016 -17.264  48.328  1.00  0.00     0.056 C 
HETATM   32  C20 UNL     1      11.798 -18.312  49.022  1.00  0.00     0.079 C 
HETATM   33  N6  UNL     1      11.179 -19.540  49.266  1.00  0.00    -0.291 N 
HETATM   34  C22 UNL     1       9.780 -19.621  49.256  1.00  0.00     0.079 C 
HETATM   35  C23 UNL     1       9.063 -18.688  48.337  1.00  0.00     0.056 C 
BRANCH  33  36
HETATM   36  S1  UNL     1      12.063 -20.959  48.955  1.00  0.00     0.115 S 
HETATM   37  C21 UNL     1      11.245 -22.474  49.383  1.00  0.00     0.153 C 
HETATM   38  O2  UNL     1      12.648 -20.951  47.573  1.00  0.00    -0.235 OA
ENDBRANCH  33  36
ENDBRANCH  29  30
ENDBRANCH   9  29
TORSDOF 8
ENDMDL
MODEL 5
REMARK VINA RESULT: -8.236426997      5.278      9.731
REMARK  8 active torsions:
REMARK  status: ('A' for Active; 'I' for Inactive)
REMARK    1  A    between atoms: C4_6  and  N2_7 
REMARK    2  A    between atoms: N2_7  and  C5_9 
REMARK    3  A    between atoms: C8_12  and  C9_13 
REMARK    4  A    between atoms: C9_13  and  N3_16 
REMARK    5  A    between atoms: C14_22  and  C15_23 
REMARK    6  A    between atoms: N5_27  and  C17_29 
REMARK    7  A    between atoms: C17_29  and  C18_30 
REMARK    8  A    between atoms: N6_33  and  S1_34 
ROOT
HETATM    1  C1  UNL     1       9.265 -16.384  47.842  1.00  0.00     0.052 C 
HETATM    2  C2  UNL     1       8.909 -17.706  47.211  1.00  0.00    -0.019 A 
HETATM    3  C3  UNL     1       9.712 -18.797  47.477  1.00  0.00     0.098 A 
HETATM    4  N1  UNL     1       9.489 -20.009  46.954  1.00  0.00    -0.351 N 
ATOM      5  H1  UNL     1      10.118 -20.777  47.190  1.00  0.00     0.166 HD
HETATM    6  C4  UNL     1       8.438 -20.242  46.111  1.00  0.00     0.119 A 
HETATM    7  C14 UNL     1       7.625 -19.179  45.828  1.00  0.00     0.100 A 
HETATM    8  C16 UNL     1       7.843 -17.886  46.375  1.00  0.00     0.058 A 
HETATM    9  N5  UNL     1       7.041 -17.007  46.068  1.00  0.00    -0.368 N 
ATOM     10  H5  UNL     1       6.357 -17.422  45.436  1.00  0.00     0.165 HD
ENDROOT
BRANCH   6  11
HETATM   11  N2  UNL     1       8.253 -21.584  45.650  1.00  0.00    -0.371 N 
ATOM     12  H2  UNL     1       8.580 -21.832  44.717  1.00  0.00     0.161 HD
BRANCH  11  13
HETATM   13  C5  UNL     1       7.613 -22.607  46.466  1.00  0.00     0.083 C 
HETATM   14  C6  UNL     1       8.589 -23.679  46.815  1.00  0.00     0.025 C 
HETATM   15  C7  UNL     1       7.879 -24.798  47.596  1.00  0.00     0.009 C 
HETATM   16  C8  UNL     1       6.886 -25.379  46.594  1.00  0.00     0.020 C 
HETATM   17  C12 UNL     1       5.826 -24.352  46.354  1.00  0.00     0.009 C 
HETATM   18  C13 UNL     1       6.441 -23.154  45.661  1.00  0.00     0.025 C 
BRANCH  16  19
HETATM   19  C9  UNL     1       6.318 -26.691  47.095  1.00  0.00     0.120 C 
HETATM   20  C10 UNL     1       4.813 -26.664  47.153  1.00  0.00     0.046 C 
HETATM   21  C11 UNL     1       6.715 -27.844  46.202  1.00  0.00     0.046 C 
BRANCH  19  22
HETATM   22  N3  UNL     1       6.810 -26.968  48.413  1.00  0.00    -0.071 N 
ATOM     23  H33 UNL     1       7.828 -26.924  48.458  1.00  0.00     0.275 HD
ATOM     24  H32 UNL     1       6.599 -26.214  49.066  1.00  0.00     0.275 HD
ATOM     25  H31 UNL     1       6.452 -27.866  48.739  1.00  0.00     0.275 HD
ENDBRANCH  19  22
ENDBRANCH  16  19
ENDBRANCH  11  13
ENDBRANCH   6  11
BRANCH   7  26
HETATM   26  C15 UNL     1       6.519 -19.358  44.895  1.00  0.00     0.271 C 
HETATM   27  N4  UNL     1       6.787 -19.840  43.552  1.00  0.00    -0.057 NA
HETATM   28  O1  UNL     1       5.311 -19.143  45.112  1.00  0.00    -0.271 OA
ENDBRANCH   7  26
BRANCH   9  29
HETATM   29  C17 UNL     1       6.700 -15.689  46.238  1.00  0.00     0.066 C 
BRANCH  29  30
HETATM   30  C18 UNL     1       5.735 -15.035  45.289  1.00  0.00     0.033 C 
HETATM   31  C19 UNL     1       4.355 -14.874  45.865  1.00  0.00     0.056 C 
HETATM   32  C20 UNL     1       3.357 -14.407  44.877  1.00  0.00     0.079 C 
HETATM   33  N6  UNL     1       3.481 -14.852  43.558  1.00  0.00    -0.291 N 
HETATM   34  C22 UNL     1       4.715 -15.342  43.109  1.00  0.00     0.079 C 
HETATM   35  C23 UNL     1       5.571 -16.025  44.122  1.00  0.00     0.056 C 
BRANCH  33  36
HETATM   36  S1  UNL     1       2.075 -15.365  42.750  1.00  0.00     0.115 S 
HETATM   37  C21 UNL     1       1.939 -17.117  42.502  1.00  0.00     0.153 C 
HETATM   38  O2  UNL     1       0.845 -14.734  43.332  1.00  0.00    -0.235 OA
ENDBRANCH  33  36
ENDBRANCH  29  30
ENDBRANCH   9  29
TORSDOF 8
ENDMDL
