MODEL 1
REMARK VINA RESULT: -9.102950837      0.000      0.000
REMARK  9 active torsions:
REMARK  status: ('A' for Active; 'I' for Inactive)
REMARK    1  A    between atoms: C2_2  and  C3_3 
REMARK    2  A    between atoms: C6_6  and  C7_7 
REMARK    3  A    between atoms: C6_6  and  C16_29 
REMARK    4  A    between atoms: C7_7  and  S1_8 
REMARK    5  A    between atoms: S1_8  and  C8_11 
REMARK    6  A    between atoms: C8_11  and  C9_12 
REMARK    7  A    between atoms: C9_12  and  O3_13 
REMARK    8  A    between atoms: N1_15  and  O4_17 
REMARK       I    between atoms: N2_21  and  C12_22 
REMARK       I    between atoms: C12_22  and  N3_24 
REMARK       I    between atoms: C16_29  and  N4_31 
REMARK    9  A    between atoms: N4_31  and  C17_33 
ROOT
HETATM    1  S1  UNL     1       5.738 -19.450  44.886  1.00  0.00     0.162 S 
HETATM    2  O1  UNL     1       6.911 -19.041  44.009  1.00  0.00    -0.227 OA
HETATM    3  O2  UNL     1       6.160 -20.434  45.923  1.00  0.00    -0.227 OA
ENDROOT
BRANCH   1   4
HETATM    4  C7  UNL     1       4.962 -18.038  45.553  1.00  0.00     0.161 C 
BRANCH   4   5
HETATM    5  C6  UNL     1       5.692 -16.741  45.379  1.00  0.00     0.057 C 
HETATM    6  C5  UNL     1       5.663 -16.172  43.997  1.00  0.00     0.048 C 
HETATM    7  C4  UNL     1       4.312 -15.732  43.589  1.00  0.00    -0.018 C 
HETATM    8  C3  UNL     1       3.697 -14.895  44.429  1.00  0.00    -0.063 C 
HETATM    9  C21 UNL     1       4.465 -14.540  45.636  1.00  0.00     0.039 C 
HETATM   10  C20 UNL     1       5.044 -15.752  46.327  1.00  0.00     0.025 C 
BRANCH   8  11
HETATM   11  C2  UNL     1       2.368 -14.380  44.161  1.00  0.00    -0.004 C 
HETATM   12  C1  UNL     1       1.559 -14.941  43.308  1.00  0.00     0.012 C 
ENDBRANCH   8  11
BRANCH   5  13
HETATM   13  C16 UNL     1       7.128 -16.845  45.799  1.00  0.00     0.228 C 
HETATM   14  O6  UNL     1       7.990 -16.121  45.226  1.00  0.00    -0.273 OA
HETATM   15  N4  UNL     1       7.545 -17.727  46.815  1.00  0.00    -0.356 N 
ATOM     16  H4  UNL     1       6.863 -18.320  47.287  1.00  0.00     0.162 HD
BRANCH  15  17
HETATM   17  C17 UNL     1       8.938 -17.792  47.187  1.00  0.00     0.076 C 
HETATM   18  C18 UNL     1       9.156 -17.339  48.620  1.00  0.00     0.032 C 
HETATM   19  C19 UNL     1       9.414 -19.243  47.124  1.00  0.00     0.032 C 
ENDBRANCH  15  17
ENDBRANCH   5  13
ENDBRANCH   4   5
ENDBRANCH   1   4
BRANCH   1  20
HETATM   20  C8  UNL     1       4.616 -20.299  43.784  1.00  0.00     0.133 C 
HETATM   21  C10 UNL     1       4.185 -19.351  42.691  1.00  0.00     0.054 C 
HETATM   22  C11 UNL     1       3.161 -19.914  41.784  1.00  0.00     0.129 C 
HETATM   23  N2  UNL     1       2.329 -20.952  42.321  1.00  0.00    -0.334 N 
HETATM   24  C12 UNL     1       1.284 -21.449  41.514  1.00  0.00     0.317 C 
HETATM   25  C14 UNL     1       2.502 -21.517  43.644  1.00  0.00     0.129 C 
HETATM   26  O5  UNL     1       0.536 -22.354  41.948  1.00  0.00    -0.247 OA
HETATM   27  N3  UNL     1       1.048 -20.953  40.216  1.00  0.00    -0.347 N 
HETATM   28  C13 UNL     1      -0.021 -21.456  39.382  1.00  0.00     0.151 C 
ATOM     29  H3  UNL     1       1.652 -20.216  39.852  1.00  0.00     0.163 HD
HETATM   30  C15 UNL     1       3.330 -20.666  44.541  1.00  0.00     0.054 C 
BRANCH  20  31
HETATM   31  C9  UNL     1       5.167 -21.555  43.260  1.00  0.00     0.159 C 
HETATM   32  N1  UNL     1       5.804 -21.554  42.120  1.00  0.00    -0.250 N 
ATOM     33  H1  UNL     1       5.907 -20.675  41.613  1.00  0.00     0.196 HD
BRANCH  31  34
HETATM   34  O3  UNL     1       5.050 -22.754  43.908  1.00  0.00    -0.347 OA
ATOM     35  H3  UNL     1       4.251 -23.269  43.911  1.00  0.00     0.219 HD
ENDBRANCH  31  34
BRANCH  32  36
HETATM   36  O4  UNL     1       6.339 -22.696  41.581  1.00  0.00    -0.288 OA
ATOM     37  H4  UNL     1       5.850 -23.251  40.984  1.00  0.00     0.244 HD
ENDBRANCH  32  36
ENDBRANCH  20  31
ENDBRANCH   1  20
TORSDOF 9
ENDMDL
MODEL 2
REMARK VINA RESULT: -8.839190973      1.535      1.870
REMARK  9 active torsions:
REMARK  status: ('A' for Active; 'I' for Inactive)
REMARK    1  A    between atoms: C2_2  and  C3_3 
REMARK    2  A    between atoms: C6_6  and  C7_7 
REMARK    3  A    between atoms: C6_6  and  C16_29 
REMARK    4  A    between atoms: C7_7  and  S1_8 
REMARK    5  A    between atoms: S1_8  and  C8_11 
REMARK    6  A    between atoms: C8_11  and  C9_12 
REMARK    7  A    between atoms: C9_12  and  O3_13 
REMARK    8  A    between atoms: N1_15  and  O4_17 
REMARK       I    between atoms: N2_21  and  C12_22 
REMARK       I    between atoms: C12_22  and  N3_24 
REMARK       I    between atoms: C16_29  and  N4_31 
REMARK    9  A    between atoms: N4_31  and  C17_33 
ROOT
HETATM    1  S1  UNL     1       5.569 -19.418  45.447  1.00  0.00     0.162 S 
HETATM    2  O1  UNL     1       6.645 -19.203  44.394  1.00  0.00    -0.227 OA
HETATM    3  O2  UNL     1       6.115 -20.137  46.633  1.00  0.00    -0.227 OA
ENDROOT
BRANCH   1   4
HETATM    4  C7  UNL     1       4.808 -17.902  45.850  1.00  0.00     0.161 C 
BRANCH   4   5
HETATM    5  C6  UNL     1       5.534 -16.665  45.417  1.00  0.00     0.057 C 
HETATM    6  C5  UNL     1       5.437 -16.345  43.960  1.00  0.00     0.048 C 
HETATM    7  C4  UNL     1       4.068 -15.966  43.549  1.00  0.00    -0.018 C 
HETATM    8  C3  UNL     1       3.501 -14.987  44.259  1.00  0.00    -0.063 C 
HETATM    9  C21 UNL     1       4.331 -14.437  45.346  1.00  0.00     0.039 C 
HETATM   10  C20 UNL     1       4.939 -15.518  46.208  1.00  0.00     0.025 C 
BRANCH   8  11
HETATM   11  C2  UNL     1       2.162 -14.509  43.972  1.00  0.00    -0.004 C 
HETATM   12  C1  UNL     1       1.444 -14.984  42.994  1.00  0.00     0.012 C 
ENDBRANCH   8  11
BRANCH   5  13
HETATM   13  C16 UNL     1       6.989 -16.712  45.777  1.00  0.00     0.228 C 
HETATM   14  O6  UNL     1       7.821 -16.084  45.062  1.00  0.00    -0.273 OA
HETATM   15  N4  UNL     1       7.458 -17.438  46.890  1.00  0.00    -0.356 N 
ATOM     16  H4  UNL     1       6.801 -17.952  47.477  1.00  0.00     0.162 HD
BRANCH  15  17
HETATM   17  C17 UNL     1       8.868 -17.454  47.199  1.00  0.00     0.076 C 
HETATM   18  C18 UNL     1       9.131 -17.034  48.634  1.00  0.00     0.032 C 
HETATM   19  C19 UNL     1       9.400 -18.881  47.070  1.00  0.00     0.032 C 
ENDBRANCH  15  17
ENDBRANCH   5  13
ENDBRANCH   4   5
ENDBRANCH   1   4
BRANCH   1  20
HETATM   20  C8  UNL     1       4.383 -20.509  44.675  1.00  0.00     0.133 C 
HETATM   21  C10 UNL     1       5.041 -21.209  43.509  1.00  0.00     0.054 C 
HETATM   22  C11 UNL     1       4.117 -22.052  42.721  1.00  0.00     0.129 C 
HETATM   23  N2  UNL     1       2.728 -21.693  42.762  1.00  0.00    -0.334 N 
HETATM   24  C12 UNL     1       1.831 -22.420  41.952  1.00  0.00     0.317 C 
HETATM   25  C14 UNL     1       2.197 -20.627  43.587  1.00  0.00     0.129 C 
HETATM   26  O5  UNL     1       0.612 -22.136  41.959  1.00  0.00    -0.247 OA
HETATM   27  N3  UNL     1       2.265 -23.471  41.120  1.00  0.00    -0.347 N 
HETATM   28  C13 UNL     1       1.353 -24.221  40.286  1.00  0.00     0.151 C 
ATOM     29  H3  UNL     1       3.257 -23.712  41.106  1.00  0.00     0.163 HD
HETATM   30  C15 UNL     1       3.242 -19.681  44.065  1.00  0.00     0.054 C 
BRANCH  20  31
HETATM   31  C9  UNL     1       3.763 -21.445  45.620  1.00  0.00     0.159 C 
HETATM   32  N1  UNL     1       4.425 -22.500  46.012  1.00  0.00    -0.250 N 
ATOM     33  H1  UNL     1       5.367 -22.653  45.652  1.00  0.00     0.196 HD
BRANCH  31  34
HETATM   34  O3  UNL     1       2.503 -21.276  46.125  1.00  0.00    -0.347 OA
ATOM     35  H3  UNL     1       1.814 -21.923  46.034  1.00  0.00     0.219 HD
ENDBRANCH  31  34
BRANCH  32  36
HETATM   36  O4  UNL     1       3.896 -23.409  46.893  1.00  0.00    -0.288 OA
ATOM     37  H4  UNL     1       4.315 -24.243  47.072  1.00  0.00     0.244 HD
ENDBRANCH  32  36
ENDBRANCH  20  31
ENDBRANCH   1  20
TORSDOF 9
ENDMDL
MODEL 3
REMARK VINA RESULT: -8.805624228      1.464      1.579
REMARK  9 active torsions:
REMARK  status: ('A' for Active; 'I' for Inactive)
REMARK    1  A    between atoms: C2_2  and  C3_3 
REMARK    2  A    between atoms: C6_6  and  C7_7 
REMARK    3  A    between atoms: C6_6  and  C16_29 
REMARK    4  A    between atoms: C7_7  and  S1_8 
REMARK    5  A    between atoms: S1_8  and  C8_11 
REMARK    6  A    between atoms: C8_11  and  C9_12 
REMARK    7  A    between atoms: C9_12  and  O3_13 
REMARK    8  A    between atoms: N1_15  and  O4_17 
REMARK       I    between atoms: N2_21  and  C12_22 
REMARK       I    between atoms: C12_22  and  N3_24 
REMARK       I    between atoms: C16_29  and  N4_31 
REMARK    9  A    between atoms: N4_31  and  C17_33 
ROOT
HETATM    1  S1  UNL     1       5.764 -19.539  45.072  1.00  0.00     0.162 S 
HETATM    2  O1  UNL     1       6.782 -19.199  43.993  1.00  0.00    -0.227 OA
HETATM    3  O2  UNL     1       6.397 -20.300  46.186  1.00  0.00    -0.227 OA
ENDROOT
BRANCH   1   4
HETATM    4  C7  UNL     1       4.942 -18.096  45.602  1.00  0.00     0.161 C 
BRANCH   4   5
HETATM    5  C6  UNL     1       5.641 -16.799  45.324  1.00  0.00     0.057 C 
HETATM    6  C5  UNL     1       5.580 -16.335  43.904  1.00  0.00     0.048 C 
HETATM    7  C4  UNL     1       4.214 -15.955  43.485  1.00  0.00    -0.018 C 
HETATM    8  C3  UNL     1       3.592 -15.072  44.270  1.00  0.00    -0.063 C 
HETATM    9  C21 UNL     1       4.368 -14.613  45.437  1.00  0.00     0.039 C 
HETATM   10  C20 UNL     1       4.983 -15.758  46.206  1.00  0.00     0.025 C 
BRANCH   8  11
HETATM   11  C2  UNL     1       2.248 -14.607  43.985  1.00  0.00    -0.004 C 
HETATM   12  C1  UNL     1       1.555 -15.048  42.975  1.00  0.00     0.012 C 
ENDBRANCH   8  11
BRANCH   5  13
HETATM   13  C16 UNL     1       7.084 -16.841  45.728  1.00  0.00     0.228 C 
HETATM   14  O6  UNL     1       7.929 -16.179  45.062  1.00  0.00    -0.273 OA
HETATM   15  N4  UNL     1       7.527 -17.597  46.832  1.00  0.00    -0.356 N 
ATOM     16  H4  UNL     1       6.859 -18.138  47.380  1.00  0.00     0.162 HD
BRANCH  15  17
HETATM   17  C17 UNL     1       8.926 -17.606  47.185  1.00  0.00     0.076 C 
HETATM   18  C18 UNL     1       9.142 -17.177  48.626  1.00  0.00     0.032 C 
HETATM   19  C19 UNL     1       9.467 -19.031  47.081  1.00  0.00     0.032 C 
ENDBRANCH  15  17
ENDBRANCH   5  13
ENDBRANCH   4   5
ENDBRANCH   1   4
BRANCH   1  20
HETATM   20  C8  UNL     1       4.605 -20.643  44.276  1.00  0.00     0.133 C 
HETATM   21  C10 UNL     1       3.212 -20.076  44.408  1.00  0.00     0.054 C 
HETATM   22  C11 UNL     1       2.154 -20.967  43.885  1.00  0.00     0.129 C 
HETATM   23  N2  UNL     1       2.451 -22.371  43.863  1.00  0.00    -0.334 N 
HETATM   24  C12 UNL     1       1.433 -23.258  43.455  1.00  0.00     0.317 C 
HETATM   25  C14 UNL     1       3.736 -22.927  44.235  1.00  0.00     0.129 C 
HETATM   26  O5  UNL     1       1.653 -24.490  43.423  1.00  0.00    -0.247 OA
HETATM   27  N3  UNL     1       0.155 -22.799  43.077  1.00  0.00    -0.347 N 
HETATM   28  C13 UNL     1      -0.895 -23.700  42.659  1.00  0.00     0.151 C 
ATOM     29  H3  UNL     1      -0.036 -21.797  43.099  1.00  0.00     0.163 HD
HETATM   30  C15 UNL     1       4.575 -21.985  45.024  1.00  0.00     0.054 C 
BRANCH  20  31
HETATM   31  C9  UNL     1       4.963 -20.946  42.885  1.00  0.00     0.159 C 
HETATM   32  N1  UNL     1       5.936 -21.781  42.637  1.00  0.00    -0.250 N 
ATOM     33  H1  UNL     1       6.431 -22.209  43.419  1.00  0.00     0.196 HD
BRANCH  31  34
HETATM   34  O3  UNL     1       4.325 -20.394  41.809  1.00  0.00    -0.347 OA
ATOM     35  H3  UNL     1       4.625 -20.502  40.913  1.00  0.00     0.219 HD
ENDBRANCH  31  34
BRANCH  32  36
HETATM   36  O4  UNL     1       6.314 -22.102  41.358  1.00  0.00    -0.288 OA
ATOM     37  H4  UNL     1       7.180 -22.437  41.155  1.00  0.00     0.244 HD
ENDBRANCH  32  36
ENDBRANCH  20  31
ENDBRANCH   1  20
TORSDOF 9
ENDMDL
MODEL 4
REMARK VINA RESULT: -8.679337723      2.346      3.658
REMARK  9 active torsions:
REMARK  status: ('A' for Active; 'I' for Inactive)
REMARK    1  A    between atoms: C2_2  and  C3_3 
REMARK    2  A    between atoms: C6_6  and  C7_7 
REMARK    3  A    between atoms: C6_6  and  C16_29 
REMARK    4  A    between atoms: C7_7  and  S1_8 
REMARK    5  A    between atoms: S1_8  and  C8_11 
REMARK    6  A    between atoms: C8_11  and  C9_12 
REMARK    7  A    between atoms: C9_12  and  O3_13 
REMARK    8  A    between atoms: N1_15  and  O4_17 
REMARK       I    between atoms: N2_21  and  C12_22 
REMARK       I    between atoms: C12_22  and  N3_24 
REMARK       I    between atoms: C16_29  and  N4_31 
REMARK    9  A    between atoms: N4_31  and  C17_33 
ROOT
HETATM    1  S1  UNL     1       5.282 -19.374  44.007  1.00  0.00     0.162 S 
HETATM    2  O1  UNL     1       4.519 -19.078  42.725  1.00  0.00    -0.227 OA
HETATM    3  O2  UNL     1       6.749 -19.445  43.754  1.00  0.00    -0.227 OA
ENDROOT
BRANCH   1   4
HETATM    4  C7  UNL     1       4.850 -18.225  45.245  1.00  0.00     0.161 C 
BRANCH   4   5
HETATM    5  C6  UNL     1       5.615 -16.936  45.244  1.00  0.00     0.057 C 
HETATM    6  C5  UNL     1       5.654 -16.219  43.932  1.00  0.00     0.048 C 
HETATM    7  C4  UNL     1       4.330 -15.703  43.525  1.00  0.00    -0.018 C 
HETATM    8  C3  UNL     1       3.700 -14.947  44.427  1.00  0.00    -0.063 C 
HETATM    9  C21 UNL     1       4.427 -14.746  45.694  1.00  0.00     0.039 C 
HETATM   10  C20 UNL     1       4.951 -16.041  46.269  1.00  0.00     0.025 C 
BRANCH   8  11
HETATM   11  C2  UNL     1       2.394 -14.371  44.168  1.00  0.00    -0.004 C 
HETATM   12  C1  UNL     1       1.547 -14.906  43.336  1.00  0.00     0.012 C 
ENDBRANCH   8  11
BRANCH   5  13
HETATM   13  C16 UNL     1       7.030 -17.122  45.703  1.00  0.00     0.228 C 
HETATM   14  O6  UNL     1       7.916 -16.310  45.313  1.00  0.00    -0.273 OA
HETATM   15  N4  UNL     1       7.403 -18.178  46.559  1.00  0.00    -0.356 N 
ATOM     16  H4  UNL     1       6.701 -18.844  46.882  1.00  0.00     0.162 HD
BRANCH  15  17
HETATM   17  C17 UNL     1       8.777 -18.317  46.977  1.00  0.00     0.076 C 
HETATM   18  C18 UNL     1       8.990 -17.788  48.384  1.00  0.00     0.032 C 
HETATM   19  C19 UNL     1       9.147 -19.799  47.020  1.00  0.00     0.032 C 
ENDBRANCH  15  17
ENDBRANCH   5  13
ENDBRANCH   4   5
ENDBRANCH   1   4
BRANCH   1  20
HETATM   20  C8  UNL     1       4.754 -21.013  44.485  1.00  0.00     0.133 C 
HETATM   21  C10 UNL     1       5.489 -21.424  45.739  1.00  0.00     0.054 C 
HETATM   22  C11 UNL     1       5.216 -22.814  46.162  1.00  0.00     0.129 C 
HETATM   23  N2  UNL     1       4.809 -23.729  45.133  1.00  0.00    -0.334 N 
HETATM   24  C12 UNL     1       4.627 -25.083  45.485  1.00  0.00     0.317 C 
HETATM   25  C14 UNL     1       4.574 -23.340  43.758  1.00  0.00     0.129 C 
HETATM   26  O5  UNL     1       4.273 -25.912  44.616  1.00  0.00    -0.247 OA
HETATM   27  N3  UNL     1       4.835 -25.544  46.800  1.00  0.00    -0.347 N 
HETATM   28  C13 UNL     1       4.652 -26.929  47.169  1.00  0.00     0.151 C 
ATOM     29  H3  UNL     1       5.123 -24.877  47.517  1.00  0.00     0.163 HD
HETATM   30  C15 UNL     1       5.179 -22.025  43.410  1.00  0.00     0.054 C 
BRANCH  20  31
HETATM   31  C9  UNL     1       3.297 -21.131  44.619  1.00  0.00     0.159 C 
HETATM   32  N1  UNL     1       2.552 -21.179  43.548  1.00  0.00    -0.250 N 
ATOM     33  H1  UNL     1       3.001 -21.132  42.633  1.00  0.00     0.196 HD
BRANCH  31  34
HETATM   34  O3  UNL     1       2.658 -21.196  45.827  1.00  0.00    -0.347 OA
ATOM     35  H3  UNL     1       2.603 -21.991  46.345  1.00  0.00     0.219 HD
ENDBRANCH  31  34
BRANCH  32  36
HETATM   36  O4  UNL     1       1.186 -21.289  43.612  1.00  0.00    -0.288 OA
ATOM     37  H4  UNL     1       0.756 -22.081  43.912  1.00  0.00     0.244 HD
ENDBRANCH  32  36
ENDBRANCH  20  31
ENDBRANCH   1  20
TORSDOF 9
ENDMDL
MODEL 5
REMARK VINA RESULT: -8.647834974      1.428      1.912
REMARK  9 active torsions:
REMARK  status: ('A' for Active; 'I' for Inactive)
REMARK    1  A    between atoms: C2_2  and  C3_3 
REMARK    2  A    between atoms: C6_6  and  C7_7 
REMARK    3  A    between atoms: C6_6  and  C16_29 
REMARK    4  A    between atoms: C7_7  and  S1_8 
REMARK    5  A    between atoms: S1_8  and  C8_11 
REMARK    6  A    between atoms: C8_11  and  C9_12 
REMARK    7  A    between atoms: C9_12  and  O3_13 
REMARK    8  A    between atoms: N1_15  and  O4_17 
REMARK       I    between atoms: N2_21  and  C12_22 
REMARK       I    between atoms: C12_22  and  N3_24 
REMARK       I    between atoms: C16_29  and  N4_31 
REMARK    9  A    between atoms: N4_31  and  C17_33 
ROOT
HETATM    1  S1  UNL     1       5.305 -19.691  44.697  1.00  0.00     0.162 S 
HETATM    2  O1  UNL     1       6.372 -19.324  43.676  1.00  0.00    -0.227 OA
HETATM    3  O2  UNL     1       5.822 -20.687  45.678  1.00  0.00    -0.227 OA
ENDROOT
BRANCH   1   4
HETATM    4  C7  UNL     1       4.668 -18.252  45.447  1.00  0.00     0.161 C 
BRANCH   4   5
HETATM    5  C6  UNL     1       5.458 -16.995  45.240  1.00  0.00     0.057 C 
HETATM    6  C5  UNL     1       5.448 -16.459  43.844  1.00  0.00     0.048 C 
HETATM    7  C4  UNL     1       4.116 -15.965  43.432  1.00  0.00    -0.018 C 
HETATM    8  C3  UNL     1       3.546 -15.081  44.254  1.00  0.00    -0.063 C 
HETATM    9  C21 UNL     1       4.338 -14.734  45.449  1.00  0.00     0.039 C 
HETATM   10  C20 UNL     1       4.863 -15.955  46.166  1.00  0.00     0.025 C 
BRANCH   8  11
HETATM   11  C2  UNL     1       2.242 -14.510  43.980  1.00  0.00    -0.004 C 
HETATM   12  C1  UNL     1       1.460 -14.967  43.044  1.00  0.00     0.012 C 
ENDBRANCH   8  11
BRANCH   5  13
HETATM   13  C16 UNL     1       6.890 -17.157  45.655  1.00  0.00     0.228 C 
HETATM   14  O6  UNL     1       7.752 -16.341  45.221  1.00  0.00    -0.273 OA
HETATM   15  N4  UNL     1       7.303 -18.193  46.516  1.00  0.00    -0.356 N 
ATOM     16  H4  UNL     1       6.621 -18.861  46.874  1.00  0.00     0.162 HD
BRANCH  15  17
HETATM   17  C17 UNL     1       8.692 -18.309  46.890  1.00  0.00     0.076 C 
HETATM   18  C18 UNL     1       8.955 -17.706  48.259  1.00  0.00     0.032 C 
HETATM   19  C19 UNL     1       9.068 -19.786  46.998  1.00  0.00     0.032 C 
ENDBRANCH  15  17
ENDBRANCH   5  13
ENDBRANCH   4   5
ENDBRANCH   1   4
BRANCH   1  20
HETATM   20  C8  UNL     1       4.026 -20.503  43.750  1.00  0.00     0.133 C 
HETATM   21  C10 UNL     1       4.660 -21.520  42.831  1.00  0.00     0.054 C 
HETATM   22  C11 UNL     1       3.702 -22.173  41.913  1.00  0.00     0.129 C 
HETATM   23  N2  UNL     1       2.513 -21.434  41.595  1.00  0.00    -0.334 N 
HETATM   24  C12 UNL     1       1.621 -21.988  40.653  1.00  0.00     0.317 C 
HETATM   25  C14 UNL     1       2.179 -20.155  42.187  1.00  0.00     0.129 C 
HETATM   26  O5  UNL     1       0.574 -21.374  40.349  1.00  0.00    -0.247 OA
HETATM   27  N3  UNL     1       1.872 -23.227  40.030  1.00  0.00    -0.347 N 
HETATM   28  C13 UNL     1       0.964 -23.801  39.063  1.00  0.00     0.151 C 
ATOM     29  H3  UNL     1       2.723 -23.736  40.271  1.00  0.00     0.163 HD
HETATM   30  C15 UNL     1       3.343 -19.483  42.825  1.00  0.00     0.054 C 
BRANCH  20  31
HETATM   31  C9  UNL     1       2.969 -21.080  44.589  1.00  0.00     0.159 C 
HETATM   32  N1  UNL     1       3.123 -22.277  45.089  1.00  0.00    -0.250 N 
ATOM     33  H1  UNL     1       3.981 -22.790  44.885  1.00  0.00     0.196 HD
BRANCH  31  34
HETATM   34  O3  UNL     1       1.805 -20.426  44.886  1.00  0.00    -0.347 OA
ATOM     35  H3  UNL     1       1.440 -20.383  45.762  1.00  0.00     0.219 HD
ENDBRANCH  31  34
BRANCH  32  36
HETATM   36  O4  UNL     1       2.170 -22.867  45.879  1.00  0.00    -0.288 OA
ATOM     37  H4  UNL     1       1.854 -23.749  45.718  1.00  0.00     0.244 HD
ENDBRANCH  32  36
ENDBRANCH  20  31
ENDBRANCH   1  20
TORSDOF 9
ENDMDL
