MODEL 1
REMARK VINA RESULT: -8.952139266      0.000      0.000
REMARK  7 active torsions:
REMARK  status: ('A' for Active; 'I' for Inactive)
REMARK    1  A    between atoms: C2_2  and  C3_3 
REMARK    2  A    between atoms: C3_3  and  N1_4 
REMARK    3  A    between atoms: C3_3  and  C18_27 
REMARK       I    between atoms: N1_4  and  C4_6 
REMARK    4  A    between atoms: C4_6  and  C5_8 
REMARK       I    between atoms: N2_12  and  C9_13 
REMARK    5  A    between atoms: C9_13  and  C10_15 
REMARK    6  A    between atoms: C10_15  and  N3_16 
REMARK    7  A    between atoms: C10_15  and  C12_21 
ROOT
HETATM    1  C5  UNL     1       6.142 -20.748  45.590  1.00  0.00     0.179 C 
HETATM    2  C6  UNL     1       6.582 -21.524  44.393  1.00  0.00     0.037 C 
HETATM    3  C7  UNL     1       7.468 -20.568  43.590  1.00  0.00     0.022 C 
HETATM    4  C8  UNL     1       7.707 -19.432  44.575  1.00  0.00     0.127 C 
HETATM    5  N2  UNL     1       6.435 -19.356  45.228  1.00  0.00    -0.337 N 
HETATM    6  C9  UNL     1       5.569 -18.277  45.537  1.00  0.00     0.243 C 
HETATM    7  O2  UNL     1       4.517 -18.520  46.177  1.00  0.00    -0.271 OA
ENDROOT
BRANCH   1   8
HETATM    8  C4  UNL     1       6.844 -21.152  46.832  1.00  0.00     0.241 C 
HETATM    9  N1  UNL     1       7.994 -21.986  46.796  1.00  0.00    -0.352 N 
ATOM     10  H1  UNL     1       8.331 -22.305  45.887  1.00  0.00     0.163 HD
HETATM   11  O1  UNL     1       6.409 -20.745  47.938  1.00  0.00    -0.271 OA
BRANCH   9  12
HETATM   12  C3  UNL     1       8.712 -22.407  47.976  1.00  0.00     0.116 C 
BRANCH  12  13
HETATM   13  C2  UNL     1       9.808 -21.437  48.350  1.00  0.00     0.051 C 
HETATM   14  C1  UNL     1      10.969 -22.322  48.842  1.00  0.00     0.041 C 
HETATM   15  C21 UNL     1       9.385 -20.628  49.554  1.00  0.00     0.106 C 
HETATM   16  S1  UNL     1      10.784 -19.519  49.989  1.00  0.00    -0.165 SA
HETATM   17  C22 UNL     1      11.209 -18.676  48.434  1.00  0.00     0.093 C 
HETATM   18  C23 UNL     1      10.229 -19.247  47.402  1.00  0.00     0.124 C 
HETATM   19  N6  UNL     1      10.325 -20.663  47.285  1.00  0.00    -0.410 N 
ATOM     20  H6  UNL     1      10.750 -21.101  46.467  1.00  0.00     0.154 HD
ENDBRANCH  12  13
BRANCH  12  21
HETATM   21  C18 UNL     1       9.156 -23.835  47.890  1.00  0.00     0.011 A 
HETATM   22  C19 UNL     1       8.150 -24.964  47.904  1.00  0.00     0.007 A 
HETATM   23  C20 UNL     1       8.959 -24.674  46.690  1.00  0.00     0.007 A 
ENDBRANCH  12  21
ENDBRANCH   9  12
ENDBRANCH   1   8
BRANCH   6  24
HETATM   24  C10 UNL     1       5.842 -16.880  45.146  1.00  0.00     0.180 C 
BRANCH  24  25
HETATM   25  N3  UNL     1       6.429 -16.052  46.054  1.00  0.00    -0.353 N 
HETATM   26  C11 UNL     1       7.292 -15.668  46.781  1.00  0.00     0.197 C 
HETATM   27  N4  UNL     1       7.089 -14.459  47.560  1.00  0.00    -0.067 NA
HETATM   28  N5  UNL     1       8.552 -16.271  46.990  1.00  0.00    -0.067 NA
ATOM     29  H3  UNL     1       5.706 -15.347  46.194  1.00  0.00     0.162 HD
ENDBRANCH  24  25
BRANCH  24  30
HETATM   30  C12 UNL     1       4.542 -16.200  44.660  1.00  0.00     0.017 C 
HETATM   31  C13 UNL     1       4.827 -15.789  43.227  1.00  0.00     0.007 C 
HETATM   32  C14 UNL     1       3.523 -15.465  42.563  1.00  0.00     0.000 C 
HETATM   33  C15 UNL     1       2.527 -15.076  43.632  1.00  0.00     0.000 C 
HETATM   34  C16 UNL     1       3.110 -14.243  44.732  1.00  0.00     0.000 C 
HETATM   35  C17 UNL     1       4.240 -14.949  45.449  1.00  0.00     0.007 C 
ENDBRANCH  24  30
ENDBRANCH   6  24
TORSDOF 7
ENDMDL
MODEL 2
REMARK VINA RESULT: -8.684240739      0.902      1.252
REMARK  7 active torsions:
REMARK  status: ('A' for Active; 'I' for Inactive)
REMARK    1  A    between atoms: C2_2  and  C3_3 
REMARK    2  A    between atoms: C3_3  and  N1_4 
REMARK    3  A    between atoms: C3_3  and  C18_27 
REMARK       I    between atoms: N1_4  and  C4_6 
REMARK    4  A    between atoms: C4_6  and  C5_8 
REMARK       I    between atoms: N2_12  and  C9_13 
REMARK    5  A    between atoms: C9_13  and  C10_15 
REMARK    6  A    between atoms: C10_15  and  N3_16 
REMARK    7  A    between atoms: C10_15  and  C12_21 
ROOT
HETATM    1  C5  UNL     1       5.843 -20.717  45.645  1.00  0.00     0.179 C 
HETATM    2  C6  UNL     1       6.073 -21.548  44.426  1.00  0.00     0.037 C 
HETATM    3  C7  UNL     1       6.883 -20.662  43.475  1.00  0.00     0.022 C 
HETATM    4  C8  UNL     1       7.312 -19.513  44.378  1.00  0.00     0.127 C 
HETATM    5  N2  UNL     1       6.149 -19.353  45.198  1.00  0.00    -0.337 N 
HETATM    6  C9  UNL     1       5.388 -18.222  45.587  1.00  0.00     0.243 C 
HETATM    7  O2  UNL     1       4.426 -18.392  46.373  1.00  0.00    -0.271 OA
ENDROOT
BRANCH   1   8
HETATM    8  C4  UNL     1       6.692 -21.124  46.790  1.00  0.00     0.241 C 
HETATM    9  N1  UNL     1       8.106 -21.193  46.678  1.00  0.00    -0.352 N 
ATOM     10  H1  UNL     1       8.532 -20.953  45.782  1.00  0.00     0.163 HD
HETATM   11  O1  UNL     1       6.142 -21.413  47.883  1.00  0.00    -0.271 OA
BRANCH   9  12
HETATM   12  C3  UNL     1       8.975 -21.583  47.764  1.00  0.00     0.116 C 
BRANCH  12  13
HETATM   13  C2  UNL     1       9.906 -20.467  48.175  1.00  0.00     0.051 C 
HETATM   14  C1  UNL     1       9.780 -19.414  47.057  1.00  0.00     0.041 C 
HETATM   15  C21 UNL     1      11.338 -20.946  48.112  1.00  0.00     0.106 C 
HETATM   16  S1  UNL     1      12.413 -19.525  48.561  1.00  0.00    -0.165 SA
HETATM   17  C22 UNL     1      11.732 -18.906  50.131  1.00  0.00     0.093 C 
HETATM   18  C23 UNL     1      10.537 -19.822  50.424  1.00  0.00     0.124 C 
HETATM   19  N6  UNL     1       9.569 -19.805  49.379  1.00  0.00    -0.410 N 
ATOM     20  H6  UNL     1       8.671 -19.336  49.494  1.00  0.00     0.154 HD
ENDBRANCH  12  13
BRANCH  12  21
HETATM   21  C18 UNL     1       9.657 -22.890  47.501  1.00  0.00     0.011 A 
HETATM   22  C19 UNL     1       9.020 -24.197  47.917  1.00  0.00     0.007 A 
HETATM   23  C20 UNL     1       9.197 -23.854  46.481  1.00  0.00     0.007 A 
ENDBRANCH  12  21
ENDBRANCH   9  12
ENDBRANCH   1   8
BRANCH   6  24
HETATM   24  C10 UNL     1       5.670 -16.852  45.113  1.00  0.00     0.180 C 
BRANCH  24  25
HETATM   25  N3  UNL     1       6.258 -15.975  45.973  1.00  0.00    -0.353 N 
HETATM   26  C11 UNL     1       7.124 -15.547  46.672  1.00  0.00     0.197 C 
HETATM   27  N4  UNL     1       6.917 -14.302  47.390  1.00  0.00    -0.067 NA
HETATM   28  N5  UNL     1       8.390 -16.129  46.901  1.00  0.00    -0.067 NA
ATOM     29  H3  UNL     1       5.531 -15.269  46.083  1.00  0.00     0.162 HD
ENDBRANCH  24  25
BRANCH  24  30
HETATM   30  C12 UNL     1       4.377 -16.196  44.581  1.00  0.00     0.017 C 
HETATM   31  C13 UNL     1       4.706 -15.776  43.161  1.00  0.00     0.007 C 
HETATM   32  C14 UNL     1       3.421 -15.475  42.450  1.00  0.00     0.000 C 
HETATM   33  C15 UNL     1       2.380 -15.108  43.482  1.00  0.00     0.000 C 
HETATM   34  C16 UNL     1       2.906 -14.266  44.604  1.00  0.00     0.000 C 
HETATM   35  C17 UNL     1       4.022 -14.953  45.361  1.00  0.00     0.007 C 
ENDBRANCH  24  30
ENDBRANCH   6  24
TORSDOF 7
ENDMDL
MODEL 3
REMARK VINA RESULT: -8.454026898      3.840      6.735
REMARK  7 active torsions:
REMARK  status: ('A' for Active; 'I' for Inactive)
REMARK    1  A    between atoms: C2_2  and  C3_3 
REMARK    2  A    between atoms: C3_3  and  N1_4 
REMARK    3  A    between atoms: C3_3  and  C18_27 
REMARK       I    between atoms: N1_4  and  C4_6 
REMARK    4  A    between atoms: C4_6  and  C5_8 
REMARK       I    between atoms: N2_12  and  C9_13 
REMARK    5  A    between atoms: C9_13  and  C10_15 
REMARK    6  A    between atoms: C10_15  and  N3_16 
REMARK    7  A    between atoms: C10_15  and  C12_21 
ROOT
HETATM    1  C5  UNL     1       5.704 -20.918  45.228  1.00  0.00     0.179 C 
HETATM    2  C6  UNL     1       5.903 -21.844  46.383  1.00  0.00     0.037 C 
HETATM    3  C7  UNL     1       6.119 -20.938  47.598  1.00  0.00     0.022 C 
HETATM    4  C8  UNL     1       5.703 -19.572  47.071  1.00  0.00     0.127 C 
HETATM    5  N2  UNL     1       6.195 -19.629  45.728  1.00  0.00    -0.337 N 
HETATM    6  C9  UNL     1       6.959 -18.733  44.938  1.00  0.00     0.243 C 
HETATM    7  O2  UNL     1       7.200 -19.044  43.747  1.00  0.00    -0.271 OA
ENDROOT
BRANCH   1   8
HETATM    8  C4  UNL     1       4.290 -20.836  44.791  1.00  0.00     0.241 C 
HETATM    9  N1  UNL     1       3.924 -20.198  43.575  1.00  0.00    -0.352 N 
ATOM     10  H1  UNL     1       4.664 -19.792  43.002  1.00  0.00     0.163 HD
HETATM   11  O1  UNL     1       3.398 -21.345  45.516  1.00  0.00    -0.271 OA
BRANCH   9  12
HETATM   12  C3  UNL     1       2.562 -20.093  43.107  1.00  0.00     0.116 C 
BRANCH  12  13
HETATM   13  C2  UNL     1       2.171 -21.261  42.233  1.00  0.00     0.051 C 
HETATM   14  C1  UNL     1       1.476 -20.627  41.013  1.00  0.00     0.041 C 
HETATM   15  C21 UNL     1       1.101 -22.078  42.920  1.00  0.00     0.106 C 
HETATM   16  S1  UNL     1       0.630 -23.438  41.778  1.00  0.00    -0.165 SA
HETATM   17  C22 UNL     1       2.206 -24.218  41.311  1.00  0.00     0.093 C 
HETATM   18  C23 UNL     1       3.276 -23.410  42.057  1.00  0.00     0.124 C 
HETATM   19  N6  UNL     1       3.245 -22.026  41.722  1.00  0.00    -0.410 N 
ATOM     20  H6  UNL     1       3.968 -21.604  41.138  1.00  0.00     0.154 HD
ENDBRANCH  12  13
BRANCH  12  21
HETATM   21  C18 UNL     1       2.272 -18.750  42.510  1.00  0.00     0.011 A 
HETATM   22  C19 UNL     1       2.227 -17.509  43.371  1.00  0.00     0.007 A 
HETATM   23  C20 UNL     1       3.293 -17.695  42.351  1.00  0.00     0.007 A 
ENDBRANCH  12  21
ENDBRANCH   9  12
ENDBRANCH   1   8
BRANCH   6  24
HETATM   24  C10 UNL     1       7.485 -17.450  45.446  1.00  0.00     0.180 C 
BRANCH  24  25
HETATM   25  N3  UNL     1       8.201 -17.453  46.604  1.00  0.00    -0.353 N 
HETATM   26  C11 UNL     1       8.975 -17.875  47.406  1.00  0.00     0.197 C 
HETATM   27  N4  UNL     1       9.228 -17.123  48.623  1.00  0.00    -0.067 NA
HETATM   28  N5  UNL     1       9.715 -19.075  47.318  1.00  0.00    -0.067 NA
ATOM     29  H3  UNL     1       7.898 -16.583  47.041  1.00  0.00     0.162 HD
ENDBRANCH  24  25
BRANCH  24  30
HETATM   30  C12 UNL     1       6.336 -16.429  45.605  1.00  0.00     0.017 C 
HETATM   31  C13 UNL     1       6.238 -15.736  44.258  1.00  0.00     0.007 C 
HETATM   32  C14 UNL     1       4.929 -15.009  44.198  1.00  0.00     0.000 C 
HETATM   33  C15 UNL     1       4.483 -14.713  45.612  1.00  0.00     0.000 C 
HETATM   34  C16 UNL     1       5.597 -14.311  46.530  1.00  0.00     0.000 C 
HETATM   35  C17 UNL     1       6.662 -15.382  46.642  1.00  0.00     0.007 C 
ENDBRANCH  24  30
ENDBRANCH   6  24
TORSDOF 7
ENDMDL
MODEL 4
REMARK VINA RESULT: -8.428353330      2.892      5.159
REMARK  7 active torsions:
REMARK  status: ('A' for Active; 'I' for Inactive)
REMARK    1  A    between atoms: C2_2  and  C3_3 
REMARK    2  A    between atoms: C3_3  and  N1_4 
REMARK    3  A    between atoms: C3_3  and  C18_27 
REMARK       I    between atoms: N1_4  and  C4_6 
REMARK    4  A    between atoms: C4_6  and  C5_8 
REMARK       I    between atoms: N2_12  and  C9_13 
REMARK    5  A    between atoms: C9_13  and  C10_15 
REMARK    6  A    between atoms: C10_15  and  N3_16 
REMARK    7  A    between atoms: C10_15  and  C12_21 
ROOT
HETATM    1  C5  UNL     1       6.638 -15.886  45.220  1.00  0.00     0.179 C 
HETATM    2  C6  UNL     1       6.266 -15.116  46.445  1.00  0.00     0.037 C 
HETATM    3  C7  UNL     1       4.783 -15.417  46.679  1.00  0.00     0.022 C 
HETATM    4  C8  UNL     1       4.529 -16.588  45.741  1.00  0.00     0.127 C 
HETATM    5  N2  UNL     1       5.344 -16.229  44.619  1.00  0.00    -0.337 N 
HETATM    6  C9  UNL     1       5.103 -16.188  43.223  1.00  0.00     0.243 C 
HETATM    7  O2  UNL     1       6.050 -15.872  42.463  1.00  0.00    -0.271 OA
ENDROOT
BRANCH   1   8
HETATM    8  C4  UNL     1       7.443 -17.094  45.519  1.00  0.00     0.241 C 
HETATM    9  N1  UNL     1       7.822 -17.424  46.848  1.00  0.00    -0.352 N 
ATOM     10  H1  UNL     1       7.525 -16.804  47.602  1.00  0.00     0.163 HD
HETATM   11  O1  UNL     1       7.796 -17.841  44.571  1.00  0.00    -0.271 OA
BRANCH   9  12
HETATM   12  C3  UNL     1       8.605 -18.588  47.190  1.00  0.00     0.116 C 
BRANCH  12  13
HETATM   13  C2  UNL     1       7.748 -19.822  47.347  1.00  0.00     0.051 C 
HETATM   14  C1  UNL     1       7.751 -20.116  48.859  1.00  0.00     0.041 C 
HETATM   15  C21 UNL     1       8.435 -21.007  46.709  1.00  0.00     0.106 C 
HETATM   16  S1  UNL     1       7.371 -22.477  46.992  1.00  0.00    -0.165 SA
HETATM   17  C22 UNL     1       5.719 -21.972  46.421  1.00  0.00     0.093 C 
HETATM   18  C23 UNL     1       5.898 -20.524  45.948  1.00  0.00     0.124 C 
HETATM   19  N6  UNL     1       6.391 -19.672  46.977  1.00  0.00    -0.410 N 
ATOM     20  H6  UNL     1       5.790 -18.982  47.429  1.00  0.00     0.154 HD
ENDBRANCH  12  13
BRANCH  12  21
HETATM   21  C18 UNL     1       9.532 -18.330  48.338  1.00  0.00     0.011 A 
HETATM   22  C19 UNL     1      11.031 -18.392  48.156  1.00  0.00     0.007 A 
HETATM   23  C20 UNL     1      10.349 -17.106  48.460  1.00  0.00     0.007 A 
ENDBRANCH  12  21
ENDBRANCH   9  12
ENDBRANCH   1   8
BRANCH   6  24
HETATM   24  C10 UNL     1       3.793 -16.499  42.615  1.00  0.00     0.180 C 
BRANCH  24  25
HETATM   25  N3  UNL     1       2.712 -15.761  42.987  1.00  0.00    -0.353 N 
HETATM   26  C11 UNL     1       2.118 -14.928  43.600  1.00  0.00     0.197 C 
HETATM   27  N4  UNL     1       0.700 -14.729  43.352  1.00  0.00    -0.067 NA
HETATM   28  N5  UNL     1       2.647 -14.066  44.585  1.00  0.00    -0.067 NA
ATOM     29  H3  UNL     1       1.979 -16.146  42.391  1.00  0.00     0.162 HD
ENDBRANCH  24  25
BRANCH  24  30
HETATM   30  C12 UNL     1       3.445 -17.988  42.835  1.00  0.00     0.017 C 
HETATM   31  C13 UNL     1       4.247 -18.738  41.788  1.00  0.00     0.007 C 
HETATM   32  C14 UNL     1       4.266 -20.189  42.159  1.00  0.00     0.000 C 
HETATM   33  C15 UNL     1       3.055 -20.477  43.018  1.00  0.00     0.000 C 
HETATM   34  C16 UNL     1       1.814 -19.765  42.576  1.00  0.00     0.000 C 
HETATM   35  C17 UNL     1       1.983 -18.261  42.581  1.00  0.00     0.007 C 
ENDBRANCH  24  30
ENDBRANCH   6  24
TORSDOF 7
ENDMDL
MODEL 5
REMARK VINA RESULT: -8.386754890      1.604      1.980
REMARK  7 active torsions:
REMARK  status: ('A' for Active; 'I' for Inactive)
REMARK    1  A    between atoms: C2_2  and  C3_3 
REMARK    2  A    between atoms: C3_3  and  N1_4 
REMARK    3  A    between atoms: C3_3  and  C18_27 
REMARK       I    between atoms: N1_4  and  C4_6 
REMARK    4  A    between atoms: C4_6  and  C5_8 
REMARK       I    between atoms: N2_12  and  C9_13 
REMARK    5  A    between atoms: C9_13  and  C10_15 
REMARK    6  A    between atoms: C10_15  and  N3_16 
REMARK    7  A    between atoms: C10_15  and  C12_21 
ROOT
HETATM    1  C5  UNL     1       4.131 -21.152  45.574  1.00  0.00     0.179 C 
HETATM    2  C6  UNL     1       3.554 -21.886  44.409  1.00  0.00     0.037 C 
HETATM    3  C7  UNL     1       4.197 -21.255  43.171  1.00  0.00     0.022 C 
HETATM    4  C8  UNL     1       5.326 -20.427  43.769  1.00  0.00     0.127 C 
HETATM    5  N2  UNL     1       4.714 -19.947  44.972  1.00  0.00    -0.337 N 
HETATM    6  C9  UNL     1       4.629 -18.664  45.569  1.00  0.00     0.243 C 
HETATM    7  O2  UNL     1       4.054 -18.560  46.679  1.00  0.00    -0.271 OA
ENDROOT
BRANCH   1   8
HETATM    8  C4  UNL     1       5.145 -21.943  46.312  1.00  0.00     0.241 C 
HETATM    9  N1  UNL     1       6.455 -21.444  46.539  1.00  0.00    -0.352 N 
ATOM     10  H1  UNL     1       6.688 -20.518  46.179  1.00  0.00     0.163 HD
HETATM   11  O1  UNL     1       4.833 -23.082  46.744  1.00  0.00    -0.271 OA
BRANCH   9  12
HETATM   12  C3  UNL     1       7.477 -22.176  47.251  1.00  0.00     0.116 C 
BRANCH  12  13
HETATM   13  C2  UNL     1       8.186 -21.315  48.269  1.00  0.00     0.051 C 
HETATM   14  C1  UNL     1       7.062 -20.550  48.992  1.00  0.00     0.041 C 
HETATM   15  C21 UNL     1       9.001 -20.255  47.565  1.00  0.00     0.106 C 
HETATM   16  S1  UNL     1       9.782 -19.212  48.860  1.00  0.00    -0.165 SA
HETATM   17  C22 UNL     1      10.601 -20.392  49.976  1.00  0.00     0.093 C 
HETATM   18  C23 UNL     1      10.293 -21.771  49.378  1.00  0.00     0.124 C 
HETATM   19  N6  UNL     1       8.893 -22.018  49.273  1.00  0.00    -0.410 N 
ATOM     20  H6  UNL     1       8.421 -22.674  49.895  1.00  0.00     0.154 HD
ENDBRANCH  12  13
BRANCH  12  21
HETATM   21  C18 UNL     1       8.392 -22.917  46.325  1.00  0.00     0.011 A 
HETATM   22  C19 UNL     1       8.257 -24.410  46.129  1.00  0.00     0.007 A 
HETATM   23  C20 UNL     1       7.958 -23.463  45.022  1.00  0.00     0.007 A 
ENDBRANCH  12  21
ENDBRANCH   9  12
ENDBRANCH   1   8
BRANCH   6  24
HETATM   24  C10 UNL     1       5.183 -17.443  44.951  1.00  0.00     0.180 C 
BRANCH  24  25
HETATM   25  N3  UNL     1       6.058 -16.689  45.672  1.00  0.00    -0.353 N 
HETATM   26  C11 UNL     1       7.114 -16.388  46.136  1.00  0.00     0.197 C 
HETATM   27  N4  UNL     1       7.223 -15.196  46.960  1.00  0.00    -0.067 NA
HETATM   28  N5  UNL     1       8.335 -17.079  45.976  1.00  0.00    -0.067 NA
ATOM     29  H3  UNL     1       5.455 -15.943  46.020  1.00  0.00     0.162 HD
ENDBRANCH  24  25
BRANCH  24  30
HETATM   30  C12 UNL     1       4.039 -16.518  44.481  1.00  0.00     0.017 C 
HETATM   31  C13 UNL     1       4.383 -16.168  43.045  1.00  0.00     0.007 C 
HETATM   32  C14 UNL     1       3.161 -15.591  42.396  1.00  0.00     0.000 C 
HETATM   33  C15 UNL     1       2.274 -15.015  43.477  1.00  0.00     0.000 C 
HETATM   34  C16 UNL     1       3.023 -14.316  44.570  1.00  0.00     0.000 C 
HETATM   35  C17 UNL     1       4.000 -15.235  45.274  1.00  0.00     0.007 C 
ENDBRANCH  24  30
ENDBRANCH   6  24
TORSDOF 7
ENDMDL
