MODEL 1
REMARK VINA RESULT: -7.953168756      0.000      0.000
REMARK  12 active torsions:
REMARK  status: ('A' for Active; 'I' for Inactive)
REMARK    1  A    between atoms: C2_2  and  C4_4 
REMARK    2  A    between atoms: C4_4  and  C5_5 
REMARK    3  A    between atoms: C4_4  and  N3_19 
REMARK    4  A    between atoms: C5_5  and  O1_6 
REMARK    5  A    between atoms: C5_5  and  N1_8 
REMARK    6  A    between atoms: C8_11  and  C9_12 
REMARK    7  A    between atoms: C9_12  and  N2_13 
REMARK       I    between atoms: N3_19  and  C13_21 
REMARK       I    between atoms: C13_21  and  N4_23 
REMARK    8  A    between atoms: N4_23  and  C14_25 
REMARK    9  A    between atoms: C14_25  and  C15_26 
REMARK   10  A    between atoms: C17_30  and  N5_31 
REMARK       I    between atoms: N5_31  and  C18_33 
REMARK   11  A    between atoms: C18_33  and  O6_35 
REMARK   12  A    between atoms: O6_35  and  C19_36 
ROOT
HETATM    1  N3  UNL     1      -0.070 -22.269  40.041  1.00  0.00    -0.303 N 
HETATM    2  C12 UNL     1      -0.674 -23.329  40.841  1.00  0.00     0.161 C 
HETATM    3  C13 UNL     1       0.973 -21.514  40.687  1.00  0.00     0.323 C 
HETATM    4  O2  UNL     1       1.503 -20.597  40.029  1.00  0.00    -0.247 OA
HETATM    5  N4  UNL     1       1.405 -21.769  42.000  1.00  0.00    -0.321 N 
ATOM      6  H4  UNL     1       0.976 -22.515  42.548  1.00  0.00     0.165 HD
ENDROOT
BRANCH   1   7
HETATM    7  C4  UNL     1      -0.428 -21.941  38.699  1.00  0.00     0.070 C 
BRANCH   7   8
HETATM    8  C2  UNL     1      -0.236 -23.067  37.705  1.00  0.00     0.032 C 
HETATM    9  C1  UNL     1       1.065 -23.809  37.969  1.00  0.00     0.016 C 
HETATM   10  C3  UNL     1      -0.072 -22.507  36.284  1.00  0.00     0.016 C 
ENDBRANCH   7   8
BRANCH   7  11
HETATM   11  C5  UNL     1      -1.634 -21.161  38.486  1.00  0.00     0.162 C 
BRANCH  11  12
HETATM   12  O1  UNL     1      -2.617 -21.472  39.299  1.00  0.00    -0.345 OA
ATOM     13  H1  UNL     1      -3.099 -20.720  39.624  1.00  0.00     0.219 HD
ENDBRANCH  11  12
BRANCH  11  14
HETATM   14  N1  UNL     1      -1.972 -20.147  37.599  1.00  0.00    -0.360 N 
HETATM   15  C6  UNL     1      -2.955 -20.100  36.562  1.00  0.00     0.125 C 
HETATM   16  C7  UNL     1      -2.231 -20.083  35.233  1.00  0.00     0.026 C 
HETATM   17  C8  UNL     1      -1.403 -18.825  35.179  1.00  0.00     0.014 C 
HETATM   18  C10 UNL     1      -0.530 -18.598  36.366  1.00  0.00     0.026 C 
HETATM   19  C11 UNL     1      -1.196 -18.887  37.687  1.00  0.00     0.125 C 
BRANCH  17  20
HETATM   20  C9  UNL     1      -0.577 -18.878  33.914  1.00  0.00     0.234 C 
BRANCH  20  21
HETATM   21  N2  UNL     1       0.133 -17.662  33.646  1.00  0.00    -0.079 N 
ATOM     22  H23 UNL     1      -0.486 -16.964  33.236  1.00  0.00     0.274 HD
ATOM     23  H22 UNL     1       0.374 -17.185  34.514  1.00  0.00     0.274 HD
ATOM     24  H21 UNL     1       0.962 -17.796  33.066  1.00  0.00     0.274 HD
ENDBRANCH  20  21
ENDBRANCH  17  20
ENDBRANCH  11  14
ENDBRANCH   7  11
ENDBRANCH   1   7
BRANCH   5  25
HETATM   25  C14 UNL     1       2.469 -20.957  42.572  1.00  0.00     0.145 A 
HETATM   26  C16 UNL     1       2.194 -20.421  43.988  1.00  0.00     0.073 A 
HETATM   27  C17 UNL     1       2.121 -19.548  42.770  1.00  0.00     0.128 A 
BRANCH  25  28
HETATM   28  C15 UNL     1       3.861 -21.406  42.402  1.00  0.00     0.204 C 
HETATM   29  O3  UNL     1       4.790 -20.702  41.931  1.00  0.00    -0.646 OA
HETATM   30  O4  UNL     1       4.145 -22.737  42.811  1.00  0.00    -0.646 OA
ENDBRANCH  25  28
BRANCH  27  31
HETATM   31  N5  UNL     1       3.077 -18.493  42.627  1.00  0.00    -0.329 N 
HETATM   32  C18 UNL     1       2.678 -17.156  43.002  1.00  0.00     0.361 C 
HETATM   33  O5  UNL     1       1.537 -16.969  43.428  1.00  0.00    -0.238 OA
ATOM     34  H5  UNL     1       4.015 -18.680  42.271  1.00  0.00     0.165 HD
BRANCH  32  35
HETATM   35  O6  UNL     1       3.542 -16.076  42.897  1.00  0.00    -0.294 OA
BRANCH  35  36
HETATM   36  C19 UNL     1       4.282 -15.549  43.972  1.00  0.00     0.061 C 
HETATM   37  C20 UNL     1       4.589 -16.591  45.026  1.00  0.00     0.046 C 
HETATM   38  C21 UNL     1       5.606 -15.059  43.428  1.00  0.00     0.046 C 
HETATM   39  C22 UNL     1       3.572 -14.397  44.659  1.00  0.00     0.046 C 
ENDBRANCH  35  36
ENDBRANCH  32  35
ENDBRANCH  27  31
ENDBRANCH   5  25
TORSDOF 12
ENDMDL
MODEL 2
REMARK VINA RESULT: -7.930805025      5.774      9.230
REMARK  12 active torsions:
REMARK  status: ('A' for Active; 'I' for Inactive)
REMARK    1  A    between atoms: C2_2  and  C4_4 
REMARK    2  A    between atoms: C4_4  and  C5_5 
REMARK    3  A    between atoms: C4_4  and  N3_19 
REMARK    4  A    between atoms: C5_5  and  O1_6 
REMARK    5  A    between atoms: C5_5  and  N1_8 
REMARK    6  A    between atoms: C8_11  and  C9_12 
REMARK    7  A    between atoms: C9_12  and  N2_13 
REMARK       I    between atoms: N3_19  and  C13_21 
REMARK       I    between atoms: C13_21  and  N4_23 
REMARK    8  A    between atoms: N4_23  and  C14_25 
REMARK    9  A    between atoms: C14_25  and  C15_26 
REMARK   10  A    between atoms: C17_30  and  N5_31 
REMARK       I    between atoms: N5_31  and  C18_33 
REMARK   11  A    between atoms: C18_33  and  O6_35 
REMARK   12  A    between atoms: O6_35  and  C19_36 
ROOT
HETATM    1  N3  UNL     1       4.452 -19.950  45.227  1.00  0.00    -0.303 N 
HETATM    2  C12 UNL     1       3.315 -20.543  45.922  1.00  0.00     0.161 C 
HETATM    3  C13 UNL     1       5.724 -20.067  45.894  1.00  0.00     0.323 C 
HETATM    4  O2  UNL     1       6.713 -19.564  45.326  1.00  0.00    -0.247 OA
HETATM    5  N4  UNL     1       5.885 -20.713  47.133  1.00  0.00    -0.321 N 
ATOM      6  H4  UNL     1       5.081 -21.126  47.607  1.00  0.00     0.165 HD
ENDROOT
BRANCH   1   7
HETATM    7  C4  UNL     1       4.395 -19.286  43.965  1.00  0.00     0.070 C 
BRANCH   7   8
HETATM    8  C2  UNL     1       3.961 -20.166  42.812  1.00  0.00     0.032 C 
HETATM    9  C1  UNL     1       4.988 -21.257  42.544  1.00  0.00     0.016 C 
HETATM   10  C3  UNL     1       3.918 -19.359  41.506  1.00  0.00     0.016 C 
ENDBRANCH   7   8
BRANCH   7  11
HETATM   11  C5  UNL     1       3.845 -17.944  43.926  1.00  0.00     0.162 C 
BRANCH  11  12
HETATM   12  O1  UNL     1       2.533 -17.906  43.952  1.00  0.00    -0.345 OA
ATOM     13  H1  UNL     1       2.159 -17.197  43.442  1.00  0.00     0.219 HD
ENDBRANCH  11  12
BRANCH  11  14
HETATM   14  N1  UNL     1       4.417 -16.679  43.866  1.00  0.00    -0.360 N 
HETATM   15  C6  UNL     1       5.787 -16.270  43.864  1.00  0.00     0.125 C 
HETATM   16  C7  UNL     1       6.071 -15.584  45.184  1.00  0.00     0.026 C 
HETATM   17  C8  UNL     1       5.195 -14.360  45.260  1.00  0.00     0.014 C 
HETATM   18  C10 UNL     1       3.751 -14.604  44.985  1.00  0.00     0.026 C 
HETATM   19  C11 UNL     1       3.491 -15.522  43.817  1.00  0.00     0.125 C 
BRANCH  17  20
HETATM   20  C9  UNL     1       5.379 -13.755  46.634  1.00  0.00     0.234 C 
BRANCH  20  21
HETATM   21  N2  UNL     1       6.639 -14.077  47.235  1.00  0.00    -0.079 N 
ATOM     22  H23 UNL     1       6.657 -15.051  47.537  1.00  0.00     0.274 HD
ATOM     23  H22 UNL     1       7.378 -14.105  46.533  1.00  0.00     0.274 HD
ATOM     24  H21 UNL     1       6.893 -13.455  48.002  1.00  0.00     0.274 HD
ENDBRANCH  20  21
ENDBRANCH  17  20
ENDBRANCH  11  14
ENDBRANCH   7  11
ENDBRANCH   1   7
BRANCH   5  25
HETATM   25  C14 UNL     1       7.208 -20.787  47.732  1.00  0.00     0.145 A 
HETATM   26  C16 UNL     1       7.280 -20.366  49.211  1.00  0.00     0.073 A 
HETATM   27  C17 UNL     1       7.783 -19.490  48.102  1.00  0.00     0.128 A 
BRANCH  25  28
HETATM   28  C15 UNL     1       8.045 -21.962  47.442  1.00  0.00     0.204 C 
HETATM   29  O3  UNL     1       9.272 -21.921  47.170  1.00  0.00    -0.646 OA
HETATM   30  O4  UNL     1       7.391 -23.224  47.480  1.00  0.00    -0.646 OA
ENDBRANCH  25  28
BRANCH  27  31
HETATM   31  N5  UNL     1       9.187 -19.223  48.025  1.00  0.00    -0.329 N 
HETATM   32  C18 UNL     1       9.647 -17.897  48.366  1.00  0.00     0.361 C 
HETATM   33  O5  UNL     1       8.823 -17.047  48.708  1.00  0.00    -0.238 OA
ATOM     34  H5  UNL     1       9.843 -19.948  47.737  1.00  0.00     0.165 HD
BRANCH  32  35
HETATM   35  O6  UNL     1      10.990 -17.552  48.319  1.00  0.00    -0.294 OA
BRANCH  35  36
HETATM   36  C19 UNL     1      11.983 -18.134  49.130  1.00  0.00     0.061 C 
HETATM   37  C20 UNL     1      12.461 -19.464  48.590  1.00  0.00     0.046 C 
HETATM   38  C21 UNL     1      13.175 -17.202  49.145  1.00  0.00     0.046 C 
HETATM   39  C22 UNL     1      11.514 -18.358  50.556  1.00  0.00     0.046 C 
ENDBRANCH  35  36
ENDBRANCH  32  35
ENDBRANCH  27  31
ENDBRANCH   5  25
TORSDOF 12
ENDMDL
MODEL 3
REMARK VINA RESULT: -7.610196804      5.343      8.889
REMARK  12 active torsions:
REMARK  status: ('A' for Active; 'I' for Inactive)
REMARK    1  A    between atoms: C2_2  and  C4_4 
REMARK    2  A    between atoms: C4_4  and  C5_5 
REMARK    3  A    between atoms: C4_4  and  N3_19 
REMARK    4  A    between atoms: C5_5  and  O1_6 
REMARK    5  A    between atoms: C5_5  and  N1_8 
REMARK    6  A    between atoms: C8_11  and  C9_12 
REMARK    7  A    between atoms: C9_12  and  N2_13 
REMARK       I    between atoms: N3_19  and  C13_21 
REMARK       I    between atoms: C13_21  and  N4_23 
REMARK    8  A    between atoms: N4_23  and  C14_25 
REMARK    9  A    between atoms: C14_25  and  C15_26 
REMARK   10  A    between atoms: C17_30  and  N5_31 
REMARK       I    between atoms: N5_31  and  C18_33 
REMARK   11  A    between atoms: C18_33  and  O6_35 
REMARK   12  A    between atoms: O6_35  and  C19_36 
ROOT
HETATM    1  N3  UNL     1       6.304 -16.951  45.404  1.00  0.00    -0.303 N 
HETATM    2  C12 UNL     1       7.557 -16.228  45.596  1.00  0.00     0.161 C 
HETATM    3  C13 UNL     1       6.308 -18.332  45.813  1.00  0.00     0.323 C 
HETATM    4  O2  UNL     1       5.252 -18.976  45.655  1.00  0.00    -0.247 OA
HETATM    5  N4  UNL     1       7.433 -18.964  46.372  1.00  0.00    -0.321 N 
ATOM      6  H4  UNL     1       8.302 -18.446  46.504  1.00  0.00     0.165 HD
ENDROOT
BRANCH   1   7
HETATM    7  C4  UNL     1       5.107 -16.397  44.858  1.00  0.00     0.070 C 
BRANCH   7   8
HETATM    8  C2  UNL     1       4.854 -14.953  45.236  1.00  0.00     0.032 C 
HETATM    9  C1  UNL     1       4.852 -14.779  46.747  1.00  0.00     0.016 C 
HETATM   10  C3  UNL     1       3.444 -14.523  44.803  1.00  0.00     0.016 C 
ENDBRANCH   7   8
BRANCH   7  11
HETATM   11  C5  UNL     1       4.773 -16.718  43.482  1.00  0.00     0.162 C 
BRANCH  11  12
HETATM   12  O1  UNL     1       5.602 -16.205  42.602  1.00  0.00    -0.345 OA
ATOM     13  H1  UNL     1       6.518 -16.327  42.822  1.00  0.00     0.219 HD
ENDBRANCH  11  12
BRANCH  11  14
HETATM   14  N1  UNL     1       3.756 -17.458  42.894  1.00  0.00    -0.360 N 
HETATM   15  C6  UNL     1       2.387 -17.632  43.270  1.00  0.00     0.125 C 
HETATM   16  C7  UNL     1       2.213 -19.059  43.747  1.00  0.00     0.026 C 
HETATM   17  C8  UNL     1       2.522 -19.970  42.587  1.00  0.00     0.014 C 
HETATM   18  C10 UNL     1       3.818 -19.697  41.903  1.00  0.00     0.026 C 
HETATM   19  C11 UNL     1       4.102 -18.234  41.679  1.00  0.00     0.125 C 
BRANCH  17  20
HETATM   20  C9  UNL     1       2.482 -21.391  43.102  1.00  0.00     0.234 C 
BRANCH  20  21
HETATM   21  N2  UNL     1       3.226 -22.311  42.293  1.00  0.00    -0.079 N 
ATOM     22  H23 UNL     1       2.990 -23.274  42.531  1.00  0.00     0.274 HD
ATOM     23  H22 UNL     1       2.897 -22.291  41.328  1.00  0.00     0.274 HD
ATOM     24  H21 UNL     1       4.234 -22.164  42.334  1.00  0.00     0.274 HD
ENDBRANCH  20  21
ENDBRANCH  17  20
ENDBRANCH  11  14
ENDBRANCH   7  11
ENDBRANCH   1   7
BRANCH   5  25
HETATM   25  C14 UNL     1       7.345 -20.363  46.760  1.00  0.00     0.145 A 
HETATM   26  C16 UNL     1       8.669 -21.145  46.688  1.00  0.00     0.073 A 
HETATM   27  C17 UNL     1       7.579 -21.314  45.670  1.00  0.00     0.128 A 
BRANCH  25  28
HETATM   28  C15 UNL     1       6.551 -20.713  47.950  1.00  0.00     0.204 C 
HETATM   29  O3  UNL     1       5.484 -21.377  47.931  1.00  0.00    -0.646 OA
HETATM   30  O4  UNL     1       7.053 -20.252  49.197  1.00  0.00    -0.646 OA
ENDBRANCH  25  28
BRANCH  27  31
HETATM   31  N5  UNL     1       6.906 -22.574  45.593  1.00  0.00    -0.329 N 
HETATM   32  C18 UNL     1       5.950 -22.771  44.527  1.00  0.00     0.361 C 
HETATM   33  O5  UNL     1       5.748 -21.855  43.727  1.00  0.00    -0.238 OA
ATOM     34  H5  UNL     1       7.095 -23.312  46.271  1.00  0.00     0.165 HD
BRANCH  32  35
HETATM   35  O6  UNL     1       5.253 -23.961  44.377  1.00  0.00    -0.294 OA
BRANCH  35  36
HETATM   36  C19 UNL     1       4.273 -24.420  45.277  1.00  0.00     0.061 C 
HETATM   37  C20 UNL     1       3.527 -23.286  45.946  1.00  0.00     0.046 C 
HETATM   38  C21 UNL     1       3.258 -25.220  44.490  1.00  0.00     0.046 C 
HETATM   39  C22 UNL     1       4.851 -25.297  46.372  1.00  0.00     0.046 C 
ENDBRANCH  35  36
ENDBRANCH  32  35
ENDBRANCH  27  31
ENDBRANCH   5  25
TORSDOF 12
ENDMDL
MODEL 4
REMARK VINA RESULT: -7.561260538      6.302      8.921
REMARK  12 active torsions:
REMARK  status: ('A' for Active; 'I' for Inactive)
REMARK    1  A    between atoms: C2_2  and  C4_4 
REMARK    2  A    between atoms: C4_4  and  C5_5 
REMARK    3  A    between atoms: C4_4  and  N3_19 
REMARK    4  A    between atoms: C5_5  and  O1_6 
REMARK    5  A    between atoms: C5_5  and  N1_8 
REMARK    6  A    between atoms: C8_11  and  C9_12 
REMARK    7  A    between atoms: C9_12  and  N2_13 
REMARK       I    between atoms: N3_19  and  C13_21 
REMARK       I    between atoms: C13_21  and  N4_23 
REMARK    8  A    between atoms: N4_23  and  C14_25 
REMARK    9  A    between atoms: C14_25  and  C15_26 
REMARK   10  A    between atoms: C17_30  and  N5_31 
REMARK       I    between atoms: N5_31  and  C18_33 
REMARK   11  A    between atoms: C18_33  and  O6_35 
REMARK   12  A    between atoms: O6_35  and  C19_36 
ROOT
HETATM    1  N3  UNL     1       5.165 -20.373  44.924  1.00  0.00    -0.303 N 
HETATM    2  C12 UNL     1       3.891 -20.422  45.632  1.00  0.00     0.161 C 
HETATM    3  C13 UNL     1       6.337 -20.609  45.727  1.00  0.00     0.323 C 
HETATM    4  O2  UNL     1       7.442 -20.567  45.150  1.00  0.00    -0.247 OA
HETATM    5  N4  UNL     1       6.282 -20.879  47.106  1.00  0.00    -0.321 N 
ATOM      6  H4  UNL     1       5.383 -20.913  47.588  1.00  0.00     0.165 HD
ENDROOT
BRANCH   1   7
HETATM    7  C4  UNL     1       5.326 -20.120  43.528  1.00  0.00     0.070 C 
BRANCH   7   8
HETATM    8  C2  UNL     1       4.946 -21.279  42.633  1.00  0.00     0.032 C 
HETATM    9  C1  UNL     1       4.685 -22.535  43.450  1.00  0.00     0.016 C 
HETATM   10  C3  UNL     1       6.121 -21.660  41.719  1.00  0.00     0.016 C 
ENDBRANCH   7   8
BRANCH   7  11
HETATM   11  C5  UNL     1       4.923 -18.821  43.021  1.00  0.00     0.162 C 
BRANCH  11  12
HETATM   12  O1  UNL     1       4.147 -18.882  41.963  1.00  0.00    -0.345 OA
ATOM     13  H1  UNL     1       3.309 -18.448  42.076  1.00  0.00     0.219 HD
ENDBRANCH  11  12
BRANCH  11  14
HETATM   14  N1  UNL     1       5.185 -17.517  43.419  1.00  0.00    -0.360 N 
HETATM   15  C6  UNL     1       5.534 -16.981  44.698  1.00  0.00     0.125 C 
HETATM   16  C7  UNL     1       4.359 -16.168  45.199  1.00  0.00     0.026 C 
HETATM   17  C8  UNL     1       4.144 -15.031  44.235  1.00  0.00     0.014 C 
HETATM   18  C10 UNL     1       4.056 -15.433  42.802  1.00  0.00     0.026 C 
HETATM   19  C11 UNL     1       5.077 -16.460  42.384  1.00  0.00     0.125 C 
BRANCH  17  20
HETATM   20  C9  UNL     1       2.888 -14.304  44.660  1.00  0.00     0.234 C 
BRANCH  20  21
HETATM   21  N2  UNL     1       1.745 -14.626  43.859  1.00  0.00    -0.079 N 
ATOM     22  H23 UNL     1       1.965 -15.368  43.195  1.00  0.00     0.274 HD
ATOM     23  H22 UNL     1       1.036 -15.104  44.416  1.00  0.00     0.274 HD
ATOM     24  H21 UNL     1       1.345 -13.819  43.381  1.00  0.00     0.274 HD
ENDBRANCH  20  21
ENDBRANCH  17  20
ENDBRANCH  11  14
ENDBRANCH   7  11
ENDBRANCH   1   7
BRANCH   5  25
HETATM   25  C14 UNL     1       7.518 -21.109  47.839  1.00  0.00     0.145 A 
HETATM   26  C16 UNL     1       7.489 -20.684  49.318  1.00  0.00     0.073 A 
HETATM   27  C17 UNL     1       8.208 -19.889  48.267  1.00  0.00     0.128 A 
BRANCH  25  28
HETATM   28  C15 UNL     1       8.228 -22.382  47.634  1.00  0.00     0.204 C 
HETATM   29  O3  UNL     1       9.455 -22.488  47.385  1.00  0.00    -0.646 OA
HETATM   30  O4  UNL     1       7.442 -23.562  47.733  1.00  0.00    -0.646 OA
ENDBRANCH  25  28
BRANCH  27  31
HETATM   31  N5  UNL     1       9.634 -19.798  48.335  1.00  0.00    -0.329 N 
HETATM   32  C18 UNL     1      10.253 -18.534  48.005  1.00  0.00     0.361 C 
HETATM   33  O5  UNL     1       9.537 -17.585  47.679  1.00  0.00    -0.238 OA
ATOM     34  H5  UNL     1      10.198 -20.602  48.609  1.00  0.00     0.165 HD
BRANCH  32  35
HETATM   35  O6  UNL     1      11.628 -18.358  48.046  1.00  0.00    -0.294 OA
BRANCH  35  36
HETATM   36  C19 UNL     1      12.384 -18.316  49.233  1.00  0.00     0.061 C 
HETATM   37  C20 UNL     1      12.998 -19.657  49.572  1.00  0.00     0.046 C 
HETATM   38  C21 UNL     1      13.522 -17.342  49.024  1.00  0.00     0.046 C 
HETATM   39  C22 UNL     1      11.565 -17.870  50.430  1.00  0.00     0.046 C 
ENDBRANCH  35  36
ENDBRANCH  32  35
ENDBRANCH  27  31
ENDBRANCH   5  25
TORSDOF 12
ENDMDL
MODEL 5
REMARK VINA RESULT: -7.538112519      5.711     10.009
REMARK  12 active torsions:
REMARK  status: ('A' for Active; 'I' for Inactive)
REMARK    1  A    between atoms: C2_2  and  C4_4 
REMARK    2  A    between atoms: C4_4  and  C5_5 
REMARK    3  A    between atoms: C4_4  and  N3_19 
REMARK    4  A    between atoms: C5_5  and  O1_6 
REMARK    5  A    between atoms: C5_5  and  N1_8 
REMARK    6  A    between atoms: C8_11  and  C9_12 
REMARK    7  A    between atoms: C9_12  and  N2_13 
REMARK       I    between atoms: N3_19  and  C13_21 
REMARK       I    between atoms: C13_21  and  N4_23 
REMARK    8  A    between atoms: N4_23  and  C14_25 
REMARK    9  A    between atoms: C14_25  and  C15_26 
REMARK   10  A    between atoms: C17_30  and  N5_31 
REMARK       I    between atoms: N5_31  and  C18_33 
REMARK   11  A    between atoms: C18_33  and  O6_35 
REMARK   12  A    between atoms: O6_35  and  C19_36 
ROOT
HETATM    1  N3  UNL     1       6.671 -23.107  44.671  1.00  0.00    -0.303 N 
HETATM    2  C12 UNL     1       7.125 -23.730  43.432  1.00  0.00     0.161 C 
HETATM    3  C13 UNL     1       5.710 -22.045  44.522  1.00  0.00     0.323 C 
HETATM    4  O2  UNL     1       5.308 -21.489  45.563  1.00  0.00    -0.247 OA
HETATM    5  N4  UNL     1       5.218 -21.623  43.274  1.00  0.00    -0.321 N 
ATOM      6  H4  UNL     1       5.541 -22.070  42.415  1.00  0.00     0.165 HD
ENDROOT
BRANCH   1   7
HETATM    7  C4  UNL     1       7.099 -23.470  45.983  1.00  0.00     0.070 C 
BRANCH   7   8
HETATM    8  C2  UNL     1       7.011 -24.950  46.285  1.00  0.00     0.032 C 
HETATM    9  C1  UNL     1       5.563 -25.387  46.446  1.00  0.00     0.016 C 
HETATM   10  C3  UNL     1       7.653 -25.261  47.645  1.00  0.00     0.016 C 
ENDBRANCH   7   8
BRANCH   7  11
HETATM   11  C5  UNL     1       8.286 -22.825  46.516  1.00  0.00     0.162 C 
BRANCH  11  12
HETATM   12  O1  UNL     1       9.392 -23.148  45.886  1.00  0.00    -0.345 OA
ATOM     13  H1  UNL     1      10.015 -23.623  46.424  1.00  0.00     0.219 HD
ENDBRANCH  11  12
BRANCH  11  14
HETATM   14  N1  UNL     1       8.502 -21.932  47.557  1.00  0.00    -0.360 N 
HETATM   15  C6  UNL     1       7.589 -21.328  48.476  1.00  0.00     0.125 C 
HETATM   16  C7  UNL     1       7.500 -19.853  48.144  1.00  0.00     0.026 C 
HETATM   17  C8  UNL     1       8.868 -19.255  48.349  1.00  0.00     0.014 C 
HETATM   18  C10 UNL     1       9.978 -19.980  47.667  1.00  0.00     0.026 C 
HETATM   19  C11 UNL     1       9.896 -21.481  47.781  1.00  0.00     0.125 C 
BRANCH  17  20
HETATM   20  C9  UNL     1       8.810 -17.817  47.885  1.00  0.00     0.234 C 
BRANCH  20  21
HETATM   21  N2  UNL     1       8.950 -16.868  48.950  1.00  0.00    -0.079 N 
ATOM     22  H23 UNL     1       8.833 -17.322  49.856  1.00  0.00     0.274 HD
ATOM     23  H22 UNL     1       9.919 -16.564  49.037  1.00  0.00     0.274 HD
ATOM     24  H21 UNL     1       8.326 -16.067  48.863  1.00  0.00     0.274 HD
ENDBRANCH  20  21
ENDBRANCH  17  20
ENDBRANCH  11  14
ENDBRANCH   7  11
ENDBRANCH   1   7
BRANCH   5  25
HETATM   25  C14 UNL     1       4.244 -20.544  43.218  1.00  0.00     0.145 A 
HETATM   26  C16 UNL     1       4.248 -19.727  41.913  1.00  0.00     0.073 A 
HETATM   27  C17 UNL     1       4.825 -19.199  43.194  1.00  0.00     0.128 A 
BRANCH  25  28
HETATM   28  C15 UNL     1       2.882 -20.802  43.714  1.00  0.00     0.204 C 
HETATM   29  O3  UNL     1       2.213 -20.008  44.422  1.00  0.00    -0.646 OA
HETATM   30  O4  UNL     1       2.306 -22.049  43.348  1.00  0.00    -0.646 OA
ENDBRANCH  25  28
BRANCH  27  31
HETATM   31  N5  UNL     1       4.192 -18.078  43.818  1.00  0.00    -0.329 N 
HETATM   32  C18 UNL     1       4.867 -17.445  44.927  1.00  0.00     0.361 C 
HETATM   33  O5  UNL     1       5.957 -17.887  45.296  1.00  0.00    -0.238 OA
ATOM     34  H5  UNL     1       3.289 -17.736  43.490  1.00  0.00     0.165 HD
BRANCH  32  35
HETATM   35  O6  UNL     1       4.326 -16.353  45.589  1.00  0.00    -0.294 OA
BRANCH  35  36
HETATM   36  C19 UNL     1       4.484 -15.018  45.171  1.00  0.00     0.061 C 
HETATM   37  C20 UNL     1       3.178 -14.392  44.735  1.00  0.00     0.046 C 
HETATM   38  C21 UNL     1       4.990 -14.219  46.352  1.00  0.00     0.046 C 
HETATM   39  C22 UNL     1       5.466 -14.879  44.023  1.00  0.00     0.046 C 
ENDBRANCH  35  36
ENDBRANCH  32  35
ENDBRANCH  27  31
ENDBRANCH   5  25
TORSDOF 12
ENDMDL
