MODEL 1
REMARK VINA RESULT: -8.355246855      0.000      0.000
REMARK  9 active torsions:
REMARK  status: ('A' for Active; 'I' for Inactive)
REMARK    1  A    between atoms: C2_2  and  C4_4 
REMARK    2  A    between atoms: C4_4  and  C5_5 
REMARK    3  A    between atoms: C6_8  and  O1_9 
REMARK    4  A    between atoms: C9_13  and  O2_14 
REMARK    5  A    between atoms: C13_21  and  O3_22 
REMARK    6  A    between atoms: O3_22  and  C14_23 
REMARK    7  A    between atoms: C14_23  and  C15_24 
REMARK    8  A    between atoms: C15_24  and  N3_25 
REMARK    9  A    between atoms: C21_34  and  C22_35 
ROOT
HETATM    1  C5  UNL     1       8.956 -17.767  47.751  1.00  0.00     0.155 C 
HETATM    2  N1  UNL     1       8.177 -18.513  48.659  1.00  0.00    -0.362 N 
ATOM      3  H1  UNL     1       7.901 -17.960  49.471  1.00  0.00     0.162 HD
HETATM    4  C6  UNL     1       7.690 -19.817  48.723  1.00  0.00     0.123 C 
HETATM    5  C7  UNL     1       7.482 -20.848  47.701  1.00  0.00     0.130 C 
HETATM    6  C8  UNL     1       7.881 -22.193  48.386  1.00  0.00     0.027 C 
HETATM    7  C9  UNL     1       8.254 -20.726  46.456  1.00  0.00     0.127 C 
HETATM    8  N2  UNL     1       7.955 -20.339  45.178  1.00  0.00    -0.339 N 
ATOM      9  H2  UNL     1       8.781 -20.047  44.656  1.00  0.00     0.168 HD
HETATM   10  C10 UNL     1       6.740 -20.244  44.394  1.00  0.00     0.049 A 
HETATM   11  C11 UNL     1       6.725 -20.973  43.181  1.00  0.00     0.033 A 
HETATM   12  C12 UNL     1       5.676 -21.033  42.309  1.00  0.00     0.039 A 
HETATM   13  C13 UNL     1       4.531 -20.334  42.620  1.00  0.00     0.070 A 
HETATM   14  C18 UNL     1       4.527 -19.619  43.793  1.00  0.00     0.056 A 
HETATM   15  C19 UNL     1       5.609 -19.555  44.691  1.00  0.00     0.061 A 
HETATM   16  C20 UNL     1       5.361 -18.683  45.856  1.00  0.00     0.254 C 
HETATM   17  O4  UNL     1       4.214 -18.913  46.407  1.00  0.00    -0.268 OA
HETATM   18  N4  UNL     1       6.113 -17.689  46.448  1.00  0.00    -0.345 N 
ATOM     19  H4  UNL     1       5.832 -17.455  47.400  1.00  0.00     0.163 HD
HETATM   20  C21 UNL     1       7.234 -16.921  45.946  1.00  0.00     0.160 C 
HETATM   21  C25 UNL     1       8.189 -16.679  47.059  1.00  0.00     0.172 C 
HETATM   22  O5  UNL     1       8.375 -15.548  47.449  1.00  0.00    -0.293 OA
ENDROOT
BRANCH  13  23
HETATM   23  O3  UNL     1       3.416 -20.348  41.781  1.00  0.00    -0.349 OA
BRANCH  23  24
HETATM   24  C14 UNL     1       2.126 -20.322  42.361  1.00  0.00     0.206 C 
BRANCH  24  25
HETATM   25  C15 UNL     1       1.330 -21.551  41.973  1.00  0.00     0.297 C 
BRANCH  25  26
HETATM   26  N3  UNL     1       1.479 -21.911  40.594  1.00  0.00     0.082 N 
HETATM   27  C16 UNL     1       1.881 -23.265  40.364  1.00  0.00     0.309 C 
HETATM   28  C17 UNL     1       0.380 -21.482  39.763  1.00  0.00     0.309 C 
ENDBRANCH  25  26
ENDBRANCH  24  25
ENDBRANCH  23  24
ENDBRANCH  13  23
BRANCH   7  29
HETATM   29  O2  UNL     1       9.501 -21.086  46.688  1.00  0.00    -0.349 OA
ATOM     30  H2  UNL     1      10.063 -20.700  46.026  1.00  0.00     0.219 HD
ENDBRANCH   7  29
BRANCH  20  31
HETATM   31  C22 UNL     1       6.653 -15.604  45.419  1.00  0.00     0.007 C 
HETATM   32  C23 UNL     1       5.480 -15.143  46.289  1.00  0.00     0.012 C 
HETATM   33  C24 UNL     1       6.251 -15.661  43.988  1.00  0.00     0.012 C 
ENDBRANCH  20  31
BRANCH   4  34
HETATM   34  O1  UNL     1       7.327 -20.268  49.903  1.00  0.00    -0.349 OA
ATOM     35  H1  UNL     1       7.932 -20.142  50.624  1.00  0.00     0.219 HD
ENDBRANCH   4  34
BRANCH   1  36
HETATM   36  C4  UNL     1      10.159 -17.143  48.412  1.00  0.00     0.037 C 
BRANCH  36  37
HETATM   37  C2  UNL     1      11.249 -18.058  48.855  1.00  0.00    -0.020 C 
HETATM   38  C1  UNL     1      11.349 -18.310  50.304  1.00  0.00     0.009 C 
HETATM   39  C3  UNL     1      12.562 -17.383  48.418  1.00  0.00     0.009 C 
ENDBRANCH  36  37
ENDBRANCH   1  36
TORSDOF 9
ENDMDL
MODEL 2
REMARK VINA RESULT: -8.222786298      1.112      1.415
REMARK  9 active torsions:
REMARK  status: ('A' for Active; 'I' for Inactive)
REMARK    1  A    between atoms: C2_2  and  C4_4 
REMARK    2  A    between atoms: C4_4  and  C5_5 
REMARK    3  A    between atoms: C6_8  and  O1_9 
REMARK    4  A    between atoms: C9_13  and  O2_14 
REMARK    5  A    between atoms: C13_21  and  O3_22 
REMARK    6  A    between atoms: O3_22  and  C14_23 
REMARK    7  A    between atoms: C14_23  and  C15_24 
REMARK    8  A    between atoms: C15_24  and  N3_25 
REMARK    9  A    between atoms: C21_34  and  C22_35 
ROOT
HETATM    1  C5  UNL     1       8.939 -17.710  47.726  1.00  0.00     0.155 C 
HETATM    2  N1  UNL     1       8.196 -18.464  48.657  1.00  0.00    -0.362 N 
ATOM      3  H1  UNL     1       7.909 -17.906  49.460  1.00  0.00     0.162 HD
HETATM    4  C6  UNL     1       7.755 -19.782  48.751  1.00  0.00     0.123 C 
HETATM    5  C7  UNL     1       7.574 -20.840  47.751  1.00  0.00     0.130 C 
HETATM    6  C8  UNL     1       8.027 -22.157  48.457  1.00  0.00     0.027 C 
HETATM    7  C9  UNL     1       8.329 -20.717  46.496  1.00  0.00     0.127 C 
HETATM    8  N2  UNL     1       8.004 -20.365  45.214  1.00  0.00    -0.339 N 
ATOM      9  H2  UNL     1       8.814 -20.055  44.678  1.00  0.00     0.168 HD
HETATM   10  C10 UNL     1       6.779 -20.328  44.441  1.00  0.00     0.049 A 
HETATM   11  C11 UNL     1       6.778 -21.081  43.242  1.00  0.00     0.033 A 
HETATM   12  C12 UNL     1       5.723 -21.195  42.383  1.00  0.00     0.039 A 
HETATM   13  C13 UNL     1       4.558 -20.530  42.693  1.00  0.00     0.070 A 
HETATM   14  C18 UNL     1       4.540 -19.793  43.851  1.00  0.00     0.056 A 
HETATM   15  C19 UNL     1       5.628 -19.673  44.736  1.00  0.00     0.061 A 
HETATM   16  C20 UNL     1       5.361 -18.787  45.886  1.00  0.00     0.254 C 
HETATM   17  O4  UNL     1       4.228 -19.047  46.455  1.00  0.00    -0.268 OA
HETATM   18  N4  UNL     1       6.083 -17.756  46.452  1.00  0.00    -0.345 N 
ATOM     19  H4  UNL     1       5.803 -17.514  47.402  1.00  0.00     0.163 HD
HETATM   20  C21 UNL     1       7.171 -16.960  45.924  1.00  0.00     0.160 C 
HETATM   21  C25 UNL     1       8.128 -16.663  47.022  1.00  0.00     0.172 C 
HETATM   22  O5  UNL     1       8.278 -15.518  47.387  1.00  0.00    -0.293 OA
ENDROOT
BRANCH  13  23
HETATM   23  O3  UNL     1       3.435 -20.599  41.866  1.00  0.00    -0.349 OA
BRANCH  23  24
HETATM   24  C14 UNL     1       2.728 -21.821  41.776  1.00  0.00     0.206 C 
BRANCH  24  25
HETATM   25  C15 UNL     1       1.784 -21.991  42.949  1.00  0.00     0.297 C 
BRANCH  25  26
HETATM   26  N3  UNL     1       2.093 -23.128  43.764  1.00  0.00     0.082 N 
HETATM   27  C16 UNL     1       2.683 -22.819  45.031  1.00  0.00     0.309 C 
HETATM   28  C17 UNL     1       1.020 -24.090  43.842  1.00  0.00     0.309 C 
ENDBRANCH  25  26
ENDBRANCH  24  25
ENDBRANCH  23  24
ENDBRANCH  13  23
BRANCH   7  29
HETATM   29  O2  UNL     1       9.590 -21.028  46.722  1.00  0.00    -0.349 OA
ATOM     30  H2  UNL     1       9.662 -21.970  46.825  1.00  0.00     0.219 HD
ENDBRANCH   7  29
BRANCH  20  31
HETATM   31  C22 UNL     1       6.539 -15.674  45.377  1.00  0.00     0.007 C 
HETATM   32  C23 UNL     1       5.331 -15.263  46.223  1.00  0.00     0.012 C 
HETATM   33  C24 UNL     1       6.166 -15.759  43.939  1.00  0.00     0.012 C 
ENDBRANCH  20  31
BRANCH   4  34
HETATM   34  O1  UNL     1       7.420 -20.223  49.943  1.00  0.00    -0.349 OA
ATOM     35  H1  UNL     1       7.984 -20.874  50.343  1.00  0.00     0.219 HD
ENDBRANCH   4  34
BRANCH   1  36
HETATM   36  C4  UNL     1      10.126 -17.031  48.363  1.00  0.00     0.037 C 
BRANCH  36  37
HETATM   37  C2  UNL     1      11.025 -17.871  49.205  1.00  0.00    -0.020 C 
HETATM   38  C1  UNL     1      12.071 -17.158  49.962  1.00  0.00     0.009 C 
HETATM   39  C3  UNL     1      11.738 -18.825  48.230  1.00  0.00     0.009 C 
ENDBRANCH  36  37
ENDBRANCH   1  36
TORSDOF 9
ENDMDL
MODEL 3
REMARK VINA RESULT: -8.120853827      2.117      8.340
REMARK  9 active torsions:
REMARK  status: ('A' for Active; 'I' for Inactive)
REMARK    1  A    between atoms: C2_2  and  C4_4 
REMARK    2  A    between atoms: C4_4  and  C5_5 
REMARK    3  A    between atoms: C6_8  and  O1_9 
REMARK    4  A    between atoms: C9_13  and  O2_14 
REMARK    5  A    between atoms: C13_21  and  O3_22 
REMARK    6  A    between atoms: O3_22  and  C14_23 
REMARK    7  A    between atoms: C14_23  and  C15_24 
REMARK    8  A    between atoms: C15_24  and  N3_25 
REMARK    9  A    between atoms: C21_34  and  C22_35 
ROOT
HETATM    1  C5  UNL     1       3.684 -19.844  42.636  1.00  0.00     0.155 C 
HETATM    2  N1  UNL     1       4.767 -20.438  41.953  1.00  0.00    -0.362 N 
ATOM      3  H1  UNL     1       4.927 -20.008  41.043  1.00  0.00     0.162 HD
HETATM    4  C6  UNL     1       5.671 -21.465  42.214  1.00  0.00     0.123 C 
HETATM    5  C7  UNL     1       6.100 -22.114  43.458  1.00  0.00     0.130 C 
HETATM    6  C8  UNL     1       6.260 -23.625  43.099  1.00  0.00     0.027 C 
HETATM    7  C9  UNL     1       5.198 -22.016  44.614  1.00  0.00     0.127 C 
HETATM    8  N2  UNL     1       5.204 -21.287  45.772  1.00  0.00    -0.339 N 
ATOM      9  H2  UNL     1       4.275 -21.205  46.186  1.00  0.00     0.168 HD
HETATM   10  C10 UNL     1       6.219 -20.603  46.549  1.00  0.00     0.049 A 
HETATM   11  C11 UNL     1       6.345 -21.006  47.900  1.00  0.00     0.033 A 
HETATM   12  C12 UNL     1       7.248 -20.504  48.792  1.00  0.00     0.039 A 
HETATM   13  C13 UNL     1       8.115 -19.525  48.359  1.00  0.00     0.070 A 
HETATM   14  C18 UNL     1       8.007 -19.121  47.051  1.00  0.00     0.056 A 
HETATM   15  C19 UNL     1       7.075 -19.637  46.131  1.00  0.00     0.061 A 
HETATM   16  C20 UNL     1       7.141 -18.999  44.801  1.00  0.00     0.254 C 
HETATM   17  O4  UNL     1       8.353 -18.918  44.354  1.00  0.00    -0.268 OA
HETATM   18  N4  UNL     1       6.168 -18.487  43.967  1.00  0.00    -0.345 N 
ATOM     19  H4  UNL     1       6.458 -18.375  42.996  1.00  0.00     0.163 HD
HETATM   20  C21 UNL     1       4.805 -18.081  44.239  1.00  0.00     0.160 C 
HETATM   21  C25 UNL     1       3.955 -18.435  43.073  1.00  0.00     0.172 C 
HETATM   22  O5  UNL     1       3.442 -17.553  42.421  1.00  0.00    -0.293 OA
ENDROOT
BRANCH  13  23
HETATM   23  O3  UNL     1       9.068 -18.965  49.211  1.00  0.00    -0.349 OA
BRANCH  23  24
HETATM   24  C14 UNL     1       9.779 -17.820  48.780  1.00  0.00     0.206 C 
BRANCH  24  25
HETATM   25  C15 UNL     1      11.175 -17.794  49.367  1.00  0.00     0.297 C 
BRANCH  25  26
HETATM   26  N3  UNL     1      11.495 -18.969  50.120  1.00  0.00     0.082 N 
HETATM   27  C16 UNL     1      12.379 -19.884  49.463  1.00  0.00     0.309 C 
HETATM   28  C17 UNL     1      11.856 -18.697  51.490  1.00  0.00     0.309 C 
ENDBRANCH  25  26
ENDBRANCH  24  25
ENDBRANCH  23  24
ENDBRANCH  13  23
BRANCH   7  29
HETATM   29  O2  UNL     1       4.182 -22.836  44.437  1.00  0.00    -0.349 OA
ATOM     30  H2  UNL     1       3.521 -22.657  45.096  1.00  0.00     0.219 HD
ENDBRANCH   7  29
BRANCH  20  31
HETATM   31  C22 UNL     1       4.842 -16.563  44.457  1.00  0.00     0.007 C 
HETATM   32  C23 UNL     1       6.105 -15.958  43.837  1.00  0.00     0.012 C 
HETATM   33  C24 UNL     1       4.717 -16.163  45.884  1.00  0.00     0.012 C 
ENDBRANCH  20  31
BRANCH   4  34
HETATM   34  O1  UNL     1       6.295 -21.996  41.186  1.00  0.00    -0.349 OA
ATOM     35  H1  UNL     1       6.145 -22.917  41.013  1.00  0.00     0.219 HD
ENDBRANCH   4  34
BRANCH   1  36
HETATM   36  C4  UNL     1       2.423 -19.843  41.809  1.00  0.00     0.037 C 
BRANCH  36  37
HETATM   37  C2  UNL     1       1.909 -21.162  41.342  1.00  0.00    -0.020 C 
HETATM   38  C1  UNL     1       0.914 -21.132  40.254  1.00  0.00     0.009 C 
HETATM   39  C3  UNL     1       1.227 -21.800  42.566  1.00  0.00     0.009 C 
ENDBRANCH  36  37
ENDBRANCH   1  36
TORSDOF 9
ENDMDL
MODEL 4
REMARK VINA RESULT: -7.980696379      1.382      1.982
REMARK  9 active torsions:
REMARK  status: ('A' for Active; 'I' for Inactive)
REMARK    1  A    between atoms: C2_2  and  C4_4 
REMARK    2  A    between atoms: C4_4  and  C5_5 
REMARK    3  A    between atoms: C6_8  and  O1_9 
REMARK    4  A    between atoms: C9_13  and  O2_14 
REMARK    5  A    between atoms: C13_21  and  O3_22 
REMARK    6  A    between atoms: O3_22  and  C14_23 
REMARK    7  A    between atoms: C14_23  and  C15_24 
REMARK    8  A    between atoms: C15_24  and  N3_25 
REMARK    9  A    between atoms: C21_34  and  C22_35 
ROOT
HETATM    1  C5  UNL     1       9.070 -17.787  47.826  1.00  0.00     0.155 C 
HETATM    2  N1  UNL     1       8.309 -18.538  48.745  1.00  0.00    -0.362 N 
ATOM      3  H1  UNL     1       8.035 -17.986  49.558  1.00  0.00     0.162 HD
HETATM    4  C6  UNL     1       7.838 -19.847  48.819  1.00  0.00     0.123 C 
HETATM    5  C7  UNL     1       7.632 -20.885  47.802  1.00  0.00     0.130 C 
HETATM    6  C8  UNL     1       8.055 -22.222  48.488  1.00  0.00     0.027 C 
HETATM    7  C9  UNL     1       8.391 -20.759  46.549  1.00  0.00     0.127 C 
HETATM    8  N2  UNL     1       8.073 -20.379  45.273  1.00  0.00    -0.339 N 
ATOM      9  H2  UNL     1       8.891 -20.080  44.741  1.00  0.00     0.168 HD
HETATM   10  C10 UNL     1       6.850 -20.302  44.501  1.00  0.00     0.049 A 
HETATM   11  C11 UNL     1       6.831 -21.035  43.291  1.00  0.00     0.033 A 
HETATM   12  C12 UNL     1       5.774 -21.111  42.430  1.00  0.00     0.039 A 
HETATM   13  C13 UNL     1       4.624 -20.424  42.751  1.00  0.00     0.070 A 
HETATM   14  C18 UNL     1       4.624 -19.705  43.920  1.00  0.00     0.056 A 
HETATM   15  C19 UNL     1       5.714 -19.625  44.807  1.00  0.00     0.061 A 
HETATM   16  C20 UNL     1       5.468 -18.751  45.971  1.00  0.00     0.254 C 
HETATM   17  O4  UNL     1       4.329 -18.993  46.535  1.00  0.00    -0.268 OA
HETATM   18  N4  UNL     1       6.213 -17.746  46.553  1.00  0.00    -0.345 N 
ATOM     19  H4  UNL     1       5.939 -17.513  47.506  1.00  0.00     0.163 HD
HETATM   20  C21 UNL     1       7.320 -16.967  46.036  1.00  0.00     0.160 C 
HETATM   21  C25 UNL     1       8.283 -16.710  47.139  1.00  0.00     0.172 C 
HETATM   22  O5  UNL     1       8.459 -15.575  47.522  1.00  0.00    -0.293 OA
ENDROOT
BRANCH  13  23
HETATM   23  O3  UNL     1       3.500 -20.455  41.923  1.00  0.00    -0.349 OA
BRANCH  23  24
HETATM   24  C14 UNL     1       2.427 -19.576  42.197  1.00  0.00     0.206 C 
BRANCH  24  25
HETATM   25  C15 UNL     1       2.817 -18.138  41.922  1.00  0.00     0.297 C 
BRANCH  25  26
HETATM   26  N3  UNL     1       2.126 -17.196  42.751  1.00  0.00     0.082 N 
HETATM   27  C16 UNL     1       2.854 -16.761  43.905  1.00  0.00     0.309 C 
HETATM   28  C17 UNL     1       1.511 -16.119  42.013  1.00  0.00     0.309 C 
ENDBRANCH  25  26
ENDBRANCH  24  25
ENDBRANCH  23  24
ENDBRANCH  13  23
BRANCH   7  29
HETATM   29  O2  UNL     1       9.643 -21.103  46.769  1.00  0.00    -0.349 OA
ATOM     30  H2  UNL     1      10.217 -20.473  46.349  1.00  0.00     0.219 HD
ENDBRANCH   7  29
BRANCH  20  31
HETATM   31  C22 UNL     1       6.718 -15.659  45.510  1.00  0.00     0.007 C 
HETATM   32  C23 UNL     1       5.485 -15.263  46.329  1.00  0.00     0.012 C 
HETATM   33  C24 UNL     1       6.393 -15.694  44.059  1.00  0.00     0.012 C 
ENDBRANCH  20  31
BRANCH   4  34
HETATM   34  O1  UNL     1       7.493 -20.299  50.004  1.00  0.00    -0.349 OA
ATOM     35  H1  UNL     1       6.648 -20.029  50.345  1.00  0.00     0.219 HD
ENDBRANCH   4  34
BRANCH   1  36
HETATM   36  C4  UNL     1      10.272 -17.146  48.473  1.00  0.00     0.037 C 
BRANCH  36  37
HETATM   37  C2  UNL     1      11.360 -18.050  48.944  1.00  0.00    -0.020 C 
HETATM   38  C1  UNL     1      11.404 -18.328  50.391  1.00  0.00     0.009 C 
HETATM   39  C3  UNL     1      12.677 -17.343  48.575  1.00  0.00     0.009 C 
ENDBRANCH  36  37
ENDBRANCH   1  36
TORSDOF 9
ENDMDL
MODEL 5
REMARK VINA RESULT: -7.946467074      2.197      8.053
REMARK  9 active torsions:
REMARK  status: ('A' for Active; 'I' for Inactive)
REMARK    1  A    between atoms: C2_2  and  C4_4 
REMARK    2  A    between atoms: C4_4  and  C5_5 
REMARK    3  A    between atoms: C6_8  and  O1_9 
REMARK    4  A    between atoms: C9_13  and  O2_14 
REMARK    5  A    between atoms: C13_21  and  O3_22 
REMARK    6  A    between atoms: O3_22  and  C14_23 
REMARK    7  A    between atoms: C14_23  and  C15_24 
REMARK    8  A    between atoms: C15_24  and  N3_25 
REMARK    9  A    between atoms: C21_34  and  C22_35 
ROOT
HETATM    1  C5  UNL     1       3.758 -19.758  42.882  1.00  0.00     0.155 C 
HETATM    2  N1  UNL     1       4.828 -20.359  42.187  1.00  0.00    -0.362 N 
ATOM      3  H1  UNL     1       4.962 -19.949  41.262  1.00  0.00     0.162 HD
HETATM    4  C6  UNL     1       5.747 -21.373  42.449  1.00  0.00     0.123 C 
HETATM    5  C7  UNL     1       6.213 -21.989  43.696  1.00  0.00     0.130 C 
HETATM    6  C8  UNL     1       6.375 -23.507  43.369  1.00  0.00     0.027 C 
HETATM    7  C9  UNL     1       5.339 -21.871  44.872  1.00  0.00     0.127 C 
HETATM    8  N2  UNL     1       5.368 -21.114  46.012  1.00  0.00    -0.339 N 
ATOM      9  H2  UNL     1       4.449 -21.030  46.447  1.00  0.00     0.168 HD
HETATM   10  C10 UNL     1       6.397 -20.405  46.747  1.00  0.00     0.049 A 
HETATM   11  C11 UNL     1       6.560 -20.774  48.103  1.00  0.00     0.033 A 
HETATM   12  C12 UNL     1       7.481 -20.244  48.960  1.00  0.00     0.039 A 
HETATM   13  C13 UNL     1       8.328 -19.270  48.482  1.00  0.00     0.070 A 
HETATM   14  C18 UNL     1       8.185 -18.897  47.169  1.00  0.00     0.056 A 
HETATM   15  C19 UNL     1       7.234 -19.442  46.285  1.00  0.00     0.061 A 
HETATM   16  C20 UNL     1       7.261 -18.836  44.939  1.00  0.00     0.254 C 
HETATM   17  O4  UNL     1       8.460 -18.755  44.460  1.00  0.00    -0.268 OA
HETATM   18  N4  UNL     1       6.263 -18.350  44.119  1.00  0.00    -0.345 N 
ATOM     19  H4  UNL     1       6.528 -18.259  43.138  1.00  0.00     0.163 HD
HETATM   20  C21 UNL     1       4.904 -17.948  44.415  1.00  0.00     0.160 C 
HETATM   21  C25 UNL     1       4.028 -18.337  43.279  1.00  0.00     0.172 C 
HETATM   22  O5  UNL     1       3.491 -17.474  42.620  1.00  0.00    -0.293 OA
ENDROOT
BRANCH  13  23
HETATM   23  O3  UNL     1       9.298 -18.682  49.297  1.00  0.00    -0.349 OA
BRANCH  23  24
HETATM   24  C14 UNL     1      10.659 -18.806  48.934  1.00  0.00     0.206 C 
BRANCH  24  25
HETATM   25  C15 UNL     1      11.382 -19.768  49.855  1.00  0.00     0.297 C 
BRANCH  25  26
HETATM   26  N3  UNL     1      11.726 -21.006  49.223  1.00  0.00     0.082 N 
HETATM   27  C16 UNL     1      10.756 -22.049  49.371  1.00  0.00     0.309 C 
HETATM   28  C17 UNL     1      12.209 -20.851  47.871  1.00  0.00     0.309 C 
ENDBRANCH  25  26
ENDBRANCH  24  25
ENDBRANCH  23  24
ENDBRANCH  13  23
BRANCH   7  29
HETATM   29  O2  UNL     1       4.326 -22.702  44.740  1.00  0.00    -0.349 OA
ATOM     30  H2  UNL     1       3.632 -22.443  45.335  1.00  0.00     0.219 HD
ENDBRANCH   7  29
BRANCH  20  31
HETATM   31  C22 UNL     1       4.934 -16.426  44.596  1.00  0.00     0.007 C 
HETATM   32  C23 UNL     1       6.058 -15.804  43.762  1.00  0.00     0.012 C 
HETATM   33  C24 UNL     1       5.039 -15.998  46.017  1.00  0.00     0.012 C 
ENDBRANCH  20  31
BRANCH   4  34
HETATM   34  O1  UNL     1       6.349 -21.923  41.418  1.00  0.00    -0.349 OA
ATOM     35  H1  UNL     1       6.441 -22.868  41.420  1.00  0.00     0.219 HD
ENDBRANCH   4  34
BRANCH   1  36
HETATM   36  C4  UNL     1       2.477 -19.786  42.088  1.00  0.00     0.037 C 
BRANCH  36  37
HETATM   37  C2  UNL     1       2.053 -21.097  41.518  1.00  0.00    -0.020 C 
HETATM   38  C1  UNL     1       1.101 -21.046  40.392  1.00  0.00     0.009 C 
HETATM   39  C3  UNL     1       1.359 -21.846  42.669  1.00  0.00     0.009 C 
ENDBRANCH  36  37
ENDBRANCH   1  36
TORSDOF 9
ENDMDL
