MODEL 1
REMARK VINA RESULT: -8.341546227      0.000      0.000
REMARK  10 active torsions:
REMARK  status: ('A' for Active; 'I' for Inactive)
REMARK    1  A    between atoms: C4_4  and  O1_5 
REMARK    2  A    between atoms: C5_7  and  O2_8 
REMARK    3  A    between atoms: O2_8  and  C6_9 
REMARK    4  A    between atoms: C6_9  and  C7_11 
REMARK    5  A    between atoms: C7_11  and  C8_12 
REMARK    6  A    between atoms: C8_12  and  C9_13 
REMARK    7  A    between atoms: C9_13  and  C10_14 
REMARK    8  A    between atoms: C10_14  and  C11_16 
REMARK    9  A    between atoms: C11_16  and  O5_17 
REMARK   10  A    between atoms: C19_27  and  O7_28 
ROOT
HETATM    1  C1  UNL     1       6.875 -27.546 -11.081  1.00  0.00     0.010 C 
HETATM    2  C2  UNL     1       6.011 -28.240 -12.067  1.00  0.00    -0.011 C 
HETATM    3  C3  UNL     1       5.418 -29.547 -11.609  1.00  0.00     0.039 C 
HETATM    4  C4  UNL     1       3.922 -29.403 -11.384  1.00  0.00     0.148 C 
HETATM    5  C5  UNL     1       3.635 -28.032 -10.793  1.00  0.00     0.165 C 
HETATM    6  C12 UNL     1       3.913 -26.888 -11.697  1.00  0.00     0.031 C 
HETATM    7  C13 UNL     1       4.946 -27.384 -12.719  1.00  0.00     0.004 C 
HETATM    8  C14 UNL     1       5.665 -26.260 -13.411  1.00  0.00     0.083 C 
HETATM    9  C15 UNL     1       4.859 -25.887 -14.595  1.00  0.00     0.127 C 
HETATM   10  O6  UNL     1       5.499 -25.674 -15.624  1.00  0.00    -0.298 OA
HETATM   11  C16 UNL     1       3.412 -25.719 -14.786  1.00  0.00     0.083 C 
HETATM   12  C17 UNL     1       2.534 -26.348 -13.750  1.00  0.00     0.003 C 
HETATM   13  C18 UNL     1       1.109 -26.142 -14.176  1.00  0.00     0.037 C 
HETATM   14  C19 UNL     1       0.404 -25.001 -13.555  1.00  0.00     0.118 C 
HETATM   15  C20 UNL     1       0.496 -25.139 -12.088  1.00  0.00     0.032 C 
HETATM   16  C21 UNL     1       1.517 -26.118 -11.572  1.00  0.00     0.012 C 
HETATM   17  C22 UNL     1       2.853 -26.064 -12.320  1.00  0.00    -0.033 C 
HETATM   18  C23 UNL     1       3.245 -24.574 -12.211  1.00  0.00     0.016 C 
ENDROOT
BRANCH   5  19
HETATM   19  O2  UNL     1       2.563 -27.992  -9.948  1.00  0.00    -0.313 OA
BRANCH  19  20
HETATM   20  C6  UNL     1       2.198 -28.939  -9.057  1.00  0.00     0.259 C 
HETATM   21  O3  UNL     1       1.109 -29.482  -9.285  1.00  0.00    -0.265 OA
BRANCH  20  22
HETATM   22  C7  UNL     1       2.966 -29.374  -7.857  1.00  0.00     0.111 C 
BRANCH  22  23
HETATM   23  C8  UNL     1       2.820 -30.865  -7.731  1.00  0.00     0.017 C 
BRANCH  23  24
HETATM   24  C9  UNL     1       3.865 -31.640  -8.473  1.00  0.00     0.081 C 
BRANCH  24  25
HETATM   25  C10 UNL     1       3.305 -32.855  -9.075  1.00  0.00     0.150 C 
HETATM   26  O4  UNL     1       3.982 -33.854  -9.194  1.00  0.00    -0.296 OA
BRANCH  25  27
HETATM   27  C11 UNL     1       1.883 -32.844  -9.541  1.00  0.00     0.242 C 
BRANCH  27  28
HETATM   28  O5  UNL     1       1.808 -32.036 -10.668  1.00  0.00    -0.394 OA
ATOM     29  H5  UNL     1       0.901 -31.776 -10.783  1.00  0.00     0.209 HD
ENDBRANCH  27  28
ENDBRANCH  25  27
ENDBRANCH  24  25
ENDBRANCH  23  24
ENDBRANCH  22  23
ENDBRANCH  20  22
ENDBRANCH  19  20
ENDBRANCH   5  19
BRANCH   4  30
HETATM   30  O1  UNL     1       3.255 -29.844 -12.431  1.00  0.00    -0.393 OA
ATOM     31  H1  UNL     1       3.322 -29.228 -13.151  1.00  0.00     0.210 HD
ENDBRANCH   4  30
BRANCH  14  32
HETATM   32  O7  UNL     1       0.810 -23.741 -14.045  1.00  0.00    -0.396 OA
ATOM     33  H7  UNL     1       0.146 -23.295 -14.558  1.00  0.00     0.210 HD
ENDBRANCH  14  32
TORSDOF 10
ENDMDL
MODEL 2
REMARK VINA RESULT: -8.292526998      0.524      1.057
REMARK  10 active torsions:
REMARK  status: ('A' for Active; 'I' for Inactive)
REMARK    1  A    between atoms: C4_4  and  O1_5 
REMARK    2  A    between atoms: C5_7  and  O2_8 
REMARK    3  A    between atoms: O2_8  and  C6_9 
REMARK    4  A    between atoms: C6_9  and  C7_11 
REMARK    5  A    between atoms: C7_11  and  C8_12 
REMARK    6  A    between atoms: C8_12  and  C9_13 
REMARK    7  A    between atoms: C9_13  and  C10_14 
REMARK    8  A    between atoms: C10_14  and  C11_16 
REMARK    9  A    between atoms: C11_16  and  O5_17 
REMARK   10  A    between atoms: C19_27  and  O7_28 
ROOT
HETATM    1  C1  UNL     1       6.844 -27.640 -11.039  1.00  0.00     0.010 C 
HETATM    2  C2  UNL     1       6.002 -28.280 -12.080  1.00  0.00    -0.011 C 
HETATM    3  C3  UNL     1       5.347 -29.576 -11.682  1.00  0.00     0.039 C 
HETATM    4  C4  UNL     1       3.848 -29.386 -11.520  1.00  0.00     0.148 C 
HETATM    5  C5  UNL     1       3.580 -28.020 -10.908  1.00  0.00     0.165 C 
HETATM    6  C12 UNL     1       3.936 -26.866 -11.769  1.00  0.00     0.031 C 
HETATM    7  C13 UNL     1       4.997 -27.372 -12.757  1.00  0.00     0.004 C 
HETATM    8  C14 UNL     1       5.785 -26.258 -13.387  1.00  0.00     0.083 C 
HETATM    9  C15 UNL     1       5.046 -25.830 -14.596  1.00  0.00     0.127 C 
HETATM   10  O6  UNL     1       5.738 -25.614 -15.591  1.00  0.00    -0.298 OA
HETATM   11  C16 UNL     1       3.615 -25.607 -14.847  1.00  0.00     0.083 C 
HETATM   12  C17 UNL     1       2.671 -26.229 -13.867  1.00  0.00     0.003 C 
HETATM   13  C18 UNL     1       1.274 -25.964 -14.351  1.00  0.00     0.037 C 
HETATM   14  C19 UNL     1       0.581 -24.815 -13.733  1.00  0.00     0.118 C 
HETATM   15  C20 UNL     1       0.601 -24.991 -12.267  1.00  0.00     0.032 C 
HETATM   16  C21 UNL     1       1.565 -26.016 -11.732  1.00  0.00     0.012 C 
HETATM   17  C22 UNL     1       2.934 -25.991 -12.418  1.00  0.00    -0.033 C 
HETATM   18  C23 UNL     1       3.371 -24.518 -12.254  1.00  0.00     0.016 C 
ENDROOT
BRANCH   5  19
HETATM   19  O2  UNL     1       2.472 -27.964 -10.111  1.00  0.00    -0.313 OA
BRANCH  19  20
HETATM   20  C6  UNL     1       2.075 -28.886  -9.208  1.00  0.00     0.259 C 
HETATM   21  O3  UNL     1       1.012 -29.460  -9.478  1.00  0.00    -0.265 OA
BRANCH  20  22
HETATM   22  C7  UNL     1       2.783 -29.265  -7.953  1.00  0.00     0.111 C 
BRANCH  22  23
HETATM   23  C8  UNL     1       2.696 -30.758  -7.805  1.00  0.00     0.017 C 
BRANCH  23  24
HETATM   24  C9  UNL     1       3.893 -31.487  -8.336  1.00  0.00     0.081 C 
BRANCH  24  25
HETATM   25  C10 UNL     1       3.498 -32.638  -9.157  1.00  0.00     0.150 C 
HETATM   26  O4  UNL     1       2.670 -32.514 -10.035  1.00  0.00    -0.296 OA
BRANCH  25  27
HETATM   27  C11 UNL     1       4.132 -33.967  -8.896  1.00  0.00     0.242 C 
BRANCH  27  28
HETATM   28  O5  UNL     1       4.929 -33.847  -7.766  1.00  0.00    -0.394 OA
ATOM     29  H5  UNL     1       5.831 -33.757  -8.051  1.00  0.00     0.209 HD
ENDBRANCH  27  28
ENDBRANCH  25  27
ENDBRANCH  24  25
ENDBRANCH  23  24
ENDBRANCH  22  23
ENDBRANCH  20  22
ENDBRANCH  19  20
ENDBRANCH   5  19
BRANCH   4  30
HETATM   30  O1  UNL     1       3.214 -29.779 -12.607  1.00  0.00    -0.393 OA
ATOM     31  H1  UNL     1       2.780 -30.611 -12.456  1.00  0.00     0.210 HD
ENDBRANCH   4  30
BRANCH  14  32
HETATM   32  O7  UNL     1       1.050 -23.558 -14.173  1.00  0.00    -0.396 OA
ATOM     33  H7  UNL     1       0.578 -22.820 -13.806  1.00  0.00     0.210 HD
ENDBRANCH  14  32
TORSDOF 10
ENDMDL
MODEL 3
REMARK VINA RESULT: -8.029654657      2.172      7.080
REMARK  10 active torsions:
REMARK  status: ('A' for Active; 'I' for Inactive)
REMARK    1  A    between atoms: C4_4  and  O1_5 
REMARK    2  A    between atoms: C5_7  and  O2_8 
REMARK    3  A    between atoms: O2_8  and  C6_9 
REMARK    4  A    between atoms: C6_9  and  C7_11 
REMARK    5  A    between atoms: C7_11  and  C8_12 
REMARK    6  A    between atoms: C8_12  and  C9_13 
REMARK    7  A    between atoms: C9_13  and  C10_14 
REMARK    8  A    between atoms: C10_14  and  C11_16 
REMARK    9  A    between atoms: C11_16  and  O5_17 
REMARK   10  A    between atoms: C19_27  and  O7_28 
ROOT
HETATM    1  C1  UNL     1       0.752 -26.003 -12.037  1.00  0.00     0.010 C 
HETATM    2  C2  UNL     1       0.770 -27.361 -12.634  1.00  0.00    -0.011 C 
HETATM    3  C3  UNL     1       1.677 -27.539 -13.823  1.00  0.00     0.039 C 
HETATM    4  C4  UNL     1       2.874 -28.401 -13.455  1.00  0.00     0.148 C 
HETATM    5  C5  UNL     1       3.308 -28.073 -12.035  1.00  0.00     0.165 C 
HETATM    6  C12 UNL     1       2.335 -28.445 -10.978  1.00  0.00     0.031 C 
HETATM    7  C13 UNL     1       0.959 -28.503 -11.657  1.00  0.00     0.004 C 
HETATM    8  C14 UNL     1      -0.177 -28.418 -10.676  1.00  0.00     0.083 C 
HETATM    9  C15 UNL     1      -0.477 -29.799 -10.235  1.00  0.00     0.127 C 
HETATM   10  O6  UNL     1      -1.672 -30.081 -10.156  1.00  0.00    -0.298 OA
HETATM   11  C16 UNL     1       0.393 -30.924  -9.865  1.00  0.00     0.083 C 
HETATM   12  C17 UNL     1       1.815 -30.833 -10.320  1.00  0.00     0.003 C 
HETATM   13  C18 UNL     1       2.501 -32.110  -9.925  1.00  0.00     0.037 C 
HETATM   14  C19 UNL     1       3.282 -32.065  -8.671  1.00  0.00     0.118 C 
HETATM   15  C20 UNL     1       4.254 -30.957  -8.767  1.00  0.00     0.032 C 
HETATM   16  C21 UNL     1       4.017 -29.954  -9.863  1.00  0.00     0.012 C 
HETATM   17  C22 UNL     1       2.545 -29.564 -10.033  1.00  0.00    -0.033 C 
HETATM   18  C23 UNL     1       2.149 -29.103  -8.612  1.00  0.00     0.016 C 
ENDROOT
BRANCH   5  19
HETATM   19  O2  UNL     1       4.649 -28.204 -11.808  1.00  0.00    -0.313 OA
BRANCH  19  20
HETATM   20  C6  UNL     1       5.555 -27.208 -11.708  1.00  0.00     0.259 C 
HETATM   21  O3  UNL     1       5.118 -26.075 -11.949  1.00  0.00    -0.265 OA
BRANCH  20  22
HETATM   22  C7  UNL     1       6.993 -27.347 -11.345  1.00  0.00     0.111 C 
BRANCH  22  23
HETATM   23  C8  UNL     1       7.813 -26.908 -12.526  1.00  0.00     0.017 C 
BRANCH  23  24
HETATM   24  C9  UNL     1       8.470 -25.573 -12.343  1.00  0.00     0.081 C 
BRANCH  24  25
HETATM   25  C10 UNL     1       8.082 -24.636 -13.403  1.00  0.00     0.150 C 
HETATM   26  O4  UNL     1       8.420 -23.473 -13.352  1.00  0.00    -0.296 OA
BRANCH  25  27
HETATM   27  C11 UNL     1       7.262 -25.136 -14.550  1.00  0.00     0.242 C 
BRANCH  27  28
HETATM   28  O5  UNL     1       5.987 -24.597 -14.432  1.00  0.00    -0.394 OA
ATOM     29  H5  UNL     1       6.067 -23.650 -14.450  1.00  0.00     0.209 HD
ENDBRANCH  27  28
ENDBRANCH  25  27
ENDBRANCH  24  25
ENDBRANCH  23  24
ENDBRANCH  22  23
ENDBRANCH  20  22
ENDBRANCH  19  20
ENDBRANCH   5  19
BRANCH   4  30
HETATM   30  O1  UNL     1       2.677 -29.648 -13.832  1.00  0.00    -0.393 OA
ATOM     31  H1  UNL     1       3.207 -30.241 -13.312  1.00  0.00     0.210 HD
ENDBRANCH   4  30
BRANCH  14  32
HETATM   32  O7  UNL     1       2.491 -32.043  -7.503  1.00  0.00    -0.396 OA
ATOM     33  H7  UNL     1       1.809 -31.382  -7.511  1.00  0.00     0.210 HD
ENDBRANCH  14  32
TORSDOF 10
ENDMDL
MODEL 4
REMARK VINA RESULT: -7.967238399      0.996      1.308
REMARK  10 active torsions:
REMARK  status: ('A' for Active; 'I' for Inactive)
REMARK    1  A    between atoms: C4_4  and  O1_5 
REMARK    2  A    between atoms: C5_7  and  O2_8 
REMARK    3  A    between atoms: O2_8  and  C6_9 
REMARK    4  A    between atoms: C6_9  and  C7_11 
REMARK    5  A    between atoms: C7_11  and  C8_12 
REMARK    6  A    between atoms: C8_12  and  C9_13 
REMARK    7  A    between atoms: C9_13  and  C10_14 
REMARK    8  A    between atoms: C10_14  and  C11_16 
REMARK    9  A    between atoms: C11_16  and  O5_17 
REMARK   10  A    between atoms: C19_27  and  O7_28 
ROOT
HETATM    1  C1  UNL     1       6.863 -27.590 -11.041  1.00  0.00     0.010 C 
HETATM    2  C2  UNL     1       5.999 -28.256 -12.046  1.00  0.00    -0.011 C 
HETATM    3  C3  UNL     1       5.338 -29.532 -11.595  1.00  0.00     0.039 C 
HETATM    4  C4  UNL     1       3.843 -29.322 -11.416  1.00  0.00     0.148 C 
HETATM    5  C5  UNL     1       3.598 -27.934 -10.846  1.00  0.00     0.165 C 
HETATM    6  C12 UNL     1       3.951 -26.812 -11.751  1.00  0.00     0.031 C 
HETATM    7  C13 UNL     1       4.992 -27.362 -12.738  1.00  0.00     0.004 C 
HETATM    8  C14 UNL     1       5.779 -26.277 -13.417  1.00  0.00     0.083 C 
HETATM    9  C15 UNL     1       5.025 -25.882 -14.628  1.00  0.00     0.127 C 
HETATM   10  O6  UNL     1       5.704 -25.707 -15.640  1.00  0.00    -0.298 OA
HETATM   11  C16 UNL     1       3.593 -25.654 -14.864  1.00  0.00     0.083 C 
HETATM   12  C17 UNL     1       2.659 -26.234 -13.849  1.00  0.00     0.003 C 
HETATM   13  C18 UNL     1       1.257 -25.972 -14.320  1.00  0.00     0.037 C 
HETATM   14  C19 UNL     1       0.584 -24.795 -13.731  1.00  0.00     0.118 C 
HETATM   15  C20 UNL     1       0.626 -24.923 -12.260  1.00  0.00     0.032 C 
HETATM   16  C21 UNL     1       1.588 -25.939 -11.706  1.00  0.00     0.012 C 
HETATM   17  C22 UNL     1       2.947 -25.950 -12.414  1.00  0.00    -0.033 C 
HETATM   18  C23 UNL     1       3.400 -24.477 -12.306  1.00  0.00     0.016 C 
ENDROOT
BRANCH   5  19
HETATM   19  O2  UNL     1       2.504 -27.840 -10.035  1.00  0.00    -0.313 OA
BRANCH  19  20
HETATM   20  C6  UNL     1       1.962 -28.826  -9.287  1.00  0.00     0.259 C 
HETATM   21  O3  UNL     1       0.862 -29.238  -9.680  1.00  0.00    -0.265 OA
BRANCH  20  22
HETATM   22  C7  UNL     1       2.552 -29.444  -8.067  1.00  0.00     0.111 C 
BRANCH  22  23
HETATM   23  C8  UNL     1       2.563 -30.934  -8.262  1.00  0.00     0.017 C 
BRANCH  23  24
HETATM   24  C9  UNL     1       1.518 -31.655  -7.467  1.00  0.00     0.081 C 
BRANCH  24  25
HETATM   25  C10 UNL     1       0.633 -32.441  -8.334  1.00  0.00     0.150 C 
HETATM   26  O4  UNL     1       1.085 -33.295  -9.067  1.00  0.00    -0.296 OA
BRANCH  25  27
HETATM   27  C11 UNL     1      -0.839 -32.175  -8.302  1.00  0.00     0.242 C 
BRANCH  27  28
HETATM   28  O5  UNL     1      -1.027 -30.856  -7.908  1.00  0.00    -0.394 OA
ATOM     29  H5  UNL     1      -1.925 -30.616  -8.104  1.00  0.00     0.209 HD
ENDBRANCH  27  28
ENDBRANCH  25  27
ENDBRANCH  24  25
ENDBRANCH  23  24
ENDBRANCH  22  23
ENDBRANCH  20  22
ENDBRANCH  19  20
ENDBRANCH   5  19
BRANCH   4  30
HETATM   30  O1  UNL     1       3.189 -29.744 -12.479  1.00  0.00    -0.393 OA
ATOM     31  H1  UNL     1       2.280 -29.917 -12.263  1.00  0.00     0.210 HD
ENDBRANCH   4  30
BRANCH  14  32
HETATM   32  O7  UNL     1       1.058 -23.559 -14.219  1.00  0.00    -0.396 OA
ATOM     33  H7  UNL     1       2.004 -23.488 -14.236  1.00  0.00     0.210 HD
ENDBRANCH  14  32
TORSDOF 10
ENDMDL
MODEL 5
REMARK VINA RESULT: -7.925940031      1.658      2.658
REMARK  10 active torsions:
REMARK  status: ('A' for Active; 'I' for Inactive)
REMARK    1  A    between atoms: C4_4  and  O1_5 
REMARK    2  A    between atoms: C5_7  and  O2_8 
REMARK    3  A    between atoms: O2_8  and  C6_9 
REMARK    4  A    between atoms: C6_9  and  C7_11 
REMARK    5  A    between atoms: C7_11  and  C8_12 
REMARK    6  A    between atoms: C8_12  and  C9_13 
REMARK    7  A    between atoms: C9_13  and  C10_14 
REMARK    8  A    between atoms: C10_14  and  C11_16 
REMARK    9  A    between atoms: C11_16  and  O5_17 
REMARK   10  A    between atoms: C19_27  and  O7_28 
ROOT
HETATM    1  C1  UNL     1       7.140 -27.401 -10.867  1.00  0.00     0.010 C 
HETATM    2  C2  UNL     1       6.379 -28.068 -11.952  1.00  0.00    -0.011 C 
HETATM    3  C3  UNL     1       5.856 -29.443 -11.630  1.00  0.00     0.039 C 
HETATM    4  C4  UNL     1       4.343 -29.415 -11.483  1.00  0.00     0.148 C 
HETATM    5  C5  UNL     1       3.930 -28.117 -10.808  1.00  0.00     0.165 C 
HETATM    6  C12 UNL     1       4.176 -26.889 -11.604  1.00  0.00     0.031 C 
HETATM    7  C13 UNL     1       5.294 -27.233 -12.599  1.00  0.00     0.004 C 
HETATM    8  C14 UNL     1       5.969 -26.014 -13.160  1.00  0.00     0.083 C 
HETATM    9  C15 UNL     1       5.204 -25.601 -14.357  1.00  0.00     0.127 C 
HETATM   10  O6  UNL     1       5.881 -25.265 -15.328  1.00  0.00    -0.298 OA
HETATM   11  C16 UNL     1       3.760 -25.513 -14.619  1.00  0.00     0.083 C 
HETATM   12  C17 UNL     1       2.874 -26.278 -13.687  1.00  0.00     0.003 C 
HETATM   13  C18 UNL     1       1.463 -26.132 -14.179  1.00  0.00     0.037 C 
HETATM   14  C19 UNL     1       0.649 -25.092 -13.516  1.00  0.00     0.118 C 
HETATM   15  C20 UNL     1       0.671 -25.341 -12.060  1.00  0.00     0.032 C 
HETATM   16  C21 UNL     1       1.729 -26.289 -11.562  1.00  0.00     0.012 C 
HETATM   17  C22 UNL     1       3.096 -26.089 -12.224  1.00  0.00    -0.033 C 
HETATM   18  C23 UNL     1       3.377 -24.590 -11.979  1.00  0.00     0.016 C 
ENDROOT
BRANCH   5  19
HETATM   19  O2  UNL     1       2.814 -28.215 -10.026  1.00  0.00    -0.313 OA
BRANCH  19  20
HETATM   20  C6  UNL     1       2.483 -29.239  -9.211  1.00  0.00     0.259 C 
HETATM   21  O3  UNL     1       3.334 -29.526  -8.358  1.00  0.00    -0.265 OA
BRANCH  20  22
HETATM   22  C7  UNL     1       1.222 -30.032  -9.245  1.00  0.00     0.111 C 
BRANCH  22  23
HETATM   23  C8  UNL     1       0.914 -30.348 -10.682  1.00  0.00     0.017 C 
BRANCH  23  24
HETATM   24  C9  UNL     1      -0.189 -29.513 -11.261  1.00  0.00     0.081 C 
BRANCH  24  25
HETATM   25  C10 UNL     1       0.010 -29.285 -12.696  1.00  0.00     0.150 C 
HETATM   26  O4  UNL     1       1.097 -29.461 -13.205  1.00  0.00    -0.296 OA
BRANCH  25  27
HETATM   27  C11 UNL     1      -1.149 -28.831 -13.527  1.00  0.00     0.242 C 
BRANCH  27  28
HETATM   28  O5  UNL     1      -0.736 -28.791 -14.852  1.00  0.00    -0.394 OA
ATOM     29  H5  UNL     1       0.114 -28.367 -14.882  1.00  0.00     0.209 HD
ENDBRANCH  27  28
ENDBRANCH  25  27
ENDBRANCH  24  25
ENDBRANCH  23  24
ENDBRANCH  22  23
ENDBRANCH  20  22
ENDBRANCH  19  20
ENDBRANCH   5  19
BRANCH   4  30
HETATM   30  O1  UNL     1       3.765 -29.814 -12.598  1.00  0.00    -0.393 OA
ATOM     31  H1  UNL     1       4.353 -29.703 -13.336  1.00  0.00     0.210 HD
ENDBRANCH   4  30
BRANCH  14  32
HETATM   32  O7  UNL     1       0.991 -23.774 -13.884  1.00  0.00    -0.396 OA
ATOM     33  H7  UNL     1       0.315 -23.133 -13.699  1.00  0.00     0.210 HD
ENDBRANCH  14  32
TORSDOF 10
ENDMDL
