MODEL 1
REMARK VINA RESULT: -8.664773279      0.000      0.000
REMARK  11 active torsions:
REMARK  status: ('A' for Active; 'I' for Inactive)
REMARK       I    between atoms: C1_2  and  N2_4 
REMARK    1  A    between atoms: N2_4  and  C2_6 
REMARK    2  A    between atoms: C2_6  and  O2_7 
REMARK    3  A    between atoms: C2_6  and  C3_9 
REMARK    4  A    between atoms: C3_9  and  O3_10 
REMARK    5  A    between atoms: C3_9  and  C4_12 
REMARK    6  A    between atoms: C4_12  and  C5_13 
REMARK    7  A    between atoms: C16_25  and  O5_26 
REMARK    8  A    between atoms: O5_26  and  C17_27 
REMARK    9  A    between atoms: C17_27  and  C18_29 
REMARK   10  A    between atoms: C18_29  and  C19_30 
REMARK   11  A    between atoms: C19_30  and  N3_31 
ROOT
HETATM    1  C5  UNL     1       2.943 -26.727 -13.681  1.00  0.00     0.025 C 
HETATM    2  C6  UNL     1       4.320 -26.675 -14.214  1.00  0.00     0.007 C 
HETATM    3  C7  UNL     1       4.685 -25.617 -15.201  1.00  0.00     0.000 C 
HETATM    4  C8  UNL     1       5.876 -24.835 -14.623  1.00  0.00     0.000 C 
HETATM    5  C9  UNL     1       7.186 -25.459 -14.800  1.00  0.00     0.000 C 
HETATM    6  C10 UNL     1       7.599 -26.617 -13.996  1.00  0.00     0.000 C 
HETATM    7  C11 UNL     1       7.950 -26.390 -12.568  1.00  0.00     0.000 C 
HETATM    8  C12 UNL     1       7.873 -27.557 -11.668  1.00  0.00     0.000 C 
HETATM    9  C13 UNL     1       6.667 -28.397 -11.670  1.00  0.00     0.007 C 
HETATM   10  C14 UNL     1       5.425 -27.801 -11.094  1.00  0.00     0.081 C 
HETATM   11  C15 UNL     1       4.275 -28.045 -12.012  1.00  0.00     0.156 C 
HETATM   12  O4  UNL     1       4.324 -29.085 -12.652  1.00  0.00    -0.295 OA
HETATM   13  C16 UNL     1       3.124 -27.155 -12.197  1.00  0.00     0.205 C 
ENDROOT
BRANCH   1  14
HETATM   14  C4  UNL     1       1.983 -27.696 -14.241  1.00  0.00     0.047 C 
BRANCH  14  15
HETATM   15  C3  UNL     1       0.817 -27.139 -15.028  1.00  0.00     0.193 C 
BRANCH  15  16
HETATM   16  C2  UNL     1      -0.142 -26.467 -14.168  1.00  0.00     0.148 C 
BRANCH  16  17
HETATM   17  N2  UNL     1      -0.600 -25.173 -14.166  1.00  0.00    -0.293 N 
HETATM   18  C1  UNL     1       0.058 -23.927 -14.193  1.00  0.00     0.334 C 
HETATM   19  N1  UNL     1      -0.737 -22.707 -14.170  1.00  0.00    -0.040 NA
HETATM   20  O1  UNL     1       1.267 -23.725 -14.236  1.00  0.00    -0.251 OA
ATOM     21  H2  UNL     1      -1.617 -25.098 -14.140  1.00  0.00     0.172 HD
ENDBRANCH  16  17
BRANCH  16  22
HETATM   22  O2  UNL     1      -0.641 -27.243 -13.244  1.00  0.00    -0.347 OA
ATOM     23  H2  UNL     1      -0.515 -28.175 -13.379  1.00  0.00     0.219 HD
ENDBRANCH  16  22
ENDBRANCH  15  16
BRANCH  15  24
HETATM   24  O3  UNL     1       0.216 -28.197 -15.679  1.00  0.00    -0.387 OA
ATOM     25  H3  UNL     1       0.875 -28.777 -16.042  1.00  0.00     0.210 HD
ENDBRANCH  15  24
ENDBRANCH  14  15
ENDBRANCH   1  14
BRANCH  13  26
HETATM   26  O5  UNL     1       1.939 -27.792 -11.756  1.00  0.00    -0.308 OA
BRANCH  26  27
HETATM   27  C17 UNL     1       1.397 -27.618 -10.496  1.00  0.00     0.261 C 
HETATM   28  O6  UNL     1       0.271 -27.088 -10.404  1.00  0.00    -0.265 OA
BRANCH  27  29
HETATM   29  C18 UNL     1       2.139 -28.053  -9.260  1.00  0.00     0.137 C 
BRANCH  29  30
HETATM   30  C19 UNL     1       2.451 -29.528  -9.375  1.00  0.00     0.211 C 
BRANCH  30  31
HETATM   31  N3  UNL     1       2.371 -30.085  -8.026  1.00  0.00    -0.155 N 
HETATM   32  O7  UNL     1       1.286 -30.170  -7.416  1.00  0.00    -0.537 OA
HETATM   33  O8  UNL     1       3.491 -30.538  -7.377  1.00  0.00    -0.537 OA
ENDBRANCH  30  31
ENDBRANCH  29  30
ENDBRANCH  27  29
ENDBRANCH  26  27
ENDBRANCH  13  26
TORSDOF 11
ENDMDL
MODEL 2
REMARK VINA RESULT: -8.562315878      1.629      2.042
REMARK  11 active torsions:
REMARK  status: ('A' for Active; 'I' for Inactive)
REMARK       I    between atoms: C1_2  and  N2_4 
REMARK    1  A    between atoms: N2_4  and  C2_6 
REMARK    2  A    between atoms: C2_6  and  O2_7 
REMARK    3  A    between atoms: C2_6  and  C3_9 
REMARK    4  A    between atoms: C3_9  and  O3_10 
REMARK    5  A    between atoms: C3_9  and  C4_12 
REMARK    6  A    between atoms: C4_12  and  C5_13 
REMARK    7  A    between atoms: C16_25  and  O5_26 
REMARK    8  A    between atoms: O5_26  and  C17_27 
REMARK    9  A    between atoms: C17_27  and  C18_29 
REMARK   10  A    between atoms: C18_29  and  C19_30 
REMARK   11  A    between atoms: C19_30  and  N3_31 
ROOT
HETATM    1  C5  UNL     1       2.993 -26.884 -13.545  1.00  0.00     0.025 C 
HETATM    2  C6  UNL     1       4.371 -26.789 -14.069  1.00  0.00     0.007 C 
HETATM    3  C7  UNL     1       4.703 -25.738 -15.075  1.00  0.00     0.000 C 
HETATM    4  C8  UNL     1       5.859 -24.899 -14.505  1.00  0.00     0.000 C 
HETATM    5  C9  UNL     1       7.192 -25.475 -14.660  1.00  0.00     0.000 C 
HETATM    6  C10 UNL     1       7.644 -26.601 -13.830  1.00  0.00     0.000 C 
HETATM    7  C11 UNL     1       7.975 -26.332 -12.404  1.00  0.00     0.000 C 
HETATM    8  C12 UNL     1       7.936 -27.483 -11.482  1.00  0.00     0.000 C 
HETATM    9  C13 UNL     1       6.764 -28.369 -11.476  1.00  0.00     0.007 C 
HETATM   10  C14 UNL     1       5.495 -27.810 -10.920  1.00  0.00     0.081 C 
HETATM   11  C15 UNL     1       4.363 -28.116 -11.840  1.00  0.00     0.156 C 
HETATM   12  O4  UNL     1       4.456 -29.166 -12.460  1.00  0.00    -0.295 OA
HETATM   13  C16 UNL     1       3.179 -27.275 -12.052  1.00  0.00     0.205 C 
ENDROOT
BRANCH   1  14
HETATM   14  C4  UNL     1       2.075 -27.900 -14.092  1.00  0.00     0.047 C 
BRANCH  14  15
HETATM   15  C3  UNL     1       0.972 -27.415 -15.006  1.00  0.00     0.193 C 
BRANCH  15  16
HETATM   16  C2  UNL     1      -0.282 -27.239 -14.293  1.00  0.00     0.148 C 
BRANCH  16  17
HETATM   17  N2  UNL     1      -0.589 -27.374 -12.962  1.00  0.00    -0.293 N 
HETATM   18  C1  UNL     1      -1.810 -27.517 -12.273  1.00  0.00     0.334 C 
HETATM   19  N1  UNL     1      -1.794 -27.629 -10.821  1.00  0.00    -0.040 NA
HETATM   20  O1  UNL     1      -2.936 -27.564 -12.757  1.00  0.00    -0.251 OA
ATOM     21  H2  UNL     1       0.228 -27.370 -12.351  1.00  0.00     0.172 HD
ENDBRANCH  16  17
BRANCH  16  22
HETATM   22  O2  UNL     1      -1.275 -26.897 -15.069  1.00  0.00    -0.347 OA
ATOM     23  H2  UNL     1      -1.831 -27.609 -15.362  1.00  0.00     0.219 HD
ENDBRANCH  16  22
ENDBRANCH  15  16
BRANCH  15  24
HETATM   24  O3  UNL     1       0.824 -28.354 -16.007  1.00  0.00    -0.387 OA
ATOM     25  H3  UNL     1       1.657 -28.774 -16.188  1.00  0.00     0.210 HD
ENDBRANCH  15  24
ENDBRANCH  14  15
ENDBRANCH   1  14
BRANCH  13  26
HETATM   26  O5  UNL     1       2.016 -27.948 -11.606  1.00  0.00    -0.308 OA
BRANCH  26  27
HETATM   27  C17 UNL     1       1.755 -28.233 -10.278  1.00  0.00     0.261 C 
HETATM   28  O6  UNL     1       1.346 -27.309  -9.545  1.00  0.00    -0.265 OA
BRANCH  27  29
HETATM   29  C18 UNL     1       1.956 -29.617  -9.721  1.00  0.00     0.137 C 
BRANCH  29  30
HETATM   30  C19 UNL     1       2.415 -29.502  -8.285  1.00  0.00     0.211 C 
BRANCH  30  31
HETATM   31  N3  UNL     1       3.708 -30.179  -8.196  1.00  0.00    -0.155 N 
HETATM   32  O7  UNL     1       4.322 -30.276  -7.115  1.00  0.00    -0.537 OA
HETATM   33  O8  UNL     1       4.295 -30.735  -9.303  1.00  0.00    -0.537 OA
ENDBRANCH  30  31
ENDBRANCH  29  30
ENDBRANCH  27  29
ENDBRANCH  26  27
ENDBRANCH  13  26
TORSDOF 11
ENDMDL
MODEL 3
REMARK VINA RESULT: -8.544218122      2.010      2.665
REMARK  11 active torsions:
REMARK  status: ('A' for Active; 'I' for Inactive)
REMARK       I    between atoms: C1_2  and  N2_4 
REMARK    1  A    between atoms: N2_4  and  C2_6 
REMARK    2  A    between atoms: C2_6  and  O2_7 
REMARK    3  A    between atoms: C2_6  and  C3_9 
REMARK    4  A    between atoms: C3_9  and  O3_10 
REMARK    5  A    between atoms: C3_9  and  C4_12 
REMARK    6  A    between atoms: C4_12  and  C5_13 
REMARK    7  A    between atoms: C16_25  and  O5_26 
REMARK    8  A    between atoms: O5_26  and  C17_27 
REMARK    9  A    between atoms: C17_27  and  C18_29 
REMARK   10  A    between atoms: C18_29  and  C19_30 
REMARK   11  A    between atoms: C19_30  and  N3_31 
ROOT
HETATM    1  C5  UNL     1       3.104 -27.123 -13.300  1.00  0.00     0.025 C 
HETATM    2  C6  UNL     1       4.437 -26.902 -13.896  1.00  0.00     0.007 C 
HETATM    3  C7  UNL     1       4.613 -25.833 -14.924  1.00  0.00     0.000 C 
HETATM    4  C8  UNL     1       5.711 -24.881 -14.419  1.00  0.00     0.000 C 
HETATM    5  C9  UNL     1       7.084 -25.328 -14.642  1.00  0.00     0.000 C 
HETATM    6  C10 UNL     1       7.685 -26.396 -13.831  1.00  0.00     0.000 C 
HETATM    7  C11 UNL     1       8.062 -26.082 -12.427  1.00  0.00     0.000 C 
HETATM    8  C12 UNL     1       8.183 -27.221 -11.498  1.00  0.00     0.000 C 
HETATM    9  C13 UNL     1       7.104 -28.216 -11.425  1.00  0.00     0.007 C 
HETATM   10  C14 UNL     1       5.818 -27.776 -10.805  1.00  0.00     0.081 C 
HETATM   11  C15 UNL     1       4.674 -28.200 -11.663  1.00  0.00     0.156 C 
HETATM   12  O4  UNL     1       4.836 -29.242 -12.281  1.00  0.00    -0.295 OA
HETATM   13  C16 UNL     1       3.405 -27.479 -11.816  1.00  0.00     0.205 C 
ENDROOT
BRANCH   1  14
HETATM   14  C4  UNL     1       2.262 -28.228 -13.792  1.00  0.00     0.047 C 
BRANCH  14  15
HETATM   15  C3  UNL     1       0.992 -27.857 -14.526  1.00  0.00     0.193 C 
BRANCH  15  16
HETATM   16  C2  UNL     1      -0.178 -28.474 -13.925  1.00  0.00     0.148 C 
BRANCH  16  17
HETATM   17  N2  UNL     1      -0.500 -28.709 -12.611  1.00  0.00    -0.293 N 
HETATM   18  C1  UNL     1      -1.228 -29.733 -11.975  1.00  0.00     0.334 C 
HETATM   19  N1  UNL     1      -1.403 -29.685 -10.530  1.00  0.00    -0.040 NA
HETATM   20  O1  UNL     1      -1.759 -30.706 -12.501  1.00  0.00    -0.251 OA
ATOM     21  H2  UNL     1      -0.140 -28.003 -11.969  1.00  0.00     0.172 HD
ENDBRANCH  16  17
BRANCH  16  22
HETATM   22  O2  UNL     1      -1.062 -28.868 -14.801  1.00  0.00    -0.347 OA
ATOM     23  H2  UNL     1      -1.827 -29.306 -14.445  1.00  0.00     0.219 HD
ENDBRANCH  16  22
ENDBRANCH  15  16
BRANCH  15  24
HETATM   24  O3  UNL     1       1.135 -28.275 -15.833  1.00  0.00    -0.387 OA
ATOM     25  H3  UNL     1       0.815 -29.164 -15.930  1.00  0.00     0.210 HD
ENDBRANCH  15  24
ENDBRANCH  14  15
ENDBRANCH   1  14
BRANCH  13  26
HETATM   26  O5  UNL     1       2.338 -28.257 -11.306  1.00  0.00    -0.308 OA
BRANCH  26  27
HETATM   27  C17 UNL     1       1.776 -28.065 -10.057  1.00  0.00     0.261 C 
HETATM   28  O6  UNL     1       0.796 -27.299  -9.961  1.00  0.00    -0.265 OA
BRANCH  27  29
HETATM   29  C18 UNL     1       2.326 -28.757  -8.838  1.00  0.00     0.137 C 
BRANCH  29  30
HETATM   30  C19 UNL     1       2.747 -30.157  -9.223  1.00  0.00     0.211 C 
BRANCH  30  31
HETATM   31  N3  UNL     1       4.012 -30.423  -8.539  1.00  0.00    -0.155 N 
HETATM   32  O7  UNL     1       4.122 -30.309  -7.302  1.00  0.00    -0.537 OA
HETATM   33  O8  UNL     1       5.127 -30.810  -9.235  1.00  0.00    -0.537 OA
ENDBRANCH  30  31
ENDBRANCH  29  30
ENDBRANCH  27  29
ENDBRANCH  26  27
ENDBRANCH  13  26
TORSDOF 11
ENDMDL
MODEL 4
REMARK VINA RESULT: -8.527088954      1.853      2.311
REMARK  11 active torsions:
REMARK  status: ('A' for Active; 'I' for Inactive)
REMARK       I    between atoms: C1_2  and  N2_4 
REMARK    1  A    between atoms: N2_4  and  C2_6 
REMARK    2  A    between atoms: C2_6  and  O2_7 
REMARK    3  A    between atoms: C2_6  and  C3_9 
REMARK    4  A    between atoms: C3_9  and  O3_10 
REMARK    5  A    between atoms: C3_9  and  C4_12 
REMARK    6  A    between atoms: C4_12  and  C5_13 
REMARK    7  A    between atoms: C16_25  and  O5_26 
REMARK    8  A    between atoms: O5_26  and  C17_27 
REMARK    9  A    between atoms: C17_27  and  C18_29 
REMARK   10  A    between atoms: C18_29  and  C19_30 
REMARK   11  A    between atoms: C19_30  and  N3_31 
ROOT
HETATM    1  C5  UNL     1       3.685 -27.969 -12.566  1.00  0.00     0.025 C 
HETATM    2  C6  UNL     1       4.689 -27.325 -13.436  1.00  0.00     0.007 C 
HETATM    3  C7  UNL     1       4.248 -26.310 -14.439  1.00  0.00     0.000 C 
HETATM    4  C8  UNL     1       5.026 -25.013 -14.158  1.00  0.00     0.000 C 
HETATM    5  C9  UNL     1       6.383 -24.963 -14.698  1.00  0.00     0.000 C 
HETATM    6  C10 UNL     1       7.483 -25.717 -14.080  1.00  0.00     0.000 C 
HETATM    7  C11 UNL     1       8.028 -25.227 -12.785  1.00  0.00     0.000 C 
HETATM    8  C12 UNL     1       8.742 -26.210 -11.948  1.00  0.00     0.000 C 
HETATM    9  C13 UNL     1       8.124 -27.514 -11.671  1.00  0.00     0.007 C 
HETATM   10  C14 UNL     1       6.936 -27.522 -10.765  1.00  0.00     0.081 C 
HETATM   11  C15 UNL     1       5.853 -28.356 -11.360  1.00  0.00     0.156 C 
HETATM   12  O4  UNL     1       6.228 -29.303 -12.036  1.00  0.00    -0.295 OA
HETATM   13  C16 UNL     1       4.412 -28.130 -11.201  1.00  0.00     0.205 C 
ENDROOT
BRANCH   1  14
HETATM   14  C4  UNL     1       3.196 -29.320 -12.897  1.00  0.00     0.047 C 
BRANCH  14  15
HETATM   15  C3  UNL     1       1.698 -29.511 -12.981  1.00  0.00     0.193 C 
BRANCH  15  16
HETATM   16  C2  UNL     1       0.979 -28.287 -12.670  1.00  0.00     0.148 C 
BRANCH  16  17
HETATM   17  N2  UNL     1       0.782 -27.145 -13.405  1.00  0.00    -0.293 N 
HETATM   18  C1  UNL     1       0.606 -25.795 -13.043  1.00  0.00     0.334 C 
HETATM   19  N1  UNL     1       0.405 -24.802 -14.090  1.00  0.00    -0.040 NA
HETATM   20  O1  UNL     1       0.602 -25.322 -11.911  1.00  0.00    -0.251 OA
ATOM     21  H2  UNL     1       0.758 -27.305 -14.412  1.00  0.00     0.172 HD
ENDBRANCH  16  17
BRANCH  16  22
HETATM   22  O2  UNL     1       0.437 -28.294 -11.482  1.00  0.00    -0.347 OA
ATOM     23  H2  UNL     1       0.454 -29.128 -11.027  1.00  0.00     0.219 HD
ENDBRANCH  16  22
ENDBRANCH  15  16
BRANCH  15  24
HETATM   24  O3  UNL     1       1.358 -30.505 -12.085  1.00  0.00    -0.387 OA
ATOM     25  H3  UNL     1       1.124 -31.300 -12.550  1.00  0.00     0.210 HD
ENDBRANCH  15  24
ENDBRANCH  14  15
ENDBRANCH   1  14
BRANCH  13  26
HETATM   26  O5  UNL     1       3.825 -29.207 -10.493  1.00  0.00    -0.308 OA
BRANCH  26  27
HETATM   27  C17 UNL     1       3.046 -29.049  -9.361  1.00  0.00     0.261 C 
HETATM   28  O6  UNL     1       2.308 -28.045  -9.287  1.00  0.00    -0.265 OA
BRANCH  27  29
HETATM   29  C18 UNL     1       3.081 -30.055  -8.242  1.00  0.00     0.137 C 
BRANCH  29  30
HETATM   30  C19 UNL     1       1.664 -30.341  -7.801  1.00  0.00     0.211 C 
BRANCH  30  31
HETATM   31  N3  UNL     1       0.981 -30.957  -8.937  1.00  0.00    -0.155 N 
HETATM   32  O7  UNL     1       1.380 -32.028  -9.437  1.00  0.00    -0.537 OA
HETATM   33  O8  UNL     1      -0.128 -30.378  -9.498  1.00  0.00    -0.537 OA
ENDBRANCH  30  31
ENDBRANCH  29  30
ENDBRANCH  27  29
ENDBRANCH  26  27
ENDBRANCH  13  26
TORSDOF 11
ENDMDL
MODEL 5
REMARK VINA RESULT: -8.523391382      1.317      1.695
REMARK  11 active torsions:
REMARK  status: ('A' for Active; 'I' for Inactive)
REMARK       I    between atoms: C1_2  and  N2_4 
REMARK    1  A    between atoms: N2_4  and  C2_6 
REMARK    2  A    between atoms: C2_6  and  O2_7 
REMARK    3  A    between atoms: C2_6  and  C3_9 
REMARK    4  A    between atoms: C3_9  and  O3_10 
REMARK    5  A    between atoms: C3_9  and  C4_12 
REMARK    6  A    between atoms: C4_12  and  C5_13 
REMARK    7  A    between atoms: C16_25  and  O5_26 
REMARK    8  A    between atoms: O5_26  and  C17_27 
REMARK    9  A    between atoms: C17_27  and  C18_29 
REMARK   10  A    between atoms: C18_29  and  C19_30 
REMARK   11  A    between atoms: C19_30  and  N3_31 
ROOT
HETATM    1  C5  UNL     1       3.336 -27.425 -12.947  1.00  0.00     0.025 C 
HETATM    2  C6  UNL     1       4.591 -27.054 -13.630  1.00  0.00     0.007 C 
HETATM    3  C7  UNL     1       4.572 -25.978 -14.665  1.00  0.00     0.000 C 
HETATM    4  C8  UNL     1       5.583 -24.902 -14.233  1.00  0.00     0.000 C 
HETATM    5  C9  UNL     1       6.981 -25.187 -14.548  1.00  0.00     0.000 C 
HETATM    6  C10 UNL     1       7.755 -26.173 -13.782  1.00  0.00     0.000 C 
HETATM    7  C11 UNL     1       8.185 -25.809 -12.405  1.00  0.00     0.000 C 
HETATM    8  C12 UNL     1       8.500 -26.922 -11.488  1.00  0.00     0.000 C 
HETATM    9  C13 UNL     1       7.551 -28.035 -11.345  1.00  0.00     0.007 C 
HETATM   10  C14 UNL     1       6.267 -27.744 -10.641  1.00  0.00     0.081 C 
HETATM   11  C15 UNL     1       5.126 -28.303 -11.421  1.00  0.00     0.156 C 
HETATM   12  O4  UNL     1       5.367 -29.322 -12.051  1.00  0.00    -0.295 OA
HETATM   13  C16 UNL     1       3.774 -27.736 -11.487  1.00  0.00     0.205 C 
ENDROOT
BRANCH   1  14
HETATM   14  C4  UNL     1       2.597 -28.624 -13.384  1.00  0.00     0.047 C 
BRANCH  14  15
HETATM   15  C3  UNL     1       1.147 -28.440 -13.772  1.00  0.00     0.193 C 
BRANCH  15  16
HETATM   16  C2  UNL     1       1.009 -27.657 -14.989  1.00  0.00     0.148 C 
BRANCH  16  17
HETATM   17  N2  UNL     1       1.133 -26.309 -15.213  1.00  0.00    -0.293 N 
HETATM   18  C1  UNL     1       0.549 -25.182 -14.602  1.00  0.00     0.334 C 
HETATM   19  N1  UNL     1       0.890 -23.854 -15.095  1.00  0.00    -0.040 NA
HETATM   20  O1  UNL     1      -0.245 -25.169 -13.667  1.00  0.00    -0.251 OA
ATOM     21  H2  UNL     1       1.775 -26.077 -15.971  1.00  0.00     0.172 HD
ENDBRANCH  16  17
BRANCH  16  22
HETATM   22  O2  UNL     1       0.713 -28.379 -16.036  1.00  0.00    -0.347 OA
ATOM     23  H2  UNL     1      -0.125 -28.825 -16.004  1.00  0.00     0.219 HD
ENDBRANCH  16  22
ENDBRANCH  15  16
BRANCH  15  24
HETATM   24  O3  UNL     1       0.517 -27.804 -12.721  1.00  0.00    -0.387 OA
ATOM     25  H3  UNL     1       0.389 -28.409 -12.000  1.00  0.00     0.210 HD
ENDBRANCH  15  24
ENDBRANCH  14  15
ENDBRANCH   1  14
BRANCH  13  26
HETATM   26  O5  UNL     1       2.841 -28.629 -10.909  1.00  0.00    -0.308 OA
BRANCH  26  27
HETATM   27  C17 UNL     1       2.099 -28.339  -9.778  1.00  0.00     0.261 C 
HETATM   28  O6  UNL     1       1.275 -27.404  -9.836  1.00  0.00    -0.265 OA
BRANCH  27  29
HETATM   29  C18 UNL     1       2.274 -29.125  -8.506  1.00  0.00     0.137 C 
BRANCH  29  30
HETATM   30  C19 UNL     1       2.752 -30.516  -8.856  1.00  0.00     0.211 C 
BRANCH  30  31
HETATM   31  N3  UNL     1       4.131 -30.623  -8.383  1.00  0.00    -0.155 N 
HETATM   32  O7  UNL     1       5.051 -31.008  -9.132  1.00  0.00    -0.537 OA
HETATM   33  O8  UNL     1       4.465 -30.304  -7.092  1.00  0.00    -0.537 OA
ENDBRANCH  30  31
ENDBRANCH  29  30
ENDBRANCH  27  29
ENDBRANCH  26  27
ENDBRANCH  13  26
TORSDOF 11
ENDMDL
