MODEL 1
REMARK VINA RESULT: -8.415367473      0.000      0.000
REMARK  13 active torsions:
REMARK  status: ('A' for Active; 'I' for Inactive)
REMARK    1  A    between atoms: C10_10  and  C11_11 
REMARK    2  A    between atoms: C11_11  and  C13_13 
REMARK    3  A    between atoms: C13_13  and  C15_15 
REMARK    4  A    between atoms: C15_15  and  C16_16 
REMARK    5  A    between atoms: C16_16  and  C17_17 
REMARK    6  A    between atoms: C17_17  and  O1_18 
REMARK    7  A    between atoms: C17_17  and  C18_20 
REMARK    8  A    between atoms: C18_20  and  C20_22 
REMARK    9  A    between atoms: C20_22  and  O3_24 
REMARK   10  A    between atoms: C23_29  and  C24_30 
REMARK   11  A    between atoms: C24_30  and  O6_31 
REMARK   12  A    between atoms: C26_34  and  O7_35 
REMARK   13  A    between atoms: C27_37  and  O8_38 
ROOT
HETATM    1  C1  UNL     1      -5.460 112.025 272.921  1.00  0.00     0.017 C 
HETATM    2  C2  UNL     1      -5.214 110.852 272.426  1.00  0.00    -0.058 C 
HETATM    3  C3  UNL     1      -6.045 109.666 272.870  1.00  0.00     0.042 C 
HETATM    4  C4  UNL     1      -5.471 109.157 274.140  1.00  0.00     0.015 C 
HETATM    5  C5  UNL     1      -4.078 108.639 274.055  1.00  0.00    -0.006 C 
HETATM    6  C6  UNL     1      -3.946 107.184 273.830  1.00  0.00     0.006 C 
HETATM    7  C7  UNL     1      -4.846 106.311 274.704  1.00  0.00     0.013 C 
HETATM    8  C8  UNL     1      -6.229 106.770 274.658  1.00  0.00     0.003 C 
HETATM    9  C9  UNL     1      -6.688 106.721 273.184  1.00  0.00     0.019 C 
HETATM   10  C10 UNL     1      -7.310 106.206 275.437  1.00  0.00     0.145 C 
HETATM   11  O4  UNL     1      -8.020 107.383 275.930  1.00  0.00    -0.314 OA
HETATM   12  C22 UNL     1      -7.679 108.452 275.114  1.00  0.00     0.271 C 
HETATM   13  O5  UNL     1      -8.497 109.263 274.657  1.00  0.00    -0.264 OA
HETATM   14  C23 UNL     1      -6.246 108.288 275.021  1.00  0.00     0.083 C 
HETATM   15  C25 UNL     1      -3.132 109.420 273.195  1.00  0.00     0.039 C 
HETATM   16  C26 UNL     1      -3.355 109.428 271.739  1.00  0.00     0.151 C 
HETATM   17  C27 UNL     1      -4.089 110.759 271.420  1.00  0.00     0.175 C 
ENDROOT
BRANCH  10  18
HETATM   18  C11 UNL     1      -7.389 105.068 276.312  1.00  0.00     0.015 C 
HETATM   19  C12 UNL     1      -8.493 105.451 277.403  1.00  0.00     0.013 C 
BRANCH  18  20
HETATM   20  C13 UNL     1      -8.053 103.779 275.804  1.00  0.00    -0.012 C 
HETATM   21  C14 UNL     1      -8.804 103.812 274.558  1.00  0.00     0.010 C 
BRANCH  20  22
HETATM   22  C15 UNL     1      -7.009 102.670 275.773  1.00  0.00     0.007 C 
BRANCH  22  23
HETATM   23  C16 UNL     1      -6.089 102.837 274.624  1.00  0.00     0.033 C 
BRANCH  23  24
HETATM   24  C17 UNL     1      -4.658 102.490 274.825  1.00  0.00     0.131 C 
BRANCH  24  25
HETATM   25  O1  UNL     1      -4.456 101.690 275.966  1.00  0.00    -0.395 OA
ATOM     26  H1  UNL     1      -5.150 101.052 276.087  1.00  0.00     0.210 HD
ENDBRANCH  24  25
BRANCH  24  27
HETATM   27  C18 UNL     1      -3.836 102.043 273.695  1.00  0.00     0.110 C 
HETATM   28  C19 UNL     1      -2.553 101.321 273.995  1.00  0.00     0.023 C 
BRANCH  27  29
HETATM   29  C20 UNL     1      -3.431 103.255 272.884  1.00  0.00     0.264 C 
HETATM   30  O2  UNL     1      -2.474 103.965 273.273  1.00  0.00    -0.265 OA
BRANCH  29  31
HETATM   31  O3  UNL     1      -4.089 103.597 271.731  1.00  0.00    -0.326 OA
HETATM   32  C21 UNL     1      -3.920 104.823 271.058  1.00  0.00     0.213 C 
ENDBRANCH  29  31
ENDBRANCH  27  29
ENDBRANCH  24  27
ENDBRANCH  23  24
ENDBRANCH  22  23
ENDBRANCH  20  22
ENDBRANCH  18  20
ENDBRANCH  10  18
BRANCH  14  33
HETATM   33  C24 UNL     1      -5.723 108.514 276.439  1.00  0.00     0.185 C 
BRANCH  33  34
HETATM   34  O6  UNL     1      -6.607 109.210 277.258  1.00  0.00    -0.400 OA
ATOM     35  H6  UNL     1      -6.825 108.752 278.062  1.00  0.00     0.209 HD
ENDBRANCH  33  34
ENDBRANCH  14  33
BRANCH  16  36
HETATM   36  O7  UNL     1      -2.125 109.531 271.075  1.00  0.00    -0.393 OA
ATOM     37  H7  UNL     1      -2.231 109.277 270.166  1.00  0.00     0.210 HD
ENDBRANCH  16  36
BRANCH  17  38
HETATM   38  O8  UNL     1      -4.653 110.573 270.162  1.00  0.00    -0.389 OA
ATOM     39  H8  UNL     1      -5.420 111.130 270.099  1.00  0.00     0.210 HD
ENDBRANCH  17  38
TORSDOF 13
ENDMDL
MODEL 2
REMARK VINA RESULT: -8.348635878      1.642      2.561
REMARK  13 active torsions:
REMARK  status: ('A' for Active; 'I' for Inactive)
REMARK    1  A    between atoms: C10_10  and  C11_11 
REMARK    2  A    between atoms: C11_11  and  C13_13 
REMARK    3  A    between atoms: C13_13  and  C15_15 
REMARK    4  A    between atoms: C15_15  and  C16_16 
REMARK    5  A    between atoms: C16_16  and  C17_17 
REMARK    6  A    between atoms: C17_17  and  O1_18 
REMARK    7  A    between atoms: C17_17  and  C18_20 
REMARK    8  A    between atoms: C18_20  and  C20_22 
REMARK    9  A    between atoms: C20_22  and  O3_24 
REMARK   10  A    between atoms: C23_29  and  C24_30 
REMARK   11  A    between atoms: C24_30  and  O6_31 
REMARK   12  A    between atoms: C26_34  and  O7_35 
REMARK   13  A    between atoms: C27_37  and  O8_38 
ROOT
HETATM    1  C1  UNL     1      -4.446 111.227 270.471  1.00  0.00     0.017 C 
HETATM    2  C2  UNL     1      -3.646 110.339 270.974  1.00  0.00    -0.058 C 
HETATM    3  C3  UNL     1      -4.208 109.019 271.460  1.00  0.00     0.042 C 
HETATM    4  C4  UNL     1      -4.715 109.220 272.839  1.00  0.00     0.015 C 
HETATM    5  C5  UNL     1      -3.691 109.597 273.853  1.00  0.00    -0.006 C 
HETATM    6  C6  UNL     1      -3.101 108.479 274.617  1.00  0.00     0.006 C 
HETATM    7  C7  UNL     1      -4.107 107.458 275.149  1.00  0.00     0.013 C 
HETATM    8  C8  UNL     1      -5.010 107.012 274.095  1.00  0.00     0.003 C 
HETATM    9  C9  UNL     1      -4.148 106.394 272.972  1.00  0.00     0.019 C 
HETATM   10  C10 UNL     1      -6.124 106.110 274.293  1.00  0.00     0.145 C 
HETATM   11  O4  UNL     1      -7.202 106.734 273.531  1.00  0.00    -0.314 OA
HETATM   12  C22 UNL     1      -6.623 107.598 272.614  1.00  0.00     0.271 C 
HETATM   13  O5  UNL     1      -6.955 107.668 271.422  1.00  0.00    -0.264 OA
HETATM   14  C23 UNL     1      -5.652 108.276 273.442  1.00  0.00     0.083 C 
HETATM   15  C25 UNL     1      -2.648 110.575 273.407  1.00  0.00     0.039 C 
HETATM   16  C26 UNL     1      -1.671 110.142 272.393  1.00  0.00     0.151 C 
HETATM   17  C27 UNL     1      -2.179 110.700 271.036  1.00  0.00     0.175 C 
ENDROOT
BRANCH  10  18
HETATM   18  C11 UNL     1      -6.575 105.354 275.430  1.00  0.00     0.015 C 
HETATM   19  C12 UNL     1      -7.863 106.133 275.970  1.00  0.00     0.013 C 
BRANCH  18  20
HETATM   20  C13 UNL     1      -7.249 103.992 275.203  1.00  0.00    -0.012 C 
HETATM   21  C14 UNL     1      -8.701 103.914 275.191  1.00  0.00     0.010 C 
BRANCH  20  22
HETATM   22  C15 UNL     1      -6.665 103.362 273.945  1.00  0.00     0.007 C 
BRANCH  22  23
HETATM   23  C16 UNL     1      -5.310 102.820 274.202  1.00  0.00     0.033 C 
BRANCH  23  24
HETATM   24  C17 UNL     1      -4.468 102.473 273.027  1.00  0.00     0.131 C 
BRANCH  24  25
HETATM   25  O1  UNL     1      -5.089 102.802 271.807  1.00  0.00    -0.395 OA
ATOM     26  H1  UNL     1      -4.464 103.067 271.143  1.00  0.00     0.210 HD
ENDBRANCH  24  25
BRANCH  24  27
HETATM   27  C18 UNL     1      -3.038 102.802 273.014  1.00  0.00     0.110 C 
HETATM   28  C19 UNL     1      -2.399 103.132 271.695  1.00  0.00     0.023 C 
BRANCH  27  29
HETATM   29  C20 UNL     1      -2.266 101.614 273.547  1.00  0.00     0.264 C 
HETATM   30  O2  UNL     1      -2.774 100.901 274.444  1.00  0.00    -0.265 OA
BRANCH  29  31
HETATM   31  O3  UNL     1      -1.020 101.300 273.070  1.00  0.00    -0.326 OA
HETATM   32  C21 UNL     1      -0.150 100.375 273.682  1.00  0.00     0.213 C 
ENDBRANCH  29  31
ENDBRANCH  27  29
ENDBRANCH  24  27
ENDBRANCH  23  24
ENDBRANCH  22  23
ENDBRANCH  20  22
ENDBRANCH  18  20
ENDBRANCH  10  18
BRANCH  14  33
HETATM   33  C24 UNL     1      -6.474 109.059 274.466  1.00  0.00     0.185 C 
BRANCH  33  34
HETATM   34  O6  UNL     1      -7.770 109.342 274.046  1.00  0.00    -0.400 OA
ATOM     35  H6  UNL     1      -8.415 108.710 274.342  1.00  0.00     0.209 HD
ENDBRANCH  33  34
ENDBRANCH  14  33
BRANCH  16  36
HETATM   36  O7  UNL     1      -0.448 110.792 272.611  1.00  0.00    -0.393 OA
ATOM     37  H7  UNL     1       0.201 110.160 272.898  1.00  0.00     0.210 HD
ENDBRANCH  16  36
BRANCH  17  38
HETATM   38  O8  UNL     1      -1.513 109.959 270.064  1.00  0.00    -0.389 OA
ATOM     39  H8  UNL     1      -0.984 109.305 270.506  1.00  0.00     0.210 HD
ENDBRANCH  17  38
TORSDOF 13
ENDMDL
MODEL 3
REMARK VINA RESULT: -8.335337958      0.937      1.744
REMARK  13 active torsions:
REMARK  status: ('A' for Active; 'I' for Inactive)
REMARK    1  A    between atoms: C10_10  and  C11_11 
REMARK    2  A    between atoms: C11_11  and  C13_13 
REMARK    3  A    between atoms: C13_13  and  C15_15 
REMARK    4  A    between atoms: C15_15  and  C16_16 
REMARK    5  A    between atoms: C16_16  and  C17_17 
REMARK    6  A    between atoms: C17_17  and  O1_18 
REMARK    7  A    between atoms: C17_17  and  C18_20 
REMARK    8  A    between atoms: C18_20  and  C20_22 
REMARK    9  A    between atoms: C20_22  and  O3_24 
REMARK   10  A    between atoms: C23_29  and  C24_30 
REMARK   11  A    between atoms: C24_30  and  O6_31 
REMARK   12  A    between atoms: C26_34  and  O7_35 
REMARK   13  A    between atoms: C27_37  and  O8_38 
ROOT
HETATM    1  C1  UNL     1      -5.172 112.135 272.982  1.00  0.00     0.017 C 
HETATM    2  C2  UNL     1      -4.945 111.006 272.387  1.00  0.00    -0.058 C 
HETATM    3  C3  UNL     1      -5.783 109.795 272.741  1.00  0.00     0.042 C 
HETATM    4  C4  UNL     1      -5.199 109.177 273.957  1.00  0.00     0.015 C 
HETATM    5  C5  UNL     1      -3.812 108.654 273.810  1.00  0.00    -0.006 C 
HETATM    6  C6  UNL     1      -3.698 107.222 273.462  1.00  0.00     0.006 C 
HETATM    7  C7  UNL     1      -4.596 106.287 274.273  1.00  0.00     0.013 C 
HETATM    8  C8  UNL     1      -5.975 106.762 274.284  1.00  0.00     0.003 C 
HETATM    9  C9  UNL     1      -6.453 106.841 272.817  1.00  0.00     0.019 C 
HETATM   10  C10 UNL     1      -7.052 106.145 275.027  1.00  0.00     0.145 C 
HETATM   11  O4  UNL     1      -7.742 107.283 275.626  1.00  0.00    -0.314 OA
HETATM   12  C22 UNL     1      -7.401 108.413 274.899  1.00  0.00     0.271 C 
HETATM   13  O5  UNL     1      -8.216 109.267 274.522  1.00  0.00    -0.264 OA
HETATM   14  C23 UNL     1      -5.971 108.244 274.772  1.00  0.00     0.083 C 
HETATM   15  C25 UNL     1      -2.869 109.495 273.005  1.00  0.00     0.039 C 
HETATM   16  C26 UNL     1      -3.111 109.627 271.558  1.00  0.00     0.151 C 
HETATM   17  C27 UNL     1      -3.834 110.987 271.362  1.00  0.00     0.175 C 
ENDROOT
BRANCH  10  18
HETATM   18  C11 UNL     1      -7.131 104.938 275.805  1.00  0.00     0.015 C 
HETATM   19  C12 UNL     1      -8.235 105.230 276.925  1.00  0.00     0.013 C 
BRANCH  18  20
HETATM   20  C13 UNL     1      -7.797 103.696 275.192  1.00  0.00    -0.012 C 
HETATM   21  C14 UNL     1      -9.228 103.714 274.932  1.00  0.00     0.010 C 
BRANCH  20  22
HETATM   22  C15 UNL     1      -7.027 103.298 273.939  1.00  0.00     0.007 C 
BRANCH  22  23
HETATM   23  C16 UNL     1      -5.657 102.848 274.277  1.00  0.00     0.033 C 
BRANCH  23  24
HETATM   24  C17 UNL     1      -4.735 102.532 273.154  1.00  0.00     0.131 C 
BRANCH  24  25
HETATM   25  O1  UNL     1      -5.299 102.826 271.899  1.00  0.00    -0.395 OA
ATOM     26  H1  UNL     1      -4.682 102.698 271.187  1.00  0.00     0.210 HD
ENDBRANCH  24  25
BRANCH  24  27
HETATM   27  C18 UNL     1      -3.322 102.923 273.220  1.00  0.00     0.110 C 
HETATM   28  C19 UNL     1      -2.678 103.461 271.975  1.00  0.00     0.023 C 
BRANCH  27  29
HETATM   29  C20 UNL     1      -2.502 101.708 273.601  1.00  0.00     0.264 C 
HETATM   30  O2  UNL     1      -2.960 100.895 274.437  1.00  0.00    -0.265 OA
BRANCH  29  31
HETATM   31  O3  UNL     1      -1.269 101.477 273.051  1.00  0.00    -0.326 OA
HETATM   32  C21 UNL     1      -0.320 100.583 273.586  1.00  0.00     0.213 C 
ENDBRANCH  29  31
ENDBRANCH  27  29
ENDBRANCH  24  27
ENDBRANCH  23  24
ENDBRANCH  22  23
ENDBRANCH  20  22
ENDBRANCH  18  20
ENDBRANCH  10  18
BRANCH  14  33
HETATM   33  C24 UNL     1      -5.428 108.345 276.198  1.00  0.00     0.185 C 
BRANCH  33  34
HETATM   34  O6  UNL     1      -6.091 109.281 276.985  1.00  0.00    -0.400 OA
ATOM     35  H6  UNL     1      -6.976 109.026 277.220  1.00  0.00     0.209 HD
ENDBRANCH  33  34
ENDBRANCH  14  33
BRANCH  16  36
HETATM   36  O7  UNL     1      -1.887 109.774 270.889  1.00  0.00    -0.393 OA
ATOM     37  H7  UNL     1      -1.221 109.258 271.328  1.00  0.00     0.210 HD
ENDBRANCH  16  36
BRANCH  17  38
HETATM   38  O8  UNL     1      -4.416 110.912 270.100  1.00  0.00    -0.389 OA
ATOM     39  H8  UNL     1      -3.723 110.773 269.465  1.00  0.00     0.210 HD
ENDBRANCH  17  38
TORSDOF 13
ENDMDL
MODEL 4
REMARK VINA RESULT: -8.165718751      1.755      5.034
REMARK  13 active torsions:
REMARK  status: ('A' for Active; 'I' for Inactive)
REMARK    1  A    between atoms: C10_10  and  C11_11 
REMARK    2  A    between atoms: C11_11  and  C13_13 
REMARK    3  A    between atoms: C13_13  and  C15_15 
REMARK    4  A    between atoms: C15_15  and  C16_16 
REMARK    5  A    between atoms: C16_16  and  C17_17 
REMARK    6  A    between atoms: C17_17  and  O1_18 
REMARK    7  A    between atoms: C17_17  and  C18_20 
REMARK    8  A    between atoms: C18_20  and  C20_22 
REMARK    9  A    between atoms: C20_22  and  O3_24 
REMARK   10  A    between atoms: C23_29  and  C24_30 
REMARK   11  A    between atoms: C24_30  and  O6_31 
REMARK   12  A    between atoms: C26_34  and  O7_35 
REMARK   13  A    between atoms: C27_37  and  O8_38 
ROOT
HETATM    1  C1  UNL     1      -4.943 111.434 274.405  1.00  0.00     0.017 C 
HETATM    2  C2  UNL     1      -5.744 110.496 274.805  1.00  0.00    -0.058 C 
HETATM    3  C3  UNL     1      -5.239 109.071 274.891  1.00  0.00     0.042 C 
HETATM    4  C4  UNL     1      -5.343 108.469 273.540  1.00  0.00     0.015 C 
HETATM    5  C5  UNL     1      -6.723 108.354 272.990  1.00  0.00    -0.006 C 
HETATM    6  C6  UNL     1      -7.403 107.063 273.226  1.00  0.00     0.006 C 
HETATM    7  C7  UNL     1      -6.553 105.824 272.945  1.00  0.00     0.013 C 
HETATM    8  C8  UNL     1      -5.258 105.913 273.609  1.00  0.00     0.003 C 
HETATM    9  C9  UNL     1      -5.520 106.063 275.124  1.00  0.00     0.019 C 
HETATM   10  C10 UNL     1      -4.196 104.940 273.477  1.00  0.00     0.145 C 
HETATM   11  O4  UNL     1      -3.005 105.763 273.299  1.00  0.00    -0.314 OA
HETATM   12  C22 UNL     1      -3.294 107.031 273.779  1.00  0.00     0.271 C 
HETATM   13  O5  UNL     1      -2.537 107.684 274.512  1.00  0.00    -0.264 OA
HETATM   14  C23 UNL     1      -4.595 107.263 273.193  1.00  0.00     0.083 C 
HETATM   15  C25 UNL     1      -7.634 109.515 273.243  1.00  0.00     0.039 C 
HETATM   16  C26 UNL     1      -8.068 109.775 274.626  1.00  0.00     0.151 C 
HETATM   17  C27 UNL     1      -7.154 110.911 275.161  1.00  0.00     0.175 C 
ENDROOT
BRANCH  10  18
HETATM   18  C11 UNL     1      -4.125 103.660 272.825  1.00  0.00     0.015 C 
HETATM   19  C12 UNL     1      -2.779 103.700 271.963  1.00  0.00     0.013 C 
BRANCH  18  20
HETATM   20  C13 UNL     1      -3.787 102.413 273.658  1.00  0.00    -0.012 C 
HETATM   21  C14 UNL     1      -2.453 101.842 273.569  1.00  0.00     0.010 C 
BRANCH  20  22
HETATM   22  C15 UNL     1      -4.163 102.681 275.110  1.00  0.00     0.007 C 
BRANCH  22  23
HETATM   23  C16 UNL     1      -5.466 102.063 275.445  1.00  0.00     0.033 C 
BRANCH  23  24
HETATM   24  C17 UNL     1      -6.683 102.912 275.341  1.00  0.00     0.131 C 
BRANCH  24  25
HETATM   25  O1  UNL     1      -7.351 102.742 274.114  1.00  0.00    -0.395 OA
ATOM     26  H1  UNL     1      -7.889 101.958 274.101  1.00  0.00     0.210 HD
ENDBRANCH  24  25
BRANCH  24  27
HETATM   27  C18 UNL     1      -7.624 103.003 276.463  1.00  0.00     0.110 C 
HETATM   28  C19 UNL     1      -8.309 101.746 276.917  1.00  0.00     0.023 C 
BRANCH  27  29
HETATM   29  C20 UNL     1      -8.741 103.951 276.080  1.00  0.00     0.264 C 
HETATM   30  O2  UNL     1      -9.797 103.489 275.588  1.00  0.00    -0.265 OA
BRANCH  29  31
HETATM   31  O3  UNL     1      -8.623 105.304 276.258  1.00  0.00    -0.326 OA
HETATM   32  C21 UNL     1      -8.472 105.927 277.513  1.00  0.00     0.213 C 
ENDBRANCH  29  31
ENDBRANCH  27  29
ENDBRANCH  24  27
ENDBRANCH  23  24
ENDBRANCH  22  23
ENDBRANCH  20  22
ENDBRANCH  18  20
ENDBRANCH  10  18
BRANCH  14  33
HETATM   33  C24 UNL     1      -4.353 107.309 271.685  1.00  0.00     0.185 C 
BRANCH  33  34
HETATM   34  O6  UNL     1      -3.300 108.136 271.310  1.00  0.00    -0.400 OA
ATOM     35  H6  UNL     1      -3.573 109.004 271.039  1.00  0.00     0.209 HD
ENDBRANCH  33  34
ENDBRANCH  14  33
BRANCH  16  36
HETATM   36  O7  UNL     1      -9.357 110.328 274.619  1.00  0.00    -0.393 OA
ATOM     37  H7  UNL     1      -9.877 109.930 275.307  1.00  0.00     0.210 HD
ENDBRANCH  16  36
BRANCH  17  38
HETATM   38  O8  UNL     1      -7.279 110.858 276.547  1.00  0.00    -0.389 OA
ATOM     39  H8  UNL     1      -6.747 111.553 276.915  1.00  0.00     0.210 HD
ENDBRANCH  17  38
TORSDOF 13
ENDMDL
MODEL 5
REMARK VINA RESULT: -8.111262020      2.217      6.582
REMARK  13 active torsions:
REMARK  status: ('A' for Active; 'I' for Inactive)
REMARK    1  A    between atoms: C10_10  and  C11_11 
REMARK    2  A    between atoms: C11_11  and  C13_13 
REMARK    3  A    between atoms: C13_13  and  C15_15 
REMARK    4  A    between atoms: C15_15  and  C16_16 
REMARK    5  A    between atoms: C16_16  and  C17_17 
REMARK    6  A    between atoms: C17_17  and  O1_18 
REMARK    7  A    between atoms: C17_17  and  C18_20 
REMARK    8  A    between atoms: C18_20  and  C20_22 
REMARK    9  A    between atoms: C20_22  and  O3_24 
REMARK   10  A    between atoms: C23_29  and  C24_30 
REMARK   11  A    between atoms: C24_30  and  O6_31 
REMARK   12  A    between atoms: C26_34  and  O7_35 
REMARK   13  A    between atoms: C27_37  and  O8_38 
ROOT
HETATM    1  C1  UNL     1      -2.799 104.258 271.705  1.00  0.00     0.017 C 
HETATM    2  C2  UNL     1      -4.028 104.189 272.112  1.00  0.00    -0.058 C 
HETATM    3  C3  UNL     1      -4.810 105.465 272.344  1.00  0.00     0.042 C 
HETATM    4  C4  UNL     1      -4.477 105.961 273.702  1.00  0.00     0.015 C 
HETATM    5  C5  UNL     1      -4.863 105.065 274.828  1.00  0.00    -0.006 C 
HETATM    6  C6  UNL     1      -6.179 105.334 275.442  1.00  0.00     0.006 C 
HETATM    7  C7  UNL     1      -6.465 106.806 275.739  1.00  0.00     0.013 C 
HETATM    8  C8  UNL     1      -6.202 107.638 274.571  1.00  0.00     0.003 C 
HETATM    9  C9  UNL     1      -7.101 107.129 273.423  1.00  0.00     0.019 C 
HETATM   10  C10 UNL     1      -6.298 109.082 274.550  1.00  0.00     0.145 C 
HETATM   11  O4  UNL     1      -5.097 109.489 273.827  1.00  0.00    -0.314 OA
HETATM   12  C22 UNL     1      -4.653 108.396 273.100  1.00  0.00     0.271 C 
HETATM   13  O5  UNL     1      -4.294 108.451 271.914  1.00  0.00    -0.264 OA
HETATM   14  C23 UNL     1      -4.748 107.344 274.086  1.00  0.00     0.083 C 
HETATM   15  C25 UNL     1      -4.641 103.599 274.612  1.00  0.00     0.039 C 
HETATM   16  C26 UNL     1      -5.468 102.908 273.608  1.00  0.00     0.151 C 
HETATM   17  C27 UNL     1      -4.598 102.804 272.326  1.00  0.00     0.175 C 
ENDROOT
BRANCH  10  18
HETATM   18  C11 UNL     1      -6.749 110.041 275.521  1.00  0.00     0.015 C 
HETATM   19  C12 UNL     1      -5.977 111.395 275.166  1.00  0.00     0.013 C 
BRANCH  18  20
HETATM   20  C13 UNL     1      -8.178 110.597 275.416  1.00  0.00    -0.012 C 
HETATM   21  C14 UNL     1      -8.646 111.113 274.140  1.00  0.00     0.010 C 
BRANCH  20  22
HETATM   22  C15 UNL     1      -9.147 109.557 275.964  1.00  0.00     0.007 C 
BRANCH  22  23
HETATM   23  C16 UNL     1      -8.840 109.235 277.377  1.00  0.00     0.033 C 
BRANCH  23  24
HETATM   24  C17 UNL     1      -9.072 107.841 277.837  1.00  0.00     0.131 C 
BRANCH  24  25
HETATM   25  O1  UNL     1      -8.252 107.493 278.928  1.00  0.00    -0.395 OA
ATOM     26  H1  UNL     1      -7.550 106.903 278.679  1.00  0.00     0.210 HD
ENDBRANCH  24  25
BRANCH  24  27
HETATM   27  C18 UNL     1     -10.437 107.329 277.999  1.00  0.00     0.110 C 
HETATM   28  C19 UNL     1     -11.103 107.498 279.335  1.00  0.00     0.023 C 
BRANCH  27  29
HETATM   29  C20 UNL     1     -10.426 105.837 277.744  1.00  0.00     0.264 C 
HETATM   30  O2  UNL     1     -11.445 105.159 278.015  1.00  0.00    -0.265 OA
BRANCH  29  31
HETATM   31  O3  UNL     1      -9.325 105.208 277.224  1.00  0.00    -0.326 OA
HETATM   32  C21 UNL     1      -8.874 103.937 277.633  1.00  0.00     0.213 C 
ENDBRANCH  29  31
ENDBRANCH  27  29
ENDBRANCH  24  27
ENDBRANCH  23  24
ENDBRANCH  22  23
ENDBRANCH  20  22
ENDBRANCH  18  20
ENDBRANCH  10  18
BRANCH  14  33
HETATM   33  C24 UNL     1      -3.729 107.713 275.165  1.00  0.00     0.185 C 
BRANCH  33  34
HETATM   34  O6  UNL     1      -2.656 108.459 274.690  1.00  0.00    -0.400 OA
ATOM     35  H6  UNL     1      -2.910 109.272 274.270  1.00  0.00     0.209 HD
ENDBRANCH  33  34
ENDBRANCH  14  33
BRANCH  16  36
HETATM   36  O7  UNL     1      -5.677 101.579 274.005  1.00  0.00    -0.393 OA
ATOM     37  H7  UNL     1      -6.515 101.508 274.448  1.00  0.00     0.210 HD
ENDBRANCH  16  36
BRANCH  17  38
HETATM   38  O8  UNL     1      -5.496 102.546 271.294  1.00  0.00    -0.389 OA
ATOM     39  H8  UNL     1      -5.518 101.607 271.153  1.00  0.00     0.210 HD
ENDBRANCH  17  38
TORSDOF 13
ENDMDL
