MODEL 1
REMARK VINA RESULT: -8.496986204      0.000      0.000
REMARK  11 active torsions:
REMARK  status: ('A' for Active; 'I' for Inactive)
REMARK    1  A    between atoms: O1_2  and  C2_3 
REMARK    2  A    between atoms: C2_3  and  C3_4 
REMARK    3  A    between atoms: C2_3  and  C25_36 
REMARK    4  A    between atoms: C3_4  and  C4_5 
REMARK    5  A    between atoms: C5_6  and  C6_7 
REMARK    6  A    between atoms: C6_7  and  C7_8 
REMARK    7  A    between atoms: C7_8  and  O2_9 
REMARK    8  A    between atoms: C7_8  and  C8_11 
REMARK    9  A    between atoms: C8_11  and  O3_12 
REMARK   10  A    between atoms: C8_11  and  C9_14 
REMARK   11  A    between atoms: C18_23  and  S1_24 
ROOT
HETATM    1  C9  UNL     1      -6.392 107.729 274.048  1.00  0.00     0.025 C 
HETATM    2  C10 UNL     1      -7.290 107.345 272.924  1.00  0.00     0.008 C 
HETATM    3  C11 UNL     1      -6.672 107.967 271.661  1.00  0.00     0.006 C 
HETATM    4  C12 UNL     1      -5.567 108.819 272.227  1.00  0.00     0.001 C 
HETATM    5  C13 UNL     1      -4.494 109.186 271.283  1.00  0.00     0.027 C 
HETATM    6  C14 UNL     1      -4.938 110.473 270.567  1.00  0.00     0.008 C 
HETATM    7  C15 UNL     1      -4.756 111.554 271.592  1.00  0.00     0.007 C 
HETATM    8  C16 UNL     1      -3.648 111.061 272.490  1.00  0.00     0.025 C 
HETATM    9  C17 UNL     1      -2.422 111.896 272.220  1.00  0.00     0.056 C 
HETATM   10  C18 UNL     1      -1.828 111.212 271.021  1.00  0.00     0.307 C 
HETATM   11  N1  UNL     1      -2.135 109.823 271.134  1.00  0.00    -0.048 N 
ATOM     12  H11 UNL     1      -1.336 109.266 271.437  1.00  0.00     0.279 HD
ATOM     13  H12 UNL     1      -2.277 109.375 270.229  1.00  0.00     0.279 HD
HETATM   14  C20 UNL     1      -3.282 109.686 272.015  1.00  0.00     0.135 C 
HETATM   15  C21 UNL     1      -2.858 108.820 273.165  1.00  0.00     0.040 C 
HETATM   16  C22 UNL     1      -4.019 108.558 274.124  1.00  0.00     0.012 C 
HETATM   17  C23 UNL     1      -5.078 107.863 273.352  1.00  0.00    -0.034 C 
HETATM   18  C24 UNL     1      -4.564 106.605 272.707  1.00  0.00     0.016 C 
ENDROOT
BRANCH   1  19
HETATM   19  C8  UNL     1      -6.447 107.008 275.306  1.00  0.00     0.152 C 
BRANCH  19  20
HETATM   20  C7  UNL     1      -7.510 106.043 275.599  1.00  0.00     0.150 C 
BRANCH  20  21
HETATM   21  C6  UNL     1      -6.994 104.633 275.566  1.00  0.00     0.061 C 
BRANCH  21  22
HETATM   22  C5  UNL     1      -6.992 103.939 274.289  1.00  0.00    -0.028 C 
HETATM   23  C4  UNL     1      -5.929 103.394 273.727  1.00  0.00    -0.027 C 
BRANCH  23  24
HETATM   24  C3  UNL     1      -4.567 103.392 274.291  1.00  0.00     0.070 C 
BRANCH  24  25
HETATM   25  C2  UNL     1      -3.573 102.742 273.316  1.00  0.00     0.224 C 
BRANCH  25  26
HETATM   26  O1  UNL     1      -2.570 103.624 272.969  1.00  0.00    -0.380 OA
HETATM   27  C1  UNL     1      -2.581 103.748 271.582  1.00  0.00     0.202 C 
ENDBRANCH  25  26
BRANCH  25  28
HETATM   28  C25 UNL     1      -2.961 101.600 274.046  1.00  0.00     0.203 C 
HETATM   29  O6  UNL     1      -3.685 100.925 274.830  1.00  0.00    -0.646 OA
HETATM   30  O7  UNL     1      -1.639 101.251 273.903  1.00  0.00    -0.646 OA
ENDBRANCH  25  28
ENDBRANCH  24  25
ENDBRANCH  23  24
ENDBRANCH  21  22
ENDBRANCH  20  21
BRANCH  20  31
HETATM   31  O2  UNL     1      -8.146 106.336 276.818  1.00  0.00    -0.393 OA
ATOM     32  H2  UNL     1      -8.173 107.271 276.984  1.00  0.00     0.210 HD
ENDBRANCH  20  31
ENDBRANCH  19  20
BRANCH  19  33
HETATM   33  O3  UNL     1      -6.372 107.928 276.389  1.00  0.00    -0.393 OA
ATOM     34  H3  UNL     1      -5.471 107.961 276.688  1.00  0.00     0.210 HD
ENDBRANCH  19  33
ENDBRANCH   1  19
BRANCH  10  35
HETATM   35  S1  UNL     1      -0.079 111.533 271.034  1.00  0.00     0.170 S 
HETATM   36  C19 UNL     1       0.520 111.111 269.391  1.00  0.00     0.163 C 
HETATM   37  O4  UNL     1       0.237 112.965 271.275  1.00  0.00    -0.226 OA
HETATM   38  O5  UNL     1       0.548 110.660 272.071  1.00  0.00    -0.226 OA
ENDBRANCH  10  35
TORSDOF 11
ENDMDL
MODEL 2
REMARK VINA RESULT: -8.419376164      3.381      8.613
REMARK  11 active torsions:
REMARK  status: ('A' for Active; 'I' for Inactive)
REMARK    1  A    between atoms: O1_2  and  C2_3 
REMARK    2  A    between atoms: C2_3  and  C3_4 
REMARK    3  A    between atoms: C2_3  and  C25_36 
REMARK    4  A    between atoms: C3_4  and  C4_5 
REMARK    5  A    between atoms: C5_6  and  C6_7 
REMARK    6  A    between atoms: C6_7  and  C7_8 
REMARK    7  A    between atoms: C7_8  and  O2_9 
REMARK    8  A    between atoms: C7_8  and  C8_11 
REMARK    9  A    between atoms: C8_11  and  O3_12 
REMARK   10  A    between atoms: C8_11  and  C9_14 
REMARK   11  A    between atoms: C18_23  and  S1_24 
ROOT
HETATM    1  C9  UNL     1      -5.232 109.634 272.279  1.00  0.00     0.025 C 
HETATM    2  C10 UNL     1      -4.797 110.458 273.440  1.00  0.00     0.008 C 
HETATM    3  C11 UNL     1      -4.711 109.491 274.633  1.00  0.00     0.006 C 
HETATM    4  C12 UNL     1      -5.300 108.226 274.067  1.00  0.00     0.001 C 
HETATM    5  C13 UNL     1      -4.953 106.983 274.782  1.00  0.00     0.027 C 
HETATM    6  C14 UNL     1      -5.985 106.801 275.908  1.00  0.00     0.008 C 
HETATM    7  C15 UNL     1      -7.232 106.351 275.205  1.00  0.00     0.007 C 
HETATM    8  C16 UNL     1      -6.749 105.644 273.963  1.00  0.00     0.025 C 
HETATM    9  C17 UNL     1      -6.996 104.167 274.140  1.00  0.00     0.056 C 
HETATM   10  C18 UNL     1      -5.789 103.733 274.923  1.00  0.00     0.307 C 
HETATM   11  N1  UNL     1      -4.702 104.563 274.515  1.00  0.00    -0.048 N 
ATOM     12  H11 UNL     1      -4.057 104.086 273.884  1.00  0.00     0.279 HD
ATOM     13  H12 UNL     1      -4.041 104.749 275.269  1.00  0.00     0.279 HD
HETATM   14  C20 UNL     1      -5.255 105.777 273.940  1.00  0.00     0.135 C 
HETATM   15  C21 UNL     1      -4.750 105.871 272.529  1.00  0.00     0.040 C 
HETATM   16  C22 UNL     1      -5.223 107.156 271.851  1.00  0.00     0.012 C 
HETATM   17  C23 UNL     1      -4.686 108.292 272.640  1.00  0.00    -0.034 C 
HETATM   18  C24 UNL     1      -3.189 108.223 272.770  1.00  0.00     0.016 C 
ENDROOT
BRANCH   1  19
HETATM   19  C8  UNL     1      -5.047 110.124 270.925  1.00  0.00     0.152 C 
BRANCH  19  20
HETATM   20  C7  UNL     1      -4.342 111.378 270.646  1.00  0.00     0.150 C 
BRANCH  20  21
HETATM   21  C6  UNL     1      -3.123 111.145 269.800  1.00  0.00     0.061 C 
BRANCH  21  22
HETATM   22  C5  UNL     1      -1.866 110.874 270.477  1.00  0.00    -0.028 C 
HETATM   23  C4  UNL     1      -0.735 110.560 269.874  1.00  0.00    -0.027 C 
BRANCH  23  24
HETATM   24  C3  UNL     1      -0.548 110.428 268.417  1.00  0.00     0.070 C 
BRANCH  24  25
HETATM   25  C2  UNL     1       0.559 111.373 267.922  1.00  0.00     0.224 C 
BRANCH  25  26
HETATM   26  O1  UNL     1       1.214 110.838 266.831  1.00  0.00    -0.380 OA
HETATM   27  C1  UNL     1       1.288 109.460 267.019  1.00  0.00     0.202 C 
ENDBRANCH  25  26
BRANCH  25  28
HETATM   28  C25 UNL     1      -0.122 112.622 267.492  1.00  0.00     0.203 C 
HETATM   29  O6  UNL     1       0.542 113.697 267.467  1.00  0.00    -0.646 OA
HETATM   30  O7  UNL     1      -1.445 112.656 267.121  1.00  0.00    -0.646 OA
ENDBRANCH  25  28
ENDBRANCH  24  25
ENDBRANCH  23  24
ENDBRANCH  21  22
ENDBRANCH  20  21
BRANCH  20  31
HETATM   31  O2  UNL     1      -5.201 112.330 270.071  1.00  0.00    -0.393 OA
ATOM     32  H2  UNL     1      -5.922 112.549 270.649  1.00  0.00     0.210 HD
ENDBRANCH  20  31
ENDBRANCH  19  20
BRANCH  19  33
HETATM   33  O3  UNL     1      -6.300 110.159 270.253  1.00  0.00    -0.393 OA
ATOM     34  H3  UNL     1      -6.189 109.765 269.396  1.00  0.00     0.210 HD
ENDBRANCH  19  33
ENDBRANCH   1  19
BRANCH  10  35
HETATM   35  S1  UNL     1      -5.512 102.012 274.569  1.00  0.00     0.170 S 
HETATM   36  C19 UNL     1      -3.728 101.799 274.487  1.00  0.00     0.163 C 
HETATM   37  O4  UNL     1      -6.025 101.120 275.641  1.00  0.00    -0.226 OA
HETATM   38  O5  UNL     1      -6.149 101.698 273.255  1.00  0.00    -0.226 OA
ENDBRANCH  10  35
TORSDOF 11
ENDMDL
MODEL 3
REMARK VINA RESULT: -8.244295997      1.151      1.767
REMARK  11 active torsions:
REMARK  status: ('A' for Active; 'I' for Inactive)
REMARK    1  A    between atoms: O1_2  and  C2_3 
REMARK    2  A    between atoms: C2_3  and  C3_4 
REMARK    3  A    between atoms: C2_3  and  C25_36 
REMARK    4  A    between atoms: C3_4  and  C4_5 
REMARK    5  A    between atoms: C5_6  and  C6_7 
REMARK    6  A    between atoms: C6_7  and  C7_8 
REMARK    7  A    between atoms: C7_8  and  O2_9 
REMARK    8  A    between atoms: C7_8  and  C8_11 
REMARK    9  A    between atoms: C8_11  and  O3_12 
REMARK   10  A    between atoms: C8_11  and  C9_14 
REMARK   11  A    between atoms: C18_23  and  S1_24 
ROOT
HETATM    1  C9  UNL     1      -6.247 107.152 273.759  1.00  0.00     0.025 C 
HETATM    2  C10 UNL     1      -7.296 106.992 272.715  1.00  0.00     0.008 C 
HETATM    3  C11 UNL     1      -6.883 107.918 271.558  1.00  0.00     0.006 C 
HETATM    4  C12 UNL     1      -5.719 108.671 272.148  1.00  0.00     0.001 C 
HETATM    5  C13 UNL     1      -4.805 109.299 271.174  1.00  0.00     0.027 C 
HETATM    6  C14 UNL     1      -5.371 110.693 270.850  1.00  0.00     0.008 C 
HETATM    7  C15 UNL     1      -5.056 111.517 272.064  1.00  0.00     0.007 C 
HETATM    8  C16 UNL     1      -3.819 110.887 272.656  1.00  0.00     0.025 C 
HETATM    9  C17 UNL     1      -2.660 111.822 272.420  1.00  0.00     0.056 C 
HETATM   10  C18 UNL     1      -2.240 111.463 271.022  1.00  0.00     0.307 C 
HETATM   11  N1  UNL     1      -2.505 110.071 270.848  1.00  0.00    -0.048 N 
ATOM     12  H11 UNL     1      -1.661 109.500 270.897  1.00  0.00     0.279 HD
ATOM     13  H12 UNL     1      -2.773 109.836 269.892  1.00  0.00     0.279 HD
HETATM   14  C20 UNL     1      -3.506 109.678 271.825  1.00  0.00     0.135 C 
HETATM   15  C21 UNL     1      -2.902 108.593 272.669  1.00  0.00     0.040 C 
HETATM   16  C22 UNL     1      -3.903 108.060 273.693  1.00  0.00     0.012 C 
HETATM   17  C23 UNL     1      -5.053 107.509 272.936  1.00  0.00    -0.034 C 
HETATM   18  C24 UNL     1      -4.621 106.460 271.948  1.00  0.00     0.016 C 
ENDROOT
BRANCH   1  19
HETATM   19  C8  UNL     1      -6.103 106.160 274.808  1.00  0.00     0.152 C 
BRANCH  19  20
HETATM   20  C7  UNL     1      -6.879 104.917 274.808  1.00  0.00     0.150 C 
BRANCH  20  21
HETATM   21  C6  UNL     1      -6.035 103.744 274.398  1.00  0.00     0.061 C 
BRANCH  21  22
HETATM   22  C5  UNL     1      -5.172 103.143 275.402  1.00  0.00    -0.028 C 
HETATM   23  C4  UNL     1      -4.220 102.263 275.151  1.00  0.00    -0.027 C 
BRANCH  23  24
HETATM   24  C3  UNL     1      -3.866 101.740 273.819  1.00  0.00     0.070 C 
BRANCH  24  25
HETATM   25  C2  UNL     1      -2.654 102.490 273.243  1.00  0.00     0.224 C 
BRANCH  25  26
HETATM   26  O1  UNL     1      -1.627 101.618 272.945  1.00  0.00    -0.380 OA
HETATM   27  C1  UNL     1      -1.411 100.825 274.069  1.00  0.00     0.202 C 
ENDBRANCH  25  26
BRANCH  25  28
HETATM   28  C25 UNL     1      -3.118 103.117 271.976  1.00  0.00     0.203 C 
HETATM   29  O6  UNL     1      -4.313 102.931 271.611  1.00  0.00    -0.646 OA
HETATM   30  O7  UNL     1      -2.299 103.889 271.188  1.00  0.00    -0.646 OA
ENDBRANCH  25  28
ENDBRANCH  24  25
ENDBRANCH  23  24
ENDBRANCH  21  22
ENDBRANCH  20  21
BRANCH  20  31
HETATM   31  O2  UNL     1      -7.500 104.702 276.051  1.00  0.00    -0.393 OA
ATOM     32  H2  UNL     1      -7.035 105.136 276.757  1.00  0.00     0.210 HD
ENDBRANCH  20  31
ENDBRANCH  19  20
BRANCH  19  33
HETATM   33  O3  UNL     1      -6.258 106.781 276.080  1.00  0.00    -0.393 OA
ATOM     34  H3  UNL     1      -5.499 107.329 276.237  1.00  0.00     0.210 HD
ENDBRANCH  19  33
ENDBRANCH   1  19
BRANCH  10  35
HETATM   35  S1  UNL     1      -0.514 111.860 270.863  1.00  0.00     0.170 S 
HETATM   36  C19 UNL     1       0.382 110.532 271.680  1.00  0.00     0.163 C 
HETATM   37  O4  UNL     1      -0.067 111.903 269.447  1.00  0.00    -0.226 OA
HETATM   38  O5  UNL     1      -0.272 113.167 271.546  1.00  0.00    -0.226 OA
ENDBRANCH  10  35
TORSDOF 11
ENDMDL
MODEL 4
REMARK VINA RESULT: -8.223650478      2.939      6.008
REMARK  11 active torsions:
REMARK  status: ('A' for Active; 'I' for Inactive)
REMARK    1  A    between atoms: O1_2  and  C2_3 
REMARK    2  A    between atoms: C2_3  and  C3_4 
REMARK    3  A    between atoms: C2_3  and  C25_36 
REMARK    4  A    between atoms: C3_4  and  C4_5 
REMARK    5  A    between atoms: C5_6  and  C6_7 
REMARK    6  A    between atoms: C6_7  and  C7_8 
REMARK    7  A    between atoms: C7_8  and  O2_9 
REMARK    8  A    between atoms: C7_8  and  C8_11 
REMARK    9  A    between atoms: C8_11  and  O3_12 
REMARK   10  A    between atoms: C8_11  and  C9_14 
REMARK   11  A    between atoms: C18_23  and  S1_24 
ROOT
HETATM    1  C9  UNL     1      -6.633 103.185 274.182  1.00  0.00     0.025 C 
HETATM    2  C10 UNL     1      -5.925 102.519 273.055  1.00  0.00     0.008 C 
HETATM    3  C11 UNL     1      -5.112 103.623 272.358  1.00  0.00     0.006 C 
HETATM    4  C12 UNL     1      -5.594 104.868 273.055  1.00  0.00     0.001 C 
HETATM    5  C13 UNL     1      -4.703 106.041 272.960  1.00  0.00     0.027 C 
HETATM    6  C14 UNL     1      -5.065 106.786 271.664  1.00  0.00     0.008 C 
HETATM    7  C15 UNL     1      -6.361 107.476 271.979  1.00  0.00     0.007 C 
HETATM    8  C16 UNL     1      -6.330 107.708 273.469  1.00  0.00     0.025 C 
HETATM    9  C17 UNL     1      -6.142 109.184 273.708  1.00  0.00     0.056 C 
HETATM   10  C18 UNL     1      -4.651 109.338 273.598  1.00  0.00     0.307 C 
HETATM   11  N1  UNL     1      -4.067 108.125 274.075  1.00  0.00    -0.048 N 
ATOM     12  H11 UNL     1      -3.679 108.217 275.013  1.00  0.00     0.279 HD
ATOM     13  H12 UNL     1      -3.201 107.886 273.592  1.00  0.00     0.279 HD
HETATM   14  C20 UNL     1      -5.070 107.077 273.982  1.00  0.00     0.135 C 
HETATM   15  C21 UNL     1      -5.272 106.532 275.366  1.00  0.00     0.040 C 
HETATM   16  C22 UNL     1      -6.266 105.371 275.369  1.00  0.00     0.012 C 
HETATM   17  C23 UNL     1      -5.703 104.309 274.501  1.00  0.00    -0.034 C 
HETATM   18  C24 UNL     1      -4.327 103.894 274.947  1.00  0.00     0.016 C 
ENDROOT
BRANCH   1  19
HETATM   19  C8  UNL     1      -7.175 102.395 275.272  1.00  0.00     0.152 C 
BRANCH  19  20
HETATM   20  C7  UNL     1      -7.938 103.004 276.365  1.00  0.00     0.150 C 
BRANCH  20  21
HETATM   21  C6  UNL     1      -9.068 103.844 275.842  1.00  0.00     0.061 C 
BRANCH  21  22
HETATM   22  C5  UNL     1     -10.057 104.321 276.795  1.00  0.00    -0.028 C 
HETATM   23  C4  UNL     1      -9.922 105.396 277.550  1.00  0.00    -0.027 C 
BRANCH  23  24
HETATM   24  C3  UNL     1      -8.753 106.294 277.561  1.00  0.00     0.070 C 
BRANCH  24  25
HETATM   25  C2  UNL     1      -9.186 107.756 277.365  1.00  0.00     0.224 C 
BRANCH  25  26
HETATM   26  O1  UNL     1     -10.383 108.007 278.005  1.00  0.00    -0.380 OA
HETATM   27  C1  UNL     1     -11.120 108.867 277.195  1.00  0.00     0.202 C 
ENDBRANCH  25  26
BRANCH  25  28
HETATM   28  C25 UNL     1      -8.132 108.590 278.000  1.00  0.00     0.203 C 
HETATM   29  O6  UNL     1      -7.013 108.695 277.422  1.00  0.00    -0.646 OA
HETATM   30  O7  UNL     1      -8.325 109.252 279.189  1.00  0.00    -0.646 OA
ENDBRANCH  25  28
ENDBRANCH  24  25
ENDBRANCH  23  24
ENDBRANCH  21  22
ENDBRANCH  20  21
BRANCH  20  31
HETATM   31  O2  UNL     1      -8.388 102.034 277.277  1.00  0.00    -0.393 OA
ATOM     32  H2  UNL     1      -8.267 102.315 278.177  1.00  0.00     0.210 HD
ENDBRANCH  20  31
ENDBRANCH  19  20
BRANCH  19  33
HETATM   33  O3  UNL     1      -6.146 101.593 275.841  1.00  0.00    -0.393 OA
ATOM     34  H3  UNL     1      -5.311 102.005 275.656  1.00  0.00     0.210 HD
ENDBRANCH  19  33
ENDBRANCH   1  19
BRANCH  10  35
HETATM   35  S1  UNL     1      -4.185 110.753 274.569  1.00  0.00     0.170 S 
HETATM   36  C19 UNL     1      -4.943 112.177 273.774  1.00  0.00     0.163 C 
HETATM   37  O4  UNL     1      -4.701 110.684 275.961  1.00  0.00    -0.226 OA
HETATM   38  O5  UNL     1      -2.695 110.861 274.551  1.00  0.00    -0.226 OA
ENDBRANCH  10  35
TORSDOF 11
ENDMDL
MODEL 5
REMARK VINA RESULT: -8.214697106      3.398      5.915
REMARK  11 active torsions:
REMARK  status: ('A' for Active; 'I' for Inactive)
REMARK    1  A    between atoms: O1_2  and  C2_3 
REMARK    2  A    between atoms: C2_3  and  C3_4 
REMARK    3  A    between atoms: C2_3  and  C25_36 
REMARK    4  A    between atoms: C3_4  and  C4_5 
REMARK    5  A    between atoms: C5_6  and  C6_7 
REMARK    6  A    between atoms: C6_7  and  C7_8 
REMARK    7  A    between atoms: C7_8  and  O2_9 
REMARK    8  A    between atoms: C7_8  and  C8_11 
REMARK    9  A    between atoms: C8_11  and  O3_12 
REMARK   10  A    between atoms: C8_11  and  C9_14 
REMARK   11  A    between atoms: C18_23  and  S1_24 
ROOT
HETATM    1  C9  UNL     1      -4.487 103.602 272.560  1.00  0.00     0.025 C 
HETATM    2  C10 UNL     1      -3.788 103.847 271.269  1.00  0.00     0.008 C 
HETATM    3  C11 UNL     1      -3.900 105.360 271.011  1.00  0.00     0.006 C 
HETATM    4  C12 UNL     1      -4.832 105.806 272.106  1.00  0.00     0.001 C 
HETATM    5  C13 UNL     1      -4.790 107.245 272.435  1.00  0.00     0.027 C 
HETATM    6  C14 UNL     1      -5.773 107.958 271.490  1.00  0.00     0.008 C 
HETATM    7  C15 UNL     1      -7.130 107.612 272.030  1.00  0.00     0.007 C 
HETATM    8  C16 UNL     1      -6.917 107.378 273.505  1.00  0.00     0.025 C 
HETATM    9  C17 UNL     1      -7.538 108.530 274.255  1.00  0.00     0.056 C 
HETATM   10  C18 UNL     1      -6.450 109.566 274.206  1.00  0.00     0.307 C 
HETATM   11  N1  UNL     1      -5.204 108.868 274.219  1.00  0.00    -0.048 N 
ATOM     12  H11 UNL     1      -4.744 108.901 275.128  1.00  0.00     0.279 HD
ATOM     13  H12 UNL     1      -4.480 109.344 273.682  1.00  0.00     0.279 HD
HETATM   14  C20 UNL     1      -5.445 107.511 273.759  1.00  0.00     0.135 C 
HETATM   15  C21 UNL     1      -5.008 106.587 274.858  1.00  0.00     0.040 C 
HETATM   16  C22 UNL     1      -5.158 105.122 274.448  1.00  0.00     0.012 C 
HETATM   17  C23 UNL     1      -4.299 104.910 273.258  1.00  0.00    -0.034 C 
HETATM   18  C24 UNL     1      -2.869 105.292 273.526  1.00  0.00     0.016 C 
ENDROOT
BRANCH   1  19
HETATM   19  C8  UNL     1      -4.250 102.375 273.297  1.00  0.00     0.152 C 
BRANCH  19  20
HETATM   20  C7  UNL     1      -4.650 102.224 274.699  1.00  0.00     0.150 C 
BRANCH  20  21
HETATM   21  C6  UNL     1      -5.941 101.467 274.821  1.00  0.00     0.061 C 
BRANCH  21  22
HETATM   22  C5  UNL     1      -6.585 101.427 276.124  1.00  0.00    -0.028 C 
HETATM   23  C4  UNL     1      -7.434 102.333 276.575  1.00  0.00    -0.027 C 
BRANCH  23  24
HETATM   24  C3  UNL     1      -7.874 103.535 275.843  1.00  0.00     0.070 C 
BRANCH  24  25
HETATM   25  C2  UNL     1      -8.568 104.526 276.791  1.00  0.00     0.224 C 
BRANCH  25  26
HETATM   26  O1  UNL     1      -8.295 105.830 276.430  1.00  0.00    -0.380 OA
HETATM   27  C1  UNL     1      -7.998 106.535 277.593  1.00  0.00     0.202 C 
ENDBRANCH  25  26
BRANCH  25  28
HETATM   28  C25 UNL     1     -10.029 104.294 276.637  1.00  0.00     0.203 C 
HETATM   29  O6  UNL     1     -10.443 103.706 275.599  1.00  0.00    -0.646 OA
HETATM   30  O7  UNL     1     -10.946 104.694 277.580  1.00  0.00    -0.646 OA
ENDBRANCH  25  28
ENDBRANCH  24  25
ENDBRANCH  23  24
ENDBRANCH  21  22
ENDBRANCH  20  21
BRANCH  20  31
HETATM   31  O2  UNL     1      -3.627 101.636 275.463  1.00  0.00    -0.393 OA
ATOM     32  H2  UNL     1      -3.080 102.291 275.881  1.00  0.00     0.210 HD
ENDBRANCH  20  31
ENDBRANCH  19  20
BRANCH  19  33
HETATM   33  O3  UNL     1      -2.880 102.005 273.184  1.00  0.00    -0.393 OA
ATOM     34  H3  UNL     1      -2.736 101.663 272.310  1.00  0.00     0.210 HD
ENDBRANCH  19  33
ENDBRANCH   1  19
BRANCH  10  35
HETATM   35  S1  UNL     1      -6.659 110.628 275.617  1.00  0.00     0.170 S 
HETATM   36  C19 UNL     1      -7.573 112.062 275.034  1.00  0.00     0.163 C 
HETATM   37  O4  UNL     1      -7.456 109.991 276.697  1.00  0.00    -0.226 OA
HETATM   38  O5  UNL     1      -5.303 111.022 276.108  1.00  0.00    -0.226 OA
ENDBRANCH  10  35
TORSDOF 11
ENDMDL
