MODEL 1
REMARK VINA RESULT: -7.760865921      0.000      0.000
REMARK  4 active torsions:
REMARK  status: ('A' for Active; 'I' for Inactive)
REMARK    1  A    between atoms: C2_2  and  N1_4 
REMARK    2  A    between atoms: C2_2  and  C11_20 
REMARK    3  A    between atoms: N1_4  and  S1_6 
REMARK    4  A    between atoms: S1_6  and  C4_9 
ROOT
HETATM    1  S1  UNL     1       4.456 -26.346 -13.617  1.00  0.00     0.260 S 
HETATM    2  O1  UNL     1       5.361 -26.405 -14.850  1.00  0.00    -0.200 OA
HETATM    3  O2  UNL     1       4.666 -24.932 -13.173  1.00  0.00    -0.200 OA
ENDROOT
BRANCH   1   4
HETATM    4  N1  UNL     1       2.894 -26.698 -14.209  1.00  0.00    -0.302 N 
ATOM      5  H1  UNL     1       2.728 -27.367 -14.961  1.00  0.00     0.173 HD
BRANCH   4   6
HETATM    6  C2  UNL     1       1.831 -25.978 -13.563  1.00  0.00     0.082 C 
HETATM    7  C1  UNL     1       1.634 -24.584 -14.044  1.00  0.00     0.043 C 
HETATM    8  C3  UNL     1       1.959 -25.975 -12.060  1.00  0.00     0.043 C 
BRANCH   6   9
HETATM    9  C11 UNL     1       0.550 -26.755 -13.886  1.00  0.00     0.213 C 
HETATM   10 CL2  UNL     1      -0.485 -25.754 -14.949  1.00  0.00    -0.081 Cl
HETATM   11 CL3  UNL     1      -0.350 -27.120 -12.405  1.00  0.00    -0.081 Cl
HETATM   12 CL4  UNL     1       0.912 -28.249 -14.768  1.00  0.00    -0.081 Cl
ENDBRANCH   6   9
ENDBRANCH   4   6
ENDBRANCH   1   4
BRANCH   1  13
HETATM   13  C4  UNL     1       5.032 -27.544 -12.506  1.00  0.00     0.094 A 
HETATM   14  C5  UNL     1       4.280 -28.681 -12.277  1.00  0.00     0.026 A 
HETATM   15  C6  UNL     1       4.609 -29.676 -11.390  1.00  0.00     0.004 A 
HETATM   16  C7  UNL     1       5.771 -29.530 -10.680  1.00  0.00     0.031 A 
HETATM   17  C8  UNL     1       6.576 -28.385 -10.879  1.00  0.00     0.052 A 
HETATM   18  N2  UNL     1       7.726 -28.211 -10.214  1.00  0.00    -0.324 N 
HETATM   19  C10 UNL     1       6.226 -27.411 -11.766  1.00  0.00     0.044 A 
HETATM   20  S2  UNL     1       8.335 -26.756 -10.771  1.00  0.00    -0.001 SA
ATOM     21  H2  UNL     1       8.140 -28.831  -9.518  1.00  0.00     0.174 HD
HETATM   22  C9  UNL     1       7.099 -26.369 -11.870  1.00  0.00     0.105 A 
HETATM   23 CL1  UNL     1       7.179 -24.920 -12.817  1.00  0.00    -0.074 Cl
ENDBRANCH   1  13
TORSDOF 4
ENDMDL
MODEL 2
REMARK VINA RESULT: -7.690406746      0.564      1.233
REMARK  4 active torsions:
REMARK  status: ('A' for Active; 'I' for Inactive)
REMARK    1  A    between atoms: C2_2  and  N1_4 
REMARK    2  A    between atoms: C2_2  and  C11_20 
REMARK    3  A    between atoms: N1_4  and  S1_6 
REMARK    4  A    between atoms: S1_6  and  C4_9 
ROOT
HETATM    1  S1  UNL     1       4.024 -26.084 -13.886  1.00  0.00     0.260 S 
HETATM    2  O1  UNL     1       4.965 -26.057 -15.093  1.00  0.00    -0.200 OA
HETATM    3  O2  UNL     1       4.156 -24.680 -13.386  1.00  0.00    -0.200 OA
ENDROOT
BRANCH   1   4
HETATM    4  N1  UNL     1       2.497 -26.484 -14.537  1.00  0.00    -0.302 N 
ATOM      5  H1  UNL     1       2.382 -27.150 -15.301  1.00  0.00     0.173 HD
BRANCH   4   6
HETATM    6  C2  UNL     1       1.387 -25.809 -13.924  1.00  0.00     0.082 C 
HETATM    7  C1  UNL     1       1.120 -24.440 -14.443  1.00  0.00     0.043 C 
HETATM    8  C3  UNL     1       1.495 -25.760 -12.420  1.00  0.00     0.043 C 
BRANCH   6   9
HETATM    9  C11 UNL     1       0.156 -26.664 -14.242  1.00  0.00     0.213 C 
HETATM   10 CL2  UNL     1      -0.669 -27.088 -12.711  1.00  0.00    -0.081 Cl
HETATM   11 CL3  UNL     1       0.631 -28.162 -15.059  1.00  0.00    -0.081 Cl
HETATM   12 CL4  UNL     1      -1.009 -25.767 -15.232  1.00  0.00    -0.081 Cl
ENDBRANCH   6   9
ENDBRANCH   4   6
ENDBRANCH   1   4
BRANCH   1  13
HETATM   13  C4  UNL     1       4.623 -27.295 -12.802  1.00  0.00     0.094 A 
HETATM   14  C5  UNL     1       3.865 -28.424 -12.553  1.00  0.00     0.026 A 
HETATM   15  C6  UNL     1       4.211 -29.429 -11.683  1.00  0.00     0.004 A 
HETATM   16  C7  UNL     1       5.399 -29.301 -11.014  1.00  0.00     0.031 A 
HETATM   17  C8  UNL     1       6.211 -28.166 -11.235  1.00  0.00     0.052 A 
HETATM   18  N2  UNL     1       7.386 -28.009 -10.609  1.00  0.00    -0.324 N 
HETATM   19  C10 UNL     1       5.844 -27.182 -12.104  1.00  0.00     0.044 A 
HETATM   20  S2  UNL     1       7.995 -26.560 -11.180  1.00  0.00    -0.001 SA
ATOM     21  H2  UNL     1       7.816 -28.639  -9.932  1.00  0.00     0.174 HD
HETATM   22  C9  UNL     1       6.726 -26.151 -12.234  1.00  0.00     0.105 A 
HETATM   23 CL1  UNL     1       6.792 -24.698 -13.175  1.00  0.00    -0.074 Cl
ENDBRANCH   1  13
TORSDOF 4
ENDMDL
MODEL 3
REMARK VINA RESULT: -7.684867677      0.526      1.202
REMARK  4 active torsions:
REMARK  status: ('A' for Active; 'I' for Inactive)
REMARK    1  A    between atoms: C2_2  and  N1_4 
REMARK    2  A    between atoms: C2_2  and  C11_20 
REMARK    3  A    between atoms: N1_4  and  S1_6 
REMARK    4  A    between atoms: S1_6  and  C4_9 
ROOT
HETATM    1  S1  UNL     1       4.061 -26.088 -13.876  1.00  0.00     0.260 S 
HETATM    2  O1  UNL     1       5.003 -26.084 -15.082  1.00  0.00    -0.200 OA
HETATM    3  O2  UNL     1       4.229 -24.689 -13.373  1.00  0.00    -0.200 OA
ENDROOT
BRANCH   1   4
HETATM    4  N1  UNL     1       2.524 -26.446 -14.529  1.00  0.00    -0.302 N 
ATOM      5  H1  UNL     1       2.395 -27.080 -15.317  1.00  0.00     0.173 HD
BRANCH   4   6
HETATM    6  C2  UNL     1       1.427 -25.783 -13.880  1.00  0.00     0.082 C 
HETATM    7  C1  UNL     1       1.134 -24.413 -14.383  1.00  0.00     0.043 C 
HETATM    8  C3  UNL     1       1.576 -25.743 -12.379  1.00  0.00     0.043 C 
BRANCH   6   9
HETATM    9  C11 UNL     1       0.194 -26.646 -14.168  1.00  0.00     0.213 C 
HETATM   10 CL2  UNL     1       0.712 -28.136 -15.016  1.00  0.00    -0.081 Cl
HETATM   11 CL3  UNL     1      -0.948 -25.777 -15.207  1.00  0.00    -0.081 Cl
HETATM   12 CL4  UNL     1      -0.602 -27.150 -12.667  1.00  0.00    -0.081 Cl
ENDBRANCH   6   9
ENDBRANCH   4   6
ENDBRANCH   1   4
BRANCH   1  13
HETATM   13  C4  UNL     1       4.626 -27.317 -12.794  1.00  0.00     0.094 A 
HETATM   14  C5  UNL     1       3.843 -28.431 -12.557  1.00  0.00     0.026 A 
HETATM   15  C6  UNL     1       4.162 -29.448 -11.690  1.00  0.00     0.004 A 
HETATM   16  C7  UNL     1       5.347 -29.348 -11.010  1.00  0.00     0.031 A 
HETATM   17  C8  UNL     1       6.183 -28.227 -11.219  1.00  0.00     0.052 A 
HETATM   18  N2  UNL     1       7.356 -28.098 -10.582  1.00  0.00    -0.324 N 
HETATM   19  C10 UNL     1       5.843 -27.232 -12.085  1.00  0.00     0.044 A 
HETATM   20  S2  UNL     1       7.998 -26.658 -11.140  1.00  0.00    -0.001 SA
ATOM     21  H2  UNL     1       7.767 -28.740  -9.904  1.00  0.00     0.174 HD
HETATM   22  C9  UNL     1       6.747 -26.217 -12.202  1.00  0.00     0.105 A 
HETATM   23 CL1  UNL     1       6.849 -24.761 -13.134  1.00  0.00    -0.074 Cl
ENDBRANCH   1  13
TORSDOF 4
ENDMDL
MODEL 4
REMARK VINA RESULT: -7.593606688      2.850      3.747
REMARK  4 active torsions:
REMARK  status: ('A' for Active; 'I' for Inactive)
REMARK    1  A    between atoms: C2_2  and  N1_4 
REMARK    2  A    between atoms: C2_2  and  C11_20 
REMARK    3  A    between atoms: N1_4  and  S1_6 
REMARK    4  A    between atoms: S1_6  and  C4_9 
ROOT
HETATM    1  S1  UNL     1       3.820 -27.942 -11.855  1.00  0.00     0.260 S 
HETATM    2  O1  UNL     1       3.993 -28.869 -10.649  1.00  0.00    -0.200 OA
HETATM    3  O2  UNL     1       3.591 -28.936 -12.951  1.00  0.00    -0.200 OA
ENDROOT
BRANCH   1   4
HETATM    4  N1  UNL     1       2.473 -26.969 -11.463  1.00  0.00    -0.302 N 
ATOM      5  H1  UNL     1       2.557 -25.980 -11.232  1.00  0.00     0.173 HD
BRANCH   4   6
HETATM    6  C2  UNL     1       1.210 -27.655 -11.486  1.00  0.00     0.082 C 
HETATM    7  C1  UNL     1       0.742 -28.152 -10.163  1.00  0.00     0.043 C 
HETATM    8  C3  UNL     1       1.179 -28.786 -12.484  1.00  0.00     0.043 C 
BRANCH   6   9
HETATM    9  C11 UNL     1       0.188 -26.622 -11.970  1.00  0.00     0.213 C 
HETATM   10 CL2  UNL     1      -0.279 -27.011 -13.654  1.00  0.00    -0.081 Cl
HETATM   11 CL3  UNL     1       0.884 -24.993 -11.941  1.00  0.00    -0.081 Cl
HETATM   12 CL4  UNL     1      -1.290 -26.675 -10.994  1.00  0.00    -0.081 Cl
ENDBRANCH   6   9
ENDBRANCH   4   6
ENDBRANCH   1   4
BRANCH   1  13
HETATM   13  C4  UNL     1       5.281 -27.025 -12.006  1.00  0.00     0.094 A 
HETATM   14  C5  UNL     1       6.323 -27.250 -11.126  1.00  0.00     0.026 A 
HETATM   15  C6  UNL     1       7.510 -26.559 -11.117  1.00  0.00     0.004 A 
HETATM   16  C7  UNL     1       7.671 -25.572 -12.053  1.00  0.00     0.031 A 
HETATM   17  C8  UNL     1       6.635 -25.304 -12.977  1.00  0.00     0.052 A 
HETATM   18  N2  UNL     1       6.759 -24.355 -13.915  1.00  0.00    -0.324 N 
HETATM   19  C10 UNL     1       5.467 -26.005 -12.964  1.00  0.00     0.044 A 
HETATM   20  S2  UNL     1       5.325 -24.403 -14.774  1.00  0.00    -0.001 SA
ATOM     21  H2  UNL     1       7.556 -23.738 -14.072  1.00  0.00     0.174 HD
HETATM   22  C9  UNL     1       4.558 -25.655 -13.918  1.00  0.00     0.105 A 
HETATM   23 CL1  UNL     1       2.979 -26.200 -14.374  1.00  0.00    -0.074 Cl
ENDBRANCH   1  13
TORSDOF 4
ENDMDL
MODEL 5
REMARK VINA RESULT: -7.419238528      3.530      4.592
REMARK  4 active torsions:
REMARK  status: ('A' for Active; 'I' for Inactive)
REMARK    1  A    between atoms: C2_2  and  N1_4 
REMARK    2  A    between atoms: C2_2  and  C11_20 
REMARK    3  A    between atoms: N1_4  and  S1_6 
REMARK    4  A    between atoms: S1_6  and  C4_9 
ROOT
HETATM    1  S1  UNL     1       2.692 -27.802 -12.131  1.00  0.00     0.260 S 
HETATM    2  O1  UNL     1       1.478 -26.881 -12.275  1.00  0.00    -0.200 OA
HETATM    3  O2  UNL     1       2.603 -28.596 -13.396  1.00  0.00    -0.200 OA
ENDROOT
BRANCH   1   4
HETATM    4  N1  UNL     1       4.028 -26.743 -12.030  1.00  0.00    -0.302 N 
ATOM      5  H1  UNL     1       4.574 -26.626 -11.177  1.00  0.00     0.173 HD
BRANCH   4   6
HETATM    6  C2  UNL     1       4.322 -26.030 -13.243  1.00  0.00     0.082 C 
HETATM    7  C1  UNL     1       3.765 -24.651 -13.311  1.00  0.00     0.043 C 
HETATM    8  C3  UNL     1       3.919 -26.794 -14.479  1.00  0.00     0.043 C 
BRANCH   6   9
HETATM    9  C11 UNL     1       5.848 -25.906 -13.289  1.00  0.00     0.213 C 
HETATM   10 CL2  UNL     1       6.487 -27.037 -14.521  1.00  0.00    -0.081 Cl
HETATM   11 CL3  UNL     1       6.557 -26.324 -11.720  1.00  0.00    -0.081 Cl
HETATM   12 CL4  UNL     1       6.345 -24.275 -13.772  1.00  0.00    -0.081 Cl
ENDBRANCH   6   9
ENDBRANCH   4   6
ENDBRANCH   1   4
BRANCH   1  13
HETATM   13  C4  UNL     1       2.463 -28.723 -10.682  1.00  0.00     0.094 A 
HETATM   14  C5  UNL     1       1.286 -28.594  -9.970  1.00  0.00     0.026 A 
HETATM   15  C6  UNL     1       1.007 -29.236  -8.788  1.00  0.00     0.004 A 
HETATM   16  C7  UNL     1       1.969 -30.068  -8.279  1.00  0.00     0.031 A 
HETATM   17  C8  UNL     1       3.190 -30.234  -8.972  1.00  0.00     0.052 A 
HETATM   18  N2  UNL     1       4.152 -31.047  -8.514  1.00  0.00    -0.324 N 
HETATM   19  C10 UNL     1       3.442 -29.585 -10.143  1.00  0.00     0.044 A 
HETATM   20  S2  UNL     1       5.383 -30.945  -9.643  1.00  0.00    -0.001 SA
ATOM     21  H2  UNL     1       4.137 -31.608  -7.662  1.00  0.00     0.174 HD
HETATM   22  C9  UNL     1       4.653 -29.847 -10.714  1.00  0.00     0.105 A 
HETATM   23 CL1  UNL     1       5.467 -29.346 -12.158  1.00  0.00    -0.074 Cl
ENDBRANCH   1  13
TORSDOF 4
ENDMDL
