MODEL 1
REMARK VINA RESULT: -8.236617105      0.000      0.000
REMARK  4 active torsions:
REMARK  status: ('A' for Active; 'I' for Inactive)
REMARK    1  A    between atoms: C2_2  and  C4_4 
REMARK    2  A    between atoms: C6_9  and  N1_10 
REMARK       I    between atoms: N1_10  and  C7_12 
REMARK    3  A    between atoms: C7_12  and  O4_14 
REMARK    4  A    between atoms: O4_14  and  C8_15 
ROOT
HETATM    1  N1  UNL     1       2.397 -27.152 -13.842  1.00  0.00    -0.323 N 
ATOM      2  H1  UNL     1       2.558 -28.120 -14.121  1.00  0.00     0.165 HD
HETATM    3  C7  UNL     1       3.498 -26.248 -13.732  1.00  0.00     0.366 C 
HETATM    4  O3  UNL     1       3.325 -25.050 -13.389  1.00  0.00    -0.238 OA
ENDROOT
BRANCH   1   5
HETATM    5  C6  UNL     1       1.052 -26.698 -13.560  1.00  0.00     0.187 C 
HETATM    6  C5  UNL     1       0.032 -27.557 -14.228  1.00  0.00     0.283 C 
HETATM    7  O1  UNL     1      -1.300 -27.338 -13.875  1.00  0.00    -0.291 OA
HETATM    8  O2  UNL     1       0.351 -28.444 -15.075  1.00  0.00    -0.263 OA
HETATM    9  C4  UNL     1      -1.671 -27.148 -12.505  1.00  0.00     0.152 C 
HETATM   10 CL1  UNL     1      -1.734 -28.756 -11.744  1.00  0.00    -0.087 Cl
HETATM   11  C15 UNL     1      -0.638 -26.340 -11.792  1.00  0.00     0.035 C 
HETATM   12  C14 UNL     1       0.770 -26.811 -12.060  1.00  0.00     0.044 C 
HETATM   13  C16 UNL     1      -0.715 -24.876 -12.145  1.00  0.00     0.014 C 
BRANCH   9  14
HETATM   14  C2  UNL     1      -3.017 -26.496 -12.399  1.00  0.00     0.029 C 
HETATM   15  C1  UNL     1      -3.794 -27.191 -11.301  1.00  0.00     0.014 C 
HETATM   16  C3  UNL     1      -3.807 -26.579 -13.679  1.00  0.00     0.014 C 
ENDBRANCH   9  14
ENDBRANCH   1   5
BRANCH   3  17
HETATM   17  O4  UNL     1       4.807 -26.630 -13.990  1.00  0.00    -0.258 OA
BRANCH  17  18
HETATM   18  C8  UNL     1       5.747 -26.755 -12.950  1.00  0.00     0.124 A 
HETATM   19  C9  UNL     1       6.690 -25.761 -12.801  1.00  0.00     0.071 A 
HETATM   20 CL2  UNL     1       6.672 -24.403 -13.903  1.00  0.00    -0.081 Cl
HETATM   21  C10 UNL     1       7.641 -25.798 -11.821  1.00  0.00     0.050 A 
HETATM   22  C11 UNL     1       7.674 -26.844 -10.953  1.00  0.00     0.037 A 
HETATM   23 CL3  UNL     1       8.895 -26.887  -9.698  1.00  0.00    -0.084 Cl
HETATM   24  C12 UNL     1       6.730 -27.854 -11.092  1.00  0.00     0.050 A 
HETATM   25  C13 UNL     1       5.774 -27.804 -12.087  1.00  0.00     0.071 A 
HETATM   26 CL4  UNL     1       4.607 -29.078 -12.237  1.00  0.00    -0.081 Cl
ENDBRANCH  17  18
ENDBRANCH   3  17
TORSDOF 4
ENDMDL
MODEL 2
REMARK VINA RESULT: -8.182820157      0.067      1.790
REMARK  4 active torsions:
REMARK  status: ('A' for Active; 'I' for Inactive)
REMARK    1  A    between atoms: C2_2  and  C4_4 
REMARK    2  A    between atoms: C6_9  and  N1_10 
REMARK       I    between atoms: N1_10  and  C7_12 
REMARK    3  A    between atoms: C7_12  and  O4_14 
REMARK    4  A    between atoms: O4_14  and  C8_15 
ROOT
HETATM    1  N1  UNL     1       2.415 -27.172 -13.864  1.00  0.00    -0.323 N 
ATOM      2  H1  UNL     1       2.563 -28.138 -14.153  1.00  0.00     0.165 HD
HETATM    3  C7  UNL     1       3.530 -26.286 -13.738  1.00  0.00     0.366 C 
HETATM    4  O3  UNL     1       3.374 -25.090 -13.382  1.00  0.00    -0.238 OA
ENDROOT
BRANCH   1   5
HETATM    5  C6  UNL     1       1.076 -26.700 -13.580  1.00  0.00     0.187 C 
HETATM    6  C5  UNL     1       0.044 -27.554 -14.238  1.00  0.00     0.283 C 
HETATM    7  O1  UNL     1      -1.283 -27.317 -13.882  1.00  0.00    -0.291 OA
HETATM    8  O2  UNL     1       0.350 -28.452 -15.078  1.00  0.00    -0.263 OA
HETATM    9  C4  UNL     1      -1.648 -27.111 -12.512  1.00  0.00     0.152 C 
HETATM   10 CL1  UNL     1      -1.725 -28.711 -11.737  1.00  0.00    -0.087 Cl
HETATM   11  C15 UNL     1      -0.603 -26.308 -11.810  1.00  0.00     0.035 C 
HETATM   12  C14 UNL     1       0.798 -26.797 -12.078  1.00  0.00     0.044 C 
HETATM   13  C16 UNL     1      -0.666 -24.847 -12.175  1.00  0.00     0.014 C 
BRANCH   9  14
HETATM   14  C2  UNL     1      -2.986 -26.443 -12.408  1.00  0.00     0.029 C 
HETATM   15  C1  UNL     1      -3.771 -27.128 -11.308  1.00  0.00     0.014 C 
HETATM   16  C3  UNL     1      -3.777 -26.519 -13.687  1.00  0.00     0.014 C 
ENDBRANCH   9  14
ENDBRANCH   1   5
BRANCH   3  17
HETATM   17  O4  UNL     1       4.833 -26.685 -13.997  1.00  0.00    -0.258 OA
BRANCH  17  18
HETATM   18  C8  UNL     1       5.813 -26.670 -12.985  1.00  0.00     0.124 A 
HETATM   19  C9  UNL     1       5.850 -27.725 -12.099  1.00  0.00     0.071 A 
HETATM   20 CL2  UNL     1       4.689 -29.021 -12.274  1.00  0.00    -0.081 Cl
HETATM   21  C10 UNL     1       6.764 -27.796 -11.087  1.00  0.00     0.050 A 
HETATM   22  C11 UNL     1       7.676 -26.800 -10.932  1.00  0.00     0.037 A 
HETATM   23 CL3  UNL     1       8.847 -26.894  -9.632  1.00  0.00    -0.084 Cl
HETATM   24  C12 UNL     1       7.650 -25.729 -11.817  1.00  0.00     0.050 A 
HETATM   25  C13 UNL     1       6.720 -25.670 -12.837  1.00  0.00     0.071 A 
HETATM   26 CL4  UNL     1       6.710 -24.322 -13.928  1.00  0.00    -0.081 Cl
ENDBRANCH  17  18
ENDBRANCH   3  17
TORSDOF 4
ENDMDL
MODEL 3
REMARK VINA RESULT: -8.178766943      1.902      2.927
REMARK  4 active torsions:
REMARK  status: ('A' for Active; 'I' for Inactive)
REMARK    1  A    between atoms: C2_2  and  C4_4 
REMARK    2  A    between atoms: C6_9  and  N1_10 
REMARK       I    between atoms: N1_10  and  C7_12 
REMARK    3  A    between atoms: C7_12  and  O4_14 
REMARK    4  A    between atoms: O4_14  and  C8_15 
ROOT
HETATM    1  N1  UNL     1       2.344 -26.950 -13.934  1.00  0.00    -0.323 N 
ATOM      2  H1  UNL     1       2.464 -27.359 -14.861  1.00  0.00     0.165 HD
HETATM    3  C7  UNL     1       3.435 -26.947 -13.010  1.00  0.00     0.366 C 
HETATM    4  O3  UNL     1       3.312 -26.449 -11.861  1.00  0.00    -0.238 OA
ENDROOT
BRANCH   1   5
HETATM    5  C6  UNL     1       1.071 -26.374 -13.559  1.00  0.00     0.187 C 
HETATM    6  C5  UNL     1       0.909 -24.996 -14.109  1.00  0.00     0.283 C 
HETATM    7  O1  UNL     1      -0.351 -24.414 -13.979  1.00  0.00    -0.291 OA
HETATM    8  O2  UNL     1       1.864 -24.380 -14.668  1.00  0.00    -0.263 OA
HETATM    9  C4  UNL     1      -1.538 -25.171 -14.250  1.00  0.00     0.152 C 
HETATM   10 CL1  UNL     1      -1.743 -25.221 -16.017  1.00  0.00    -0.087 Cl
HETATM   11  C15 UNL     1      -1.383 -26.573 -13.763  1.00  0.00     0.035 C 
HETATM   12  C14 UNL     1      -0.070 -27.197 -14.162  1.00  0.00     0.044 C 
HETATM   13  C16 UNL     1      -1.513 -26.675 -12.265  1.00  0.00     0.014 C 
BRANCH   9  14
HETATM   14  C2  UNL     1      -2.740 -24.524 -13.629  1.00  0.00     0.029 C 
HETATM   15  C1  UNL     1      -3.850 -24.506 -14.658  1.00  0.00     0.014 C 
HETATM   16  C3  UNL     1      -2.474 -23.113 -13.176  1.00  0.00     0.014 C 
ENDBRANCH   9  14
ENDBRANCH   1   5
BRANCH   3  17
HETATM   17  O4  UNL     1       4.676 -27.485 -13.317  1.00  0.00    -0.258 OA
BRANCH  17  18
HETATM   18  C8  UNL     1       5.784 -27.287 -12.471  1.00  0.00     0.124 A 
HETATM   19  C9  UNL     1       6.097 -28.278 -11.565  1.00  0.00     0.071 A 
HETATM   20 CL2  UNL     1       5.111 -29.720 -11.512  1.00  0.00    -0.081 Cl
HETATM   21  C10 UNL     1       7.153 -28.173 -10.705  1.00  0.00     0.050 A 
HETATM   22  C11 UNL     1       7.934 -27.060 -10.729  1.00  0.00     0.037 A 
HETATM   23 CL3  UNL     1       9.287 -26.930  -9.624  1.00  0.00    -0.084 Cl
HETATM   24  C12 UNL     1       7.630 -26.053 -11.636  1.00  0.00     0.050 A 
HETATM   25  C13 UNL     1       6.559 -26.171 -12.501  1.00  0.00     0.071 A 
HETATM   26 CL4  UNL     1       6.202 -24.899 -13.624  1.00  0.00    -0.081 Cl
ENDBRANCH  17  18
ENDBRANCH   3  17
TORSDOF 4
ENDMDL
MODEL 4
REMARK VINA RESULT: -8.147628525      2.073      3.085
REMARK  4 active torsions:
REMARK  status: ('A' for Active; 'I' for Inactive)
REMARK    1  A    between atoms: C2_2  and  C4_4 
REMARK    2  A    between atoms: C6_9  and  N1_10 
REMARK       I    between atoms: N1_10  and  C7_12 
REMARK    3  A    between atoms: C7_12  and  O4_14 
REMARK    4  A    between atoms: O4_14  and  C8_15 
ROOT
HETATM    1  N1  UNL     1       2.986 -27.696 -13.293  1.00  0.00    -0.323 N 
ATOM      2  H1  UNL     1       2.928 -27.435 -14.278  1.00  0.00     0.165 HD
HETATM    3  C7  UNL     1       4.262 -27.814 -12.660  1.00  0.00     0.366 C 
HETATM    4  O3  UNL     1       4.360 -28.134 -11.448  1.00  0.00    -0.238 OA
ENDROOT
BRANCH   1   5
HETATM    5  C6  UNL     1       1.775 -27.945 -12.541  1.00  0.00     0.187 C 
HETATM    6  C5  UNL     1       0.713 -26.948 -12.867  1.00  0.00     0.283 C 
HETATM    7  O1  UNL     1      -0.559 -27.198 -12.352  1.00  0.00    -0.291 OA
HETATM    8  O2  UNL     1       0.947 -25.924 -13.574  1.00  0.00    -0.263 OA
HETATM    9  C4  UNL     1      -1.121 -28.515 -12.399  1.00  0.00     0.152 C 
HETATM   10 CL1  UNL     1      -1.737 -28.771 -14.049  1.00  0.00    -0.087 Cl
HETATM   11  C15 UNL     1      -0.068 -29.540 -12.135  1.00  0.00     0.035 C 
HETATM   12  C14 UNL     1       1.195 -29.308 -12.925  1.00  0.00     0.044 C 
HETATM   13  C16 UNL     1       0.301 -29.616 -10.675  1.00  0.00     0.014 C 
BRANCH   9  14
HETATM   14  C2  UNL     1      -2.249 -28.652 -11.420  1.00  0.00     0.029 C 
HETATM   15  C1  UNL     1      -3.148 -29.776 -11.890  1.00  0.00     0.014 C 
HETATM   16  C3  UNL     1      -3.069 -27.395 -11.296  1.00  0.00     0.014 C 
ENDBRANCH   9  14
ENDBRANCH   1   5
BRANCH   3  17
HETATM   17  O4  UNL     1       5.454 -27.587 -13.334  1.00  0.00    -0.258 OA
BRANCH  17  18
HETATM   18  C8  UNL     1       6.003 -26.294 -13.425  1.00  0.00     0.124 A 
HETATM   19  C9  UNL     1       6.985 -25.938 -12.525  1.00  0.00     0.071 A 
HETATM   20 CL2  UNL     1       7.497 -27.102 -11.325  1.00  0.00    -0.081 Cl
HETATM   21  C10 UNL     1       7.575 -24.706 -12.537  1.00  0.00     0.050 A 
HETATM   22  C11 UNL     1       7.192 -23.785 -13.461  1.00  0.00     0.037 A 
HETATM   23 CL3  UNL     1       7.951 -22.206 -13.474  1.00  0.00    -0.084 Cl
HETATM   24  C12 UNL     1       6.203 -24.129 -14.374  1.00  0.00     0.050 A 
HETATM   25  C13 UNL     1       5.614 -25.379 -14.351  1.00  0.00     0.071 A 
HETATM   26 CL4  UNL     1       4.381 -25.782 -15.502  1.00  0.00    -0.081 Cl
ENDBRANCH  17  18
ENDBRANCH   3  17
TORSDOF 4
ENDMDL
MODEL 5
REMARK VINA RESULT: -8.124129062      1.869      2.275
REMARK  4 active torsions:
REMARK  status: ('A' for Active; 'I' for Inactive)
REMARK    1  A    between atoms: C2_2  and  C4_4 
REMARK    2  A    between atoms: C6_9  and  N1_10 
REMARK       I    between atoms: N1_10  and  C7_12 
REMARK    3  A    between atoms: C7_12  and  O4_14 
REMARK    4  A    between atoms: O4_14  and  C8_15 
ROOT
HETATM    1  N1  UNL     1       2.391 -26.980 -13.906  1.00  0.00    -0.323 N 
ATOM      2  H1  UNL     1       2.535 -27.297 -14.864  1.00  0.00     0.165 HD
HETATM    3  C7  UNL     1       3.471 -27.024 -12.970  1.00  0.00     0.366 C 
HETATM    4  O3  UNL     1       3.318 -26.638 -11.782  1.00  0.00    -0.238 OA
ENDROOT
BRANCH   1   5
HETATM    5  C6  UNL     1       1.094 -26.485 -13.497  1.00  0.00     0.187 C 
HETATM    6  C5  UNL     1       0.893 -25.066 -13.913  1.00  0.00     0.283 C 
HETATM    7  O1  UNL     1      -0.388 -24.540 -13.747  1.00  0.00    -0.291 OA
HETATM    8  O2  UNL     1       1.834 -24.367 -14.393  1.00  0.00    -0.263 OA
HETATM    9  C4  UNL     1      -1.544 -25.305 -14.110  1.00  0.00     0.152 C 
HETATM   10 CL1  UNL     1      -1.724 -25.188 -15.877  1.00  0.00    -0.087 Cl
HETATM   11  C15 UNL     1      -1.349 -26.743 -13.760  1.00  0.00     0.035 C 
HETATM   12  C14 UNL     1      -0.010 -27.281 -14.196  1.00  0.00     0.044 C 
HETATM   13  C16 UNL     1      -1.496 -26.995 -12.281  1.00  0.00     0.014 C 
BRANCH   9  14
HETATM   14  C2  UNL     1      -2.776 -24.762 -13.449  1.00  0.00     0.029 C 
HETATM   15  C1  UNL     1      -3.958 -25.037 -14.354  1.00  0.00     0.014 C 
HETATM   16  C3  UNL     1      -2.695 -23.280 -13.193  1.00  0.00     0.014 C 
ENDBRANCH   9  14
ENDBRANCH   1   5
BRANCH   3  17
HETATM   17  O4  UNL     1       4.734 -27.488 -13.308  1.00  0.00    -0.258 OA
BRANCH  17  18
HETATM   18  C8  UNL     1       5.800 -27.427 -12.391  1.00  0.00     0.124 A 
HETATM   19  C9  UNL     1       6.599 -26.304 -12.395  1.00  0.00     0.071 A 
HETATM   20 CL2  UNL     1       6.251 -25.019 -13.529  1.00  0.00    -0.081 Cl
HETATM   21  C10 UNL     1       7.656 -26.157 -11.542  1.00  0.00     0.050 A 
HETATM   22  C11 UNL     1       7.946 -27.143 -10.652  1.00  0.00     0.037 A 
HETATM   23 CL3  UNL     1       9.302 -26.951  -9.560  1.00  0.00    -0.084 Cl
HETATM   24  C12 UNL     1       7.150 -28.281 -10.637  1.00  0.00     0.050 A 
HETATM   25  C13 UNL     1       6.083 -28.417 -11.505  1.00  0.00     0.071 A 
HETATM   26 CL4  UNL     1       5.106 -29.849 -11.465  1.00  0.00    -0.081 Cl
ENDBRANCH  17  18
ENDBRANCH   3  17
TORSDOF 4
ENDMDL
