MODEL 1
REMARK VINA RESULT: -8.433270563      0.000      0.000
REMARK  5 active torsions:
REMARK  status: ('A' for Active; 'I' for Inactive)
REMARK    1  A    between atoms: C2_2  and  C4_4 
REMARK    2  A    between atoms: C4_4  and  O1_5 
REMARK    3  A    between atoms: C4_4  and  C17_24 
REMARK    4  A    between atoms: O1_5  and  N1_6 
REMARK    5  A    between atoms: C16_21  and  O3_22 
ROOT
HETATM    1  N1  UNL     1       3.601 -26.734 -11.415  1.00  0.00    -0.271 N 
ATOM      2  H1  UNL     1       3.511 -27.249 -10.539  1.00  0.00     0.193 HD
HETATM    3  C5  UNL     1       2.518 -26.529 -12.061  1.00  0.00     0.043 C 
HETATM    4  C6  UNL     1       2.399 -25.807 -13.352  1.00  0.00     0.037 C 
HETATM    5  C7  UNL     1       3.316 -24.650 -13.491  1.00  0.00     0.016 C 
HETATM    6  C8  UNL     1       0.940 -25.433 -13.312  1.00  0.00     0.011 C 
HETATM    7  C9  UNL     1       0.313 -25.166 -14.649  1.00  0.00     0.071 C 
HETATM    8  C10 UNL     1      -1.149 -25.015 -14.346  1.00  0.00     0.054 C 
HETATM    9  C11 UNL     1      -1.930 -24.333 -15.147  1.00  0.00     0.088 C 
HETATM   10 BR1  UNL     1      -3.777 -24.161 -14.733  1.00  0.00    -0.061 Br
HETATM   11  O2  UNL     1      -1.643 -25.608 -13.214  1.00  0.00    -0.344 OA
HETATM   12  C12 UNL     1      -1.088 -26.816 -12.740  1.00  0.00     0.067 C 
HETATM   13  C13 UNL     1      -1.594 -27.176 -11.367  1.00  0.00     0.047 C 
HETATM   14  C14 UNL     1      -1.620 -27.906 -13.683  1.00  0.00     0.047 C 
HETATM   15  C15 UNL     1       0.373 -26.791 -12.868  1.00  0.00     0.059 C 
HETATM   16  C16 UNL     1       1.178 -26.991 -11.611  1.00  0.00     0.173 C 
ENDROOT
BRANCH   1  17
HETATM   17  O1  UNL     1       4.850 -26.351 -11.753  1.00  0.00    -0.262 OA
BRANCH  17  18
HETATM   18  C4  UNL     1       5.748 -27.166 -12.485  1.00  0.00     0.287 C 
BRANCH  18  19
HETATM   19  C2  UNL     1       6.375 -26.341 -13.536  1.00  0.00    -0.053 C 
HETATM   20  C1  UNL     1       6.370 -26.751 -14.790  1.00  0.00     0.017 C 
HETATM   21  C3  UNL     1       7.017 -25.046 -13.186  1.00  0.00     0.045 C 
ENDBRANCH  18  19
BRANCH  18  22
HETATM   22  C17 UNL     1       6.829 -27.688 -11.534  1.00  0.00     0.419 C 
HETATM   23  F1  UNL     1       6.327 -28.835 -10.927  1.00  0.00    -0.168 F 
HETATM   24  F2  UNL     1       7.091 -26.752 -10.579  1.00  0.00    -0.168 F 
HETATM   25  F3  UNL     1       7.952 -28.058 -12.217  1.00  0.00    -0.168 F 
ENDBRANCH  18  22
ENDBRANCH  17  18
ENDBRANCH   1  17
BRANCH  16  26
HETATM   26  O3  UNL     1       0.701 -26.057 -10.675  1.00  0.00    -0.389 OA
ATOM     27  H3  UNL     1      -0.082 -25.663 -11.040  1.00  0.00     0.210 HD
ENDBRANCH  16  26
TORSDOF 5
ENDMDL
MODEL 2
REMARK VINA RESULT: -8.357401448      1.645      2.046
REMARK  5 active torsions:
REMARK  status: ('A' for Active; 'I' for Inactive)
REMARK    1  A    between atoms: C2_2  and  C4_4 
REMARK    2  A    between atoms: C4_4  and  O1_5 
REMARK    3  A    between atoms: C4_4  and  C17_24 
REMARK    4  A    between atoms: O1_5  and  N1_6 
REMARK    5  A    between atoms: C16_21  and  O3_22 
ROOT
HETATM    1  N1  UNL     1       3.553 -26.768 -12.486  1.00  0.00    -0.271 N 
ATOM      2  H1  UNL     1       3.642 -27.219 -11.576  1.00  0.00     0.193 HD
HETATM    3  C5  UNL     1       2.364 -26.496 -12.867  1.00  0.00     0.043 C 
HETATM    4  C6  UNL     1       1.986 -25.842 -14.144  1.00  0.00     0.037 C 
HETATM    5  C7  UNL     1       2.930 -24.790 -14.593  1.00  0.00     0.016 C 
HETATM    6  C8  UNL     1       0.618 -25.326 -13.783  1.00  0.00     0.011 C 
HETATM    7  C9  UNL     1      -0.298 -25.078 -14.946  1.00  0.00     0.071 C 
HETATM    8  C10 UNL     1      -1.622 -24.768 -14.313  1.00  0.00     0.054 C 
HETATM    9  C11 UNL     1      -2.520 -24.061 -14.953  1.00  0.00     0.088 C 
HETATM   10 BR1  UNL     1      -4.186 -23.686 -14.121  1.00  0.00    -0.061 Br
HETATM   11  O2  UNL     1      -1.866 -25.242 -13.051  1.00  0.00    -0.344 OA
HETATM   12  C12 UNL     1      -1.309 -26.470 -12.629  1.00  0.00     0.067 C 
HETATM   13  C13 UNL     1      -1.487 -26.698 -11.150  1.00  0.00     0.047 C 
HETATM   14  C14 UNL     1      -2.144 -27.555 -13.325  1.00  0.00     0.047 C 
HETATM   15  C15 UNL     1       0.072 -26.594 -13.107  1.00  0.00     0.059 C 
HETATM   16  C16 UNL     1       1.144 -26.798 -12.071  1.00  0.00     0.173 C 
ENDROOT
BRANCH   1  17
HETATM   17  O1  UNL     1       4.705 -26.528 -13.146  1.00  0.00    -0.262 OA
BRANCH  17  18
HETATM   18  C4  UNL     1       5.842 -25.933 -12.545  1.00  0.00     0.287 C 
BRANCH  18  19
HETATM   19  C2  UNL     1       6.776 -27.007 -12.152  1.00  0.00    -0.053 C 
HETATM   20  C1  UNL     1       6.912 -28.076 -12.915  1.00  0.00     0.017 C 
HETATM   21  C3  UNL     1       7.566 -26.891 -10.898  1.00  0.00     0.045 C 
ENDBRANCH  18  19
BRANCH  18  22
HETATM   22  C17 UNL     1       6.521 -25.019 -13.569  1.00  0.00     0.419 C 
HETATM   23  F1  UNL     1       5.732 -23.878 -13.692  1.00  0.00    -0.168 F 
HETATM   24  F2  UNL     1       6.589 -25.650 -14.774  1.00  0.00    -0.168 F 
HETATM   25  F3  UNL     1       7.747 -24.608 -13.129  1.00  0.00    -0.168 F 
ENDBRANCH  18  22
ENDBRANCH  17  18
ENDBRANCH   1  17
BRANCH  16  26
HETATM   26  O3  UNL     1       0.990 -25.769 -11.126  1.00  0.00    -0.389 OA
ATOM     27  H3  UNL     1       1.576 -25.957 -10.402  1.00  0.00     0.210 HD
ENDBRANCH  16  26
TORSDOF 5
ENDMDL
MODEL 3
REMARK VINA RESULT: -8.339377765      2.748      3.860
REMARK  5 active torsions:
REMARK  status: ('A' for Active; 'I' for Inactive)
REMARK    1  A    between atoms: C2_2  and  C4_4 
REMARK    2  A    between atoms: C4_4  and  O1_5 
REMARK    3  A    between atoms: C4_4  and  C17_24 
REMARK    4  A    between atoms: O1_5  and  N1_6 
REMARK    5  A    between atoms: C16_21  and  O3_22 
ROOT
HETATM    1  N1  UNL     1       3.724 -26.683 -13.681  1.00  0.00    -0.271 N 
ATOM      2  H1  UNL     1       3.559 -26.014 -14.432  1.00  0.00     0.193 HD
HETATM    3  C5  UNL     1       2.684 -27.151 -13.105  1.00  0.00     0.043 C 
HETATM    4  C6  UNL     1       2.672 -28.133 -11.993  1.00  0.00     0.037 C 
HETATM    5  C7  UNL     1       3.728 -29.170 -12.084  1.00  0.00     0.016 C 
HETATM    6  C8  UNL     1       1.271 -28.669 -12.128  1.00  0.00     0.011 C 
HETATM    7  C9  UNL     1       0.699 -29.282 -10.882  1.00  0.00     0.071 C 
HETATM    8  C10 UNL     1      -0.736 -29.548 -11.228  1.00  0.00     0.054 C 
HETATM    9  C11 UNL     1      -1.415 -30.473 -10.596  1.00  0.00     0.088 C 
HETATM   10 BR1  UNL     1      -3.232 -30.784 -11.061  1.00  0.00    -0.061 Br
HETATM   11  O2  UNL     1      -1.315 -28.801 -12.220  1.00  0.00    -0.344 OA
HETATM   12  C12 UNL     1      -0.920 -27.461 -12.427  1.00  0.00     0.067 C 
HETATM   13  C13 UNL     1      -1.486 -26.891 -13.703  1.00  0.00     0.047 C 
HETATM   14  C14 UNL     1      -1.572 -26.665 -11.286  1.00  0.00     0.047 C 
HETATM   15  C15 UNL     1       0.534 -27.330 -12.289  1.00  0.00     0.059 C 
HETATM   16  C16 UNL     1       1.291 -26.776 -13.466  1.00  0.00     0.173 C 
ENDROOT
BRANCH   1  17
HETATM   17  O1  UNL     1       5.015 -26.970 -13.412  1.00  0.00    -0.262 OA
BRANCH  17  18
HETATM   18  C4  UNL     1       5.889 -26.085 -12.734  1.00  0.00     0.287 C 
BRANCH  18  19
HETATM   19  C2  UNL     1       7.024 -26.866 -12.205  1.00  0.00    -0.053 C 
HETATM   20  C1  UNL     1       7.367 -28.005 -12.778  1.00  0.00     0.017 C 
HETATM   21  C3  UNL     1       7.785 -26.376 -11.025  1.00  0.00     0.045 C 
ENDBRANCH  18  19
BRANCH  18  22
HETATM   22  C17 UNL     1       6.409 -25.044 -13.731  1.00  0.00     0.419 C 
HETATM   23  F1  UNL     1       5.433 -24.058 -13.845  1.00  0.00    -0.168 F 
HETATM   24  F2  UNL     1       6.602 -25.628 -14.946  1.00  0.00    -0.168 F 
HETATM   25  F3  UNL     1       7.538 -24.434 -13.264  1.00  0.00    -0.168 F 
ENDBRANCH  18  22
ENDBRANCH  17  18
ENDBRANCH   1  17
BRANCH  16  26
HETATM   26  O3  UNL     1       0.922 -27.549 -14.581  1.00  0.00    -0.389 OA
ATOM     27  H3  UNL     1      -0.023 -27.647 -14.560  1.00  0.00     0.210 HD
ENDBRANCH  16  26
TORSDOF 5
ENDMDL
MODEL 4
REMARK VINA RESULT: -8.182444396      2.767      3.898
REMARK  5 active torsions:
REMARK  status: ('A' for Active; 'I' for Inactive)
REMARK    1  A    between atoms: C2_2  and  C4_4 
REMARK    2  A    between atoms: C4_4  and  O1_5 
REMARK    3  A    between atoms: C4_4  and  C17_24 
REMARK    4  A    between atoms: O1_5  and  N1_6 
REMARK    5  A    between atoms: C16_21  and  O3_22 
ROOT
HETATM    1  N1  UNL     1       3.621 -26.568 -13.724  1.00  0.00    -0.271 N 
ATOM      2  H1  UNL     1       3.440 -25.891 -14.466  1.00  0.00     0.193 HD
HETATM    3  C5  UNL     1       2.592 -27.052 -13.141  1.00  0.00     0.043 C 
HETATM    4  C6  UNL     1       2.604 -28.047 -12.040  1.00  0.00     0.037 C 
HETATM    5  C7  UNL     1       3.668 -29.073 -12.157  1.00  0.00     0.016 C 
HETATM    6  C8  UNL     1       1.207 -28.596 -12.165  1.00  0.00     0.011 C 
HETATM    7  C9  UNL     1       0.656 -29.228 -10.920  1.00  0.00     0.071 C 
HETATM    8  C10 UNL     1      -0.780 -29.504 -11.251  1.00  0.00     0.054 C 
HETATM    9  C11 UNL     1      -1.443 -30.443 -10.622  1.00  0.00     0.088 C 
HETATM   10 BR1  UNL     1      -3.262 -30.767 -11.068  1.00  0.00    -0.061 Br
HETATM   11  O2  UNL     1      -1.379 -28.752 -12.227  1.00  0.00    -0.344 OA
HETATM   12  C12 UNL     1      -1.000 -27.405 -12.424  1.00  0.00     0.067 C 
HETATM   13  C13 UNL     1      -1.587 -26.826 -13.686  1.00  0.00     0.047 C 
HETATM   14  C14 UNL     1      -1.646 -26.629 -11.266  1.00  0.00     0.047 C 
HETATM   15  C15 UNL     1       0.454 -27.262 -12.301  1.00  0.00     0.059 C 
HETATM   16  C16 UNL     1       1.191 -26.687 -13.481  1.00  0.00     0.173 C 
ENDROOT
BRANCH   1  17
HETATM   17  O1  UNL     1       4.918 -26.845 -13.475  1.00  0.00    -0.262 OA
BRANCH  17  18
HETATM   18  C4  UNL     1       5.804 -25.939 -12.841  1.00  0.00     0.287 C 
BRANCH  18  19
HETATM   19  C2  UNL     1       6.953 -26.703 -12.317  1.00  0.00    -0.053 C 
HETATM   20  C1  UNL     1       7.668 -26.218 -11.318  1.00  0.00     0.017 C 
HETATM   21  C3  UNL     1       7.310 -28.019 -12.909  1.00  0.00     0.045 C 
ENDBRANCH  18  19
BRANCH  18  22
HETATM   22  C17 UNL     1       6.298 -24.924 -13.877  1.00  0.00     0.419 C 
HETATM   23  F1  UNL     1       6.599 -25.632 -15.037  1.00  0.00    -0.168 F 
HETATM   24  F2  UNL     1       7.424 -24.312 -13.419  1.00  0.00    -0.168 F 
HETATM   25  F3  UNL     1       5.317 -24.030 -14.200  1.00  0.00    -0.168 F 
ENDBRANCH  18  22
ENDBRANCH  17  18
ENDBRANCH   1  17
BRANCH  16  26
HETATM   26  O3  UNL     1       0.816 -27.450 -14.600  1.00  0.00    -0.389 OA
ATOM     27  H3  UNL     1      -0.126 -27.570 -14.562  1.00  0.00     0.210 HD
ENDBRANCH  16  26
TORSDOF 5
ENDMDL
MODEL 5
REMARK VINA RESULT: -8.113900451      2.061      3.133
REMARK  5 active torsions:
REMARK  status: ('A' for Active; 'I' for Inactive)
REMARK    1  A    between atoms: C2_2  and  C4_4 
REMARK    2  A    between atoms: C4_4  and  O1_5 
REMARK    3  A    between atoms: C4_4  and  C17_24 
REMARK    4  A    between atoms: O1_5  and  N1_6 
REMARK    5  A    between atoms: C16_21  and  O3_22 
ROOT
HETATM    1  N1  UNL     1       3.911 -26.662 -13.537  1.00  0.00    -0.271 N 
ATOM      2  H1  UNL     1       4.139 -26.455 -14.509  1.00  0.00     0.193 HD
HETATM    3  C5  UNL     1       2.687 -26.513 -13.201  1.00  0.00     0.043 C 
HETATM    4  C6  UNL     1       2.120 -26.753 -11.852  1.00  0.00     0.037 C 
HETATM    5  C7  UNL     1       2.721 -27.902 -11.133  1.00  0.00     0.016 C 
HETATM    6  C8  UNL     1       0.668 -26.941 -12.205  1.00  0.00     0.011 C 
HETATM    7  C9  UNL     1      -0.301 -26.678 -11.088  1.00  0.00     0.071 C 
HETATM    8  C10 UNL     1      -1.647 -26.743 -11.746  1.00  0.00     0.054 C 
HETATM    9  C11 UNL     1      -2.719 -27.028 -11.047  1.00  0.00     0.088 C 
HETATM   10 BR1  UNL     1      -4.409 -27.102 -11.912  1.00  0.00    -0.061 Br
HETATM   11  O2  UNL     1      -1.727 -26.499 -13.091  1.00  0.00    -0.344 OA
HETATM   12  C12 UNL     1      -0.839 -25.588 -13.706  1.00  0.00     0.067 C 
HETATM   13  C13 UNL     1      -0.920 -25.640 -15.210  1.00  0.00     0.047 C 
HETATM   14  C14 UNL     1      -1.346 -24.195 -13.305  1.00  0.00     0.047 C 
HETATM   15  C15 UNL     1       0.512 -25.746 -13.159  1.00  0.00     0.059 C 
HETATM   16  C16 UNL     1       1.616 -26.066 -14.131  1.00  0.00     0.173 C 
ENDROOT
BRANCH   1  17
HETATM   17  O1  UNL     1       4.938 -27.060 -12.757  1.00  0.00    -0.262 OA
BRANCH  17  18
HETATM   18  C4  UNL     1       5.953 -26.188 -12.294  1.00  0.00     0.287 C 
BRANCH  18  19
HETATM   19  C2  UNL     1       7.106 -27.003 -11.862  1.00  0.00    -0.053 C 
HETATM   20  C1  UNL     1       7.435 -28.091 -12.534  1.00  0.00     0.017 C 
HETATM   21  C3  UNL     1       7.901 -26.603 -10.670  1.00  0.00     0.045 C 
ENDBRANCH  18  19
BRANCH  18  22
HETATM   22  C17 UNL     1       6.381 -25.272 -13.446  1.00  0.00     0.419 C 
HETATM   23  F1  UNL     1       7.612 -24.721 -13.100  1.00  0.00    -0.168 F 
HETATM   24  F2  UNL     1       5.469 -24.274 -13.602  1.00  0.00    -0.168 F 
HETATM   25  F3  UNL     1       6.573 -25.982 -14.596  1.00  0.00    -0.168 F 
ENDBRANCH  18  22
ENDBRANCH  17  18
ENDBRANCH   1  17
BRANCH  16  26
HETATM   26  O3  UNL     1       1.194 -27.190 -14.862  1.00  0.00    -0.389 OA
ATOM     27  H3  UNL     1       1.089 -26.920 -15.766  1.00  0.00     0.210 HD
ENDBRANCH  16  26
TORSDOF 5
ENDMDL
