MODEL 1
REMARK VINA RESULT: -6.474940779      0.000      0.000
REMARK  8 active torsions:
REMARK  status: ('A' for Active; 'I' for Inactive)
REMARK    1  A    between atoms: N1_1  and  C1_5 
REMARK    2  A    between atoms: C1_5  and  C2_6 
REMARK    3  A    between atoms: C5_9  and  C6_10 
REMARK    4  A    between atoms: C6_10  and  C7_11 
REMARK    5  A    between atoms: C7_11  and  C8_12 
REMARK    6  A    between atoms: C8_12  and  C9_13 
REMARK    7  A    between atoms: C9_13  and  C10_14 
REMARK    8  A    between atoms: C10_14  and  C11_15 
ROOT
HETATM    1  C2  UNL     1      77.567 405.947 119.442  1.00  0.00    -0.033 A 
HETATM    2  C3  UNL     1      76.426 405.203 119.664  1.00  0.00     0.009 A 
HETATM    3  C4  UNL     1      76.467 403.927 120.201  1.00  0.00     0.007 A 
HETATM    4  C5  UNL     1      77.669 403.345 120.538  1.00  0.00    -0.058 A 
HETATM    5  C14 UNL     1      78.809 404.090 120.315  1.00  0.00     0.007 A 
HETATM    6  C15 UNL     1      78.773 405.370 119.776  1.00  0.00     0.009 A 
ENDROOT
BRANCH   4   7
HETATM    7  C6  UNL     1      77.765 401.977 121.119  1.00  0.00     0.038 C 
BRANCH   7   8
HETATM    8  C7  UNL     1      76.584 401.115 120.721  1.00  0.00     0.005 C 
BRANCH   8   9
HETATM    9  C8  UNL     1      77.127 399.857 120.115  1.00  0.00     0.000 C 
BRANCH   9  10
HETATM   10  C9  UNL     1      76.634 399.589 118.720  1.00  0.00     0.000 C 
BRANCH  10  11
HETATM   11  C10 UNL     1      76.208 400.878 118.008  1.00  0.00     0.004 C 
BRANCH  11  12
HETATM   12  C11 UNL     1      77.301 401.214 117.036  1.00  0.00    -0.014 A 
HETATM   13  C12 UNL     1      78.673 401.529 117.480  1.00  0.00     0.005 A 
HETATM   14  C13 UNL     1      77.801 402.651 117.062  1.00  0.00     0.005 A 
ENDBRANCH  11  12
ENDBRANCH  10  11
ENDBRANCH   9  10
ENDBRANCH   8   9
ENDBRANCH   7   8
ENDBRANCH   4   7
BRANCH   1  15
HETATM   15  C1  UNL     1      77.532 407.324 118.861  1.00  0.00     0.268 C 
BRANCH  15  16
HETATM   16  N1  UNL     1      78.393 408.223 119.607  1.00  0.00    -0.075 N 
ATOM     17  H13 UNL     1      79.194 408.523 119.052  1.00  0.00     0.274 HD
ATOM     18  H12 UNL     1      77.954 409.132 119.748  1.00  0.00     0.274 HD
ATOM     19  H11 UNL     1      78.682 407.802 120.490  1.00  0.00     0.274 HD
ENDBRANCH  15  16
ENDBRANCH   1  15
TORSDOF 8
ENDMDL
MODEL 2
REMARK VINA RESULT: -6.473568214      0.065      1.178
REMARK  8 active torsions:
REMARK  status: ('A' for Active; 'I' for Inactive)
REMARK    1  A    between atoms: N1_1  and  C1_5 
REMARK    2  A    between atoms: C1_5  and  C2_6 
REMARK    3  A    between atoms: C5_9  and  C6_10 
REMARK    4  A    between atoms: C6_10  and  C7_11 
REMARK    5  A    between atoms: C7_11  and  C8_12 
REMARK    6  A    between atoms: C8_12  and  C9_13 
REMARK    7  A    between atoms: C9_13  and  C10_14 
REMARK    8  A    between atoms: C10_14  and  C11_15 
ROOT
HETATM    1  C2  UNL     1      77.560 405.888 119.398  1.00  0.00    -0.033 A 
HETATM    2  C3  UNL     1      78.760 405.304 119.752  1.00  0.00     0.009 A 
HETATM    3  C4  UNL     1      78.831 404.042 120.316  1.00  0.00     0.007 A 
HETATM    4  C5  UNL     1      77.687 403.310 120.548  1.00  0.00    -0.058 A 
HETATM    5  C14 UNL     1      76.488 403.895 120.195  1.00  0.00     0.007 A 
HETATM    6  C15 UNL     1      76.412 405.161 119.629  1.00  0.00     0.009 A 
ENDROOT
BRANCH   4   7
HETATM    7  C6  UNL     1      77.712 401.949 121.152  1.00  0.00     0.038 C 
BRANCH   7   8
HETATM    8  C7  UNL     1      76.537 401.109 120.691  1.00  0.00     0.005 C 
BRANCH   8   9
HETATM    9  C8  UNL     1      77.089 399.853 120.090  1.00  0.00     0.000 C 
BRANCH   9  10
HETATM   10  C9  UNL     1      76.631 399.598 118.681  1.00  0.00     0.000 C 
BRANCH  10  11
HETATM   11  C10 UNL     1      76.213 400.894 117.974  1.00  0.00     0.004 C 
BRANCH  11  12
HETATM   12  C11 UNL     1      77.315 401.234 117.013  1.00  0.00    -0.014 A 
HETATM   13  C12 UNL     1      78.685 401.535 117.468  1.00  0.00     0.005 A 
HETATM   14  C13 UNL     1      77.823 402.667 117.060  1.00  0.00     0.005 A 
ENDBRANCH  11  12
ENDBRANCH  10  11
ENDBRANCH   9  10
ENDBRANCH   8   9
ENDBRANCH   7   8
ENDBRANCH   4   7
BRANCH   1  15
HETATM   15  C1  UNL     1      77.474 407.250 118.790  1.00  0.00     0.268 C 
BRANCH  15  16
HETATM   16  N1  UNL     1      78.340 408.184 119.485  1.00  0.00    -0.075 N 
ATOM     17  H13 UNL     1      78.839 407.735 120.253  1.00  0.00     0.274 HD
ATOM     18  H12 UNL     1      79.141 408.450 118.914  1.00  0.00     0.274 HD
ATOM     19  H11 UNL     1      77.815 408.999 119.803  1.00  0.00     0.274 HD
ENDBRANCH  15  16
ENDBRANCH   1  15
TORSDOF 8
ENDMDL
MODEL 3
REMARK VINA RESULT: -6.380953205      1.349      2.531
REMARK  8 active torsions:
REMARK  status: ('A' for Active; 'I' for Inactive)
REMARK    1  A    between atoms: N1_1  and  C1_5 
REMARK    2  A    between atoms: C1_5  and  C2_6 
REMARK    3  A    between atoms: C5_9  and  C6_10 
REMARK    4  A    between atoms: C6_10  and  C7_11 
REMARK    5  A    between atoms: C7_11  and  C8_12 
REMARK    6  A    between atoms: C8_12  and  C9_13 
REMARK    7  A    between atoms: C9_13  and  C10_14 
REMARK    8  A    between atoms: C10_14  and  C11_15 
ROOT
HETATM    1  C2  UNL     1      77.722 405.752 119.532  1.00  0.00    -0.033 A 
HETATM    2  C3  UNL     1      77.251 405.300 118.317  1.00  0.00     0.009 A 
HETATM    3  C4  UNL     1      77.715 404.134 117.731  1.00  0.00     0.007 A 
HETATM    4  C5  UNL     1      78.679 403.371 118.351  1.00  0.00    -0.058 A 
HETATM    5  C14 UNL     1      79.149 403.825 119.566  1.00  0.00     0.007 A 
HETATM    6  C15 UNL     1      78.687 404.994 120.158  1.00  0.00     0.009 A 
ENDROOT
BRANCH   4   7
HETATM    7  C6  UNL     1      79.210 402.110 117.762  1.00  0.00     0.038 C 
BRANCH   7   8
HETATM    8  C7  UNL     1      79.519 401.079 118.828  1.00  0.00     0.005 C 
BRANCH   8   9
HETATM    9  C8  UNL     1      78.747 399.839 118.495  1.00  0.00     0.000 C 
BRANCH   9  10
HETATM   10  C9  UNL     1      77.852 399.360 119.604  1.00  0.00     0.000 C 
BRANCH  10  11
HETATM   11  C10 UNL     1      77.589 400.460 120.640  1.00  0.00     0.004 C 
BRANCH  11  12
HETATM   12  C11 UNL     1      76.152 400.865 120.483  1.00  0.00    -0.014 A 
HETATM   13  C12 UNL     1      75.620 401.382 119.208  1.00  0.00     0.005 A 
HETATM   14  C13 UNL     1      75.894 402.352 120.292  1.00  0.00     0.005 A 
ENDBRANCH  11  12
ENDBRANCH  10  11
ENDBRANCH   9  10
ENDBRANCH   8   9
ENDBRANCH   7   8
ENDBRANCH   4   7
BRANCH   1  15
HETATM   15  C1  UNL     1      77.228 407.010 120.171  1.00  0.00     0.268 C 
BRANCH  15  16
HETATM   16  N1  UNL     1      77.230 408.109 119.224  1.00  0.00    -0.075 N 
ATOM     17  H13 UNL     1      77.699 408.931 119.602  1.00  0.00     0.274 HD
ATOM     18  H12 UNL     1      77.851 407.924 118.436  1.00  0.00     0.274 HD
ATOM     19  H11 UNL     1      76.282 408.325 118.914  1.00  0.00     0.274 HD
ENDBRANCH  15  16
ENDBRANCH   1  15
TORSDOF 8
ENDMDL
MODEL 4
REMARK VINA RESULT: -6.285862176      1.175      1.513
REMARK  8 active torsions:
REMARK  status: ('A' for Active; 'I' for Inactive)
REMARK    1  A    between atoms: N1_1  and  C1_5 
REMARK    2  A    between atoms: C1_5  and  C2_6 
REMARK    3  A    between atoms: C5_9  and  C6_10 
REMARK    4  A    between atoms: C6_10  and  C7_11 
REMARK    5  A    between atoms: C7_11  and  C8_12 
REMARK    6  A    between atoms: C8_12  and  C9_13 
REMARK    7  A    between atoms: C9_13  and  C10_14 
REMARK    8  A    between atoms: C10_14  and  C11_15 
ROOT
HETATM    1  C2  UNL     1      77.696 405.684 119.157  1.00  0.00    -0.033 A 
HETATM    2  C3  UNL     1      76.808 405.042 118.317  1.00  0.00     0.009 A 
HETATM    3  C4  UNL     1      76.223 403.830 118.645  1.00  0.00     0.007 A 
HETATM    4  C5  UNL     1      76.511 403.212 119.842  1.00  0.00    -0.058 A 
HETATM    5  C14 UNL     1      77.399 403.855 120.680  1.00  0.00     0.007 A 
HETATM    6  C15 UNL     1      77.989 405.070 120.355  1.00  0.00     0.009 A 
ENDROOT
BRANCH   4   7
HETATM    7  C6  UNL     1      75.907 401.910 120.240  1.00  0.00     0.038 C 
BRANCH   7   8
HETATM    8  C7  UNL     1      75.621 401.034 119.037  1.00  0.00     0.005 C 
BRANCH   8   9
HETATM    9  C8  UNL     1      76.283 399.711 119.275  1.00  0.00     0.000 C 
BRANCH   9  10
HETATM   10  C9  UNL     1      77.294 399.338 118.226  1.00  0.00     0.000 C 
BRANCH  10  11
HETATM   11  C10 UNL     1      77.728 400.551 117.394  1.00  0.00     0.004 C 
BRANCH  11  12
HETATM   12  C11 UNL     1      79.153 400.840 117.768  1.00  0.00    -0.014 A 
HETATM   13  C12 UNL     1      79.539 401.234 119.137  1.00  0.00     0.005 A 
HETATM   14  C13 UNL     1      79.475 402.290 118.101  1.00  0.00     0.005 A 
ENDBRANCH  11  12
ENDBRANCH  10  11
ENDBRANCH   9  10
ENDBRANCH   8   9
ENDBRANCH   7   8
ENDBRANCH   4   7
BRANCH   1  15
HETATM   15  C1  UNL     1      78.333 406.991 118.810  1.00  0.00     0.268 C 
BRANCH  15  16
HETATM   16  N1  UNL     1      77.384 408.080 118.937  1.00  0.00    -0.075 N 
ATOM     17  H13 UNL     1      77.456 408.736 118.159  1.00  0.00     0.274 HD
ATOM     18  H12 UNL     1      76.426 407.764 118.784  1.00  0.00     0.274 HD
ATOM     19  H11 UNL     1      77.487 408.550 119.836  1.00  0.00     0.274 HD
ENDBRANCH  15  16
ENDBRANCH   1  15
TORSDOF 8
ENDMDL
MODEL 5
REMARK VINA RESULT: -6.242017819      7.562     10.461
REMARK  8 active torsions:
REMARK  status: ('A' for Active; 'I' for Inactive)
REMARK    1  A    between atoms: N1_1  and  C1_5 
REMARK    2  A    between atoms: C1_5  and  C2_6 
REMARK    3  A    between atoms: C5_9  and  C6_10 
REMARK    4  A    between atoms: C6_10  and  C7_11 
REMARK    5  A    between atoms: C7_11  and  C8_12 
REMARK    6  A    between atoms: C8_12  and  C9_13 
REMARK    7  A    between atoms: C9_13  and  C10_14 
REMARK    8  A    between atoms: C10_14  and  C11_15 
ROOT
HETATM    1  C2  UNL     1      77.468 396.114 117.663  1.00  0.00    -0.033 A 
HETATM    2  C3  UNL     1      76.194 395.585 117.707  1.00  0.00     0.009 A 
HETATM    3  C4  UNL     1      75.903 394.316 117.236  1.00  0.00     0.007 A 
HETATM    4  C5  UNL     1      76.892 393.523 116.697  1.00  0.00    -0.058 A 
HETATM    5  C14 UNL     1      78.165 394.053 116.654  1.00  0.00     0.007 A 
HETATM    6  C15 UNL     1      78.461 395.326 117.125  1.00  0.00     0.009 A 
ENDROOT
BRANCH   4   7
HETATM    7  C6  UNL     1      76.630 392.151 116.178  1.00  0.00     0.038 C 
BRANCH   7   8
HETATM    8  C7  UNL     1      77.915 391.383 115.947  1.00  0.00     0.005 C 
BRANCH   8   9
HETATM    9  C8  UNL     1      77.686 389.973 116.398  1.00  0.00     0.000 C 
BRANCH   9  10
HETATM   10  C9  UNL     1      78.484 389.582 117.610  1.00  0.00     0.000 C 
BRANCH  10  11
HETATM   11  C10 UNL     1      79.219 390.782 118.221  1.00  0.00     0.004 C 
BRANCH  11  12
HETATM   12  C11 UNL     1      78.628 391.001 119.583  1.00  0.00    -0.014 A 
HETATM   13  C12 UNL     1      77.191 391.272 119.777  1.00  0.00     0.005 A 
HETATM   14  C13 UNL     1      78.134 392.409 119.877  1.00  0.00     0.005 A 
ENDBRANCH  11  12
ENDBRANCH  10  11
ENDBRANCH   9  10
ENDBRANCH   8   9
ENDBRANCH   7   8
ENDBRANCH   4   7
BRANCH   1  15
HETATM   15  C1  UNL     1      77.790 397.484 118.169  1.00  0.00     0.268 C 
BRANCH  15  16
HETATM   16  N1  UNL     1      77.577 397.571 119.601  1.00  0.00    -0.075 N 
ATOM     17  H13 UNL     1      76.666 397.200 119.870  1.00  0.00     0.274 HD
ATOM     18  H12 UNL     1      78.168 396.914 120.110  1.00  0.00     0.274 HD
ATOM     19  H11 UNL     1      77.706 398.528 119.931  1.00  0.00     0.274 HD
ENDBRANCH  15  16
ENDBRANCH   1  15
TORSDOF 8
ENDMDL
