MODEL 1
REMARK VINA RESULT: -6.803580513      0.000      0.000
REMARK  6 active torsions:
REMARK  status: ('A' for Active; 'I' for Inactive)
REMARK    1  A    between atoms: C2_4  and  C3_5 
REMARK    2  A    between atoms: C3_5  and  C4_6 
REMARK    3  A    between atoms: C4_6  and  C5_7 
REMARK    4  A    between atoms: C5_7  and  C6_8 
REMARK    5  A    between atoms: C6_8  and  C7_9 
REMARK    6  A    between atoms: C7_9  and  C8_10 
ROOT
HETATM    1  C4  UNL     1      78.095 407.443 119.222  1.00  0.00     0.006 C 
ENDROOT
BRANCH   1   2
HETATM    2  C3  UNL     1      78.582 408.647 119.949  1.00  0.00     0.058 C 
BRANCH   2   3
HETATM    3  C2  UNL     1      77.561 409.718 120.003  1.00  0.00     0.025 A 
HETATM    4  N1  UNL     1      76.985 410.311 118.962  1.00  0.00    -0.355 N 
HETATM    5  C1  UNL     1      76.118 411.224 119.401  1.00  0.00     0.180 A 
ATOM      6  H1  UNL     1      77.174 410.100 117.982  1.00  0.00     0.166 HD
HETATM    7  N2  UNL     1      76.141 411.218 120.755  1.00  0.00    -0.360 N 
HETATM    8  C14 UNL     1      77.030 410.289 121.126  1.00  0.00     0.113 A 
ATOM      9  H2  UNL     1      75.586 411.808 121.375  1.00  0.00     0.166 HD
ENDBRANCH   2   3
ENDBRANCH   1   2
BRANCH   1  10
HETATM   10  C5  UNL     1      76.896 406.767 119.832  1.00  0.00     0.000 C 
BRANCH  10  11
HETATM   11  C6  UNL     1      77.166 405.333 120.203  1.00  0.00     0.000 C 
BRANCH  11  12
HETATM   12  C7  UNL     1      78.596 404.950 120.104  1.00  0.00     0.004 C 
BRANCH  12  13
HETATM   13  C8  UNL     1      78.833 403.467 120.014  1.00  0.00    -0.014 C 
HETATM   14  C9  UNL     1      78.884 402.962 118.606  1.00  0.00     0.004 C 
HETATM   15  C10 UNL     1      79.323 401.524 118.594  1.00  0.00     0.000 C 
HETATM   16  C11 UNL     1      79.241 400.871 119.946  1.00  0.00     0.000 C 
HETATM   17  C12 UNL     1      78.021 401.258 120.728  1.00  0.00     0.000 C 
HETATM   18  C13 UNL     1      77.737 402.721 120.742  1.00  0.00     0.004 C 
ENDBRANCH  12  13
ENDBRANCH  11  12
ENDBRANCH  10  11
ENDBRANCH   1  10
TORSDOF 6
ENDMDL
MODEL 2
REMARK VINA RESULT: -6.739152249      1.710      2.216
REMARK  6 active torsions:
REMARK  status: ('A' for Active; 'I' for Inactive)
REMARK    1  A    between atoms: C2_4  and  C3_5 
REMARK    2  A    between atoms: C3_5  and  C4_6 
REMARK    3  A    between atoms: C4_6  and  C5_7 
REMARK    4  A    between atoms: C5_7  and  C6_8 
REMARK    5  A    between atoms: C6_8  and  C7_9 
REMARK    6  A    between atoms: C7_9  and  C8_10 
ROOT
HETATM    1  C4  UNL     1      77.951 407.346 119.472  1.00  0.00     0.006 C 
ENDROOT
BRANCH   1   2
HETATM    2  C3  UNL     1      77.286 408.664 119.290  1.00  0.00     0.058 C 
BRANCH   2   3
HETATM    3  C2  UNL     1      77.763 409.670 120.266  1.00  0.00     0.025 A 
HETATM    4  N1  UNL     1      79.019 410.071 120.436  1.00  0.00    -0.355 N 
HETATM    5  C1  UNL     1      79.060 410.986 121.404  1.00  0.00     0.180 A 
ATOM      6  H1  UNL     1      79.823 409.732 119.908  1.00  0.00     0.166 HD
HETATM    7  N2  UNL     1      77.802 411.176 121.868  1.00  0.00    -0.360 N 
HETATM    8  C14 UNL     1      77.002 410.365 121.166  1.00  0.00     0.113 A 
ATOM      9  H2  UNL     1      77.518 411.815 122.610  1.00  0.00     0.166 HD
ENDBRANCH   2   3
ENDBRANCH   1   2
BRANCH   1  10
HETATM   10  C5  UNL     1      77.187 406.351 120.305  1.00  0.00     0.000 C 
BRANCH  10  11
HETATM   11  C6  UNL     1      76.596 405.238 119.482  1.00  0.00     0.000 C 
BRANCH  11  12
HETATM   12  C7  UNL     1      77.257 405.053 118.166  1.00  0.00     0.004 C 
BRANCH  12  13
HETATM   13  C8  UNL     1      77.514 403.617 117.801  1.00  0.00    -0.014 C 
HETATM   14  C9  UNL     1      76.448 402.685 118.287  1.00  0.00     0.004 C 
HETATM   15  C10 UNL     1      76.669 401.312 117.714  1.00  0.00     0.000 C 
HETATM   16  C11 UNL     1      78.043 401.130 117.130  1.00  0.00     0.000 C 
HETATM   17  C12 UNL     1      79.131 401.767 117.943  1.00  0.00     0.000 C 
HETATM   18  C13 UNL     1      78.836 403.162 118.380  1.00  0.00     0.004 C 
ENDBRANCH  12  13
ENDBRANCH  11  12
ENDBRANCH  10  11
ENDBRANCH   1  10
TORSDOF 6
ENDMDL
MODEL 3
REMARK VINA RESULT: -6.722145252      1.707      2.369
REMARK  6 active torsions:
REMARK  status: ('A' for Active; 'I' for Inactive)
REMARK    1  A    between atoms: C2_4  and  C3_5 
REMARK    2  A    between atoms: C3_5  and  C4_6 
REMARK    3  A    between atoms: C4_6  and  C5_7 
REMARK    4  A    between atoms: C5_7  and  C6_8 
REMARK    5  A    between atoms: C6_8  and  C7_9 
REMARK    6  A    between atoms: C7_9  and  C8_10 
ROOT
HETATM    1  C4  UNL     1      78.243 407.332 118.999  1.00  0.00     0.006 C 
ENDROOT
BRANCH   1   2
HETATM    2  C3  UNL     1      77.230 408.368 119.334  1.00  0.00     0.058 C 
BRANCH   2   3
HETATM    3  C2  UNL     1      77.805 409.474 120.132  1.00  0.00     0.025 A 
HETATM    4  N1  UNL     1      77.220 410.102 121.147  1.00  0.00    -0.355 N 
HETATM    5  C1  UNL     1      78.044 411.039 121.618  1.00  0.00     0.180 A 
ATOM      6  H1  UNL     1      76.289 409.899 121.510  1.00  0.00     0.166 HD
HETATM    7  N2  UNL     1      79.183 411.013 120.887  1.00  0.00    -0.360 N 
HETATM    8  C14 UNL     1      79.036 410.048 119.972  1.00  0.00     0.113 A 
ATOM      9  H2  UNL     1      79.999 411.613 121.010  1.00  0.00     0.166 HD
ENDBRANCH   2   3
ENDBRANCH   1   2
BRANCH   1  10
HETATM   10  C5  UNL     1      78.663 406.451 120.145  1.00  0.00     0.000 C 
BRANCH  10  11
HETATM   11  C6  UNL     1      78.285 405.009 119.936  1.00  0.00     0.000 C 
BRANCH  11  12
HETATM   12  C7  UNL     1      76.843 404.732 120.156  1.00  0.00     0.004 C 
BRANCH  12  13
HETATM   13  C8  UNL     1      76.471 403.278 120.052  1.00  0.00    -0.014 C 
HETATM   14  C9  UNL     1      77.487 402.363 120.663  1.00  0.00     0.004 C 
HETATM   15  C10 UNL     1      76.953 400.958 120.700  1.00  0.00     0.000 C 
HETATM   16  C11 UNL     1      75.751 400.760 119.819  1.00  0.00     0.000 C 
HETATM   17  C12 UNL     1      75.847 401.472 118.502  1.00  0.00     0.000 C 
HETATM   18  C13 UNL     1      76.302 402.888 118.600  1.00  0.00     0.004 C 
ENDBRANCH  12  13
ENDBRANCH  11  12
ENDBRANCH  10  11
ENDBRANCH   1  10
TORSDOF 6
ENDMDL
MODEL 4
REMARK VINA RESULT: -6.689110205      3.257      7.553
REMARK  6 active torsions:
REMARK  status: ('A' for Active; 'I' for Inactive)
REMARK    1  A    between atoms: C2_4  and  C3_5 
REMARK    2  A    between atoms: C3_5  and  C4_6 
REMARK    3  A    between atoms: C4_6  and  C5_7 
REMARK    4  A    between atoms: C5_7  and  C6_8 
REMARK    5  A    between atoms: C6_8  and  C7_9 
REMARK    6  A    between atoms: C7_9  and  C8_10 
ROOT
HETATM    1  C4  UNL     1      78.511 405.307 119.699  1.00  0.00     0.006 C 
ENDROOT
BRANCH   1   2
HETATM    2  C3  UNL     1      78.791 404.059 120.459  1.00  0.00     0.058 C 
BRANCH   2   3
HETATM    3  C2  UNL     1      78.917 402.880 119.572  1.00  0.00     0.025 A 
HETATM    4  N1  UNL     1      78.841 402.880 118.245  1.00  0.00    -0.355 N 
HETATM    5  C1  UNL     1      79.003 401.635 117.796  1.00  0.00     0.180 A 
ATOM      6  H1  UNL     1      78.683 403.702 117.662  1.00  0.00     0.166 HD
HETATM    7  N2  UNL     1      79.186 400.818 118.860  1.00  0.00    -0.360 N 
HETATM    8  C14 UNL     1      79.134 401.586 119.955  1.00  0.00     0.113 A 
ATOM      9  H2  UNL     1      79.336 399.809 118.833  1.00  0.00     0.166 HD
ENDBRANCH   2   3
ENDBRANCH   1   2
BRANCH   1  10
HETATM   10  C5  UNL     1      77.185 405.956 119.997  1.00  0.00     0.000 C 
BRANCH  10  11
HETATM   11  C6  UNL     1      76.897 407.125 119.094  1.00  0.00     0.000 C 
BRANCH  11  12
HETATM   12  C7  UNL     1      78.000 408.116 119.029  1.00  0.00     0.004 C 
BRANCH  12  13
HETATM   13  C8  UNL     1      77.937 409.180 120.091  1.00  0.00    -0.014 C 
HETATM   14  C9  UNL     1      76.699 410.018 120.013  1.00  0.00     0.004 C 
HETATM   15  C10 UNL     1      76.612 410.916 121.216  1.00  0.00     0.000 C 
HETATM   16  C11 UNL     1      77.908 411.017 121.972  1.00  0.00     0.000 C 
HETATM   17  C12 UNL     1      79.115 411.097 121.085  1.00  0.00     0.000 C 
HETATM   18  C13 UNL     1      79.134 410.098 119.979  1.00  0.00     0.004 C 
ENDBRANCH  12  13
ENDBRANCH  11  12
ENDBRANCH  10  11
ENDBRANCH   1  10
TORSDOF 6
ENDMDL
MODEL 5
REMARK VINA RESULT: -6.673380306      3.257      7.451
REMARK  6 active torsions:
REMARK  status: ('A' for Active; 'I' for Inactive)
REMARK    1  A    between atoms: C2_4  and  C3_5 
REMARK    2  A    between atoms: C3_5  and  C4_6 
REMARK    3  A    between atoms: C4_6  and  C5_7 
REMARK    4  A    between atoms: C5_7  and  C6_8 
REMARK    5  A    between atoms: C6_8  and  C7_9 
REMARK    6  A    between atoms: C7_9  and  C8_10 
ROOT
HETATM    1  C4  UNL     1      78.720 404.671 119.727  1.00  0.00     0.006 C 
ENDROOT
BRANCH   1   2
HETATM    2  C3  UNL     1      78.485 404.342 118.295  1.00  0.00     0.058 C 
BRANCH   2   3
HETATM    3  C2  UNL     1      77.587 403.176 118.130  1.00  0.00     0.025 A 
HETATM    4  N1  UNL     1      76.381 403.027 118.669  1.00  0.00    -0.355 N 
HETATM    5  C1  UNL     1      75.876 401.851 118.295  1.00  0.00     0.180 A 
ATOM      6  H1  UNL     1      75.916 403.705 119.272  1.00  0.00     0.166 HD
HETATM    7  N2  UNL     1      76.779 401.231 117.499  1.00  0.00    -0.360 N 
HETATM    8  C14 UNL     1      77.833 402.049 117.397  1.00  0.00     0.113 A 
ATOM      9  H2  UNL     1      76.675 400.316 117.060  1.00  0.00     0.166 HD
ENDBRANCH   2   3
ENDBRANCH   1   2
BRANCH   1  10
HETATM   10  C5  UNL     1      78.626 406.133 120.073  1.00  0.00     0.000 C 
BRANCH  10  11
HETATM   11  C6  UNL     1      77.285 406.724 119.727  1.00  0.00     0.000 C 
BRANCH  11  12
HETATM   12  C7  UNL     1      77.367 408.085 119.140  1.00  0.00     0.004 C 
BRANCH  12  13
HETATM   13  C8  UNL     1      77.565 409.182 120.150  1.00  0.00    -0.014 C 
HETATM   14  C9  UNL     1      76.502 410.234 120.096  1.00  0.00     0.004 C 
HETATM   15  C10 UNL     1      76.655 411.177 121.258  1.00  0.00     0.000 C 
HETATM   16  C11 UNL     1      77.990 411.062 121.939  1.00  0.00     0.000 C 
HETATM   17  C12 UNL     1      79.137 410.879 120.989  1.00  0.00     0.000 C 
HETATM   18  C13 UNL     1      78.903 409.854 119.932  1.00  0.00     0.004 C 
ENDBRANCH  12  13
ENDBRANCH  11  12
ENDBRANCH  10  11
ENDBRANCH   1  10
TORSDOF 6
ENDMDL
