MODEL 1
REMARK VINA RESULT: -9.353864904      0.000      0.000
REMARK  4 active torsions:
REMARK  status: ('A' for Active; 'I' for Inactive)
REMARK    1  A    between atoms: N1_1  and  C1_4 
REMARK    2  A    between atoms: C2_5  and  C3_6 
REMARK       I    between atoms: C3_6  and  N2_8 
REMARK    3  A    between atoms: N4_18  and  C10_19 
REMARK    4  A    between atoms: C10_19  and  C11_20 
REMARK       I    between atoms: C11_20  and  N5_22 
ROOT
HETATM    1  C1  UNL     1     -17.353 -37.978  -9.174  1.00  0.00     0.133 A 
HETATM    2  C2  UNL     1     -17.396 -37.136 -10.260  1.00  0.00     0.093 A 
HETATM    3  C9  UNL     1     -18.541 -37.481 -10.958  1.00  0.00     0.128 A 
HETATM    4  N3  UNL     1     -19.132 -38.503 -10.273  1.00  0.00    -0.307 N 
ATOM      5  H3  UNL     1     -19.998 -38.967 -10.549  1.00  0.00     0.186 HD
HETATM    6  N4  UNL     1     -18.430 -38.800  -9.214  1.00  0.00    -0.268 N 
ENDROOT
BRANCH   6   7
HETATM    7  C10 UNL     1     -18.724 -39.833  -8.224  1.00  0.00     0.253 C 
BRANCH   7   8
HETATM    8  C11 UNL     1     -19.770 -39.378  -7.294  1.00  0.00     0.239 C 
HETATM    9  O3  UNL     1     -19.552 -38.425  -6.532  1.00  0.00    -0.271 OA
HETATM   10  N5  UNL     1     -21.019 -40.052  -7.294  1.00  0.00    -0.350 N 
HETATM   11  C12 UNL     1     -22.144 -39.723  -6.438  1.00  0.00     0.126 C 
HETATM   12  C20 UNL     1     -21.429 -41.167  -8.109  1.00  0.00     0.135 C 
HETATM   13  C13 UNL     1     -23.318 -39.942  -7.335  1.00  0.00     0.031 C 
HETATM   14  C14 UNL     1     -22.943 -41.122  -8.164  1.00  0.00    -0.023 C 
HETATM   15  C15 UNL     1     -23.459 -42.426  -7.635  1.00  0.00     0.011 C 
HETATM   16  C19 UNL     1     -23.324 -40.872  -9.604  1.00  0.00     0.011 C 
HETATM   17  C16 UNL     1     -24.860 -42.742  -8.032  1.00  0.00     0.001 C 
HETATM   18  C17 UNL     1     -25.176 -42.442  -9.465  1.00  0.00     0.000 C 
HETATM   19  C18 UNL     1     -24.844 -40.963  -9.691  1.00  0.00     0.001 C 
ENDBRANCH   7   8
ENDBRANCH   6   7
BRANCH   1  20
HETATM   20  N1  UNL     1     -16.428 -37.974  -8.269  1.00  0.00    -0.383 N 
ATOM     21  H12 UNL     1     -15.789 -37.205  -8.063  1.00  0.00     0.157 HD
ATOM     22  H11 UNL     1     -16.220 -38.752  -7.641  1.00  0.00     0.157 HD
ENDBRANCH   1  20
BRANCH   2  23
HETATM   23  C3  UNL     1     -16.424 -36.085 -10.607  1.00  0.00     0.259 C 
HETATM   24  O1  UNL     1     -15.283 -36.438 -10.974  1.00  0.00    -0.267 OA
HETATM   25  N2  UNL     1     -16.747 -34.707 -10.535  1.00  0.00    -0.341 N 
HETATM   26  C4  UNL     1     -18.085 -34.355 -10.103  1.00  0.00     0.127 C 
HETATM   27  C8  UNL     1     -15.751 -33.739 -10.889  1.00  0.00     0.204 C 
HETATM   28  C5  UNL     1     -18.186 -32.916  -9.677  1.00  0.00     0.027 C 
HETATM   29  C6  UNL     1     -16.935 -32.361  -9.104  1.00  0.00     0.081 C 
HETATM   30  C7  UNL     1     -15.702 -32.717  -9.808  1.00  0.00     0.144 C 
HETATM   31  O2  UNL     1     -14.652 -32.185  -9.518  1.00  0.00    -0.296 OA
ENDBRANCH   2  23
TORSDOF 4
ENDMDL
MODEL 2
REMARK VINA RESULT: -9.301565824      4.686      8.447
REMARK  4 active torsions:
REMARK  status: ('A' for Active; 'I' for Inactive)
REMARK    1  A    between atoms: N1_1  and  C1_4 
REMARK    2  A    between atoms: C2_5  and  C3_6 
REMARK       I    between atoms: C3_6  and  N2_8 
REMARK    3  A    between atoms: N4_18  and  C10_19 
REMARK    4  A    between atoms: C10_19  and  C11_20 
REMARK       I    between atoms: C11_20  and  N5_22 
ROOT
HETATM    1  C1  UNL     1     -14.690 -40.141  -8.642  1.00  0.00     0.133 A 
HETATM    2  C2  UNL     1     -14.094 -41.377  -8.732  1.00  0.00     0.093 A 
HETATM    3  C9  UNL     1     -15.121 -42.299  -8.624  1.00  0.00     0.128 A 
HETATM    4  N3  UNL     1     -16.278 -41.590  -8.477  1.00  0.00    -0.307 N 
ATOM      5  H3  UNL     1     -17.206 -42.001  -8.373  1.00  0.00     0.186 HD
HETATM    6  N4  UNL     1     -16.026 -40.309  -8.487  1.00  0.00    -0.268 N 
ENDROOT
BRANCH   6   7
HETATM    7  C10 UNL     1     -16.991 -39.221  -8.356  1.00  0.00     0.253 C 
BRANCH   7   8
HETATM    8  C11 UNL     1     -17.540 -38.852  -9.670  1.00  0.00     0.239 C 
HETATM    9  O3  UNL     1     -18.204 -39.674 -10.320  1.00  0.00    -0.271 OA
HETATM   10  N5  UNL     1     -17.293 -37.546 -10.167  1.00  0.00    -0.350 N 
HETATM   11  C12 UNL     1     -17.766 -37.035 -11.441  1.00  0.00     0.126 C 
HETATM   12  C20 UNL     1     -16.549 -36.482  -9.544  1.00  0.00     0.135 C 
HETATM   13  C13 UNL     1     -18.104 -35.616 -11.125  1.00  0.00     0.031 C 
HETATM   14  C14 UNL     1     -17.063 -35.191 -10.148  1.00  0.00    -0.023 C 
HETATM   15  C15 UNL     1     -15.898 -34.481 -10.769  1.00  0.00     0.011 C 
HETATM   16  C19 UNL     1     -17.708 -34.407  -9.028  1.00  0.00     0.011 C 
HETATM   17  C16 UNL     1     -16.113 -33.024 -10.995  1.00  0.00     0.001 C 
HETATM   18  C17 UNL     1     -16.782 -32.317  -9.857  1.00  0.00     0.000 C 
HETATM   19  C18 UNL     1     -18.104 -33.049  -9.598  1.00  0.00     0.001 C 
ENDBRANCH   7   8
ENDBRANCH   6   7
BRANCH   1  20
HETATM   20  N1  UNL     1     -14.064 -39.009  -8.699  1.00  0.00    -0.383 N 
ATOM     21  H12 UNL     1     -13.423 -38.711  -9.435  1.00  0.00     0.157 HD
ATOM     22  H11 UNL     1     -14.135 -38.266  -8.003  1.00  0.00     0.157 HD
ENDBRANCH   1  20
BRANCH   2  23
HETATM   23  C3  UNL     1     -12.658 -41.658  -8.905  1.00  0.00     0.259 C 
HETATM   24  O1  UNL     1     -11.865 -41.219  -8.045  1.00  0.00    -0.267 OA
HETATM   25  N2  UNL     1     -12.165 -42.403 -10.005  1.00  0.00    -0.341 N 
HETATM   26  C4  UNL     1     -13.130 -42.888 -10.972  1.00  0.00     0.127 C 
HETATM   27  C8  UNL     1     -10.755 -42.639 -10.110  1.00  0.00     0.204 C 
HETATM   28  C5  UNL     1     -12.484 -43.292 -12.269  1.00  0.00     0.027 C 
HETATM   29  C6  UNL     1     -11.259 -42.524 -12.604  1.00  0.00     0.081 C 
HETATM   30  C7  UNL     1     -10.334 -42.291 -11.494  1.00  0.00     0.144 C 
HETATM   31  O2  UNL     1      -9.236 -41.819 -11.697  1.00  0.00    -0.296 OA
ENDBRANCH   2  23
TORSDOF 4
ENDMDL
MODEL 3
REMARK VINA RESULT: -9.198979551      2.015      2.849
REMARK  4 active torsions:
REMARK  status: ('A' for Active; 'I' for Inactive)
REMARK    1  A    between atoms: N1_1  and  C1_4 
REMARK    2  A    between atoms: C2_5  and  C3_6 
REMARK       I    between atoms: C3_6  and  N2_8 
REMARK    3  A    between atoms: N4_18  and  C10_19 
REMARK    4  A    between atoms: C10_19  and  C11_20 
REMARK       I    between atoms: C11_20  and  N5_22 
ROOT
HETATM    1  C1  UNL     1     -17.771 -37.984 -10.826  1.00  0.00     0.133 A 
HETATM    2  C2  UNL     1     -17.575 -36.691 -11.252  1.00  0.00     0.093 A 
HETATM    3  C9  UNL     1     -18.787 -36.047 -11.068  1.00  0.00     0.128 A 
HETATM    4  N3  UNL     1     -19.651 -36.966 -10.547  1.00  0.00    -0.307 N 
ATOM      5  H3  UNL     1     -20.624 -36.781 -10.306  1.00  0.00     0.186 HD
HETATM    6  N4  UNL     1     -19.051 -38.116 -10.402  1.00  0.00    -0.268 N 
ENDROOT
BRANCH   6   7
HETATM    7  C10 UNL     1     -19.630 -39.350  -9.879  1.00  0.00     0.253 C 
BRANCH   7   8
HETATM    8  C11 UNL     1     -21.064 -39.175  -9.603  1.00  0.00     0.239 C 
HETATM    9  O3  UNL     1     -21.823 -38.760 -10.493  1.00  0.00    -0.271 OA
HETATM   10  N5  UNL     1     -21.551 -39.491  -8.308  1.00  0.00    -0.350 N 
HETATM   11  C12 UNL     1     -22.935 -39.370  -7.884  1.00  0.00     0.126 C 
HETATM   12  C20 UNL     1     -20.811 -39.979  -7.173  1.00  0.00     0.135 C 
HETATM   13  C13 UNL     1     -23.113 -40.556  -6.995  1.00  0.00     0.031 C 
HETATM   14  C14 UNL     1     -21.810 -40.695  -6.287  1.00  0.00    -0.023 C 
HETATM   15  C15 UNL     1     -21.777 -40.041  -4.939  1.00  0.00     0.011 C 
HETATM   16  C19 UNL     1     -21.404 -42.150  -6.252  1.00  0.00     0.011 C 
HETATM   17  C16 UNL     1     -22.330 -40.874  -3.835  1.00  0.00     0.001 C 
HETATM   18  C17 UNL     1     -21.910 -42.311  -3.879  1.00  0.00     0.000 C 
HETATM   19  C18 UNL     1     -22.321 -42.850  -5.254  1.00  0.00     0.001 C 
ENDBRANCH   7   8
ENDBRANCH   6   7
BRANCH   1  20
HETATM   20  N1  UNL     1     -16.869 -38.913 -10.836  1.00  0.00    -0.383 N 
ATOM     21  H12 UNL     1     -17.007 -39.885 -11.114  1.00  0.00     0.157 HD
ATOM     22  H11 UNL     1     -15.895 -38.784 -10.561  1.00  0.00     0.157 HD
ENDBRANCH   1  20
BRANCH   2  23
HETATM   23  C3  UNL     1     -16.331 -36.113 -11.790  1.00  0.00     0.259 C 
HETATM   24  O1  UNL     1     -15.565 -36.864 -12.433  1.00  0.00    -0.267 OA
HETATM   25  N2  UNL     1     -15.990 -34.752 -11.600  1.00  0.00    -0.341 N 
HETATM   26  C4  UNL     1     -16.914 -33.928 -10.847  1.00  0.00     0.127 C 
HETATM   27  C8  UNL     1     -14.763 -34.257 -12.154  1.00  0.00     0.204 C 
HETATM   28  C5  UNL     1     -16.280 -32.652 -10.365  1.00  0.00     0.027 C 
HETATM   29  C6  UNL     1     -14.825 -32.760 -10.094  1.00  0.00     0.081 C 
HETATM   30  C7  UNL     1     -14.049 -33.506 -11.086  1.00  0.00     0.144 C 
HETATM   31  O2  UNL     1     -12.837 -33.512 -11.042  1.00  0.00    -0.296 OA
ENDBRANCH   2  23
TORSDOF 4
ENDMDL
MODEL 4
REMARK VINA RESULT: -9.194253592      3.903      8.024
REMARK  4 active torsions:
REMARK  status: ('A' for Active; 'I' for Inactive)
REMARK    1  A    between atoms: N1_1  and  C1_4 
REMARK    2  A    between atoms: C2_5  and  C3_6 
REMARK       I    between atoms: C3_6  and  N2_8 
REMARK    3  A    between atoms: N4_18  and  C10_19 
REMARK    4  A    between atoms: C10_19  and  C11_20 
REMARK       I    between atoms: C11_20  and  N5_22 
ROOT
HETATM    1  C1  UNL     1     -17.568 -40.471  -8.235  1.00  0.00     0.133 A 
HETATM    2  C2  UNL     1     -16.325 -40.965  -7.913  1.00  0.00     0.093 A 
HETATM    3  C9  UNL     1     -15.816 -40.105  -6.954  1.00  0.00     0.128 A 
HETATM    4  N3  UNL     1     -16.760 -39.143  -6.741  1.00  0.00    -0.307 N 
ATOM      5  H3  UNL     1     -16.666 -38.368  -6.084  1.00  0.00     0.186 HD
HETATM    6  N4  UNL     1     -17.801 -39.357  -7.499  1.00  0.00    -0.268 N 
ENDROOT
BRANCH   6   7
HETATM    7  C10 UNL     1     -19.019 -38.555  -7.567  1.00  0.00     0.253 C 
BRANCH   7   8
HETATM    8  C11 UNL     1     -19.364 -38.252  -8.965  1.00  0.00     0.239 C 
HETATM    9  O3  UNL     1     -20.305 -38.842  -9.516  1.00  0.00    -0.271 OA
HETATM   10  N5  UNL     1     -18.599 -37.278  -9.657  1.00  0.00    -0.350 N 
HETATM   11  C12 UNL     1     -18.815 -36.871 -11.034  1.00  0.00     0.126 C 
HETATM   12  C20 UNL     1     -17.484 -36.508  -9.168  1.00  0.00     0.135 C 
HETATM   13  C13 UNL     1     -18.539 -35.404 -10.994  1.00  0.00     0.031 C 
HETATM   14  C14 UNL     1     -17.419 -35.259 -10.024  1.00  0.00    -0.023 C 
HETATM   15  C15 UNL     1     -16.063 -35.213 -10.662  1.00  0.00     0.011 C 
HETATM   16  C19 UNL     1     -17.686 -34.085  -9.111  1.00  0.00     0.011 C 
HETATM   17  C16 UNL     1     -15.657 -33.865 -11.151  1.00  0.00     0.001 C 
HETATM   18  C17 UNL     1     -15.979 -32.746 -10.209  1.00  0.00     0.000 C 
HETATM   19  C18 UNL     1     -17.486 -32.818  -9.935  1.00  0.00     0.001 C 
ENDBRANCH   7   8
ENDBRANCH   6   7
BRANCH   1  20
HETATM   20  N1  UNL     1     -18.373 -40.996  -9.101  1.00  0.00    -0.383 N 
ATOM     21  H12 UNL     1     -18.318 -41.943  -9.480  1.00  0.00     0.157 HD
ATOM     22  H11 UNL     1     -19.174 -40.521  -9.519  1.00  0.00     0.157 HD
ENDBRANCH   1  20
BRANCH   2  23
HETATM   23  C3  UNL     1     -15.673 -42.161  -8.475  1.00  0.00     0.259 C 
HETATM   24  O1  UNL     1     -16.186 -43.275  -8.236  1.00  0.00    -0.267 OA
HETATM   25  N2  UNL     1     -14.500 -42.077  -9.265  1.00  0.00    -0.341 N 
HETATM   26  C4  UNL     1     -13.950 -40.759  -9.509  1.00  0.00     0.127 C 
HETATM   27  C8  UNL     1     -13.920 -43.283  -9.779  1.00  0.00     0.204 C 
HETATM   28  C5  UNL     1     -12.526 -40.815  -9.990  1.00  0.00     0.027 C 
HETATM   29  C6  UNL     1     -11.755 -41.975  -9.476  1.00  0.00     0.081 C 
HETATM   30  C7  UNL     1     -12.464 -43.256  -9.475  1.00  0.00     0.144 C 
HETATM   31  O2  UNL     1     -11.873 -44.286  -9.230  1.00  0.00    -0.296 OA
ENDBRANCH   2  23
TORSDOF 4
ENDMDL
MODEL 5
REMARK VINA RESULT: -9.156806038      4.037      6.595
REMARK  4 active torsions:
REMARK  status: ('A' for Active; 'I' for Inactive)
REMARK    1  A    between atoms: N1_1  and  C1_4 
REMARK    2  A    between atoms: C2_5  and  C3_6 
REMARK       I    between atoms: C3_6  and  N2_8 
REMARK    3  A    between atoms: N4_18  and  C10_19 
REMARK    4  A    between atoms: C10_19  and  C11_20 
REMARK       I    between atoms: C11_20  and  N5_22 
ROOT
HETATM    1  C1  UNL     1     -16.312 -38.326  -9.141  1.00  0.00     0.133 A 
HETATM    2  C2  UNL     1     -16.548 -37.571 -10.267  1.00  0.00     0.093 A 
HETATM    3  C9  UNL     1     -17.569 -38.215 -10.944  1.00  0.00     0.128 A 
HETATM    4  N3  UNL     1     -17.902 -39.316 -10.209  1.00  0.00    -0.307 N 
ATOM      5  H3  UNL     1     -18.627 -39.988 -10.460  1.00  0.00     0.186 HD
HETATM    6  N4  UNL     1     -17.158 -39.384  -9.139  1.00  0.00    -0.268 N 
ENDROOT
BRANCH   6   7
HETATM    7  C10 UNL     1     -17.204 -40.410  -8.100  1.00  0.00     0.253 C 
BRANCH   7   8
HETATM    8  C11 UNL     1     -17.046 -41.750  -8.687  1.00  0.00     0.239 C 
HETATM    9  O3  UNL     1     -18.038 -42.372  -9.094  1.00  0.00    -0.271 OA
HETATM   10  N5  UNL     1     -15.742 -42.304  -8.773  1.00  0.00    -0.350 N 
HETATM   11  C12 UNL     1     -15.425 -43.610  -9.323  1.00  0.00     0.126 C 
HETATM   12  C20 UNL     1     -14.496 -41.719  -8.351  1.00  0.00     0.135 C 
HETATM   13  C13 UNL     1     -14.132 -43.368 -10.029  1.00  0.00     0.031 C 
HETATM   14  C14 UNL     1     -13.410 -42.393  -9.165  1.00  0.00    -0.023 C 
HETATM   15  C15 UNL     1     -12.446 -43.026  -8.206  1.00  0.00     0.011 C 
HETATM   16  C19 UNL     1     -12.776 -41.325 -10.025  1.00  0.00     0.011 C 
HETATM   17  C16 UNL     1     -11.107 -43.325  -8.785  1.00  0.00     0.001 C 
HETATM   18  C17 UNL     1     -10.553 -42.235  -9.650  1.00  0.00     0.000 C 
HETATM   19  C18 UNL     1     -11.593 -41.965 -10.743  1.00  0.00     0.001 C 
ENDBRANCH   7   8
ENDBRANCH   6   7
BRANCH   1  20
HETATM   20  N1  UNL     1     -15.423 -38.055  -8.240  1.00  0.00    -0.383 N 
ATOM     21  H12 UNL     1     -15.174 -37.127  -7.898  1.00  0.00     0.157 HD
ATOM     22  H11 UNL     1     -14.854 -38.749  -7.753  1.00  0.00     0.157 HD
ENDBRANCH   1  20
BRANCH   2  23
HETATM   23  C3  UNL     1     -15.855 -36.333 -10.666  1.00  0.00     0.259 C 
HETATM   24  O1  UNL     1     -14.667 -36.421 -11.044  1.00  0.00    -0.267 OA
HETATM   25  N2  UNL     1     -16.493 -35.069 -10.632  1.00  0.00    -0.341 N 
HETATM   26  C4  UNL     1     -17.871 -35.026 -10.185  1.00  0.00     0.127 C 
HETATM   27  C8  UNL     1     -15.758 -33.907 -11.035  1.00  0.00     0.204 C 
HETATM   28  C5  UNL     1     -18.304 -33.637  -9.803  1.00  0.00     0.027 C 
HETATM   29  C6  UNL     1     -17.213 -32.783  -9.272  1.00  0.00     0.081 C 
HETATM   30  C7  UNL     1     -15.939 -32.864  -9.990  1.00  0.00     0.144 C 
HETATM   31  O2  UNL     1     -15.041 -32.090  -9.737  1.00  0.00    -0.296 OA
ENDBRANCH   2  23
TORSDOF 4
ENDMDL
