MODEL 1
REMARK VINA RESULT: -8.695682675      0.000      0.000
REMARK  3 active torsions:
REMARK  status: ('A' for Active; 'I' for Inactive)
REMARK       I    between atoms: C2_2  and  N1_4 
REMARK    1  A    between atoms: C5_7  and  N2_8 
REMARK       I    between atoms: N2_8  and  C6_10 
REMARK    2  A    between atoms: C6_10  and  C7_12 
REMARK    3  A    between atoms: C9_15  and  N3_16 
REMARK       I    between atoms: N3_16  and  C10_18 
REMARK       I    between atoms: C10_18  and  N4_20 
ROOT
HETATM    1  C7  UNL     1     -20.686 -38.591  -9.118  1.00  0.00     0.109 A 
HETATM    2  C8  UNL     1     -21.321 -38.504  -7.895  1.00  0.00     0.088 A 
HETATM    3  S1  UNL     1     -22.758 -39.378  -8.167  1.00  0.00    -0.063 SA
HETATM    4  C9  UNL     1     -22.492 -39.806  -9.785  1.00  0.00     0.153 A 
HETATM    5  N5  UNL     1     -21.309 -39.260 -10.059  1.00  0.00    -0.332 N 
ATOM      6  H5  UNL     1     -20.893 -39.361 -10.985  1.00  0.00     0.168 HD
ENDROOT
BRANCH   1   7
HETATM    7  C6  UNL     1     -19.362 -37.930  -9.279  1.00  0.00     0.269 C 
HETATM    8  N2  UNL     1     -18.796 -37.803 -10.562  1.00  0.00    -0.351 N 
ATOM      9  H2  UNL     1     -19.300 -38.165 -11.372  1.00  0.00     0.163 HD
HETATM   10  O2  UNL     1     -18.728 -37.481  -8.306  1.00  0.00    -0.266 OA
BRANCH   8  11
HETATM   11  C5  UNL     1     -17.488 -37.154 -10.751  1.00  0.00     0.087 C 
HETATM   12  C4  UNL     1     -17.717 -35.922 -11.571  1.00  0.00     0.045 C 
HETATM   13  C3  UNL     1     -16.566 -35.710 -12.516  1.00  0.00     0.127 C 
HETATM   14  N1  UNL     1     -15.361 -36.171 -11.896  1.00  0.00    -0.352 N 
HETATM   15  C2  UNL     1     -14.343 -35.306 -11.490  1.00  0.00     0.215 C 
HETATM   16  C17 UNL     1     -15.225 -37.604 -11.695  1.00  0.00     0.127 C 
HETATM   17  C1  UNL     1     -14.507 -33.835 -11.702  1.00  0.00     0.117 C 
HETATM   18  O1  UNL     1     -13.267 -35.676 -10.944  1.00  0.00    -0.274 OA
HETATM   19  C16 UNL     1     -16.601 -38.193 -11.398  1.00  0.00     0.045 C 
ENDBRANCH   8  11
ENDBRANCH   1   7
BRANCH   4  20
HETATM   20  N3  UNL     1     -23.248 -40.507 -10.614  1.00  0.00    -0.289 N 
HETATM   21  C10 UNL     1     -23.648 -41.816 -10.305  1.00  0.00     0.324 C 
HETATM   22  O3  UNL     1     -22.762 -42.711 -10.176  1.00  0.00    -0.247 OA
HETATM   23  N4  UNL     1     -25.014 -42.115 -10.146  1.00  0.00    -0.334 N 
HETATM   24  C11 UNL     1     -26.000 -41.080 -10.300  1.00  0.00     0.127 C 
HETATM   25  C15 UNL     1     -25.427 -43.454  -9.829  1.00  0.00     0.127 C 
HETATM   26  C12 UNL     1     -27.359 -41.658 -10.636  1.00  0.00     0.020 C 
HETATM   27  C13 UNL     1     -27.762 -42.578  -9.526  1.00  0.00     0.003 C 
HETATM   28  C14 UNL     1     -26.650 -43.377  -8.933  1.00  0.00     0.020 C 
ATOM     29  H3  UNL     1     -23.546 -40.087 -11.495  1.00  0.00     0.172 HD
ENDBRANCH   4  20
TORSDOF 3
ENDMDL
MODEL 2
REMARK VINA RESULT: -8.213131450      5.407      8.405
REMARK  3 active torsions:
REMARK  status: ('A' for Active; 'I' for Inactive)
REMARK       I    between atoms: C2_2  and  N1_4 
REMARK    1  A    between atoms: C5_7  and  N2_8 
REMARK       I    between atoms: N2_8  and  C6_10 
REMARK    2  A    between atoms: C6_10  and  C7_12 
REMARK    3  A    between atoms: C9_15  and  N3_16 
REMARK       I    between atoms: N3_16  and  C10_18 
REMARK       I    between atoms: C10_18  and  N4_20 
ROOT
HETATM    1  C7  UNL     1     -17.081 -40.758  -8.605  1.00  0.00     0.109 A 
HETATM    2  C8  UNL     1     -18.255 -41.445  -8.372  1.00  0.00     0.088 A 
HETATM    3  S1  UNL     1     -17.762 -43.071  -8.512  1.00  0.00    -0.063 SA
HETATM    4  C9  UNL     1     -16.122 -42.808  -8.851  1.00  0.00     0.153 A 
HETATM    5  N5  UNL     1     -16.013 -41.481  -8.846  1.00  0.00    -0.332 N 
ATOM      6  H5  UNL     1     -15.115 -41.034  -9.026  1.00  0.00     0.168 HD
ENDROOT
BRANCH   1   7
HETATM    7  C6  UNL     1     -17.110 -39.271  -8.567  1.00  0.00     0.269 C 
HETATM    8  N2  UNL     1     -16.759 -38.536  -9.716  1.00  0.00    -0.351 N 
ATOM      9  H2  UNL     1     -16.488 -39.030 -10.566  1.00  0.00     0.163 HD
HETATM   10  O2  UNL     1     -17.436 -38.645  -7.541  1.00  0.00    -0.266 OA
BRANCH   8  11
HETATM   11  C5  UNL     1     -16.778 -37.063  -9.707  1.00  0.00     0.087 C 
HETATM   12  C4  UNL     1     -18.156 -36.634 -10.108  1.00  0.00     0.045 C 
HETATM   13  C3  UNL     1     -18.084 -35.391 -10.951  1.00  0.00     0.127 C 
HETATM   14  N1  UNL     1     -16.982 -34.591 -10.512  1.00  0.00    -0.352 N 
HETATM   15  C2  UNL     1     -17.148 -33.363  -9.868  1.00  0.00     0.215 C 
HETATM   16  C17 UNL     1     -15.646 -35.109 -10.762  1.00  0.00     0.127 C 
HETATM   17  C1  UNL     1     -18.531 -32.853  -9.617  1.00  0.00     0.117 C 
HETATM   18  O1  UNL     1     -16.201 -32.631  -9.471  1.00  0.00    -0.274 OA
HETATM   19  C16 UNL     1     -15.678 -36.630 -10.649  1.00  0.00     0.045 C 
ENDBRANCH   8  11
ENDBRANCH   1   7
BRANCH   4  20
HETATM   20  N3  UNL     1     -15.151 -43.678  -9.075  1.00  0.00    -0.289 N 
HETATM   21  C10 UNL     1     -14.381 -43.627 -10.248  1.00  0.00     0.324 C 
HETATM   22  O3  UNL     1     -14.954 -43.807 -11.362  1.00  0.00    -0.247 OA
HETATM   23  N4  UNL     1     -12.999 -43.378 -10.171  1.00  0.00    -0.334 N 
HETATM   24  C11 UNL     1     -12.372 -43.178  -8.892  1.00  0.00     0.127 C 
HETATM   25  C15 UNL     1     -12.208 -43.324 -11.370  1.00  0.00     0.127 C 
HETATM   26  C12 UNL     1     -10.888 -43.472  -8.952  1.00  0.00     0.020 C 
HETATM   27  C13 UNL     1     -10.271 -42.558  -9.964  1.00  0.00     0.003 C 
HETATM   28  C14 UNL     1     -11.109 -42.295 -11.171  1.00  0.00     0.020 C 
ATOM     29  H3  UNL     1     -14.957 -44.401  -8.381  1.00  0.00     0.172 HD
ENDBRANCH   4  20
TORSDOF 3
ENDMDL
MODEL 3
REMARK VINA RESULT: -8.163706402      3.969      5.488
REMARK  3 active torsions:
REMARK  status: ('A' for Active; 'I' for Inactive)
REMARK       I    between atoms: C2_2  and  N1_4 
REMARK    1  A    between atoms: C5_7  and  N2_8 
REMARK       I    between atoms: N2_8  and  C6_10 
REMARK    2  A    between atoms: C6_10  and  C7_12 
REMARK    3  A    between atoms: C9_15  and  N3_16 
REMARK       I    between atoms: N3_16  and  C10_18 
REMARK       I    between atoms: C10_18  and  N4_20 
ROOT
HETATM    1  C7  UNL     1     -17.751 -38.567 -10.612  1.00  0.00     0.109 A 
HETATM    2  C8  UNL     1     -17.514 -37.328 -11.171  1.00  0.00     0.088 A 
HETATM    3  S1  UNL     1     -18.980 -36.509 -10.881  1.00  0.00    -0.063 SA
HETATM    4  C9  UNL     1     -19.808 -37.751 -10.077  1.00  0.00     0.153 A 
HETATM    5  N5  UNL     1     -18.928 -38.751 -10.064  1.00  0.00    -0.332 N 
ATOM      6  H5  UNL     1     -19.166 -39.644  -9.633  1.00  0.00     0.168 HD
ENDROOT
BRANCH   1   7
HETATM    7  C6  UNL     1     -16.672 -39.590 -10.670  1.00  0.00     0.269 C 
HETATM    8  N2  UNL     1     -15.379 -39.269 -10.211  1.00  0.00    -0.351 N 
ATOM      9  H2  UNL     1     -15.194 -38.336  -9.842  1.00  0.00     0.163 HD
HETATM   10  O2  UNL     1     -16.874 -40.735 -11.116  1.00  0.00    -0.266 OA
BRANCH   8  11
HETATM   11  C5  UNL     1     -14.292 -40.262 -10.257  1.00  0.00     0.087 C 
HETATM   12  C4  UNL     1     -13.856 -40.509  -8.846  1.00  0.00     0.045 C 
HETATM   13  C3  UNL     1     -12.368 -40.717  -8.795  1.00  0.00     0.127 C 
HETATM   14  N1  UNL     1     -11.944 -41.367  -9.997  1.00  0.00    -0.352 N 
HETATM   15  C2  UNL     1     -11.475 -42.682 -10.019  1.00  0.00     0.215 C 
HETATM   16  C17 UNL     1     -12.022 -40.599 -11.229  1.00  0.00     0.127 C 
HETATM   17  C1  UNL     1     -11.409 -43.455  -8.740  1.00  0.00     0.117 C 
HETATM   18  O1  UNL     1     -11.091 -43.286 -11.058  1.00  0.00    -0.274 OA
HETATM   19  C16 UNL     1     -13.231 -39.671 -11.157  1.00  0.00     0.045 C 
ENDBRANCH   8  11
ENDBRANCH   1   7
BRANCH   4  20
HETATM   20  N3  UNL     1     -21.031 -37.769  -9.573  1.00  0.00    -0.289 N 
HETATM   21  C10 UNL     1     -21.802 -38.942  -9.571  1.00  0.00     0.324 C 
HETATM   22  O3  UNL     1     -22.129 -39.460 -10.678  1.00  0.00    -0.247 OA
HETATM   23  N4  UNL     1     -22.197 -39.521  -8.351  1.00  0.00    -0.334 N 
HETATM   24  C11 UNL     1     -21.813 -38.912  -7.106  1.00  0.00     0.127 C 
HETATM   25  C15 UNL     1     -22.986 -40.722  -8.345  1.00  0.00     0.127 C 
HETATM   26  C12 UNL     1     -22.742 -39.319  -5.981  1.00  0.00     0.020 C 
HETATM   27  C13 UNL     1     -22.691 -40.810  -5.851  1.00  0.00     0.003 C 
HETATM   28  C14 UNL     1     -22.580 -41.553  -7.140  1.00  0.00     0.020 C 
ATOM     29  H3  UNL     1     -21.421 -36.913  -9.177  1.00  0.00     0.172 HD
ENDBRANCH   4  20
TORSDOF 3
ENDMDL
MODEL 4
REMARK VINA RESULT: -8.122636224      1.758      2.250
REMARK  3 active torsions:
REMARK  status: ('A' for Active; 'I' for Inactive)
REMARK       I    between atoms: C2_2  and  N1_4 
REMARK    1  A    between atoms: C5_7  and  N2_8 
REMARK       I    between atoms: N2_8  and  C6_10 
REMARK    2  A    between atoms: C6_10  and  C7_12 
REMARK    3  A    between atoms: C9_15  and  N3_16 
REMARK       I    between atoms: N3_16  and  C10_18 
REMARK       I    between atoms: C10_18  and  N4_20 
ROOT
HETATM    1  C7  UNL     1     -21.541 -39.988  -9.873  1.00  0.00     0.109 A 
HETATM    2  C8  UNL     1     -21.308 -40.698  -8.712  1.00  0.00     0.088 A 
HETATM    3  S1  UNL     1     -22.377 -42.016  -8.868  1.00  0.00    -0.063 SA
HETATM    4  C9  UNL     1     -23.055 -41.615 -10.369  1.00  0.00     0.153 A 
HETATM    5  N5  UNL     1     -22.436 -40.482 -10.695  1.00  0.00    -0.332 N 
ATOM      6  H5  UNL     1     -22.655 -40.006 -11.570  1.00  0.00     0.168 HD
ENDROOT
BRANCH   1   7
HETATM    7  C6  UNL     1     -20.773 -38.735 -10.105  1.00  0.00     0.269 C 
HETATM    8  N2  UNL     1     -19.365 -38.765 -10.088  1.00  0.00    -0.351 N 
ATOM      9  H2  UNL     1     -18.883 -39.647  -9.916  1.00  0.00     0.163 HD
HETATM   10  O2  UNL     1     -21.339 -37.647 -10.317  1.00  0.00    -0.266 OA
BRANCH   8  11
HETATM   11  C5  UNL     1     -18.580 -37.540 -10.314  1.00  0.00     0.087 C 
HETATM   12  C4  UNL     1     -17.315 -37.945 -11.006  1.00  0.00     0.045 C 
HETATM   13  C3  UNL     1     -16.168 -37.102 -10.518  1.00  0.00     0.127 C 
HETATM   14  N1  UNL     1     -16.649 -35.789 -10.212  1.00  0.00    -0.352 N 
HETATM   15  C2  UNL     1     -16.308 -34.665 -10.966  1.00  0.00     0.215 C 
HETATM   16  C17 UNL     1     -17.529 -35.658  -9.063  1.00  0.00     0.127 C 
HETATM   17  C1  UNL     1     -15.405 -34.825 -12.148  1.00  0.00     0.117 C 
HETATM   18  O1  UNL     1     -16.709 -33.494 -10.725  1.00  0.00    -0.274 OA
HETATM   19  C16 UNL     1     -18.388 -36.914  -8.952  1.00  0.00     0.045 C 
ENDBRANCH   8  11
ENDBRANCH   1   7
BRANCH   4  20
HETATM   20  N3  UNL     1     -23.977 -42.244 -11.080  1.00  0.00    -0.289 N 
HETATM   21  C10 UNL     1     -24.864 -43.152 -10.482  1.00  0.00     0.324 C 
HETATM   22  O3  UNL     1     -24.397 -44.201  -9.950  1.00  0.00    -0.247 OA
HETATM   23  N4  UNL     1     -26.247 -42.889 -10.483  1.00  0.00    -0.334 N 
HETATM   24  C11 UNL     1     -26.751 -41.690 -11.096  1.00  0.00     0.127 C 
HETATM   25  C15 UNL     1     -27.158 -43.817  -9.872  1.00  0.00     0.127 C 
HETATM   26  C12 UNL     1     -28.208 -41.838 -11.483  1.00  0.00     0.020 C 
HETATM   27  C13 UNL     1     -28.991 -42.139 -10.243  1.00  0.00     0.003 C 
HETATM   28  C14 UNL     1     -28.303 -43.029  -9.262  1.00  0.00     0.020 C 
ATOM     29  H3  UNL     1     -24.044 -42.064 -12.082  1.00  0.00     0.172 HD
ENDBRANCH   4  20
TORSDOF 3
ENDMDL
MODEL 5
REMARK VINA RESULT: -8.027269718      3.235      4.028
REMARK  3 active torsions:
REMARK  status: ('A' for Active; 'I' for Inactive)
REMARK       I    between atoms: C2_2  and  N1_4 
REMARK    1  A    between atoms: C5_7  and  N2_8 
REMARK       I    between atoms: N2_8  and  C6_10 
REMARK    2  A    between atoms: C6_10  and  C7_12 
REMARK    3  A    between atoms: C9_15  and  N3_16 
REMARK       I    between atoms: N3_16  and  C10_18 
REMARK       I    between atoms: C10_18  and  N4_20 
ROOT
HETATM    1  C7  UNL     1     -16.633 -40.405  -8.945  1.00  0.00     0.109 A 
HETATM    2  C8  UNL     1     -15.624 -41.318  -8.713  1.00  0.00     0.088 A 
HETATM    3  S1  UNL     1     -16.462 -42.801  -8.725  1.00  0.00    -0.063 SA
HETATM    4  C9  UNL     1     -18.022 -42.207  -9.019  1.00  0.00     0.153 A 
HETATM    5  N5  UNL     1     -17.842 -40.890  -9.096  1.00  0.00    -0.332 N 
ATOM      6  H5  UNL     1     -18.632 -40.269  -9.270  1.00  0.00     0.168 HD
ENDROOT
BRANCH   1   7
HETATM    7  C6  UNL     1     -16.283 -38.960  -9.007  1.00  0.00     0.269 C 
HETATM    8  N2  UNL     1     -17.041 -38.091  -9.816  1.00  0.00    -0.351 N 
ATOM      9  H2  UNL     1     -17.825 -38.461 -10.353  1.00  0.00     0.163 HD
HETATM   10  O2  UNL     1     -15.330 -38.486  -8.360  1.00  0.00    -0.266 OA
BRANCH   8  11
HETATM   11  C5  UNL     1     -16.717 -36.657  -9.895  1.00  0.00     0.087 C 
HETATM   12  C4  UNL     1     -17.917 -35.903  -9.414  1.00  0.00     0.045 C 
HETATM   13  C3  UNL     1     -18.086 -34.639 -10.211  1.00  0.00     0.127 C 
HETATM   14  N1  UNL     1     -16.796 -34.141 -10.579  1.00  0.00    -0.352 N 
HETATM   15  C2  UNL     1     -16.260 -32.966 -10.048  1.00  0.00     0.215 C 
HETATM   16  C17 UNL     1     -16.039 -34.917 -11.547  1.00  0.00     0.127 C 
HETATM   17  C1  UNL     1     -17.056 -32.187  -9.050  1.00  0.00     0.117 C 
HETATM   18  O1  UNL     1     -15.129 -32.496 -10.351  1.00  0.00    -0.274 OA
HETATM   19  C16 UNL     1     -16.339 -36.398 -11.336  1.00  0.00     0.045 C 
ENDBRANCH   8  11
ENDBRANCH   1   7
BRANCH   4  20
HETATM   20  N3  UNL     1     -19.168 -42.856  -9.146  1.00  0.00    -0.289 N 
HETATM   21  C10 UNL     1     -20.221 -42.662  -8.238  1.00  0.00     0.324 C 
HETATM   22  O3  UNL     1     -20.046 -42.978  -7.025  1.00  0.00    -0.247 OA
HETATM   23  N4  UNL     1     -21.443 -42.125  -8.682  1.00  0.00    -0.334 N 
HETATM   24  C11 UNL     1     -21.616 -41.776 -10.066  1.00  0.00     0.127 C 
HETATM   25  C15 UNL     1     -22.522 -41.925  -7.754  1.00  0.00     0.127 C 
HETATM   26  C12 UNL     1     -23.080 -41.750 -10.451  1.00  0.00     0.020 C 
HETATM   27  C13 UNL     1     -23.772 -40.743  -9.586  1.00  0.00     0.003 C 
HETATM   28  C14 UNL     1     -23.289 -40.684  -8.175  1.00  0.00     0.020 C 
ATOM     29  H3  UNL     1     -19.290 -43.509  -9.920  1.00  0.00     0.172 HD
ENDBRANCH   4  20
TORSDOF 3
ENDMDL
