MODEL 1
REMARK VINA RESULT: -7.324048134      0.000      0.000
REMARK  5 active torsions:
REMARK  status: ('A' for Active; 'I' for Inactive)
REMARK    1  A    between atoms: C3_3  and  N1_4 
REMARK       I    between atoms: N1_4  and  C4_6 
REMARK       I    between atoms: C4_6  and  N2_8 
REMARK    2  A    between atoms: N2_8  and  C5_10 
REMARK    3  A    between atoms: N4_21  and  C14_22 
REMARK    4  A    between atoms: C14_22  and  O3_23 
REMARK    5  A    between atoms: C14_22  and  C15_25 
ROOT
HETATM    1  C1  UNL     1     -16.114 -40.537  -7.786  1.00  0.00     0.035 C 
HETATM    2  C2  UNL     1     -16.419 -41.543  -8.790  1.00  0.00     0.117 C 
HETATM    3  C3  UNL     1     -17.912 -41.810  -9.038  1.00  0.00     0.201 C 
HETATM    4  C9  UNL     1     -17.912 -43.185  -9.706  1.00  0.00     0.246 C 
HETATM    5  O2  UNL     1     -18.961 -43.826  -9.870  1.00  0.00    -0.271 OA
HETATM    6  N3  UNL     1     -16.625 -43.635 -10.106  1.00  0.00    -0.328 N 
HETATM    7  C10 UNL     1     -16.256 -45.001  -9.902  1.00  0.00     0.155 C 
HETATM    8  C11 UNL     1     -15.636 -42.726 -10.756  1.00  0.00     0.105 C 
HETATM    9  C12 UNL     1     -16.091 -42.728 -12.202  1.00  0.00     0.063 C 
HETATM   10  C13 UNL     1     -14.277 -43.349 -10.680  1.00  0.00     0.063 C 
HETATM   11  N4  UNL     1     -15.756 -41.447 -10.105  1.00  0.00    -0.328 N 
ENDROOT
BRANCH   3  12
HETATM   12  N1  UNL     1     -18.610 -41.991  -7.790  1.00  0.00    -0.328 N 
HETATM   13  C4  UNL     1     -19.903 -41.431  -7.626  1.00  0.00     0.317 C 
HETATM   14  O1  UNL     1     -20.461 -40.766  -8.565  1.00  0.00    -0.247 OA
HETATM   15  N2  UNL     1     -20.628 -41.589  -6.412  1.00  0.00    -0.335 N 
ATOM     16  H2  UNL     1     -20.209 -42.114  -5.644  1.00  0.00     0.165 HD
ATOM     17  H1  UNL     1     -18.178 -42.519  -7.031  1.00  0.00     0.165 HD
BRANCH  15  18
HETATM   18  C5  UNL     1     -21.950 -41.015  -6.245  1.00  0.00     0.023 C 
HETATM   19  C6  UNL     1     -23.005 -41.808  -6.965  1.00  0.00     0.037 C 
HETATM   20  C7  UNL     1     -21.921 -39.573  -6.675  1.00  0.00     0.037 C 
HETATM   21  C8  UNL     1     -22.284 -41.039  -4.754  1.00  0.00     0.037 C 
ENDBRANCH  15  18
ENDBRANCH   3  12
BRANCH  11  22
HETATM   22  C14 UNL     1     -15.433 -40.168 -10.555  1.00  0.00     0.158 C 
BRANCH  22  23
HETATM   23  O3  UNL     1     -14.133 -39.874 -10.606  1.00  0.00    -0.345 OA
ATOM     24  H3  UNL     1     -13.897 -38.981 -10.383  1.00  0.00     0.219 HD
ENDBRANCH  22  23
BRANCH  22  25
HETATM   25  C15 UNL     1     -16.220 -39.031 -11.006  1.00  0.00     0.055 A 
HETATM   26  C16 UNL     1     -17.493 -38.610 -10.877  1.00  0.00     0.024 A 
HETATM   27  C17 UNL     1     -17.856 -37.416 -11.416  1.00  0.00     0.009 A 
HETATM   28  C18 UNL     1     -16.896 -36.706 -12.068  1.00  0.00     0.050 A 
HETATM   29  S1  UNL     1     -15.535 -37.701 -11.917  1.00  0.00    -0.098 SA
ENDBRANCH  22  25
ENDBRANCH  11  22
TORSDOF 5
ENDMDL
MODEL 2
REMARK VINA RESULT: -7.164299885      3.476      7.306
REMARK  5 active torsions:
REMARK  status: ('A' for Active; 'I' for Inactive)
REMARK    1  A    between atoms: C3_3  and  N1_4 
REMARK       I    between atoms: N1_4  and  C4_6 
REMARK       I    between atoms: C4_6  and  N2_8 
REMARK    2  A    between atoms: N2_8  and  C5_10 
REMARK    3  A    between atoms: N4_21  and  C14_22 
REMARK    4  A    between atoms: C14_22  and  O3_23 
REMARK    5  A    between atoms: C14_22  and  C15_25 
ROOT
HETATM    1  C1  UNL     1     -14.931 -39.313  -7.910  1.00  0.00     0.035 C 
HETATM    2  C2  UNL     1     -15.268 -38.635  -9.151  1.00  0.00     0.117 C 
HETATM    3  C3  UNL     1     -14.794 -39.324 -10.440  1.00  0.00     0.201 C 
HETATM    4  C9  UNL     1     -14.827 -38.194 -11.469  1.00  0.00     0.246 C 
HETATM    5  O2  UNL     1     -14.311 -38.323 -12.589  1.00  0.00    -0.271 OA
HETATM    6  N3  UNL     1     -15.489 -37.019 -11.020  1.00  0.00    -0.328 N 
HETATM    7  C10 UNL     1     -14.937 -35.735 -11.319  1.00  0.00     0.155 C 
HETATM    8  C11 UNL     1     -16.766 -37.078 -10.250  1.00  0.00     0.105 C 
HETATM    9  C12 UNL     1     -17.801 -37.247 -11.345  1.00  0.00     0.063 C 
HETATM   10  C13 UNL     1     -16.991 -35.759  -9.578  1.00  0.00     0.063 C 
HETATM   11  N4  UNL     1     -16.665 -38.205  -9.359  1.00  0.00    -0.328 N 
ENDROOT
BRANCH   3  12
HETATM   12  N1  UNL     1     -13.408 -39.703 -10.333  1.00  0.00    -0.328 N 
HETATM   13  C4  UNL     1     -13.070 -41.071 -10.168  1.00  0.00     0.317 C 
HETATM   14  O1  UNL     1     -13.972 -41.974 -10.109  1.00  0.00    -0.247 OA
HETATM   15  N2  UNL     1     -11.714 -41.489 -10.060  1.00  0.00    -0.335 N 
ATOM     16  H2  UNL     1     -10.970 -40.791 -10.103  1.00  0.00     0.165 HD
ATOM     17  H1  UNL     1     -12.676 -38.994 -10.377  1.00  0.00     0.165 HD
BRANCH  15  18
HETATM   18  C5  UNL     1     -11.369 -42.888  -9.891  1.00  0.00     0.023 C 
HETATM   19  C6  UNL     1     -11.881 -43.737 -11.020  1.00  0.00     0.037 C 
HETATM   20  C7  UNL     1     -11.861 -43.359  -8.549  1.00  0.00     0.037 C 
HETATM   21  C8  UNL     1      -9.845 -42.995  -9.880  1.00  0.00     0.037 C 
ENDBRANCH  15  18
ENDBRANCH   3  12
BRANCH  11  22
HETATM   22  C14 UNL     1     -17.658 -38.977  -8.759  1.00  0.00     0.158 C 
BRANCH  22  23
HETATM   23  O3  UNL     1     -18.169 -38.499  -7.624  1.00  0.00    -0.345 OA
ATOM     24  H3  UNL     1     -18.800 -37.795  -7.714  1.00  0.00     0.219 HD
ENDBRANCH  22  23
BRANCH  22  25
HETATM   25  C15 UNL     1     -18.296 -40.238  -9.103  1.00  0.00     0.055 A 
HETATM   26  C16 UNL     1     -18.233 -41.123 -10.117  1.00  0.00     0.024 A 
HETATM   27  C17 UNL     1     -18.972 -42.262 -10.052  1.00  0.00     0.009 A 
HETATM   28  C18 UNL     1     -19.747 -42.443  -8.949  1.00  0.00     0.050 A 
HETATM   29  S1  UNL     1     -19.434 -41.047  -8.044  1.00  0.00    -0.098 SA
ENDBRANCH  22  25
ENDBRANCH  11  22
TORSDOF 5
ENDMDL
MODEL 3
REMARK VINA RESULT: -7.161172361      2.358      3.170
REMARK  5 active torsions:
REMARK  status: ('A' for Active; 'I' for Inactive)
REMARK    1  A    between atoms: C3_3  and  N1_4 
REMARK       I    between atoms: N1_4  and  C4_6 
REMARK       I    between atoms: C4_6  and  N2_8 
REMARK    2  A    between atoms: N2_8  and  C5_10 
REMARK    3  A    between atoms: N4_21  and  C14_22 
REMARK    4  A    between atoms: C14_22  and  O3_23 
REMARK    5  A    between atoms: C14_22  and  C15_25 
ROOT
HETATM    1  C1  UNL     1     -18.609 -38.341  -8.150  1.00  0.00     0.035 C 
HETATM    2  C2  UNL     1     -17.721 -39.141  -8.978  1.00  0.00     0.117 C 
HETATM    3  C3  UNL     1     -18.368 -40.340  -9.689  1.00  0.00     0.201 C 
HETATM    4  C9  UNL     1     -17.171 -41.229 -10.028  1.00  0.00     0.246 C 
HETATM    5  O2  UNL     1     -17.321 -42.393 -10.428  1.00  0.00    -0.271 OA
HETATM    6  N3  UNL     1     -15.910 -40.601  -9.840  1.00  0.00    -0.328 N 
HETATM    7  C10 UNL     1     -14.833 -41.333  -9.253  1.00  0.00     0.155 C 
HETATM    8  C11 UNL     1     -15.662 -39.189 -10.256  1.00  0.00     0.105 C 
HETATM    9  C12 UNL     1     -15.375 -39.330 -11.738  1.00  0.00     0.063 C 
HETATM   10  C13 UNL     1     -14.425 -38.691  -9.575  1.00  0.00     0.063 C 
HETATM   11  N4  UNL     1     -16.860 -38.449  -9.957  1.00  0.00    -0.328 N 
ENDROOT
BRANCH   3  12
HETATM   12  N1  UNL     1     -19.165 -41.108  -8.767  1.00  0.00    -0.328 N 
HETATM   13  C4  UNL     1     -20.563 -41.226  -8.983  1.00  0.00     0.317 C 
HETATM   14  O1  UNL     1     -21.128 -40.661  -9.980  1.00  0.00    -0.247 OA
HETATM   15  N2  UNL     1     -21.386 -41.976  -8.098  1.00  0.00    -0.335 N 
ATOM     16  H2  UNL     1     -20.964 -42.439  -7.292  1.00  0.00     0.165 HD
ATOM     17  H1  UNL     1     -18.728 -41.564  -7.965  1.00  0.00     0.165 HD
BRANCH  15  18
HETATM   18  C5  UNL     1     -22.815 -42.095  -8.320  1.00  0.00     0.023 C 
HETATM   19  C6  UNL     1     -23.132 -42.630  -9.688  1.00  0.00     0.037 C 
HETATM   20  C7  UNL     1     -23.468 -40.766  -8.056  1.00  0.00     0.037 C 
HETATM   21  C8  UNL     1     -23.365 -43.085  -7.293  1.00  0.00     0.037 C 
ENDBRANCH  15  18
ENDBRANCH   3  12
BRANCH  11  22
HETATM   22  C14 UNL     1     -17.353 -37.265 -10.503  1.00  0.00     0.158 C 
BRANCH  22  23
HETATM   23  O3  UNL     1     -18.307 -37.397 -11.425  1.00  0.00    -0.345 OA
ATOM     24  H3  UNL     1     -19.114 -37.809 -11.138  1.00  0.00     0.219 HD
ENDBRANCH  22  23
BRANCH  22  25
HETATM   25  C15 UNL     1     -17.058 -35.857 -10.287  1.00  0.00     0.055 A 
HETATM   26  C16 UNL     1     -17.587 -34.846  -9.572  1.00  0.00     0.024 A 
HETATM   27  C17 UNL     1     -16.970 -33.634  -9.579  1.00  0.00     0.009 A 
HETATM   28  C18 UNL     1     -15.837 -33.513 -10.322  1.00  0.00     0.050 A 
HETATM   29  S1  UNL     1     -15.660 -35.062 -10.981  1.00  0.00    -0.098 SA
ENDBRANCH  22  25
ENDBRANCH  11  22
TORSDOF 5
ENDMDL
MODEL 4
REMARK VINA RESULT: -7.160736262      2.332      6.034
REMARK  5 active torsions:
REMARK  status: ('A' for Active; 'I' for Inactive)
REMARK    1  A    between atoms: C3_3  and  N1_4 
REMARK       I    between atoms: N1_4  and  C4_6 
REMARK       I    between atoms: C4_6  and  N2_8 
REMARK    2  A    between atoms: N2_8  and  C5_10 
REMARK    3  A    between atoms: N4_21  and  C14_22 
REMARK    4  A    between atoms: C14_22  and  O3_23 
REMARK    5  A    between atoms: C14_22  and  C15_25 
ROOT
HETATM    1  C1  UNL     1     -16.106 -39.608 -11.401  1.00  0.00     0.035 C 
HETATM    2  C2  UNL     1     -17.171 -39.988 -10.487  1.00  0.00     0.117 C 
HETATM    3  C3  UNL     1     -16.893 -41.219  -9.609  1.00  0.00     0.201 C 
HETATM    4  C9  UNL     1     -18.291 -41.657  -9.174  1.00  0.00     0.246 C 
HETATM    5  O2  UNL     1     -18.484 -42.748  -8.617  1.00  0.00    -0.271 OA
HETATM    6  N3  UNL     1     -19.312 -40.713  -9.467  1.00  0.00    -0.328 N 
HETATM    7  C10 UNL     1     -20.573 -41.163  -9.968  1.00  0.00     0.155 C 
HETATM    8  C11 UNL     1     -19.120 -39.249  -9.250  1.00  0.00     0.105 C 
HETATM    9  C12 UNL     1     -19.400 -39.098  -7.768  1.00  0.00     0.063 C 
HETATM   10  C13 UNL     1     -20.169 -38.501 -10.014  1.00  0.00     0.063 C 
HETATM   11  N4  UNL     1     -17.764 -38.946  -9.626  1.00  0.00    -0.328 N 
ENDROOT
BRANCH   3  12
HETATM   12  N1  UNL     1     -16.382 -42.306 -10.406  1.00  0.00    -0.328 N 
HETATM   13  C4  UNL     1     -15.036 -42.722 -10.237  1.00  0.00     0.317 C 
HETATM   14  O1  UNL     1     -14.267 -42.148  -9.393  1.00  0.00    -0.247 OA
HETATM   15  N2  UNL     1     -14.493 -43.792 -11.001  1.00  0.00    -0.335 N 
ATOM     16  H2  UNL     1     -15.082 -44.270 -11.683  1.00  0.00     0.165 HD
ATOM     17  H1  UNL     1     -16.984 -42.773 -11.085  1.00  0.00     0.165 HD
BRANCH  15  18
HETATM   18  C5  UNL     1     -13.117 -44.216 -10.828  1.00  0.00     0.023 C 
HETATM   19  C6  UNL     1     -12.839 -44.675  -9.423  1.00  0.00     0.037 C 
HETATM   20  C7  UNL     1     -12.199 -43.105 -11.261  1.00  0.00     0.037 C 
HETATM   21  C8  UNL     1     -12.872 -45.400 -11.763  1.00  0.00     0.037 C 
ENDBRANCH  15  18
ENDBRANCH   3  12
BRANCH  11  22
HETATM   22  C14 UNL     1     -16.928 -37.901  -9.237  1.00  0.00     0.158 C 
BRANCH  22  23
HETATM   23  O3  UNL     1     -15.975 -38.207  -8.355  1.00  0.00    -0.345 OA
ATOM     24  H3  UNL     1     -16.259 -38.324  -7.456  1.00  0.00     0.219 HD
ENDBRANCH  22  23
BRANCH  22  25
HETATM   25  C15 UNL     1     -16.848 -36.491  -9.589  1.00  0.00     0.055 A 
HETATM   26  C16 UNL     1     -17.444 -35.350  -9.193  1.00  0.00     0.024 A 
HETATM   27  C17 UNL     1     -17.046 -34.170  -9.739  1.00  0.00     0.009 A 
HETATM   28  C18 UNL     1     -16.056 -34.214 -10.670  1.00  0.00     0.050 A 
HETATM   29  S1  UNL     1     -15.707 -35.867 -10.761  1.00  0.00    -0.098 SA
ENDBRANCH  22  25
ENDBRANCH  11  22
TORSDOF 5
ENDMDL
MODEL 5
REMARK VINA RESULT: -7.134034145      3.049      5.996
REMARK  5 active torsions:
REMARK  status: ('A' for Active; 'I' for Inactive)
REMARK    1  A    between atoms: C3_3  and  N1_4 
REMARK       I    between atoms: N1_4  and  C4_6 
REMARK       I    between atoms: C4_6  and  N2_8 
REMARK    2  A    between atoms: N2_8  and  C5_10 
REMARK    3  A    between atoms: N4_21  and  C14_22 
REMARK    4  A    between atoms: C14_22  and  O3_23 
REMARK    5  A    between atoms: C14_22  and  C15_25 
ROOT
HETATM    1  C1  UNL     1     -15.001 -39.709  -7.588  1.00  0.00     0.035 C 
HETATM    2  C2  UNL     1     -16.211 -40.152  -8.263  1.00  0.00     0.117 C 
HETATM    3  C3  UNL     1     -16.861 -39.131  -9.210  1.00  0.00     0.201 C 
HETATM    4  C9  UNL     1     -18.293 -39.649  -9.347  1.00  0.00     0.246 C 
HETATM    5  O2  UNL     1     -19.181 -38.965  -9.877  1.00  0.00    -0.271 OA
HETATM    6  N3  UNL     1     -18.490 -40.954  -8.820  1.00  0.00    -0.328 N 
HETATM    7  C10 UNL     1     -19.673 -41.246  -8.073  1.00  0.00     0.155 C 
HETATM    8  C11 UNL     1     -17.503 -42.051  -9.036  1.00  0.00     0.105 C 
HETATM    9  C12 UNL     1     -17.866 -42.551 -10.421  1.00  0.00     0.063 C 
HETATM   10  C13 UNL     1     -17.765 -43.146  -8.048  1.00  0.00     0.063 C 
HETATM   11  N4  UNL     1     -16.194 -41.457  -8.952  1.00  0.00    -0.328 N 
ENDROOT
BRANCH   3  12
HETATM   12  N1  UNL     1     -16.980 -37.846  -8.568  1.00  0.00    -0.328 N 
HETATM   13  C4  UNL     1     -16.957 -36.667  -9.358  1.00  0.00     0.317 C 
HETATM   14  O1  UNL     1     -16.831 -36.724 -10.628  1.00  0.00    -0.247 OA
HETATM   15  N2  UNL     1     -17.073 -35.379  -8.764  1.00  0.00    -0.335 N 
ATOM     16  H2  UNL     1     -17.175 -35.301  -7.752  1.00  0.00     0.165 HD
ATOM     17  H1  UNL     1     -17.079 -37.785  -7.554  1.00  0.00     0.165 HD
BRANCH  15  18
HETATM   18  C5  UNL     1     -17.050 -34.175  -9.573  1.00  0.00     0.023 C 
HETATM   19  C6  UNL     1     -18.411 -33.826 -10.108  1.00  0.00     0.037 C 
HETATM   20  C7  UNL     1     -16.026 -34.332 -10.664  1.00  0.00     0.037 C 
HETATM   21  C8  UNL     1     -16.590 -33.023  -8.680  1.00  0.00     0.037 C 
ENDBRANCH  15  18
ENDBRANCH   3  12
BRANCH  11  22
HETATM   22  C14 UNL     1     -14.974 -41.872  -9.484  1.00  0.00     0.158 C 
BRANCH  22  23
HETATM   23  O3  UNL     1     -14.652 -41.369 -10.676  1.00  0.00    -0.345 OA
ATOM     24  H3  UNL     1     -15.317 -41.434 -11.351  1.00  0.00     0.219 HD
ENDBRANCH  22  23
BRANCH  22  25
HETATM   25  C15 UNL     1     -13.923 -42.763  -9.017  1.00  0.00     0.055 A 
HETATM   26  C16 UNL     1     -13.836 -44.044  -8.612  1.00  0.00     0.024 A 
HETATM   27  C17 UNL     1     -12.619 -44.560  -8.294  1.00  0.00     0.009 A 
HETATM   28  C18 UNL     1     -11.543 -43.735  -8.404  1.00  0.00     0.050 A 
HETATM   29  S1  UNL     1     -12.239 -42.288  -8.938  1.00  0.00    -0.098 SA
ENDBRANCH  22  25
ENDBRANCH  11  22
TORSDOF 5
ENDMDL
