MODEL 1
REMARK VINA RESULT: -7.770627325      0.000      0.000
REMARK  6 active torsions:
REMARK  status: ('A' for Active; 'I' for Inactive)
REMARK       I    between atoms: C1_2  and  N1_3 
REMARK    1  A    between atoms: C1_2  and  C15_27 
REMARK    2  A    between atoms: N1_3  and  C2_5 
REMARK    3  A    between atoms: N4_14  and  C7_15 
REMARK    4  A    between atoms: C7_15  and  O2_16 
REMARK    5  A    between atoms: C7_15  and  N5_18 
REMARK    6  A    between atoms: C12_23  and  C13_24 
ROOT
HETATM    1  C2  UNL     1     -15.844 -36.480 -11.351  1.00  0.00     0.131 A 
HETATM    2  N2  UNL     1     -14.601 -37.021 -11.174  1.00  0.00    -0.285 N 
ATOM      3  H2  UNL     1     -13.711 -36.530 -11.262  1.00  0.00     0.188 HD
HETATM    4  N3  UNL     1     -14.764 -38.293 -10.869  1.00  0.00    -0.301 N 
ATOM      5  H3  UNL     1     -14.000 -38.944 -10.683  1.00  0.00     0.186 HD
HETATM    6  C3  UNL     1     -16.067 -38.621 -10.834  1.00  0.00     0.053 A 
HETATM    7  C4  UNL     1     -16.764 -37.468 -11.140  1.00  0.00     0.015 A 
HETATM    8  C5  UNL     1     -18.274 -37.515 -11.164  1.00  0.00     0.064 C 
HETATM    9  C6  UNL     1     -18.582 -38.382  -9.931  1.00  0.00     0.131 C 
HETATM   10  N4  UNL     1     -18.114 -39.760 -10.163  1.00  0.00    -0.342 N 
HETATM   11  C14 UNL     1     -16.752 -39.912 -10.559  1.00  0.00     0.185 C 
ENDROOT
BRANCH  10  12
HETATM   12  C7  UNL     1     -19.058 -40.777  -9.972  1.00  0.00     0.217 C 
BRANCH  12  13
HETATM   13  O2  UNL     1     -18.735 -41.940 -10.459  1.00  0.00    -0.332 OA
ATOM     14  H2  UNL     1     -19.035 -42.690  -9.959  1.00  0.00     0.220 HD
ENDBRANCH  12  13
BRANCH  12  15
HETATM   15  N5  UNL     1     -20.304 -40.758  -9.339  1.00  0.00    -0.342 N 
HETATM   16  C8  UNL     1     -21.539 -40.695 -10.170  1.00  0.00     0.127 C 
HETATM   17  C9  UNL     1     -22.142 -39.302 -10.043  1.00  0.00     0.020 C 
HETATM   18  C10 UNL     1     -21.930 -38.753  -8.647  1.00  0.00     0.004 C 
HETATM   19  C11 UNL     1     -21.856 -39.895  -7.655  1.00  0.00     0.026 C 
HETATM   20  C12 UNL     1     -20.621 -40.781  -7.938  1.00  0.00     0.097 C 
BRANCH  20  21
HETATM   21  C13 UNL     1     -21.040 -42.197  -7.501  1.00  0.00     0.111 C 
HETATM   22  S1  UNL     1     -22.697 -42.184  -6.797  1.00  0.00    -0.096 SA
ENDBRANCH  20  21
ENDBRANCH  12  15
ENDBRANCH  10  12
BRANCH   1  23
HETATM   23  N1  UNL     1     -16.056 -35.239 -11.662  1.00  0.00    -0.311 N 
HETATM   24  C1  UNL     1     -15.786 -34.228 -10.713  1.00  0.00     0.237 C 
HETATM   25  O1  UNL     1     -14.810 -33.470 -10.862  1.00  0.00    -0.272 OA
ATOM     26  H1  UNL     1     -16.415 -34.994 -12.585  1.00  0.00     0.170 HD
BRANCH  24  27
HETATM   27  C15 UNL     1     -16.680 -34.084  -9.540  1.00  0.00     0.149 A 
HETATM   28  C16 UNL     1     -18.175 -34.036  -9.948  1.00  0.00     0.099 A 
HETATM   29  S2  UNL     1     -17.479 -32.614  -9.117  1.00  0.00    -0.152 SA
ENDBRANCH  24  27
ENDBRANCH   1  23
TORSDOF 6
ENDMDL
MODEL 2
REMARK VINA RESULT: -7.730401752      1.365      1.456
REMARK  6 active torsions:
REMARK  status: ('A' for Active; 'I' for Inactive)
REMARK       I    between atoms: C1_2  and  N1_3 
REMARK    1  A    between atoms: C1_2  and  C15_27 
REMARK    2  A    between atoms: N1_3  and  C2_5 
REMARK    3  A    between atoms: N4_14  and  C7_15 
REMARK    4  A    between atoms: C7_15  and  O2_16 
REMARK    5  A    between atoms: C7_15  and  N5_18 
REMARK    6  A    between atoms: C12_23  and  C13_24 
ROOT
HETATM    1  C2  UNL     1     -16.410 -37.676 -11.725  1.00  0.00     0.131 A 
HETATM    2  N2  UNL     1     -15.285 -38.386 -12.038  1.00  0.00    -0.285 N 
ATOM      3  H2  UNL     1     -14.505 -38.062 -12.611  1.00  0.00     0.188 HD
HETATM    4  N3  UNL     1     -15.391 -39.568 -11.463  1.00  0.00    -0.301 N 
ATOM      5  H3  UNL     1     -14.691 -40.307 -11.530  1.00  0.00     0.186 HD
HETATM    6  C3  UNL     1     -16.544 -39.672 -10.778  1.00  0.00     0.053 A 
HETATM    7  C4  UNL     1     -17.200 -38.468 -10.940  1.00  0.00     0.015 A 
HETATM    8  C5  UNL     1     -18.537 -38.270 -10.263  1.00  0.00     0.064 C 
HETATM    9  C6  UNL     1     -18.294 -38.918  -8.890  1.00  0.00     0.131 C 
HETATM   10  N4  UNL     1     -18.114 -40.372  -9.051  1.00  0.00    -0.342 N 
HETATM   11  C14 UNL     1     -17.123 -40.791  -9.989  1.00  0.00     0.185 C 
ENDROOT
BRANCH  10  12
HETATM   12  C7  UNL     1     -18.936 -41.191  -8.266  1.00  0.00     0.217 C 
BRANCH  12  13
HETATM   13  O2  UNL     1     -18.370 -42.261  -7.790  1.00  0.00    -0.332 OA
ATOM     14  H2  UNL     1     -18.848 -42.703  -7.097  1.00  0.00     0.220 HD
ENDBRANCH  12  13
BRANCH  12  15
HETATM   15  N5  UNL     1     -20.278 -41.054  -7.903  1.00  0.00    -0.342 N 
HETATM   16  C8  UNL     1     -21.337 -41.390  -8.895  1.00  0.00     0.127 C 
HETATM   17  C9  UNL     1     -21.977 -40.096  -9.381  1.00  0.00     0.020 C 
HETATM   18  C10 UNL     1     -22.039 -39.077  -8.263  1.00  0.00     0.004 C 
HETATM   19  C11 UNL     1     -22.132 -39.787  -6.929  1.00  0.00     0.026 C 
HETATM   20  C12 UNL     1     -20.851 -40.610  -6.662  1.00  0.00     0.097 C 
BRANCH  20  21
HETATM   21  C13 UNL     1     -21.320 -41.812  -5.820  1.00  0.00     0.111 C 
HETATM   22  S1  UNL     1     -22.565 -41.307  -4.623  1.00  0.00    -0.096 SA
ENDBRANCH  20  21
ENDBRANCH  12  15
ENDBRANCH  10  12
BRANCH   1  23
HETATM   23  N1  UNL     1     -16.637 -36.464 -12.128  1.00  0.00    -0.311 N 
HETATM   24  C1  UNL     1     -15.990 -35.385 -11.485  1.00  0.00     0.237 C 
HETATM   25  O1  UNL     1     -15.080 -34.763 -12.063  1.00  0.00    -0.272 OA
ATOM     26  H1  UNL     1     -17.276 -36.292 -12.904  1.00  0.00     0.170 HD
BRANCH  24  27
HETATM   27  C15 UNL     1     -16.412 -35.005 -10.117  1.00  0.00     0.149 A 
HETATM   28  C16 UNL     1     -17.914 -34.626 -10.052  1.00  0.00     0.099 A 
HETATM   29  S2  UNL     1     -16.708 -33.379  -9.620  1.00  0.00    -0.152 SA
ENDBRANCH  24  27
ENDBRANCH   1  23
TORSDOF 6
ENDMDL
MODEL 3
REMARK VINA RESULT: -7.656552628      2.108      2.390
REMARK  6 active torsions:
REMARK  status: ('A' for Active; 'I' for Inactive)
REMARK       I    between atoms: C1_2  and  N1_3 
REMARK    1  A    between atoms: C1_2  and  C15_27 
REMARK    2  A    between atoms: N1_3  and  C2_5 
REMARK    3  A    between atoms: N4_14  and  C7_15 
REMARK    4  A    between atoms: C7_15  and  O2_16 
REMARK    5  A    between atoms: C7_15  and  N5_18 
REMARK    6  A    between atoms: C12_23  and  C13_24 
ROOT
HETATM    1  C2  UNL     1     -14.564 -37.880 -11.065  1.00  0.00     0.131 A 
HETATM    2  N2  UNL     1     -13.443 -38.324 -10.421  1.00  0.00    -0.285 N 
ATOM      3  H2  UNL     1     -12.479 -38.200 -10.733  1.00  0.00     0.188 HD
HETATM    4  N3  UNL     1     -13.835 -38.941  -9.324  1.00  0.00    -0.301 N 
ATOM      5  H3  UNL     1     -13.205 -39.375  -8.649  1.00  0.00     0.186 HD
HETATM    6  C3  UNL     1     -15.175 -38.924  -9.211  1.00  0.00     0.053 A 
HETATM    7  C4  UNL     1     -15.648 -38.248 -10.318  1.00  0.00     0.015 A 
HETATM    8  C5  UNL     1     -17.138 -38.048 -10.468  1.00  0.00     0.064 C 
HETATM    9  C6  UNL     1     -17.556 -37.702  -9.029  1.00  0.00     0.131 C 
HETATM   10  N4  UNL     1     -17.373 -38.879  -8.161  1.00  0.00    -0.342 N 
HETATM   11  C14 UNL     1     -16.084 -39.490  -8.179  1.00  0.00     0.185 C 
ENDROOT
BRANCH  10  12
HETATM   12  C7  UNL     1     -18.487 -39.276  -7.410  1.00  0.00     0.217 C 
BRANCH  12  13
HETATM   13  O2  UNL     1     -18.330 -39.251  -6.118  1.00  0.00    -0.332 OA
ATOM     14  H2  UNL     1     -17.990 -40.050  -5.732  1.00  0.00     0.220 HD
ENDBRANCH  12  13
BRANCH  12  15
HETATM   15  N5  UNL     1     -19.755 -39.703  -7.814  1.00  0.00    -0.342 N 
HETATM   16  C8  UNL     1     -19.901 -40.414  -9.115  1.00  0.00     0.127 C 
HETATM   17  C9  UNL     1     -20.575 -39.479 -10.109  1.00  0.00     0.020 C 
HETATM   18  C10 UNL     1     -21.590 -38.598  -9.412  1.00  0.00     0.004 C 
HETATM   19  C11 UNL     1     -22.141 -39.315  -8.197  1.00  0.00     0.026 C 
HETATM   20  C12 UNL     1     -21.024 -39.556  -7.156  1.00  0.00     0.097 C 
BRANCH  20  21
HETATM   21  C13 UNL     1     -21.419 -40.864  -6.445  1.00  0.00     0.111 C 
HETATM   22  S1  UNL     1     -22.993 -41.479  -7.067  1.00  0.00    -0.096 SA
ENDBRANCH  20  21
ENDBRANCH  12  15
ENDBRANCH  10  12
BRANCH   1  23
HETATM   23  N1  UNL     1     -14.545 -37.226 -12.185  1.00  0.00    -0.311 N 
HETATM   24  C1  UNL     1     -14.214 -35.853 -12.184  1.00  0.00     0.237 C 
HETATM   25  O1  UNL     1     -13.120 -35.470 -12.639  1.00  0.00    -0.272 OA
ATOM     26  H1  UNL     1     -14.767 -37.700 -13.061  1.00  0.00     0.170 HD
BRANCH  24  27
HETATM   27  C15 UNL     1     -15.185 -34.878 -11.635  1.00  0.00     0.149 A 
HETATM   28  C16 UNL     1     -14.944 -33.445 -12.178  1.00  0.00     0.099 A 
HETATM   29  S2  UNL     1     -14.797 -33.719 -10.417  1.00  0.00    -0.152 SA
ENDBRANCH  24  27
ENDBRANCH   1  23
TORSDOF 6
ENDMDL
MODEL 4
REMARK VINA RESULT: -7.597844939      4.275      7.541
REMARK  6 active torsions:
REMARK  status: ('A' for Active; 'I' for Inactive)
REMARK       I    between atoms: C1_2  and  N1_3 
REMARK    1  A    between atoms: C1_2  and  C15_27 
REMARK    2  A    between atoms: N1_3  and  C2_5 
REMARK    3  A    between atoms: N4_14  and  C7_15 
REMARK    4  A    between atoms: C7_15  and  O2_16 
REMARK    5  A    between atoms: C7_15  and  N5_18 
REMARK    6  A    between atoms: C12_23  and  C13_24 
ROOT
HETATM    1  C2  UNL     1     -15.290 -42.322  -8.167  1.00  0.00     0.131 A 
HETATM    2  N2  UNL     1     -15.654 -41.966  -6.898  1.00  0.00    -0.285 N 
ATOM      3  H2  UNL     1     -15.774 -42.597  -6.105  1.00  0.00     0.188 HD
HETATM    4  N3  UNL     1     -15.822 -40.659  -6.888  1.00  0.00    -0.301 N 
ATOM      5  H3  UNL     1     -16.099 -40.119  -6.067  1.00  0.00     0.186 HD
HETATM    6  C3  UNL     1     -15.583 -40.129  -8.101  1.00  0.00     0.053 A 
HETATM    7  C4  UNL     1     -15.242 -41.185  -8.923  1.00  0.00     0.015 A 
HETATM    8  C5  UNL     1     -14.895 -40.901 -10.366  1.00  0.00     0.064 C 
HETATM    9  C6  UNL     1     -14.048 -39.623 -10.241  1.00  0.00     0.131 C 
HETATM   10  N4  UNL     1     -14.895 -38.508  -9.784  1.00  0.00    -0.342 N 
HETATM   11  C14 UNL     1     -15.652 -38.728  -8.595  1.00  0.00     0.185 C 
ENDROOT
BRANCH  10  12
HETATM   12  C7  UNL     1     -14.869 -37.346 -10.566  1.00  0.00     0.217 C 
BRANCH  12  13
HETATM   13  O2  UNL     1     -13.733 -37.085 -11.145  1.00  0.00    -0.332 OA
ATOM     14  H2  UNL     1     -13.150 -36.511 -10.661  1.00  0.00     0.220 HD
ENDBRANCH  12  13
BRANCH  12  15
HETATM   15  N5  UNL     1     -15.866 -36.405 -10.835  1.00  0.00    -0.342 N 
HETATM   16  C8  UNL     1     -15.617 -35.356 -11.864  1.00  0.00     0.127 C 
HETATM   17  C9  UNL     1     -15.409 -34.022 -11.160  1.00  0.00     0.020 C 
HETATM   18  C10 UNL     1     -16.282 -33.926  -9.926  1.00  0.00     0.004 C 
HETATM   19  C11 UNL     1     -17.532 -34.760 -10.118  1.00  0.00     0.026 C 
HETATM   20  C12 UNL     1     -17.170 -36.258 -10.249  1.00  0.00     0.097 C 
BRANCH  20  21
HETATM   21  C13 UNL     1     -18.250 -36.848 -11.175  1.00  0.00     0.111 C 
HETATM   22  S1  UNL     1     -19.067 -38.248 -10.393  1.00  0.00    -0.096 SA
ENDBRANCH  20  21
ENDBRANCH  12  15
ENDBRANCH  10  12
BRANCH   1  23
HETATM   23  N1  UNL     1     -15.043 -43.542  -8.535  1.00  0.00    -0.311 N 
HETATM   24  C1  UNL     1     -13.746 -44.071  -8.358  1.00  0.00     0.237 C 
HETATM   25  O1  UNL     1     -13.531 -44.932  -7.484  1.00  0.00    -0.272 OA
ATOM     26  H1  UNL     1     -15.780 -44.113  -8.947  1.00  0.00     0.170 HD
BRANCH  24  27
HETATM   27  C15 UNL     1     -12.646 -43.590  -9.227  1.00  0.00     0.149 A 
HETATM   28  C16 UNL     1     -11.260 -44.101  -8.753  1.00  0.00     0.099 A 
HETATM   29  S2  UNL     1     -11.548 -42.336  -8.780  1.00  0.00    -0.152 SA
ENDBRANCH  24  27
ENDBRANCH   1  23
TORSDOF 6
ENDMDL
MODEL 5
REMARK VINA RESULT: -7.445529525      1.792      2.177
REMARK  6 active torsions:
REMARK  status: ('A' for Active; 'I' for Inactive)
REMARK       I    between atoms: C1_2  and  N1_3 
REMARK    1  A    between atoms: C1_2  and  C15_27 
REMARK    2  A    between atoms: N1_3  and  C2_5 
REMARK    3  A    between atoms: N4_14  and  C7_15 
REMARK    4  A    between atoms: C7_15  and  O2_16 
REMARK    5  A    between atoms: C7_15  and  N5_18 
REMARK    6  A    between atoms: C12_23  and  C13_24 
ROOT
HETATM    1  C2  UNL     1     -16.784 -37.745 -11.571  1.00  0.00     0.131 A 
HETATM    2  N2  UNL     1     -15.688 -38.539 -11.765  1.00  0.00    -0.285 N 
ATOM      3  H2  UNL     1     -14.837 -38.283 -12.265  1.00  0.00     0.188 HD
HETATM    4  N3  UNL     1     -15.935 -39.699 -11.187  1.00  0.00    -0.301 N 
ATOM      5  H3  UNL     1     -15.287 -40.487 -11.176  1.00  0.00     0.186 HD
HETATM    6  C3  UNL     1     -17.151 -39.707 -10.614  1.00  0.00     0.053 A 
HETATM    7  C4  UNL     1     -17.700 -38.462 -10.855  1.00  0.00     0.015 A 
HETATM    8  C5  UNL     1     -19.077 -38.156 -10.312  1.00  0.00     0.064 C 
HETATM    9  C6  UNL     1     -19.013 -38.792  -8.913  1.00  0.00     0.131 C 
HETATM   10  N4  UNL     1     -18.924 -40.257  -9.036  1.00  0.00    -0.342 N 
HETATM   11  C14 UNL     1     -17.882 -40.765  -9.869  1.00  0.00     0.185 C 
ENDROOT
BRANCH  10  12
HETATM   12  C7  UNL     1     -19.874 -40.999  -8.323  1.00  0.00     0.217 C 
BRANCH  12  13
HETATM   13  O2  UNL     1     -19.538 -41.320  -7.107  1.00  0.00    -0.332 OA
ATOM     14  H2  UNL     1     -18.954 -40.710  -6.670  1.00  0.00     0.220 HD
ENDBRANCH  12  13
BRANCH  12  15
HETATM   15  N5  UNL     1     -21.138 -41.463  -8.698  1.00  0.00    -0.342 N 
HETATM   16  C8  UNL     1     -22.208 -40.477  -9.017  1.00  0.00     0.127 C 
HETATM   17  C9  UNL     1     -23.224 -40.475  -7.884  1.00  0.00     0.020 C 
HETATM   18  C10 UNL     1     -23.383 -41.865  -7.305  1.00  0.00     0.004 C 
HETATM   19  C11 UNL     1     -23.094 -42.900  -8.373  1.00  0.00     0.026 C 
HETATM   20  C12 UNL     1     -21.619 -42.811  -8.828  1.00  0.00     0.097 C 
BRANCH  20  21
HETATM   21  C13 UNL     1     -21.633 -43.241 -10.307  1.00  0.00     0.111 C 
HETATM   22  S1  UNL     1     -23.304 -43.647 -10.838  1.00  0.00    -0.096 SA
ENDBRANCH  20  21
ENDBRANCH  12  15
ENDBRANCH  10  12
BRANCH   1  23
HETATM   23  N1  UNL     1     -16.883 -36.528 -12.011  1.00  0.00    -0.311 N 
HETATM   24  C1  UNL     1     -16.121 -35.506 -11.403  1.00  0.00     0.237 C 
HETATM   25  O1  UNL     1     -15.153 -35.002 -12.003  1.00  0.00    -0.272 OA
ATOM     26  H1  UNL     1     -17.505 -36.312 -12.789  1.00  0.00     0.170 HD
BRANCH  24  27
HETATM   27  C15 UNL     1     -16.491 -35.042 -10.046  1.00  0.00     0.149 A 
HETATM   28  C16 UNL     1     -17.967 -34.571  -9.971  1.00  0.00     0.099 A 
HETATM   29  S2  UNL     1     -16.680 -33.381  -9.617  1.00  0.00    -0.152 SA
ENDBRANCH  24  27
ENDBRANCH   1  23
TORSDOF 6
ENDMDL
