MODEL 1
REMARK VINA RESULT: -8.522159732      0.000      0.000
REMARK  4 active torsions:
REMARK  status: ('A' for Active; 'I' for Inactive)
REMARK    1  A    between atoms: C2_2  and  C3_3 
REMARK    2  A    between atoms: C3_3  and  C4_4 
REMARK       I    between atoms: N3_11  and  C7_13 
REMARK    3  A    between atoms: C7_13  and  O2_15 
REMARK    4  A    between atoms: O2_15  and  C8_16 
REMARK       I    between atoms: N4_22  and  C14_23 
REMARK       I    between atoms: C14_23  and  N5_25 
ROOT
HETATM    1  C4  UNL     1     -17.637 -41.846  -8.978  1.00  0.00     0.141 C 
HETATM    2  C5  UNL     1     -18.041 -40.581  -9.653  1.00  0.00     0.060 A 
HETATM    3  N1  UNL     1     -19.125 -39.863 -10.045  1.00  0.00    -0.300 N 
ATOM      4  H1  UNL     1     -20.099 -40.133  -9.904  1.00  0.00     0.186 HD
HETATM    5  N2  UNL     1     -18.718 -38.771 -10.630  1.00  0.00    -0.285 N 
ATOM      6  H2  UNL     1     -19.339 -38.058 -11.016  1.00  0.00     0.188 HD
HETATM    7  C6  UNL     1     -17.375 -38.702 -10.660  1.00  0.00     0.134 A 
HETATM    8  N3  UNL     1     -16.608 -37.775 -11.154  1.00  0.00    -0.287 N 
ATOM      9  H3  UNL     1     -15.597 -37.896 -11.083  1.00  0.00     0.172 HD
HETATM   10  C7  UNL     1     -17.094 -36.619 -11.778  1.00  0.00     0.367 C 
HETATM   11  O1  UNL     1     -16.845 -36.363 -12.971  1.00  0.00    -0.238 OA
HETATM   12  C12 UNL     1     -16.945 -39.857 -10.036  1.00  0.00     0.031 A 
HETATM   13  C13 UNL     1     -15.720 -40.600  -9.626  1.00  0.00     0.173 C 
HETATM   14  N4  UNL     1     -16.201 -41.850  -9.086  1.00  0.00    -0.319 N 
HETATM   15  C14 UNL     1     -15.372 -42.924  -8.703  1.00  0.00     0.322 C 
HETATM   16  O3  UNL     1     -15.881 -43.976  -8.202  1.00  0.00    -0.247 OA
HETATM   17  N5  UNL     1     -13.977 -42.854  -8.867  1.00  0.00    -0.317 N 
HETATM   18  C15 UNL     1     -12.952 -41.974  -9.341  1.00  0.00     0.132 C 
HETATM   19  C16 UNL     1     -11.998 -42.630  -8.328  1.00  0.00     0.060 C 
HETATM   20  C17 UNL     1     -12.900 -43.816  -8.575  1.00  0.00     0.197 C 
HETATM   21  C18 UNL     1     -12.525 -44.647  -9.695  1.00  0.00     0.085 C 
HETATM   22  N6  UNL     1     -12.237 -45.306 -10.579  1.00  0.00    -0.195 NA
ENDROOT
BRANCH   1  23
HETATM   23  C3  UNL     1     -18.319 -43.017  -9.633  1.00  0.00     0.031 C 
BRANCH  23  24
HETATM   24  C2  UNL     1     -19.566 -43.464  -8.940  1.00  0.00    -0.002 C 
HETATM   25  C1  UNL     1     -20.717 -43.247  -9.930  1.00  0.00     0.005 C 
ENDBRANCH  23  24
ENDBRANCH   1  23
BRANCH  10  26
HETATM   26  O2  UNL     1     -17.872 -35.745 -11.035  1.00  0.00    -0.294 OA
BRANCH  26  27
HETATM   27  C8  UNL     1     -17.363 -34.850 -10.097  1.00  0.00     0.061 C 
HETATM   28  C9  UNL     1     -15.991 -34.333 -10.411  1.00  0.00     0.046 C 
HETATM   29  C10 UNL     1     -17.264 -35.607  -8.766  1.00  0.00     0.046 C 
HETATM   30  C11 UNL     1     -18.324 -33.696  -9.837  1.00  0.00     0.046 C 
ENDBRANCH  26  27
ENDBRANCH  10  26
TORSDOF 4
ENDMDL
MODEL 2
REMARK VINA RESULT: -7.868601371      2.168      7.631
REMARK  4 active torsions:
REMARK  status: ('A' for Active; 'I' for Inactive)
REMARK    1  A    between atoms: C2_2  and  C3_3 
REMARK    2  A    between atoms: C3_3  and  C4_4 
REMARK       I    between atoms: N3_11  and  C7_13 
REMARK    3  A    between atoms: C7_13  and  O2_15 
REMARK    4  A    between atoms: O2_15  and  C8_16 
REMARK       I    between atoms: N4_22  and  C14_23 
REMARK       I    between atoms: C14_23  and  N5_25 
ROOT
HETATM    1  C4  UNL     1     -17.719 -38.894 -10.765  1.00  0.00     0.141 C 
HETATM    2  C5  UNL     1     -17.045 -40.163 -10.375  1.00  0.00     0.060 A 
HETATM    3  N1  UNL     1     -17.287 -41.448 -10.009  1.00  0.00    -0.300 N 
ATOM      4  H1  UNL     1     -18.209 -41.876  -9.920  1.00  0.00     0.186 HD
HETATM    5  N2  UNL     1     -16.149 -42.046  -9.791  1.00  0.00    -0.285 N 
ATOM      6  H2  UNL     1     -16.056 -43.020  -9.503  1.00  0.00     0.188 HD
HETATM    7  C6  UNL     1     -15.112 -41.213  -9.995  1.00  0.00     0.134 A 
HETATM    8  N3  UNL     1     -13.836 -41.443  -9.880  1.00  0.00    -0.287 N 
ATOM      9  H3  UNL     1     -13.188 -40.680 -10.078  1.00  0.00     0.172 HD
HETATM   10  C7  UNL     1     -13.303 -42.681  -9.498  1.00  0.00     0.367 C 
HETATM   11  O1  UNL     1     -12.621 -42.811  -8.463  1.00  0.00    -0.238 OA
HETATM   12  C12 UNL     1     -15.685 -40.013 -10.367  1.00  0.00     0.031 A 
HETATM   13  C13 UNL     1     -15.360 -38.616 -10.767  1.00  0.00     0.173 C 
HETATM   14  N4  UNL     1     -16.637 -37.952 -10.891  1.00  0.00    -0.319 N 
HETATM   15  C14 UNL     1     -16.798 -36.570 -11.118  1.00  0.00     0.322 C 
HETATM   16  O3  UNL     1     -17.963 -36.077 -11.250  1.00  0.00    -0.247 OA
HETATM   17  N5  UNL     1     -15.685 -35.717 -11.202  1.00  0.00    -0.317 N 
HETATM   18  C15 UNL     1     -14.254 -35.739 -11.135  1.00  0.00     0.132 C 
HETATM   19  C16 UNL     1     -14.247 -34.532 -12.090  1.00  0.00     0.060 C 
HETATM   20  C17 UNL     1     -15.569 -34.263 -11.411  1.00  0.00     0.197 C 
HETATM   21  C18 UNL     1     -15.484 -33.492 -10.192  1.00  0.00     0.085 C 
HETATM   22  N6  UNL     1     -15.426 -32.887  -9.228  1.00  0.00    -0.195 NA
ENDROOT
BRANCH   1  23
HETATM   23  C3  UNL     1     -18.754 -38.526  -9.736  1.00  0.00     0.031 C 
BRANCH  23  24
HETATM   24  C2  UNL     1     -20.161 -38.567 -10.240  1.00  0.00    -0.002 C 
HETATM   25  C1  UNL     1     -20.729 -39.934  -9.837  1.00  0.00     0.005 C 
ENDBRANCH  23  24
ENDBRANCH   1  23
BRANCH  10  26
HETATM   26  O2  UNL     1     -13.549 -43.781 -10.303  1.00  0.00    -0.294 OA
BRANCH  26  27
HETATM   27  C8  UNL     1     -12.823 -44.088 -11.451  1.00  0.00     0.061 C 
HETATM   28  C9  UNL     1     -11.352 -43.814 -11.349  1.00  0.00     0.046 C 
HETATM   29  C10 UNL     1     -13.369 -43.196 -12.575  1.00  0.00     0.046 C 
HETATM   30  C11 UNL     1     -13.071 -45.519 -11.913  1.00  0.00     0.046 C 
ENDBRANCH  26  27
ENDBRANCH  10  26
TORSDOF 4
ENDMDL
MODEL 3
REMARK VINA RESULT: -7.858246142      3.412      7.813
REMARK  4 active torsions:
REMARK  status: ('A' for Active; 'I' for Inactive)
REMARK    1  A    between atoms: C2_2  and  C3_3 
REMARK    2  A    between atoms: C3_3  and  C4_4 
REMARK       I    between atoms: N3_11  and  C7_13 
REMARK    3  A    between atoms: C7_13  and  O2_15 
REMARK    4  A    between atoms: O2_15  and  C8_16 
REMARK       I    between atoms: N4_22  and  C14_23 
REMARK       I    between atoms: C14_23  and  N5_25 
ROOT
HETATM    1  C4  UNL     1     -16.993 -38.787 -11.238  1.00  0.00     0.141 C 
HETATM    2  C5  UNL     1     -16.007 -39.901 -11.315  1.00  0.00     0.060 A 
HETATM    3  N1  UNL     1     -15.897 -41.254 -11.265  1.00  0.00    -0.300 N 
ATOM      4  H1  UNL     1     -16.670 -41.907 -11.138  1.00  0.00     0.186 HD
HETATM    5  N2  UNL     1     -14.643 -41.580 -11.407  1.00  0.00    -0.285 N 
ATOM      6  H2  UNL     1     -14.294 -42.539 -11.406  1.00  0.00     0.188 HD
HETATM    7  C6  UNL     1     -13.867 -40.491 -11.556  1.00  0.00     0.134 A 
HETATM    8  N3  UNL     1     -12.578 -40.414 -11.722  1.00  0.00    -0.287 N 
ATOM      9  H3  UNL     1     -12.159 -39.488 -11.818  1.00  0.00     0.172 HD
HETATM   10  C7  UNL     1     -11.736 -41.531 -11.774  1.00  0.00     0.367 C 
HETATM   11  O1  UNL     1     -10.828 -41.708 -10.940  1.00  0.00    -0.238 OA
HETATM   12  C12 UNL     1     -14.738 -39.421 -11.497  1.00  0.00     0.031 A 
HETATM   13  C13 UNL     1     -14.800 -37.934 -11.564  1.00  0.00     0.173 C 
HETATM   14  N4  UNL     1     -16.178 -37.601 -11.292  1.00  0.00    -0.319 N 
HETATM   15  C14 UNL     1     -16.660 -36.288 -11.117  1.00  0.00     0.322 C 
HETATM   16  O3  UNL     1     -17.900 -36.085 -10.916  1.00  0.00    -0.247 OA
HETATM   17  N5  UNL     1     -15.789 -35.186 -11.159  1.00  0.00    -0.317 N 
HETATM   18  C15 UNL     1     -14.405 -34.864 -11.343  1.00  0.00     0.132 C 
HETATM   19  C16 UNL     1     -14.855 -33.516 -11.933  1.00  0.00     0.060 C 
HETATM   20  C17 UNL     1     -16.017 -33.740 -10.994  1.00  0.00     0.197 C 
HETATM   21  C18 UNL     1     -15.818 -33.256  -9.648  1.00  0.00     0.085 C 
HETATM   22  N6  UNL     1     -15.668 -32.880  -8.583  1.00  0.00    -0.195 NA
ENDROOT
BRANCH   1  23
HETATM   23  C3  UNL     1     -17.822 -38.922  -9.990  1.00  0.00     0.031 C 
BRANCH  23  24
HETATM   24  C2  UNL     1     -19.114 -39.649 -10.189  1.00  0.00    -0.002 C 
HETATM   25  C1  UNL     1     -20.223 -38.591 -10.124  1.00  0.00     0.005 C 
ENDBRANCH  23  24
ENDBRANCH   1  23
BRANCH  10  26
HETATM   26  O2  UNL     1     -11.930 -42.457 -12.787  1.00  0.00    -0.294 OA
BRANCH  26  27
HETATM   27  C8  UNL     1     -11.649 -42.216 -14.130  1.00  0.00     0.061 C 
HETATM   28  C9  UNL     1     -12.802 -41.672 -14.920  1.00  0.00     0.046 C 
HETATM   29  C10 UNL     1     -11.273 -43.566 -14.756  1.00  0.00     0.046 C 
HETATM   30  C11 UNL     1     -10.418 -41.333 -14.301  1.00  0.00     0.046 C 
ENDBRANCH  26  27
ENDBRANCH  10  26
TORSDOF 4
ENDMDL
MODEL 4
REMARK VINA RESULT: -7.804400746      2.421      7.485
REMARK  4 active torsions:
REMARK  status: ('A' for Active; 'I' for Inactive)
REMARK    1  A    between atoms: C2_2  and  C3_3 
REMARK    2  A    between atoms: C3_3  and  C4_4 
REMARK       I    between atoms: N3_11  and  C7_13 
REMARK    3  A    between atoms: C7_13  and  O2_15 
REMARK    4  A    between atoms: O2_15  and  C8_16 
REMARK       I    between atoms: N4_22  and  C14_23 
REMARK       I    between atoms: C14_23  and  N5_25 
ROOT
HETATM    1  C4  UNL     1     -17.450 -37.525 -11.532  1.00  0.00     0.141 C 
HETATM    2  C5  UNL     1     -17.711 -38.781 -10.775  1.00  0.00     0.060 A 
HETATM    3  N1  UNL     1     -18.707 -39.604 -10.356  1.00  0.00    -0.300 N 
ATOM      4  H1  UNL     1     -19.702 -39.471 -10.537  1.00  0.00     0.186 HD
HETATM    5  N2  UNL     1     -18.183 -40.592  -9.685  1.00  0.00    -0.285 N 
ATOM      6  H2  UNL     1     -18.719 -41.349  -9.262  1.00  0.00     0.188 HD
HETATM    7  C6  UNL     1     -16.843 -40.485  -9.622  1.00  0.00     0.134 A 
HETATM    8  N3  UNL     1     -15.980 -41.270  -9.046  1.00  0.00    -0.287 N 
ATOM      9  H3  UNL     1     -14.991 -41.025  -9.104  1.00  0.00     0.172 HD
HETATM   10  C7  UNL     1     -16.335 -42.433  -8.351  1.00  0.00     0.367 C 
HETATM   11  O1  UNL     1     -16.091 -42.571  -7.137  1.00  0.00    -0.238 OA
HETATM   12  C12 UNL     1     -16.544 -39.330 -10.318  1.00  0.00     0.031 A 
HETATM   13  C13 UNL     1     -15.412 -38.466 -10.755  1.00  0.00     0.173 C 
HETATM   14  N4  UNL     1     -16.030 -37.329 -11.394  1.00  0.00    -0.319 N 
HETATM   15  C14 UNL     1     -15.332 -36.186 -11.836  1.00  0.00     0.322 C 
HETATM   16  O3  UNL     1     -15.954 -35.245 -12.423  1.00  0.00    -0.247 OA
HETATM   17  N5  UNL     1     -13.946 -36.065 -11.639  1.00  0.00    -0.317 N 
HETATM   18  C15 UNL     1     -12.832 -36.772 -11.080  1.00  0.00     0.132 C 
HETATM   19  C16 UNL     1     -11.938 -36.070 -12.118  1.00  0.00     0.060 C 
HETATM   20  C17 UNL     1     -12.991 -34.996 -11.976  1.00  0.00     0.197 C 
HETATM   21  C18 UNL     1     -12.757 -34.048 -10.912  1.00  0.00     0.085 C 
HETATM   22  N6  UNL     1     -12.582 -33.298 -10.072  1.00  0.00    -0.195 NA
ENDROOT
BRANCH   1  23
HETATM   23  C3  UNL     1     -18.294 -36.409 -10.978  1.00  0.00     0.031 C 
BRANCH  23  24
HETATM   24  C2  UNL     1     -17.902 -35.970  -9.603  1.00  0.00    -0.002 C 
HETATM   25  C1  UNL     1     -17.883 -34.436  -9.623  1.00  0.00     0.005 C 
ENDBRANCH  23  24
ENDBRANCH   1  23
BRANCH  10  26
HETATM   26  O2  UNL     1     -16.973 -43.448  -9.044  1.00  0.00    -0.294 OA
BRANCH  26  27
HETATM   27  C8  UNL     1     -16.347 -44.269  -9.979  1.00  0.00     0.061 C 
HETATM   28  C9  UNL     1     -16.420 -43.771 -11.392  1.00  0.00     0.046 C 
HETATM   29  C10 UNL     1     -17.072 -45.621  -9.942  1.00  0.00     0.046 C 
HETATM   30  C11 UNL     1     -14.905 -44.572  -9.591  1.00  0.00     0.046 C 
ENDBRANCH  26  27
ENDBRANCH  10  26
TORSDOF 4
ENDMDL
MODEL 5
REMARK VINA RESULT: -7.787241077      2.204      7.444
REMARK  4 active torsions:
REMARK  status: ('A' for Active; 'I' for Inactive)
REMARK    1  A    between atoms: C2_2  and  C3_3 
REMARK    2  A    between atoms: C3_3  and  C4_4 
REMARK       I    between atoms: N3_11  and  C7_13 
REMARK    3  A    between atoms: C7_13  and  O2_15 
REMARK    4  A    between atoms: O2_15  and  C8_16 
REMARK       I    between atoms: N4_22  and  C14_23 
REMARK       I    between atoms: C14_23  and  N5_25 
ROOT
HETATM    1  C4  UNL     1     -18.513 -38.873 -10.671  1.00  0.00     0.141 C 
HETATM    2  C5  UNL     1     -18.122 -40.209 -10.140  1.00  0.00     0.060 A 
HETATM    3  N1  UNL     1     -18.631 -41.371  -9.656  1.00  0.00    -0.300 N 
ATOM      4  H1  UNL     1     -19.622 -41.586  -9.549  1.00  0.00     0.186 HD
HETATM    5  N2  UNL     1     -17.644 -42.168  -9.351  1.00  0.00    -0.285 N 
ATOM      6  H2  UNL     1     -17.759 -43.106  -8.967  1.00  0.00     0.188 HD
HETATM    7  C6  UNL     1     -16.454 -41.595  -9.609  1.00  0.00     0.134 A 
HETATM    8  N3  UNL     1     -15.256 -42.073  -9.439  1.00  0.00    -0.287 N 
ATOM      9  H3  UNL     1     -14.461 -41.485  -9.694  1.00  0.00     0.172 HD
HETATM   10  C7  UNL     1     -14.997 -43.349  -8.923  1.00  0.00     0.367 C 
HETATM   11  O1  UNL     1     -14.363 -43.513  -7.863  1.00  0.00    -0.238 OA
HETATM   12  C12 UNL     1     -16.761 -40.346 -10.112  1.00  0.00     0.031 A 
HETATM   13  C13 UNL     1     -16.148 -39.095 -10.639  1.00  0.00     0.173 C 
HETATM   14  N4  UNL     1     -17.256 -38.196 -10.860  1.00  0.00    -0.319 N 
HETATM   15  C14 UNL     1     -17.122 -36.841 -11.226  1.00  0.00     0.322 C 
HETATM   16  O3  UNL     1     -18.157 -36.132 -11.436  1.00  0.00    -0.247 OA
HETATM   17  N5  UNL     1     -15.854 -36.252 -11.365  1.00  0.00    -0.317 N 
HETATM   18  C15 UNL     1     -14.460 -36.565 -11.259  1.00  0.00     0.132 C 
HETATM   19  C16 UNL     1     -14.195 -35.490 -12.327  1.00  0.00     0.060 C 
HETATM   20  C17 UNL     1     -15.434 -34.883 -11.712  1.00  0.00     0.197 C 
HETATM   21  C18 UNL     1     -15.195 -34.027 -10.574  1.00  0.00     0.085 C 
HETATM   22  N6  UNL     1     -15.016 -33.352  -9.673  1.00  0.00    -0.195 NA
ENDROOT
BRANCH   1  23
HETATM   23  C3  UNL     1     -19.452 -38.195  -9.710  1.00  0.00     0.031 C 
BRANCH  23  24
HETATM   24  C2  UNL     1     -20.883 -38.600  -9.864  1.00  0.00    -0.002 C 
HETATM   25  C1  UNL     1     -21.333 -39.139  -8.500  1.00  0.00     0.005 C 
ENDBRANCH  23  24
ENDBRANCH   1  23
BRANCH  10  26
HETATM   26  O2  UNL     1     -15.464 -44.450  -9.622  1.00  0.00    -0.294 OA
BRANCH  26  27
HETATM   27  C8  UNL     1     -15.114 -44.749 -10.936  1.00  0.00     0.061 C 
HETATM   28  C9  UNL     1     -16.026 -44.161 -11.972  1.00  0.00     0.046 C 
HETATM   29  C10 UNL     1     -15.192 -46.274 -11.084  1.00  0.00     0.046 C 
HETATM   30  C11 UNL     1     -13.664 -44.386 -11.232  1.00  0.00     0.046 C 
ENDBRANCH  26  27
ENDBRANCH  10  26
TORSDOF 4
ENDMDL
