MODEL 1
REMARK VINA RESULT: -8.449848132      0.000      0.000
REMARK  2 active torsions:
REMARK  status: ('A' for Active; 'I' for Inactive)
REMARK    1  A    between atoms: C1_2  and  C2_4 
REMARK    2  A    between atoms: C3_5  and  N2_6 
REMARK       I    between atoms: N2_6  and  C4_8 
REMARK       I    between atoms: C4_8  and  N3_10 
REMARK       I    between atoms: N4_19  and  C12_20 
REMARK       I    between atoms: C12_20  and  N5_22 
ROOT
HETATM    1  C2  UNL     1     -19.686 -39.638  -9.862  1.00  0.00     0.070 A 
HETATM    2  C3  UNL     1     -19.417 -40.973  -9.806  1.00  0.00     0.094 A 
HETATM    3  S1  UNL     1     -17.715 -41.009 -10.253  1.00  0.00    -0.070 SA
HETATM    4  C8  UNL     1     -17.447 -39.372 -10.465  1.00  0.00     0.030 A 
HETATM    5  C9  UNL     1     -18.668 -38.790 -10.200  1.00  0.00    -0.020 A 
HETATM    6  C10 UNL     1     -18.637 -37.276 -10.349  1.00  0.00     0.061 C 
HETATM    7  C11 UNL     1     -17.920 -37.074 -11.700  1.00  0.00     0.138 C 
HETATM    8  N4  UNL     1     -16.490 -37.328 -11.373  1.00  0.00    -0.308 N 
HETATM    9  C12 UNL     1     -15.594 -36.286 -11.622  1.00  0.00     0.324 C 
HETATM   10  O3  UNL     1     -16.036 -35.165 -12.107  1.00  0.00    -0.247 OA
HETATM   11  N5  UNL     1     -14.202 -36.342 -11.385  1.00  0.00    -0.334 N 
HETATM   12  C13 UNL     1     -13.396 -37.399 -10.889  1.00  0.00     0.127 C 
HETATM   13  C14 UNL     1     -11.963 -37.039 -11.251  1.00  0.00     0.022 C 
HETATM   14  C15 UNL     1     -12.020 -35.525 -11.101  1.00  0.00     0.022 C 
HETATM   15  C16 UNL     1     -13.354 -35.146 -11.652  1.00  0.00     0.127 C 
HETATM   16  C17 UNL     1     -16.206 -38.593 -10.842  1.00  0.00     0.115 C 
ENDROOT
BRANCH   2  17
HETATM   17  N2  UNL     1     -20.069 -42.139  -9.290  1.00  0.00    -0.302 N 
HETATM   18  C4  UNL     1     -20.722 -42.428  -8.120  1.00  0.00     0.323 C 
HETATM   19  O2  UNL     1     -20.856 -41.655  -7.157  1.00  0.00    -0.247 OA
HETATM   20  N3  UNL     1     -21.313 -43.748  -7.976  1.00  0.00    -0.334 N 
HETATM   21  C5  UNL     1     -22.055 -44.411  -6.938  1.00  0.00     0.129 C 
HETATM   22  C7  UNL     1     -21.412 -44.951  -8.803  1.00  0.00     0.129 C 
HETATM   23  C6  UNL     1     -21.820 -45.737  -7.593  1.00  0.00     0.040 C 
ATOM     24  H2  UNL     1     -20.043 -42.929  -9.935  1.00  0.00     0.171 HD
ENDBRANCH   2  17
BRANCH   1  25
HETATM   25  C1  UNL     1     -21.110 -39.177  -9.819  1.00  0.00     0.268 C 
HETATM   26  N1  UNL     1     -22.088 -39.794 -10.594  1.00  0.00    -0.057 NA
HETATM   27  O1  UNL     1     -21.471 -38.224  -9.094  1.00  0.00    -0.271 OA
ENDBRANCH   1  25
TORSDOF 2
ENDMDL
MODEL 2
REMARK VINA RESULT: -8.232521636      2.519      2.877
REMARK  2 active torsions:
REMARK  status: ('A' for Active; 'I' for Inactive)
REMARK    1  A    between atoms: C1_2  and  C2_4 
REMARK    2  A    between atoms: C3_5  and  N2_6 
REMARK       I    between atoms: N2_6  and  C4_8 
REMARK       I    between atoms: C4_8  and  N3_10 
REMARK       I    between atoms: N4_19  and  C12_20 
REMARK       I    between atoms: C12_20  and  N5_22 
ROOT
HETATM    1  C2  UNL     1     -18.454 -41.259  -9.517  1.00  0.00     0.070 A 
HETATM    2  C3  UNL     1     -17.756 -42.334  -9.980  1.00  0.00     0.094 A 
HETATM    3  S1  UNL     1     -16.455 -41.553 -10.871  1.00  0.00    -0.070 SA
HETATM    4  C8  UNL     1     -16.853 -39.951 -10.600  1.00  0.00     0.030 A 
HETATM    5  C9  UNL     1     -17.993 -40.009  -9.828  1.00  0.00    -0.020 A 
HETATM    6  C10 UNL     1     -18.529 -38.630  -9.474  1.00  0.00     0.061 C 
HETATM    7  C11 UNL     1     -18.504 -37.889 -10.827  1.00  0.00     0.138 C 
HETATM    8  N4  UNL     1     -17.063 -37.563 -11.016  1.00  0.00    -0.308 N 
HETATM    9  C12 UNL     1     -16.738 -36.212 -11.149  1.00  0.00     0.324 C 
HETATM   10  O3  UNL     1     -17.679 -35.318 -11.095  1.00  0.00    -0.247 OA
HETATM   11  N5  UNL     1     -15.431 -35.710 -11.343  1.00  0.00    -0.334 N 
HETATM   12  C13 UNL     1     -14.193 -36.394 -11.468  1.00  0.00     0.127 C 
HETATM   13  C14 UNL     1     -13.222 -35.394 -12.077  1.00  0.00     0.022 C 
HETATM   14  C15 UNL     1     -13.718 -34.109 -11.429  1.00  0.00     0.022 C 
HETATM   15  C16 UNL     1     -15.204 -34.240 -11.428  1.00  0.00     0.127 C 
HETATM   16  C17 UNL     1     -16.192 -38.660 -11.031  1.00  0.00     0.115 C 
ENDROOT
BRANCH   2  17
HETATM   17  N2  UNL     1     -17.728 -43.741  -9.715  1.00  0.00    -0.302 N 
HETATM   18  C4  UNL     1     -17.386 -44.500  -8.627  1.00  0.00     0.323 C 
HETATM   19  O2  UNL     1     -16.948 -44.063  -7.549  1.00  0.00    -0.247 OA
HETATM   20  N3  UNL     1     -17.539 -45.941  -8.724  1.00  0.00    -0.334 N 
HETATM   21  C5  UNL     1     -17.297 -47.043  -7.831  1.00  0.00     0.129 C 
HETATM   22  C7  UNL     1     -17.997 -46.883  -9.747  1.00  0.00     0.129 C 
HETATM   23  C6  UNL     1     -17.380 -48.010  -8.972  1.00  0.00     0.040 C 
ATOM     24  H2  UNL     1     -18.030 -44.302 -10.511  1.00  0.00     0.171 HD
ENDBRANCH   2  17
BRANCH   1  25
HETATM   25  C1  UNL     1     -19.815 -41.468  -8.928  1.00  0.00     0.268 C 
HETATM   26  N1  UNL     1     -19.976 -42.098  -7.697  1.00  0.00    -0.057 NA
HETATM   27  O1  UNL     1     -20.852 -41.092  -9.518  1.00  0.00    -0.271 OA
ENDBRANCH   1  25
TORSDOF 2
ENDMDL
MODEL 3
REMARK VINA RESULT: -8.049269789      2.390      3.198
REMARK  2 active torsions:
REMARK  status: ('A' for Active; 'I' for Inactive)
REMARK    1  A    between atoms: C1_2  and  C2_4 
REMARK    2  A    between atoms: C3_5  and  N2_6 
REMARK       I    between atoms: N2_6  and  C4_8 
REMARK       I    between atoms: C4_8  and  N3_10 
REMARK       I    between atoms: N4_19  and  C12_20 
REMARK       I    between atoms: C12_20  and  N5_22 
ROOT
HETATM    1  C2  UNL     1     -18.056 -41.010  -9.065  1.00  0.00     0.070 A 
HETATM    2  C3  UNL     1     -18.780 -40.699  -7.953  1.00  0.00     0.094 A 
HETATM    3  S1  UNL     1     -18.386 -38.997  -7.740  1.00  0.00    -0.070 SA
HETATM    4  C8  UNL     1     -17.364 -38.782  -9.047  1.00  0.00     0.030 A 
HETATM    5  C9  UNL     1     -17.316 -40.020  -9.649  1.00  0.00    -0.020 A 
HETATM    6  C10 UNL     1     -16.415 -40.037 -10.876  1.00  0.00     0.061 C 
HETATM    7  C11 UNL     1     -15.139 -39.328 -10.380  1.00  0.00     0.138 C 
HETATM    8  N4  UNL     1     -15.525 -37.890 -10.367  1.00  0.00    -0.308 N 
HETATM    9  C12 UNL     1     -14.765 -37.028 -11.160  1.00  0.00     0.324 C 
HETATM   10  O3  UNL     1     -13.784 -37.505 -11.865  1.00  0.00    -0.247 OA
HETATM   11  N5  UNL     1     -14.974 -35.635 -11.271  1.00  0.00    -0.334 N 
HETATM   12  C13 UNL     1     -15.927 -34.795 -10.636  1.00  0.00     0.127 C 
HETATM   13  C14 UNL     1     -15.408 -33.375 -10.800  1.00  0.00     0.022 C 
HETATM   14  C15 UNL     1     -14.766 -33.480 -12.177  1.00  0.00     0.022 C 
HETATM   15  C16 UNL     1     -14.121 -34.826 -12.185  1.00  0.00     0.127 C 
HETATM   16  C17 UNL     1     -16.622 -37.566  -9.558  1.00  0.00     0.115 C 
ENDROOT
BRANCH   2  17
HETATM   17  N2  UNL     1     -19.829 -41.314  -7.195  1.00  0.00    -0.302 N 
HETATM   18  C4  UNL     1     -21.101 -41.727  -7.491  1.00  0.00     0.323 C 
HETATM   19  O2  UNL     1     -21.667 -41.600  -8.589  1.00  0.00    -0.247 OA
HETATM   20  N3  UNL     1     -21.870 -42.371  -6.439  1.00  0.00    -0.334 N 
HETATM   21  C5  UNL     1     -23.195 -42.927  -6.356  1.00  0.00     0.129 C 
HETATM   22  C7  UNL     1     -21.642 -42.729  -5.038  1.00  0.00     0.129 C 
HETATM   23  C6  UNL     1     -23.118 -42.933  -4.860  1.00  0.00     0.040 C 
ATOM     24  H2  UNL     1     -19.572 -41.481  -6.223  1.00  0.00     0.171 HD
ENDBRANCH   2  17
BRANCH   1  25
HETATM   25  C1  UNL     1     -17.881 -42.448  -9.445  1.00  0.00     0.268 C 
HETATM   26  N1  UNL     1     -18.933 -43.180  -9.990  1.00  0.00    -0.057 NA
HETATM   27  O1  UNL     1     -16.793 -43.044  -9.284  1.00  0.00    -0.271 OA
ENDBRANCH   1  25
TORSDOF 2
ENDMDL
MODEL 4
REMARK VINA RESULT: -8.035955247      4.023      7.784
REMARK  2 active torsions:
REMARK  status: ('A' for Active; 'I' for Inactive)
REMARK    1  A    between atoms: C1_2  and  C2_4 
REMARK    2  A    between atoms: C3_5  and  N2_6 
REMARK       I    between atoms: N2_6  and  C4_8 
REMARK       I    between atoms: C4_8  and  N3_10 
REMARK       I    between atoms: N4_19  and  C12_20 
REMARK       I    between atoms: C12_20  and  N5_22 
ROOT
HETATM    1  C2  UNL     1     -18.393 -39.429  -9.942  1.00  0.00     0.070 A 
HETATM    2  C3  UNL     1     -17.459 -38.448  -9.793  1.00  0.00     0.094 A 
HETATM    3  S1  UNL     1     -15.962 -39.359  -9.952  1.00  0.00    -0.070 SA
HETATM    4  C8  UNL     1     -16.591 -40.888 -10.206  1.00  0.00     0.030 A 
HETATM    5  C9  UNL     1     -17.956 -40.706 -10.162  1.00  0.00    -0.020 A 
HETATM    6  C10 UNL     1     -18.724 -42.003 -10.367  1.00  0.00     0.061 C 
HETATM    7  C11 UNL     1     -18.007 -42.985  -9.417  1.00  0.00     0.138 C 
HETATM    8  N4  UNL     1     -16.751 -43.315 -10.145  1.00  0.00    -0.308 N 
HETATM    9  C12 UNL     1     -16.535 -44.661 -10.447  1.00  0.00     0.324 C 
HETATM   10  O3  UNL     1     -17.420 -45.545 -10.099  1.00  0.00    -0.247 OA
HETATM   11  N5  UNL     1     -15.402 -45.166 -11.124  1.00  0.00    -0.334 N 
HETATM   12  C13 UNL     1     -14.253 -44.496 -11.620  1.00  0.00     0.127 C 
HETATM   13  C14 UNL     1     -13.207 -45.575 -11.852  1.00  0.00     0.022 C 
HETATM   14  C15 UNL     1     -14.099 -46.723 -12.301  1.00  0.00     0.022 C 
HETATM   15  C16 UNL     1     -15.305 -46.621 -11.427  1.00  0.00     0.127 C 
HETATM   16  C17 UNL     1     -15.926 -42.225 -10.451  1.00  0.00     0.115 C 
ENDROOT
BRANCH   2  17
HETATM   17  N2  UNL     1     -17.454 -37.016  -9.789  1.00  0.00    -0.302 N 
HETATM   18  C4  UNL     1     -16.553 -36.064 -10.189  1.00  0.00     0.323 C 
HETATM   19  O2  UNL     1     -15.422 -36.288 -10.651  1.00  0.00    -0.247 OA
HETATM   20  N3  UNL     1     -16.937 -34.668 -10.069  1.00  0.00    -0.334 N 
HETATM   21  C5  UNL     1     -16.293 -33.417 -10.370  1.00  0.00     0.129 C 
HETATM   22  C7  UNL     1     -18.116 -33.938  -9.601  1.00  0.00     0.129 C 
HETATM   23  C6  UNL     1     -17.302 -32.678  -9.546  1.00  0.00     0.040 C 
ATOM     24  H2  UNL     1     -18.310 -36.616  -9.405  1.00  0.00     0.171 HD
ENDBRANCH   2  17
BRANCH   1  25
HETATM   25  C1  UNL     1     -19.821 -39.137  -9.600  1.00  0.00     0.268 C 
HETATM   26  N1  UNL     1     -20.319 -39.382  -8.322  1.00  0.00    -0.057 NA
HETATM   27  O1  UNL     1     -20.617 -38.669 -10.443  1.00  0.00    -0.271 OA
ENDBRANCH   1  25
TORSDOF 2
ENDMDL
MODEL 5
REMARK VINA RESULT: -7.819771430      2.339      9.098
REMARK  2 active torsions:
REMARK  status: ('A' for Active; 'I' for Inactive)
REMARK    1  A    between atoms: C1_2  and  C2_4 
REMARK    2  A    between atoms: C3_5  and  N2_6 
REMARK       I    between atoms: N2_6  and  C4_8 
REMARK       I    between atoms: C4_8  and  N3_10 
REMARK       I    between atoms: N4_19  and  C12_20 
REMARK       I    between atoms: C12_20  and  N5_22 
ROOT
HETATM    1  C2  UNL     1     -16.747 -39.772 -10.667  1.00  0.00     0.070 A 
HETATM    2  C3  UNL     1     -17.175 -38.485 -10.797  1.00  0.00     0.094 A 
HETATM    3  S1  UNL     1     -18.836 -38.605 -10.228  1.00  0.00    -0.070 SA
HETATM    4  C8  UNL     1     -18.885 -40.235  -9.853  1.00  0.00     0.030 A 
HETATM    5  C9  UNL     1     -17.626 -40.696 -10.171  1.00  0.00    -0.020 A 
HETATM    6  C10 UNL     1     -17.466 -42.185  -9.906  1.00  0.00     0.061 C 
HETATM    7  C11 UNL     1     -18.734 -42.790 -10.543  1.00  0.00     0.138 C 
HETATM    8  N4  UNL     1     -19.802 -42.468  -9.557  1.00  0.00    -0.308 N 
HETATM    9  C12 UNL     1     -20.499 -43.549  -9.012  1.00  0.00     0.324 C 
HETATM   10  O3  UNL     1     -20.188 -44.758  -9.370  1.00  0.00    -0.247 OA
HETATM   11  N5  UNL     1     -21.548 -43.443  -8.070  1.00  0.00    -0.334 N 
HETATM   12  C13 UNL     1     -22.146 -42.295  -7.487  1.00  0.00     0.127 C 
HETATM   13  C14 UNL     1     -23.469 -42.765  -6.901  1.00  0.00     0.022 C 
HETATM   14  C15 UNL     1     -23.079 -44.165  -6.446  1.00  0.00     0.022 C 
HETATM   15  C16 UNL     1     -22.187 -44.674  -7.528  1.00  0.00     0.127 C 
HETATM   16  C17 UNL     1     -19.982 -41.107  -9.283  1.00  0.00     0.115 C 
ENDROOT
BRANCH   2  17
HETATM   17  N2  UNL     1     -16.564 -37.210 -11.026  1.00  0.00    -0.302 N 
HETATM   18  C4  UNL     1     -16.455 -36.059 -10.291  1.00  0.00     0.323 C 
HETATM   19  O2  UNL     1     -16.955 -35.867  -9.170  1.00  0.00    -0.247 OA
HETATM   20  N3  UNL     1     -15.694 -34.957 -10.856  1.00  0.00    -0.334 N 
HETATM   21  C5  UNL     1     -15.360 -33.631 -10.411  1.00  0.00     0.129 C 
HETATM   22  C7  UNL     1     -14.952 -34.719 -12.095  1.00  0.00     0.129 C 
HETATM   23  C6  UNL     1     -14.952 -33.248 -11.800  1.00  0.00     0.040 C 
ATOM     24  H2  UNL     1     -16.110 -37.144 -11.937  1.00  0.00     0.171 HD
ENDBRANCH   2  17
BRANCH   1  25
HETATM   25  C1  UNL     1     -15.455 -40.182 -11.303  1.00  0.00     0.268 C 
HETATM   26  N1  UNL     1     -14.272 -39.500 -11.031  1.00  0.00    -0.057 NA
HETATM   27  O1  UNL     1     -15.390 -41.142 -12.101  1.00  0.00    -0.271 OA
ENDBRANCH   1  25
TORSDOF 2
ENDMDL
