MODEL 1
REMARK VINA RESULT: -8.222274614      0.000      0.000
REMARK  3 active torsions:
REMARK  status: ('A' for Active; 'I' for Inactive)
REMARK       I    between atoms: C1_4  and  N2_5 
REMARK       I    between atoms: C1_4  and  N3_13 
REMARK    1  A    between atoms: C13_18  and  C14_19 
REMARK       I    between atoms: C14_19  and  N4_21 
REMARK    2  A    between atoms: C19_26  and  C20_27 
REMARK    3  A    between atoms: C20_27  and  O2_28 
ROOT
HETATM    1  N1  UNL     1     -17.674 -37.797  -8.193  1.00  0.00    -0.235 N 
ATOM      2  H11 UNL     1     -18.226 -37.918  -7.344  1.00  0.00     0.174 HD
ATOM      3  H12 UNL     1     -16.785 -37.299  -8.232  1.00  0.00     0.174 HD
HETATM    4  C1  UNL     1     -18.108 -38.297  -9.301  1.00  0.00     0.672 C 
HETATM    5  N2  UNL     1     -17.345 -38.129 -10.476  1.00  0.00    -0.218 N 
HETATM    6  C2  UNL     1     -17.875 -37.123 -11.359  1.00  0.00     0.141 C 
HETATM    7  C3  UNL     1     -16.802 -36.689 -12.366  1.00  0.00     0.020 C 
HETATM    8  C4  UNL     1     -15.603 -36.169 -11.594  1.00  0.00     0.002 C 
HETATM    9  C5  UNL     1     -14.366 -36.973 -11.857  1.00  0.00     0.000 C 
HETATM   10  C6  UNL     1     -13.952 -37.890 -10.761  1.00  0.00     0.002 C 
HETATM   11  C7  UNL     1     -15.050 -38.339  -9.847  1.00  0.00     0.020 C 
HETATM   12  C8  UNL     1     -16.200 -39.002 -10.531  1.00  0.00     0.141 C 
HETATM   13  N3  UNL     1     -19.346 -38.990  -9.246  1.00  0.00    -0.205 N 
HETATM   14  C9  UNL     1     -20.413 -38.525 -10.076  1.00  0.00     0.142 C 
HETATM   15  C10 UNL     1     -21.766 -38.860  -9.549  1.00  0.00     0.020 C 
HETATM   16  C11 UNL     1     -21.683 -39.049  -8.072  1.00  0.00     0.004 C 
HETATM   17  C12 UNL     1     -20.789 -40.205  -7.686  1.00  0.00     0.035 C 
HETATM   18  C13 UNL     1     -19.437 -40.117  -8.348  1.00  0.00     0.194 C 
ENDROOT
BRANCH  18  19
HETATM   19  C14 UNL     1     -19.175 -41.377  -9.077  1.00  0.00     0.243 C 
HETATM   20  O1  UNL     1     -20.092 -41.850  -9.792  1.00  0.00    -0.271 OA
HETATM   21  N4  UNL     1     -17.949 -42.087  -9.020  1.00  0.00    -0.341 N 
HETATM   22  C15 UNL     1     -16.743 -41.750  -8.280  1.00  0.00     0.158 C 
HETATM   23  C18 UNL     1     -17.613 -43.330  -9.697  1.00  0.00     0.120 C 
HETATM   24  C16 UNL     1     -15.861 -42.986  -8.360  1.00  0.00     0.142 C 
HETATM   25  C17 UNL     1     -16.950 -44.065  -8.515  1.00  0.00     0.061 C 
HETATM   26  O3  UNL     1     -15.305 -43.016  -9.635  1.00  0.00    -0.375 OA
HETATM   27  C19 UNL     1     -16.386 -43.050 -10.515  1.00  0.00     0.168 C 
BRANCH  27  28
HETATM   28  C20 UNL     1     -16.186 -44.011 -11.642  1.00  0.00     0.198 C 
BRANCH  28  29
HETATM   29  O2  UNL     1     -14.852 -44.100 -12.018  1.00  0.00    -0.398 OA
ATOM     30  H2  UNL     1     -14.755 -44.360 -12.926  1.00  0.00     0.209 HD
ENDBRANCH  28  29
ENDBRANCH  27  28
ENDBRANCH  18  19
TORSDOF 3
ENDMDL
MODEL 2
REMARK VINA RESULT: -8.218635889      2.384      5.213
REMARK  3 active torsions:
REMARK  status: ('A' for Active; 'I' for Inactive)
REMARK       I    between atoms: C1_4  and  N2_5 
REMARK       I    between atoms: C1_4  and  N3_13 
REMARK    1  A    between atoms: C13_18  and  C14_19 
REMARK       I    between atoms: C14_19  and  N4_21 
REMARK    2  A    between atoms: C19_26  and  C20_27 
REMARK    3  A    between atoms: C20_27  and  O2_28 
ROOT
HETATM    1  N1  UNL     1     -15.144 -38.664  -8.358  1.00  0.00    -0.235 N 
ATOM      2  H11 UNL     1     -15.244 -37.739  -7.941  1.00  0.00     0.174 HD
ATOM      3  H12 UNL     1     -14.681 -39.450  -7.904  1.00  0.00     0.174 HD
HETATM    4  C1  UNL     1     -15.627 -38.876  -9.536  1.00  0.00     0.672 C 
HETATM    5  N2  UNL     1     -15.489 -40.156 -10.115  1.00  0.00    -0.218 N 
HETATM    6  C2  UNL     1     -14.463 -40.215 -11.123  1.00  0.00     0.141 C 
HETATM    7  C3  UNL     1     -14.072 -41.675 -11.388  1.00  0.00     0.020 C 
HETATM    8  C4  UNL     1     -13.598 -42.288 -10.083  1.00  0.00     0.002 C 
HETATM    9  C5  UNL     1     -14.449 -43.446  -9.658  1.00  0.00     0.000 C 
HETATM   10  C6  UNL     1     -15.381 -43.177  -8.530  1.00  0.00     0.002 C 
HETATM   11  C7  UNL     1     -15.788 -41.746  -8.357  1.00  0.00     0.020 C 
HETATM   12  C8  UNL     1     -16.406 -41.121  -9.565  1.00  0.00     0.141 C 
HETATM   13  N3  UNL     1     -16.272 -37.781 -10.169  1.00  0.00    -0.205 N 
HETATM   14  C9  UNL     1     -15.766 -37.342 -11.431  1.00  0.00     0.142 C 
HETATM   15  C10 UNL     1     -16.049 -35.907 -11.720  1.00  0.00     0.020 C 
HETATM   16  C11 UNL     1     -16.241 -35.177 -10.433  1.00  0.00     0.004 C 
HETATM   17  C12 UNL     1     -17.430 -35.687  -9.651  1.00  0.00     0.035 C 
HETATM   18  C13 UNL     1     -17.395 -37.184  -9.483  1.00  0.00     0.194 C 
ENDROOT
BRANCH  18  19
HETATM   19  C14 UNL     1     -18.663 -37.756  -9.983  1.00  0.00     0.243 C 
HETATM   20  O1  UNL     1     -19.057 -37.415 -11.126  1.00  0.00    -0.271 OA
HETATM   21  N4  UNL     1     -19.467 -38.667  -9.252  1.00  0.00    -0.341 N 
HETATM   22  C15 UNL     1     -19.232 -39.216  -7.926  1.00  0.00     0.158 C 
HETATM   23  C18 UNL     1     -20.726 -39.267  -9.666  1.00  0.00     0.120 C 
HETATM   24  C16 UNL     1     -20.532 -39.902  -7.536  1.00  0.00     0.142 C 
HETATM   25  C17 UNL     1     -21.522 -39.058  -8.362  1.00  0.00     0.061 C 
HETATM   26  O3  UNL     1     -20.592 -41.103  -8.236  1.00  0.00    -0.375 OA
HETATM   27  C19 UNL     1     -20.534 -40.753  -9.585  1.00  0.00     0.168 C 
BRANCH  27  28
HETATM   28  C20 UNL     1     -21.496 -41.528 -10.426  1.00  0.00     0.198 C 
BRANCH  28  29
HETATM   29  O2  UNL     1     -22.405 -40.701 -11.073  1.00  0.00    -0.398 OA
ATOM     30  H2  UNL     1     -22.625 -41.023 -11.939  1.00  0.00     0.209 HD
ENDBRANCH  28  29
ENDBRANCH  27  28
ENDBRANCH  18  19
TORSDOF 3
ENDMDL
MODEL 3
REMARK VINA RESULT: -8.003503468      3.890      6.780
REMARK  3 active torsions:
REMARK  status: ('A' for Active; 'I' for Inactive)
REMARK       I    between atoms: C1_4  and  N2_5 
REMARK       I    between atoms: C1_4  and  N3_13 
REMARK    1  A    between atoms: C13_18  and  C14_19 
REMARK       I    between atoms: C14_19  and  N4_21 
REMARK    2  A    between atoms: C19_26  and  C20_27 
REMARK    3  A    between atoms: C20_27  and  O2_28 
ROOT
HETATM    1  N1  UNL     1     -14.663 -42.926 -11.244  1.00  0.00    -0.235 N 
ATOM      2  H11 UNL     1     -15.587 -42.846 -11.670  1.00  0.00     0.174 HD
ATOM      3  H12 UNL     1     -13.924 -43.537 -11.591  1.00  0.00     0.174 HD
HETATM    4  C1  UNL     1     -14.390 -42.218 -10.200  1.00  0.00     0.672 C 
HETATM    5  N2  UNL     1     -13.112 -42.328  -9.611  1.00  0.00    -0.218 N 
HETATM    6  C2  UNL     1     -13.109 -43.114  -8.405  1.00  0.00     0.141 C 
HETATM    7  C3  UNL     1     -11.678 -43.552  -8.067  1.00  0.00     0.020 C 
HETATM    8  C4  UNL     1     -11.130 -44.343  -9.241  1.00  0.00     0.002 C 
HETATM    9  C5  UNL     1      -9.921 -43.697  -9.846  1.00  0.00     0.000 C 
HETATM   10  C6  UNL     1     -10.142 -43.012 -11.148  1.00  0.00     0.002 C 
HETATM   11  C7  UNL     1     -11.542 -42.542 -11.399  1.00  0.00     0.020 C 
HETATM   12  C8  UNL     1     -12.092 -41.631 -10.351  1.00  0.00     0.141 C 
HETATM   13  N3  UNL     1     -15.420 -41.369  -9.718  1.00  0.00    -0.205 N 
HETATM   14  C9  UNL     1     -15.869 -41.554  -8.374  1.00  0.00     0.142 C 
HETATM   15  C10 UNL     1     -17.271 -41.104  -8.147  1.00  0.00     0.020 C 
HETATM   16  C11 UNL     1     -18.012 -41.138  -9.442  1.00  0.00     0.004 C 
HETATM   17  C12 UNL     1     -17.431 -40.189 -10.465  1.00  0.00     0.035 C 
HETATM   18  C13 UNL     1     -15.944 -40.377 -10.628  1.00  0.00     0.194 C 
ENDROOT
BRANCH  18  19
HETATM   19  C14 UNL     1     -15.268 -39.079 -10.417  1.00  0.00     0.243 C 
HETATM   20  O1  UNL     1     -15.563 -38.416  -9.393  1.00  0.00    -0.271 OA
HETATM   21  N4  UNL     1     -14.304 -38.533 -11.302  1.00  0.00    -0.341 N 
HETATM   22  C15 UNL     1     -13.789 -39.098 -12.539  1.00  0.00     0.158 C 
HETATM   23  C18 UNL     1     -13.600 -37.266 -11.173  1.00  0.00     0.120 C 
HETATM   24  C16 UNL     1     -13.006 -37.976 -13.202  1.00  0.00     0.142 C 
HETATM   25  C17 UNL     1     -13.760 -36.764 -12.622  1.00  0.00     0.061 C 
HETATM   26  O3  UNL     1     -11.797 -37.859 -12.525  1.00  0.00    -0.375 OA
HETATM   27  C19 UNL     1     -12.135 -37.590 -11.199  1.00  0.00     0.168 C 
BRANCH  27  28
HETATM   28  C20 UNL     1     -11.277 -36.530 -10.586  1.00  0.00     0.198 C 
BRANCH  28  29
HETATM   29  O2  UNL     1     -10.466 -35.909 -11.527  1.00  0.00    -0.398 OA
ATOM     30  H2  UNL     1     -10.128 -36.523 -12.167  1.00  0.00     0.209 HD
ENDBRANCH  28  29
ENDBRANCH  27  28
ENDBRANCH  18  19
TORSDOF 3
ENDMDL
MODEL 4
REMARK VINA RESULT: -7.997881123      2.937      5.805
REMARK  3 active torsions:
REMARK  status: ('A' for Active; 'I' for Inactive)
REMARK       I    between atoms: C1_4  and  N2_5 
REMARK       I    between atoms: C1_4  and  N3_13 
REMARK    1  A    between atoms: C13_18  and  C14_19 
REMARK       I    between atoms: C14_19  and  N4_21 
REMARK    2  A    between atoms: C19_26  and  C20_27 
REMARK    3  A    between atoms: C20_27  and  O2_28 
ROOT
HETATM    1  N1  UNL     1     -15.578 -36.975 -13.278  1.00  0.00    -0.235 N 
ATOM      2  H11 UNL     1     -15.456 -37.621 -14.058  1.00  0.00     0.174 HD
ATOM      3  H12 UNL     1     -16.317 -36.275 -13.225  1.00  0.00     0.174 HD
HETATM    4  C1  UNL     1     -14.757 -37.031 -12.284  1.00  0.00     0.672 C 
HETATM    5  N2  UNL     1     -14.926 -36.138 -11.204  1.00  0.00    -0.218 N 
HETATM    6  C2  UNL     1     -13.982 -35.050 -11.214  1.00  0.00     0.141 C 
HETATM    7  C3  UNL     1     -14.478 -33.916 -10.307  1.00  0.00     0.020 C 
HETATM    8  C4  UNL     1     -15.841 -33.468 -10.802  1.00  0.00     0.002 C 
HETATM    9  C5  UNL     1     -16.911 -33.663  -9.771  1.00  0.00     0.000 C 
HETATM   10  C6  UNL     1     -17.834 -34.806 -10.013  1.00  0.00     0.002 C 
HETATM   11  C7  UNL     1     -17.278 -35.918 -10.848  1.00  0.00     0.020 C 
HETATM   12  C8  UNL     1     -16.008 -36.512 -10.331  1.00  0.00     0.141 C 
HETATM   13  N3  UNL     1     -13.728 -38.006 -12.359  1.00  0.00    -0.205 N 
HETATM   14  C9  UNL     1     -12.372 -37.557 -12.298  1.00  0.00     0.142 C 
HETATM   15  C10 UNL     1     -11.411 -38.476 -12.970  1.00  0.00     0.020 C 
HETATM   16  C11 UNL     1     -12.135 -39.272 -14.004  1.00  0.00     0.004 C 
HETATM   17  C12 UNL     1     -13.206 -40.156 -13.407  1.00  0.00     0.035 C 
HETATM   18  C13 UNL     1     -14.130 -39.386 -12.498  1.00  0.00     0.194 C 
ENDROOT
BRANCH  18  19
HETATM   19  C14 UNL     1     -14.164 -40.046 -11.175  1.00  0.00     0.243 C 
HETATM   20  O1  UNL     1     -13.072 -40.335 -10.628  1.00  0.00    -0.271 OA
HETATM   21  N4  UNL     1     -15.357 -40.375 -10.482  1.00  0.00    -0.341 N 
HETATM   22  C15 UNL     1     -16.733 -40.144 -10.892  1.00  0.00     0.158 C 
HETATM   23  C18 UNL     1     -15.478 -41.027  -9.187  1.00  0.00     0.120 C 
HETATM   24  C16 UNL     1     -17.586 -40.938  -9.915  1.00  0.00     0.142 C 
HETATM   25  C17 UNL     1     -16.580 -42.045  -9.544  1.00  0.00     0.061 C 
HETATM   26  O3  UNL     1     -17.616 -40.226  -8.720  1.00  0.00    -0.375 OA
HETATM   27  C19 UNL     1     -16.285 -40.104  -8.322  1.00  0.00     0.168 C 
BRANCH  27  28
HETATM   28  C20 UNL     1     -16.095 -40.338  -6.858  1.00  0.00     0.198 C 
BRANCH  28  29
HETATM   29  O2  UNL     1     -14.850 -39.907  -6.419  1.00  0.00    -0.398 OA
ATOM     30  H2  UNL     1     -14.150 -40.471  -6.726  1.00  0.00     0.209 HD
ENDBRANCH  28  29
ENDBRANCH  27  28
ENDBRANCH  18  19
TORSDOF 3
ENDMDL
MODEL 5
REMARK VINA RESULT: -7.902864249      2.457      5.448
REMARK  3 active torsions:
REMARK  status: ('A' for Active; 'I' for Inactive)
REMARK       I    between atoms: C1_4  and  N2_5 
REMARK       I    between atoms: C1_4  and  N3_13 
REMARK    1  A    between atoms: C13_18  and  C14_19 
REMARK       I    between atoms: C14_19  and  N4_21 
REMARK    2  A    between atoms: C19_26  and  C20_27 
REMARK    3  A    between atoms: C20_27  and  O2_28 
ROOT
HETATM    1  N1  UNL     1     -15.421 -39.957  -8.784  1.00  0.00    -0.235 N 
ATOM      2  H11 UNL     1     -15.249 -39.071  -8.309  1.00  0.00     0.174 HD
ATOM      3  H12 UNL     1     -15.030 -40.851  -8.488  1.00  0.00     0.174 HD
HETATM    4  C1  UNL     1     -16.180 -39.972  -9.828  1.00  0.00     0.672 C 
HETATM    5  N2  UNL     1     -16.418 -41.198 -10.485  1.00  0.00    -0.218 N 
HETATM    6  C2  UNL     1     -15.666 -41.345 -11.705  1.00  0.00     0.141 C 
HETATM    7  C3  UNL     1     -15.629 -42.820 -12.124  1.00  0.00     0.020 C 
HETATM    8  C4  UNL     1     -15.010 -43.624 -10.996  1.00  0.00     0.002 C 
HETATM    9  C5  UNL     1     -15.954 -44.648 -10.444  1.00  0.00     0.000 C 
HETATM   10  C6  UNL     1     -16.551 -44.323  -9.120  1.00  0.00     0.002 C 
HETATM   11  C7  UNL     1     -16.628 -42.865  -8.787  1.00  0.00     0.020 C 
HETATM   12  C8  UNL     1     -17.362 -42.034  -9.788  1.00  0.00     0.141 C 
HETATM   13  N3  UNL     1     -16.724 -38.728 -10.240  1.00  0.00    -0.205 N 
HETATM   14  C9  UNL     1     -16.430 -38.271 -11.562  1.00  0.00     0.142 C 
HETATM   15  C10 UNL     1     -16.488 -36.789 -11.706  1.00  0.00     0.020 C 
HETATM   16  C11 UNL     1     -16.253 -36.157 -10.376  1.00  0.00     0.004 C 
HETATM   17  C12 UNL     1     -17.319 -36.519  -9.368  1.00  0.00     0.035 C 
HETATM   18  C13 UNL     1     -17.536 -38.009  -9.286  1.00  0.00     0.194 C 
ENDROOT
BRANCH  18  19
HETATM   19  C14 UNL     1     -18.969 -38.301  -9.509  1.00  0.00     0.243 C 
HETATM   20  O1  UNL     1     -19.532 -37.781 -10.503  1.00  0.00    -0.271 OA
HETATM   21  N4  UNL     1     -19.750 -39.133  -8.667  1.00  0.00    -0.341 N 
HETATM   22  C15 UNL     1     -19.338 -39.850  -7.471  1.00  0.00     0.158 C 
HETATM   23  C18 UNL     1     -21.159 -39.464  -8.810  1.00  0.00     0.120 C 
HETATM   24  C16 UNL     1     -20.626 -40.341  -6.830  1.00  0.00     0.142 C 
HETATM   25  C17 UNL     1     -21.594 -39.260  -7.346  1.00  0.00     0.061 C 
HETATM   26  O3  UNL     1     -21.065 -41.434  -7.570  1.00  0.00    -0.375 OA
HETATM   27  C19 UNL     1     -21.239 -40.961  -8.870  1.00  0.00     0.168 C 
BRANCH  27  28
HETATM   28  C20 UNL     1     -22.492 -41.469  -9.508  1.00  0.00     0.198 C 
BRANCH  28  29
HETATM   29  O2  UNL     1     -23.155 -40.475 -10.216  1.00  0.00    -0.398 OA
ATOM     30  H2  UNL     1     -23.994 -40.773 -10.547  1.00  0.00     0.209 HD
ENDBRANCH  28  29
ENDBRANCH  27  28
ENDBRANCH  18  19
TORSDOF 3
ENDMDL
