MODEL 1
REMARK VINA RESULT: -9.954616204      0.000      0.000
REMARK  15 active torsions:
REMARK  status: ('A' for Active; 'I' for Inactive)
REMARK    1  A    between atoms: N1_1  and  N2_4 
REMARK    2  A    between atoms: N2_4  and  N3_5 
REMARK    3  A    between atoms: N3_5  and  C1_7 
REMARK    4  A    between atoms: C3_9  and  N4_10 
REMARK    5  A    between atoms: C5_15  and  N7_16 
REMARK    6  A    between atoms: C6_21  and  N9_22 
REMARK    7  A    between atoms: C8_29  and  C9_30 
REMARK       I    between atoms: C9_30  and  N11_32 
REMARK    8  A    between atoms: N11_32  and  C10_34 
REMARK    9  A    between atoms: C10_34  and  C11_35 
REMARK       I    between atoms: C11_35  and  N12_37 
REMARK   10  A    between atoms: N12_37  and  C12_39 
REMARK   11  A    between atoms: C12_39  and  C13_40 
REMARK   12  A    between atoms: C12_39  and  C17_51 
REMARK       I    between atoms: C13_40  and  N13_42 
REMARK   13  A    between atoms: N13_42  and  C14_44 
REMARK   14  A    between atoms: C14_44  and  C15_45 
REMARK   15  A    between atoms: C14_44  and  C16_48 
ROOT
HETATM    1  C9  UNL     1      24.553  45.634  18.735  1.00  0.00     0.249 C 
HETATM    2  O2  UNL     1      25.579  46.268  18.406  1.00  0.00    -0.271 OA
HETATM    3  N11 UNL     1      23.332  45.905  18.094  1.00  0.00    -0.350 N 
ATOM      4  H11 UNL     1      22.502  45.378  18.364  1.00  0.00     0.163 HD
ENDROOT
BRANCH   1   5
HETATM    5  C8  UNL     1      24.622  44.605  19.791  1.00  0.00     0.241 C 
HETATM    6  C1  UNL     1      23.996  44.998  21.084  1.00  0.00     0.157 C 
HETATM    7  C2  UNL     1      22.898  43.965  21.226  1.00  0.00     0.085 C 
HETATM    8  C3  UNL     1      23.480  42.807  20.452  1.00  0.00     0.250 C 
HETATM    9  O1  UNL     1      24.050  43.424  19.358  1.00  0.00    -0.349 OA
BRANCH   6  10
HETATM   10  N3  UNL     1      24.912  44.987  22.202  1.00  0.00    -0.245 N 
ATOM     11  H3  UNL     1      25.911  44.974  21.995  1.00  0.00     0.197 HD
BRANCH  10  12
HETATM   12  N2  UNL     1      24.578  44.990  23.368  1.00  0.00    -0.248 NA
BRANCH  12  13
HETATM   13  N1  UNL     1      24.563  45.057  24.610  1.00  0.00    -0.261 N 
ATOM     14  H12 UNL     1      24.151  44.130  24.719  1.00  0.00     0.193 HD
ATOM     15  H11 UNL     1      24.662  45.359  25.579  1.00  0.00     0.193 HD
ENDBRANCH  12  13
ENDBRANCH  10  12
ENDBRANCH   6  10
BRANCH   8  16
HETATM   16  N4  UNL     1      24.449  42.047  21.208  1.00  0.00    -0.148 N 
HETATM   17  C4  UNL     1      25.605  41.544  20.740  1.00  0.00     0.222 A 
HETATM   18  N5  UNL     1      26.233  40.899  21.743  1.00  0.00    -0.259 N 
HETATM   19  N6  UNL     1      25.496  40.986  22.826  1.00  0.00     0.092 N 
ATOM     20  H5  UNL     1      27.132  40.422  21.672  1.00  0.00     0.189 HD
HETATM   21  C5  UNL     1      25.698  40.504  24.070  1.00  0.00     0.727 A 
HETATM   22  C7  UNL     1      24.399  41.689  22.507  1.00  0.00     0.738 A 
HETATM   23  N8  UNL     1      24.756  40.752  24.993  1.00  0.00    -0.020 N 
HETATM   24  C6  UNL     1      23.643  41.462  24.677  1.00  0.00     0.705 A 
ATOM     25  H8  UNL     1      24.878  40.402  25.943  1.00  0.00     0.203 HD
HETATM   26  N10 UNL     1      23.466  41.929  23.434  1.00  0.00    -0.019 N 
ATOM     27  H10 UNL     1      22.630  42.462  23.198  1.00  0.00     0.203 HD
BRANCH  21  28
HETATM   28  N7  UNL     1      26.755  39.831  24.367  1.00  0.00    -0.232 N 
ATOM     29  H72 UNL     1      27.678  40.142  24.066  1.00  0.00     0.174 HD
ATOM     30  H71 UNL     1      26.702  38.969  24.910  1.00  0.00     0.174 HD
ENDBRANCH  21  28
BRANCH  24  31
HETATM   31  N9  UNL     1      22.746  41.684  25.607  1.00  0.00    -0.234 N 
ATOM     32  H92 UNL     1      22.840  41.261  26.531  1.00  0.00     0.174 HD
ATOM     33  H91 UNL     1      21.950  42.285  25.393  1.00  0.00     0.174 HD
ENDBRANCH  24  31
ENDBRANCH   8  16
ENDBRANCH   1   5
BRANCH   3  34
HETATM   34  C10 UNL     1      23.223  46.903  17.069  1.00  0.00     0.225 C 
BRANCH  34  35
HETATM   35  C11 UNL     1      22.664  46.444  15.795  1.00  0.00     0.236 C 
HETATM   36  O3  UNL     1      21.811  47.163  15.195  1.00  0.00    -0.272 OA
HETATM   37  N12 UNL     1      23.060  45.210  15.221  1.00  0.00    -0.341 N 
ATOM     38  H12 UNL     1      23.748  44.620  15.689  1.00  0.00     0.163 HD
BRANCH  37  39
HETATM   39  C12 UNL     1      22.477  44.799  13.965  1.00  0.00     0.227 C 
BRANCH  39  40
HETATM   40  C13 UNL     1      22.158  43.364  14.004  1.00  0.00     0.247 C 
HETATM   41  O4  UNL     1      21.898  42.822  15.106  1.00  0.00    -0.271 OA
HETATM   42  N13 UNL     1      22.147  42.610  12.802  1.00  0.00    -0.337 N 
ATOM     43  H13 UNL     1      22.360  43.075  11.919  1.00  0.00     0.163 HD
BRANCH  42  44
HETATM   44  C14 UNL     1      21.837  41.179  12.803  1.00  0.00     0.275 C 
BRANCH  44  45
HETATM   45  C15 UNL     1      22.831  40.496  11.976  1.00  0.00     0.264 C 
HETATM   46  N14 UNL     1      23.803  41.232  11.285  1.00  0.00    -0.060 NA
HETATM   47  O5  UNL     1      22.831  39.248  11.869  1.00  0.00    -0.274 OA
ENDBRANCH  44  45
BRANCH  44  48
HETATM   48  C16 UNL     1      20.452  40.936  12.331  1.00  0.00     0.205 C 
HETATM   49  O6  UNL     1      20.200  40.860  11.105  1.00  0.00    -0.646 OA
HETATM   50  O7  UNL     1      19.410  40.789  13.225  1.00  0.00    -0.646 OA
ENDBRANCH  44  48
ENDBRANCH  42  44
ENDBRANCH  39  40
BRANCH  39  51
HETATM   51  C17 UNL     1      23.532  45.080  12.920  1.00  0.00     0.047 A 
HETATM   52  C18 UNL     1      23.387  46.171  12.130  1.00  0.00     0.045 A 
HETATM   53  C19 UNL     1      24.356  46.432  11.164  1.00  0.00     0.095 A 
HETATM   54  N15 UNL     1      25.397  45.599  11.051  1.00  0.00    -0.319 N 
HETATM   55  C20 UNL     1      25.544  44.511  11.838  1.00  0.00     0.324 A 
ATOM     56  H15 UNL     1      26.106  45.793  10.344  1.00  0.00     0.170 HD
HETATM   57  O8  UNL     1      26.538  43.732  11.715  1.00  0.00    -0.247 OA
HETATM   58  N16 UNL     1      24.599  44.272  12.766  1.00  0.00    -0.310 N 
ATOM     59  H16 UNL     1      24.693  43.455  13.370  1.00  0.00     0.170 HD
ENDBRANCH  39  51
ENDBRANCH  37  39
ENDBRANCH  34  35
ENDBRANCH   3  34
TORSDOF 15
ENDMDL
MODEL 2
REMARK VINA RESULT: -9.934540206      1.013      1.263
REMARK  15 active torsions:
REMARK  status: ('A' for Active; 'I' for Inactive)
REMARK    1  A    between atoms: N1_1  and  N2_4 
REMARK    2  A    between atoms: N2_4  and  N3_5 
REMARK    3  A    between atoms: N3_5  and  C1_7 
REMARK    4  A    between atoms: C3_9  and  N4_10 
REMARK    5  A    between atoms: C5_15  and  N7_16 
REMARK    6  A    between atoms: C6_21  and  N9_22 
REMARK    7  A    between atoms: C8_29  and  C9_30 
REMARK       I    between atoms: C9_30  and  N11_32 
REMARK    8  A    between atoms: N11_32  and  C10_34 
REMARK    9  A    between atoms: C10_34  and  C11_35 
REMARK       I    between atoms: C11_35  and  N12_37 
REMARK   10  A    between atoms: N12_37  and  C12_39 
REMARK   11  A    between atoms: C12_39  and  C13_40 
REMARK   12  A    between atoms: C12_39  and  C17_51 
REMARK       I    between atoms: C13_40  and  N13_42 
REMARK   13  A    between atoms: N13_42  and  C14_44 
REMARK   14  A    between atoms: C14_44  and  C15_45 
REMARK   15  A    between atoms: C14_44  and  C16_48 
ROOT
HETATM    1  C9  UNL     1      24.608  46.034  19.084  1.00  0.00     0.249 C 
HETATM    2  O2  UNL     1      25.317  47.050  19.243  1.00  0.00    -0.271 OA
HETATM    3  N11 UNL     1      23.753  45.949  17.972  1.00  0.00    -0.350 N 
ATOM      4  H11 UNL     1      23.183  45.112  17.847  1.00  0.00     0.163 HD
ENDROOT
BRANCH   1   5
HETATM    5  C8  UNL     1      24.667  44.927  20.059  1.00  0.00     0.241 C 
HETATM    6  C1  UNL     1      24.026  45.220  21.371  1.00  0.00     0.157 C 
HETATM    7  C2  UNL     1      22.927  44.179  21.421  1.00  0.00     0.085 C 
HETATM    8  C3  UNL     1      23.519  43.083  20.568  1.00  0.00     0.250 C 
HETATM    9  O1  UNL     1      24.100  43.782  19.531  1.00  0.00    -0.349 OA
BRANCH   6  10
HETATM   10  N3  UNL     1      24.931  45.122  22.494  1.00  0.00    -0.245 N 
ATOM     11  H3  UNL     1      25.930  45.090  22.296  1.00  0.00     0.197 HD
BRANCH  10  12
HETATM   12  N2  UNL     1      24.585  45.076  23.656  1.00  0.00    -0.248 NA
BRANCH  12  13
HETATM   13  N1  UNL     1      24.563  45.014  24.898  1.00  0.00    -0.261 N 
ATOM     14  H12 UNL     1      23.720  44.441  24.920  1.00  0.00     0.193 HD
ATOM     15  H11 UNL     1      24.772  45.118  25.891  1.00  0.00     0.193 HD
ENDBRANCH  12  13
ENDBRANCH  10  12
ENDBRANCH   6  10
BRANCH   8  16
HETATM   16  N4  UNL     1      24.480  42.267  21.273  1.00  0.00    -0.148 N 
HETATM   17  C4  UNL     1      25.635  41.790  20.776  1.00  0.00     0.222 A 
HETATM   18  N5  UNL     1      26.255  41.074  21.735  1.00  0.00    -0.259 N 
HETATM   19  N6  UNL     1      25.515  41.092  22.819  1.00  0.00     0.092 N 
ATOM     20  H5  UNL     1      27.151  40.597  21.635  1.00  0.00     0.189 HD
HETATM   21  C5  UNL     1      25.710  40.527  24.029  1.00  0.00     0.727 A 
HETATM   22  C7  UNL     1      24.424  41.823  22.544  1.00  0.00     0.738 A 
HETATM   23  N8  UNL     1      24.766  40.718  24.963  1.00  0.00    -0.020 N 
HETATM   24  C6  UNL     1      23.659  41.455  24.693  1.00  0.00     0.705 A 
ATOM     25  H8  UNL     1      24.883  40.304  25.888  1.00  0.00     0.203 HD
HETATM   26  N10 UNL     1      23.489  42.006  23.483  1.00  0.00    -0.019 N 
ATOM     27  H10 UNL     1      22.657  42.559  23.281  1.00  0.00     0.203 HD
BRANCH  21  28
HETATM   28  N7  UNL     1      26.761  39.828  24.282  1.00  0.00    -0.232 N 
ATOM     29  H72 UNL     1      26.699  38.820  24.425  1.00  0.00     0.174 HD
ATOM     30  H71 UNL     1      27.684  40.257  24.347  1.00  0.00     0.174 HD
ENDBRANCH  21  28
BRANCH  24  31
HETATM   31  N9  UNL     1      22.760  41.620  25.633  1.00  0.00    -0.234 N 
ATOM     32  H92 UNL     1      22.975  42.167  26.467  1.00  0.00     0.174 HD
ATOM     33  H91 UNL     1      21.841  41.191  25.520  1.00  0.00     0.174 HD
ENDBRANCH  24  31
ENDBRANCH   8  16
ENDBRANCH   1   5
BRANCH   3  34
HETATM   34  C10 UNL     1      23.662  47.007  17.008  1.00  0.00     0.225 C 
BRANCH  34  35
HETATM   35  C11 UNL     1      23.121  46.627  15.700  1.00  0.00     0.236 C 
HETATM   36  O3  UNL     1      22.615  47.516  14.953  1.00  0.00    -0.272 OA
HETATM   37  N12 UNL     1      23.156  45.282  15.254  1.00  0.00    -0.341 N 
ATOM     38  H12 UNL     1      23.562  44.554  15.840  1.00  0.00     0.163 HD
BRANCH  37  39
HETATM   39  C12 UNL     1      22.607  44.957  13.958  1.00  0.00     0.227 C 
BRANCH  39  40
HETATM   40  C13 UNL     1      22.283  43.523  13.894  1.00  0.00     0.247 C 
HETATM   41  O4  UNL     1      21.925  42.927  14.939  1.00  0.00    -0.271 OA
HETATM   42  N13 UNL     1      22.378  42.832  12.658  1.00  0.00    -0.337 N 
ATOM     43  H13 UNL     1      22.670  43.340  11.823  1.00  0.00     0.163 HD
BRANCH  42  44
HETATM   44  C14 UNL     1      22.066  41.405  12.558  1.00  0.00     0.275 C 
BRANCH  44  45
HETATM   45  C15 UNL     1      23.100  40.769  11.741  1.00  0.00     0.264 C 
HETATM   46  N14 UNL     1      23.041  39.396  11.467  1.00  0.00    -0.060 NA
HETATM   47  O5  UNL     1      24.051  41.437  11.275  1.00  0.00    -0.274 OA
ENDBRANCH  44  45
BRANCH  44  48
HETATM   48  C16 UNL     1      20.706  41.197  12.004  1.00  0.00     0.205 C 
HETATM   49  O6  UNL     1      19.729  41.002  12.766  1.00  0.00    -0.646 OA
HETATM   50  O7  UNL     1      20.483  41.212  10.641  1.00  0.00    -0.646 OA
ENDBRANCH  44  48
ENDBRANCH  42  44
ENDBRANCH  39  40
BRANCH  39  51
HETATM   51  C17 UNL     1      23.691  45.300  12.963  1.00  0.00     0.047 A 
HETATM   52  C18 UNL     1      24.893  44.684  13.076  1.00  0.00     0.045 A 
HETATM   53  C19 UNL     1      25.895  44.999  12.161  1.00  0.00     0.095 A 
HETATM   54  N15 UNL     1      25.638  45.897  11.203  1.00  0.00    -0.319 N 
HETATM   55  C20 UNL     1      24.441  46.514  11.089  1.00  0.00     0.324 A 
ATOM     56  H15 UNL     1      26.373  46.126  10.534  1.00  0.00     0.170 HD
HETATM   57  O8  UNL     1      24.216  47.363  10.174  1.00  0.00    -0.247 OA
HETATM   58  N16 UNL     1      23.483  46.198  11.981  1.00  0.00    -0.310 N 
ATOM     59  H16 UNL     1      22.572  46.653  11.910  1.00  0.00     0.170 HD
ENDBRANCH  39  51
ENDBRANCH  37  39
ENDBRANCH  34  35
ENDBRANCH   3  34
TORSDOF 15
ENDMDL
MODEL 3
REMARK VINA RESULT: -9.902000783      2.353      4.303
REMARK  15 active torsions:
REMARK  status: ('A' for Active; 'I' for Inactive)
REMARK    1  A    between atoms: N1_1  and  N2_4 
REMARK    2  A    between atoms: N2_4  and  N3_5 
REMARK    3  A    between atoms: N3_5  and  C1_7 
REMARK    4  A    between atoms: C3_9  and  N4_10 
REMARK    5  A    between atoms: C5_15  and  N7_16 
REMARK    6  A    between atoms: C6_21  and  N9_22 
REMARK    7  A    between atoms: C8_29  and  C9_30 
REMARK       I    between atoms: C9_30  and  N11_32 
REMARK    8  A    between atoms: N11_32  and  C10_34 
REMARK    9  A    between atoms: C10_34  and  C11_35 
REMARK       I    between atoms: C11_35  and  N12_37 
REMARK   10  A    between atoms: N12_37  and  C12_39 
REMARK   11  A    between atoms: C12_39  and  C13_40 
REMARK   12  A    between atoms: C12_39  and  C17_51 
REMARK       I    between atoms: C13_40  and  N13_42 
REMARK   13  A    between atoms: N13_42  and  C14_44 
REMARK   14  A    between atoms: C14_44  and  C15_45 
REMARK   15  A    between atoms: C14_44  and  C16_48 
ROOT
HETATM    1  C9  UNL     1      23.590  44.641  20.688  1.00  0.00     0.249 C 
HETATM    2  O2  UNL     1      22.485  45.214  20.580  1.00  0.00    -0.271 OA
HETATM    3  N11 UNL     1      24.618  44.935  19.777  1.00  0.00    -0.350 N 
ATOM      4  H11 UNL     1      25.519  44.467  19.877  1.00  0.00     0.163 HD
ENDROOT
BRANCH   1   5
HETATM    5  C8  UNL     1      23.815  43.659  21.767  1.00  0.00     0.241 C 
HETATM    6  C1  UNL     1      24.531  42.423  21.345  1.00  0.00     0.157 C 
HETATM    7  C2  UNL     1      25.785  42.485  22.192  1.00  0.00     0.085 C 
HETATM    8  C3  UNL     1      25.296  43.265  23.388  1.00  0.00     0.250 C 
HETATM    9  O1  UNL     1      24.504  44.238  22.816  1.00  0.00    -0.349 OA
BRANCH   6  10
HETATM   10  N3  UNL     1      23.776  41.210  21.562  1.00  0.00    -0.245 N 
ATOM     11  H3  UNL     1      23.269  41.119  22.443  1.00  0.00     0.197 HD
BRANCH  10  12
HETATM   12  N2  UNL     1      23.703  40.292  20.773  1.00  0.00    -0.248 NA
BRANCH  12  13
HETATM   13  N1  UNL     1      23.857  39.535  19.799  1.00  0.00    -0.261 N 
ATOM     14  H12 UNL     1      24.076  40.297  19.157  1.00  0.00     0.193 HD
ATOM     15  H11 UNL     1      23.923  38.721  19.188  1.00  0.00     0.193 HD
ENDBRANCH  12  13
ENDBRANCH  10  12
ENDBRANCH   6  10
BRANCH   8  16
HETATM   16  N4  UNL     1      24.560  42.457  24.333  1.00  0.00    -0.148 N 
HETATM   17  C4  UNL     1      24.801  41.170  24.636  1.00  0.00     0.222 A 
HETATM   18  N5  UNL     1      23.904  40.767  25.557  1.00  0.00    -0.259 N 
HETATM   19  N6  UNL     1      23.108  41.772  25.837  1.00  0.00     0.092 N 
ATOM     20  H5  UNL     1      23.852  39.835  25.969  1.00  0.00     0.189 HD
HETATM   21  C5  UNL     1      22.065  41.860  26.689  1.00  0.00     0.727 A 
HETATM   22  C7  UNL     1      23.504  42.814  25.091  1.00  0.00     0.738 A 
HETATM   23  N8  UNL     1      21.425  43.036  26.769  1.00  0.00    -0.020 N 
HETATM   24  C6  UNL     1      21.818  44.094  26.016  1.00  0.00     0.705 A 
ATOM     25  H8  UNL     1      20.632  43.136  27.403  1.00  0.00     0.203 HD
HETATM   26  N10 UNL     1      22.858  43.981  25.177  1.00  0.00    -0.019 N 
ATOM     27  H10 UNL     1      23.152  44.777  24.612  1.00  0.00     0.203 HD
BRANCH  21  28
HETATM   28  N7  UNL     1      21.693  40.854  27.402  1.00  0.00    -0.232 N 
ATOM     29  H72 UNL     1      22.187  39.964  27.351  1.00  0.00     0.174 HD
ATOM     30  H71 UNL     1      20.898  40.916  28.038  1.00  0.00     0.174 HD
ENDBRANCH  21  28
BRANCH  24  31
HETATM   31  N9  UNL     1      21.167  45.228  26.123  1.00  0.00    -0.234 N 
ATOM     32  H92 UNL     1      20.165  45.235  26.309  1.00  0.00     0.174 HD
ATOM     33  H91 UNL     1      21.679  46.104  26.015  1.00  0.00     0.174 HD
ENDBRANCH  24  31
ENDBRANCH   8  16
ENDBRANCH   1   5
BRANCH   3  34
HETATM   34  C10 UNL     1      24.435  45.876  18.710  1.00  0.00     0.225 C 
BRANCH  34  35
HETATM   35  C11 UNL     1      23.676  45.385  17.556  1.00  0.00     0.236 C 
HETATM   36  O3  UNL     1      23.408  44.151  17.467  1.00  0.00    -0.272 OA
HETATM   37  N12 UNL     1      23.235  46.268  16.538  1.00  0.00    -0.341 N 
ATOM     38  H12 UNL     1      23.439  47.265  16.596  1.00  0.00     0.163 HD
BRANCH  37  39
HETATM   39  C12 UNL     1      22.494  45.735  15.419  1.00  0.00     0.227 C 
BRANCH  39  40
HETATM   40  C13 UNL     1      23.421  45.197  14.411  1.00  0.00     0.247 C 
HETATM   41  O4  UNL     1      24.642  45.477  14.489  1.00  0.00    -0.271 OA
HETATM   42  N13 UNL     1      22.928  44.372  13.368  1.00  0.00    -0.337 N 
ATOM     43  H13 UNL     1      21.931  44.158  13.328  1.00  0.00     0.163 HD
BRANCH  42  44
HETATM   44  C14 UNL     1      23.821  43.822  12.346  1.00  0.00     0.275 C 
BRANCH  44  45
HETATM   45  C15 UNL     1      24.217  44.910  11.453  1.00  0.00     0.264 C 
HETATM   46  N14 UNL     1      25.573  45.191  11.236  1.00  0.00    -0.060 NA
HETATM   47  O5  UNL     1      23.357  45.609  10.871  1.00  0.00    -0.274 OA
ENDBRANCH  44  45
BRANCH  44  48
HETATM   48  C16 UNL     1      23.169  42.707  11.616  1.00  0.00     0.205 C 
HETATM   49  O6  UNL     1      21.987  42.814  11.211  1.00  0.00    -0.646 OA
HETATM   50  O7  UNL     1      23.845  41.529  11.366  1.00  0.00    -0.646 OA
ENDBRANCH  44  48
ENDBRANCH  42  44
ENDBRANCH  39  40
BRANCH  39  51
HETATM   51  C17 UNL     1      21.719  46.904  14.856  1.00  0.00     0.047 A 
HETATM   52  C18 UNL     1      22.294  47.656  13.887  1.00  0.00     0.045 A 
HETATM   53  C19 UNL     1      21.583  48.735  13.366  1.00  0.00     0.095 A 
HETATM   54  N15 UNL     1      20.358  48.991  13.840  1.00  0.00    -0.319 N 
HETATM   55  C20 UNL     1      19.783  48.244  14.807  1.00  0.00     0.324 A 
ATOM     56  H15 UNL     1      19.839  49.781  13.457  1.00  0.00     0.170 HD
HETATM   57  O8  UNL     1      18.620  48.502  15.243  1.00  0.00    -0.247 OA
HETATM   58  N16 UNL     1      20.482  47.204  15.299  1.00  0.00    -0.310 N 
ATOM     59  H16 UNL     1      20.064  46.627  16.029  1.00  0.00     0.170 HD
ENDBRANCH  39  51
ENDBRANCH  37  39
ENDBRANCH  34  35
ENDBRANCH   3  34
TORSDOF 15
ENDMDL
MODEL 4
REMARK VINA RESULT: -9.805826342      2.497      4.521
REMARK  15 active torsions:
REMARK  status: ('A' for Active; 'I' for Inactive)
REMARK    1  A    between atoms: N1_1  and  N2_4 
REMARK    2  A    between atoms: N2_4  and  N3_5 
REMARK    3  A    between atoms: N3_5  and  C1_7 
REMARK    4  A    between atoms: C3_9  and  N4_10 
REMARK    5  A    between atoms: C5_15  and  N7_16 
REMARK    6  A    between atoms: C6_21  and  N9_22 
REMARK    7  A    between atoms: C8_29  and  C9_30 
REMARK       I    between atoms: C9_30  and  N11_32 
REMARK    8  A    between atoms: N11_32  and  C10_34 
REMARK    9  A    between atoms: C10_34  and  C11_35 
REMARK       I    between atoms: C11_35  and  N12_37 
REMARK   10  A    between atoms: N12_37  and  C12_39 
REMARK   11  A    between atoms: C12_39  and  C13_40 
REMARK   12  A    between atoms: C12_39  and  C17_51 
REMARK       I    between atoms: C13_40  and  N13_42 
REMARK   13  A    between atoms: N13_42  and  C14_44 
REMARK   14  A    between atoms: C14_44  and  C15_45 
REMARK   15  A    between atoms: C14_44  and  C16_48 
ROOT
HETATM    1  C9  UNL     1      23.832  44.598  20.448  1.00  0.00     0.249 C 
HETATM    2  O2  UNL     1      22.762  45.243  20.411  1.00  0.00    -0.271 OA
HETATM    3  N11 UNL     1      24.817  44.828  19.473  1.00  0.00    -0.350 N 
ATOM      4  H11 UNL     1      25.690  44.302  19.515  1.00  0.00     0.163 HD
ENDROOT
BRANCH   1   5
HETATM    5  C8  UNL     1      24.061  43.599  21.510  1.00  0.00     0.241 C 
HETATM    6  C1  UNL     1      24.708  42.339  21.050  1.00  0.00     0.157 C 
HETATM    7  C2  UNL     1      25.997  42.342  21.845  1.00  0.00     0.085 C 
HETATM    8  C3  UNL     1      25.590  43.132  23.066  1.00  0.00     0.250 C 
HETATM    9  O1  UNL     1      24.815  44.141  22.534  1.00  0.00    -0.349 OA
BRANCH   6  10
HETATM   10  N3  UNL     1      23.914  41.156  21.291  1.00  0.00    -0.245 N 
ATOM     11  H3  UNL     1      23.375  41.114  22.156  1.00  0.00     0.197 HD
BRANCH  10  12
HETATM   12  N2  UNL     1      23.842  40.208  20.537  1.00  0.00    -0.248 NA
BRANCH  12  13
HETATM   13  N1  UNL     1      23.861  39.468  19.538  1.00  0.00    -0.261 N 
ATOM     14  H12 UNL     1      23.490  38.664  20.046  1.00  0.00     0.193 HD
ATOM     15  H11 UNL     1      23.974  39.088  18.598  1.00  0.00     0.193 HD
ENDBRANCH  12  13
ENDBRANCH  10  12
ENDBRANCH   6  10
BRANCH   8  16
HETATM   16  N4  UNL     1      24.861  42.347  24.035  1.00  0.00    -0.148 N 
HETATM   17  C4  UNL     1      25.103  41.067  24.366  1.00  0.00     0.222 A 
HETATM   18  N5  UNL     1      24.213  40.686  25.304  1.00  0.00    -0.259 N 
HETATM   19  N6  UNL     1      23.420  41.698  25.566  1.00  0.00     0.092 N 
ATOM     20  H5  UNL     1      24.165  39.764  25.737  1.00  0.00     0.189 HD
HETATM   21  C5  UNL     1      22.384  41.806  26.424  1.00  0.00     0.727 A 
HETATM   22  C7  UNL     1      23.810  42.722  24.792  1.00  0.00     0.738 A 
HETATM   23  N8  UNL     1      21.744  42.984  26.481  1.00  0.00    -0.020 N 
HETATM   24  C6  UNL     1      22.132  44.024  25.700  1.00  0.00     0.705 A 
ATOM     25  H8  UNL     1      20.957  43.099  27.119  1.00  0.00     0.203 HD
HETATM   26  N10 UNL     1      23.165  43.891  24.857  1.00  0.00    -0.019 N 
ATOM     27  H10 UNL     1      23.456  44.673  24.271  1.00  0.00     0.203 HD
BRANCH  21  28
HETATM   28  N7  UNL     1      22.017  40.817  27.163  1.00  0.00    -0.232 N 
ATOM     29  H72 UNL     1      22.544  40.562  27.997  1.00  0.00     0.174 HD
ATOM     30  H71 UNL     1      21.191  40.262  26.938  1.00  0.00     0.174 HD
ENDBRANCH  21  28
BRANCH  24  31
HETATM   31  N9  UNL     1      21.483  45.160  25.786  1.00  0.00    -0.234 N 
ATOM     32  H92 UNL     1      20.871  45.467  25.030  1.00  0.00     0.174 HD
ATOM     33  H91 UNL     1      21.600  45.735  26.621  1.00  0.00     0.174 HD
ENDBRANCH  24  31
ENDBRANCH   8  16
ENDBRANCH   1   5
BRANCH   3  34
HETATM   34  C10 UNL     1      24.628  45.784  18.420  1.00  0.00     0.225 C 
BRANCH  34  35
HETATM   35  C11 UNL     1      23.740  45.362  17.334  1.00  0.00     0.236 C 
HETATM   36  O3  UNL     1      23.293  44.177  17.319  1.00  0.00    -0.272 OA
HETATM   37  N12 UNL     1      23.369  46.257  16.299  1.00  0.00    -0.341 N 
ATOM     38  H12 UNL     1      23.715  47.215  16.297  1.00  0.00     0.163 HD
BRANCH  37  39
HETATM   39  C12 UNL     1      22.493  45.793  15.249  1.00  0.00     0.227 C 
BRANCH  39  40
HETATM   40  C13 UNL     1      23.278  45.455  14.051  1.00  0.00     0.247 C 
HETATM   41  O4  UNL     1      24.528  45.372  14.139  1.00  0.00    -0.271 OA
HETATM   42  N13 UNL     1      22.619  45.227  12.816  1.00  0.00    -0.337 N 
ATOM     43  H13 UNL     1      21.602  45.298  12.771  1.00  0.00     0.163 HD
BRANCH  42  44
HETATM   44  C14 UNL     1      23.369  44.892  11.603  1.00  0.00     0.275 C 
BRANCH  44  45
HETATM   45  C15 UNL     1      24.027  43.603  11.816  1.00  0.00     0.264 C 
HETATM   46  N14 UNL     1      23.265  42.440  11.995  1.00  0.00    -0.060 NA
HETATM   47  O5  UNL     1      25.276  43.516  11.844  1.00  0.00    -0.274 OA
ENDBRANCH  44  45
BRANCH  44  48
HETATM   48  C16 UNL     1      24.335  45.964  11.263  1.00  0.00     0.205 C 
HETATM   49  O6  UNL     1      23.992  47.170  11.308  1.00  0.00    -0.646 OA
HETATM   50  O7  UNL     1      25.630  45.664  10.890  1.00  0.00    -0.646 OA
ENDBRANCH  44  48
ENDBRANCH  42  44
ENDBRANCH  39  40
BRANCH  39  51
HETATM   51  C17 UNL     1      21.559  46.946  14.963  1.00  0.00     0.047 A 
HETATM   52  C18 UNL     1      21.982  47.932  14.135  1.00  0.00     0.045 A 
HETATM   53  C19 UNL     1      21.125  48.997  13.869  1.00  0.00     0.095 A 
HETATM   54  N15 UNL     1      19.915  49.011  14.440  1.00  0.00    -0.319 N 
HETATM   55  C20 UNL     1      19.491  48.030  15.266  1.00  0.00     0.324 A 
ATOM     56  H15 UNL     1      19.288  49.791  14.243  1.00  0.00     0.170 HD
HETATM   57  O8  UNL     1      18.340  48.060  15.798  1.00  0.00    -0.247 OA
HETATM   58  N16 UNL     1      20.331  47.007  15.513  1.00  0.00    -0.310 N 
ATOM     59  H16 UNL     1      20.029  46.256  16.133  1.00  0.00     0.170 HD
ENDBRANCH  39  51
ENDBRANCH  37  39
ENDBRANCH  34  35
ENDBRANCH   3  34
TORSDOF 15
ENDMDL
MODEL 5
REMARK VINA RESULT: -9.649620472      2.514      4.733
REMARK  15 active torsions:
REMARK  status: ('A' for Active; 'I' for Inactive)
REMARK    1  A    between atoms: N1_1  and  N2_4 
REMARK    2  A    between atoms: N2_4  and  N3_5 
REMARK    3  A    between atoms: N3_5  and  C1_7 
REMARK    4  A    between atoms: C3_9  and  N4_10 
REMARK    5  A    between atoms: C5_15  and  N7_16 
REMARK    6  A    between atoms: C6_21  and  N9_22 
REMARK    7  A    between atoms: C8_29  and  C9_30 
REMARK       I    between atoms: C9_30  and  N11_32 
REMARK    8  A    between atoms: N11_32  and  C10_34 
REMARK    9  A    between atoms: C10_34  and  C11_35 
REMARK       I    between atoms: C11_35  and  N12_37 
REMARK   10  A    between atoms: N12_37  and  C12_39 
REMARK   11  A    between atoms: C12_39  and  C13_40 
REMARK   12  A    between atoms: C12_39  and  C17_51 
REMARK       I    between atoms: C13_40  and  N13_42 
REMARK   13  A    between atoms: N13_42  and  C14_44 
REMARK   14  A    between atoms: C14_44  and  C15_45 
REMARK   15  A    between atoms: C14_44  and  C16_48 
ROOT
HETATM    1  C9  UNL     1      25.285  44.032  20.424  1.00  0.00     0.249 C 
HETATM    2  O2  UNL     1      26.384  44.264  19.877  1.00  0.00    -0.271 OA
HETATM    3  N11 UNL     1      24.157  44.791  20.070  1.00  0.00    -0.350 N 
ATOM      4  H11 UNL     1      23.263  44.589  20.517  1.00  0.00     0.163 HD
ENDROOT
BRANCH   1   5
HETATM    5  C8  UNL     1      25.171  42.964  21.437  1.00  0.00     0.241 C 
HETATM    6  C1  UNL     1      25.387  41.585  20.916  1.00  0.00     0.157 C 
HETATM    7  C2  UNL     1      26.601  41.140  21.704  1.00  0.00     0.085 C 
HETATM    8  C3  UNL     1      26.454  41.961  22.962  1.00  0.00     0.250 C 
HETATM    9  O1  UNL     1      26.049  43.189  22.482  1.00  0.00    -0.349 OA
BRANCH   6  10
HETATM   10  N3  UNL     1      24.254  40.708  21.104  1.00  0.00    -0.245 N 
ATOM     11  H3  UNL     1      23.762  40.755  21.996  1.00  0.00     0.197 HD
BRANCH  10  12
HETATM   12  N2  UNL     1      23.847  39.921  20.276  1.00  0.00    -0.248 NA
BRANCH  12  13
HETATM   13  N1  UNL     1      23.707  39.209  19.266  1.00  0.00    -0.261 N 
ATOM     14  H12 UNL     1      24.422  38.542  19.557  1.00  0.00     0.193 HD
ATOM     15  H11 UNL     1      23.404  38.816  18.375  1.00  0.00     0.193 HD
ENDBRANCH  12  13
ENDBRANCH  10  12
ENDBRANCH   6  10
BRANCH   8  16
HETATM   16  N4  UNL     1      25.502  41.407  23.897  1.00  0.00    -0.148 N 
HETATM   17  C4  UNL     1      25.432  40.124  24.294  1.00  0.00     0.222 A 
HETATM   18  N5  UNL     1      24.415  39.997  25.169  1.00  0.00    -0.259 N 
HETATM   19  N6  UNL     1      23.847  41.169  25.327  1.00  0.00     0.092 N 
ATOM     20  H5  UNL     1      24.133  39.132  25.631  1.00  0.00     0.189 HD
HETATM   21  C5  UNL     1      22.801  41.546  26.092  1.00  0.00     0.727 A 
HETATM   22  C7  UNL     1      24.508  42.041  24.551  1.00  0.00     0.738 A 
HETATM   23  N8  UNL     1      22.435  42.836  26.053  1.00  0.00    -0.020 N 
HETATM   24  C6  UNL     1      23.098  43.724  25.269  1.00  0.00     0.705 A 
ATOM     25  H8  UNL     1      21.648  43.154  26.619  1.00  0.00     0.203 HD
HETATM   26  N10 UNL     1      24.134  43.324  24.518  1.00  0.00    -0.019 N 
ATOM     27  H10 UNL     1      24.632  43.992  23.930  1.00  0.00     0.203 HD
BRANCH  21  28
HETATM   28  N7  UNL     1      22.173  40.702  26.835  1.00  0.00    -0.232 N 
ATOM     29  H72 UNL     1      21.469  41.013  27.504  1.00  0.00     0.174 HD
ATOM     30  H71 UNL     1      22.358  39.700  26.777  1.00  0.00     0.174 HD
ENDBRANCH  21  28
BRANCH  24  31
HETATM   31  N9  UNL     1      22.710  44.976  25.259  1.00  0.00    -0.234 N 
ATOM     32  H92 UNL     1      21.831  45.251  25.696  1.00  0.00     0.174 HD
ATOM     33  H91 UNL     1      23.301  45.673  24.805  1.00  0.00     0.174 HD
ENDBRANCH  24  31
ENDBRANCH   8  16
ENDBRANCH   1   5
BRANCH   3  34
HETATM   34  C10 UNL     1      24.230  45.842  19.097  1.00  0.00     0.225 C 
BRANCH  34  35
HETATM   35  C11 UNL     1      23.755  45.496  17.755  1.00  0.00     0.236 C 
HETATM   36  O3  UNL     1      24.018  44.353  17.276  1.00  0.00    -0.272 OA
HETATM   37  N12 UNL     1      23.004  46.417  16.982  1.00  0.00    -0.341 N 
ATOM     38  H12 UNL     1      22.780  47.340  17.352  1.00  0.00     0.163 HD
BRANCH  37  39
HETATM   39  C12 UNL     1      22.561  46.030  15.663  1.00  0.00     0.227 C 
BRANCH  39  40
HETATM   40  C13 UNL     1      23.698  46.031  14.729  1.00  0.00     0.247 C 
HETATM   41  O4  UNL     1      24.785  46.549  15.086  1.00  0.00    -0.271 OA
HETATM   42  N13 UNL     1      23.556  45.450  13.443  1.00  0.00    -0.337 N 
ATOM     43  H13 UNL     1      22.663  45.034  13.178  1.00  0.00     0.163 HD
BRANCH  42  44
HETATM   44  C14 UNL     1      24.665  45.435  12.487  1.00  0.00     0.275 C 
BRANCH  44  45
HETATM   45  C15 UNL     1      24.335  46.347  11.392  1.00  0.00     0.264 C 
HETATM   46  N14 UNL     1      24.938  46.193  10.137  1.00  0.00    -0.060 NA
HETATM   47  O5  UNL     1      23.513  47.278  11.557  1.00  0.00    -0.274 OA
ENDBRANCH  44  45
BRANCH  44  48
HETATM   48  C16 UNL     1      24.935  44.058  12.008  1.00  0.00     0.205 C 
HETATM   49  O6  UNL     1      23.990  43.267  11.772  1.00  0.00    -0.646 OA
HETATM   50  O7  UNL     1      26.227  43.612  11.812  1.00  0.00    -0.646 OA
ENDBRANCH  44  48
ENDBRANCH  42  44
ENDBRANCH  39  40
BRANCH  39  51
HETATM   51  C17 UNL     1      21.542  47.071  15.259  1.00  0.00     0.047 A 
HETATM   52  C18 UNL     1      21.900  48.008  14.348  1.00  0.00     0.045 A 
HETATM   53  C19 UNL     1      20.965  48.970  13.973  1.00  0.00     0.095 A 
HETATM   54  N15 UNL     1      19.746  48.935  14.525  1.00  0.00    -0.319 N 
HETATM   55  C20 UNL     1      19.387  48.002  15.434  1.00  0.00     0.324 A 
ATOM     56  H15 UNL     1      19.062  49.640  14.248  1.00  0.00     0.170 HD
HETATM   57  O8  UNL     1      18.226  47.986  15.946  1.00  0.00    -0.247 OA
HETATM   58  N16 UNL     1      20.302  47.080  15.785  1.00  0.00    -0.310 N 
ATOM     59  H16 UNL     1      20.049  46.367  16.469  1.00  0.00     0.170 HD
ENDBRANCH  39  51
ENDBRANCH  37  39
ENDBRANCH  34  35
ENDBRANCH   3  34
TORSDOF 15
ENDMDL
