MODEL 1
REMARK VINA RESULT: -5.486463528      0.000      0.000
REMARK  16 active torsions:
REMARK  status: ('A' for Active; 'I' for Inactive)
REMARK    1  A    between atoms: O1_2  and  C2_3 
REMARK    2  A    between atoms: C2_3  and  C3_5 
REMARK    3  A    between atoms: C8_13  and  O4_14 
REMARK    4  A    between atoms: C9_16  and  C10_17 
REMARK    5  A    between atoms: C10_17  and  N2_18 
REMARK    6  A    between atoms: C10_17  and  C11_22 
REMARK    7  A    between atoms: C14_29  and  C15_30 
REMARK    8  A    between atoms: N5_32  and  O6_34 
REMARK    9  A    between atoms: O6_34  and  C16_35 
REMARK   10  A    between atoms: C16_35  and  C17_36 
REMARK   11  A    between atoms: C17_36  and  N6_37 
REMARK   12  A    between atoms: C18_41  and  O7_43 
REMARK   13  A    between atoms: C20_45  and  O8_46 
REMARK   14  A    between atoms: C20_45  and  C21_48 
REMARK   15  A    between atoms: C21_48  and  N7_49 
REMARK   16  A    between atoms: C21_48  and  O9_53 
ROOT
HETATM    1  C3  UNL     1      20.751  38.667   9.933  1.00  0.00     0.189 C 
HETATM    2  N1  UNL     1      21.335  39.531  10.996  1.00  0.00    -0.337 N 
ATOM      3  H1  UNL     1      20.833  40.318  11.407  1.00  0.00     0.164 HD
HETATM    4  C4  UNL     1      22.635  39.171  11.386  1.00  0.00     0.230 C 
HETATM    5  O3  UNL     1      23.557  39.882  11.886  1.00  0.00    -0.273 OA
HETATM    6  C5  UNL     1      22.711  37.721  11.093  1.00  0.00     0.078 C 
HETATM    7  C6  UNL     1      24.053  37.134  10.987  1.00  0.00     0.029 C 
HETATM    8  C7  UNL     1      22.050  36.994  12.199  1.00  0.00     0.054 C 
HETATM    9  C8  UNL     1      22.410  37.471  13.583  1.00  0.00     0.126 C 
HETATM   10  C9  UNL     1      21.961  36.384  14.541  1.00  0.00     0.064 C 
HETATM   11  C12 UNL     1      20.655  35.723  14.124  1.00  0.00     0.096 C 
HETATM   12  S1  UNL     1      19.205  36.698  14.394  1.00  0.00    -0.097 SA
HETATM   13  S2  UNL     1      17.814  36.769  12.812  1.00  0.00    -0.097 SA
HETATM   14  C13 UNL     1      18.331  36.118  11.276  1.00  0.00     0.101 C 
HETATM   15  C14 UNL     1      18.744  36.952  10.150  1.00  0.00     0.099 C 
HETATM   16  C18 UNL     1      19.377  38.247  10.226  1.00  0.00     0.103 C 
HETATM   17  C19 UNL     1      18.834  39.130  11.367  1.00  0.00     0.050 C 
HETATM   18  C20 UNL     1      21.929  37.794   9.756  1.00  0.00     0.163 C 
ENDROOT
BRANCH  15  19
HETATM   19  C15 UNL     1      17.500  36.908   9.229  1.00  0.00     0.121 C 
HETATM   20  N4  UNL     1      16.327  37.589   9.522  1.00  0.00    -0.085 NA
HETATM   21  N5  UNL     1      17.579  36.184   8.200  1.00  0.00    -0.257 N 
ATOM     22  H5  UNL     1      18.479  35.714   8.109  1.00  0.00     0.195 HD
BRANCH  21  23
HETATM   23  O6  UNL     1      16.736  35.899   7.203  1.00  0.00    -0.278 OA
BRANCH  23  24
HETATM   24  C16 UNL     1      15.948  34.706   7.383  1.00  0.00     0.228 C 
BRANCH  24  25
HETATM   25  C17 UNL     1      14.517  35.075   7.033  1.00  0.00     0.258 C 
BRANCH  25  26
HETATM   26  N6  UNL     1      14.086  36.160   7.861  1.00  0.00    -0.077 N 
ATOM     27  H63 UNL     1      14.844  36.532   8.433  1.00  0.00     0.274 HD
ATOM     28  H62 UNL     1      13.885  37.000   7.319  1.00  0.00     0.274 HD
ATOM     29  H61 UNL     1      13.288  35.864   8.424  1.00  0.00     0.274 HD
ENDBRANCH  25  26
ENDBRANCH  24  25
ENDBRANCH  23  24
ENDBRANCH  21  23
ENDBRANCH  15  19
BRANCH  16  30
HETATM   30  O7  UNL     1      18.556  38.917   9.182  1.00  0.00    -0.386 OA
ATOM     31  H7  UNL     1      18.631  38.350   8.423  1.00  0.00     0.210 HD
ENDBRANCH  16  30
BRANCH   1  32
HETATM   32  C2  UNL     1      20.606  39.739   8.886  1.00  0.00     0.293 C 
HETATM   33  O2  UNL     1      20.660  40.989   9.061  1.00  0.00    -0.262 OA
BRANCH  32  34
HETATM   34  O1  UNL     1      20.362  39.477   7.527  1.00  0.00    -0.324 OA
HETATM   35  C1  UNL     1      20.462  40.471   6.533  1.00  0.00     0.213 C 
ENDBRANCH  32  34
ENDBRANCH   1  32
BRANCH  18  36
HETATM   36  O8  UNL     1      21.703  36.485   9.433  1.00  0.00    -0.381 OA
ATOM     37  H8  UNL     1      22.241  35.827   9.858  1.00  0.00     0.211 HD
ENDBRANCH  18  36
BRANCH  18  38
HETATM   38  C21 UNL     1      22.990  38.169   8.750  1.00  0.00     0.357 C 
BRANCH  38  39
HETATM   39  N7  UNL     1      23.293  39.574   8.581  1.00  0.00    -0.050 N 
ATOM     40  H73 UNL     1      23.546  39.749   7.608  1.00  0.00     0.277 HD
ATOM     41  H72 UNL     1      22.432  40.115   8.656  1.00  0.00     0.277 HD
ATOM     42  H71 UNL     1      24.001  39.983   9.190  1.00  0.00     0.277 HD
ENDBRANCH  38  39
BRANCH  38  43
HETATM   43  O9  UNL     1      22.906  37.501   7.538  1.00  0.00    -0.362 OA
HETATM   44  C22 UNL     1      23.519  38.189   6.527  1.00  0.00     0.204 C 
ENDBRANCH  38  43
ENDBRANCH  18  38
BRANCH  10  45
HETATM   45  C10 UNL     1      21.924  36.817  15.983  1.00  0.00     0.279 C 
BRANCH  45  46
HETATM   46  N2  UNL     1      21.500  35.836  16.917  1.00  0.00    -0.066 N 
ATOM     47  H23 UNL     1      21.149  35.017  16.422  1.00  0.00     0.275 HD
ATOM     48  H22 UNL     1      22.310  35.433  17.387  1.00  0.00     0.275 HD
ATOM     49  H21 UNL     1      20.816  36.143  17.608  1.00  0.00     0.275 HD
ENDBRANCH  45  46
BRANCH  45  50
HETATM   50  C11 UNL     1      23.290  37.274  16.348  1.00  0.00     0.262 C 
HETATM   51  N3  UNL     1      23.466  38.558  16.958  1.00  0.00    -0.060 NA
HETATM   52  O5  UNL     1      24.336  36.605  16.154  1.00  0.00    -0.275 OA
ENDBRANCH  45  50
ENDBRANCH  10  45
BRANCH   9  53
HETATM   53  O4  UNL     1      21.957  38.711  13.919  1.00  0.00    -0.395 OA
ATOM     54  H4  UNL     1      22.502  39.202  14.523  1.00  0.00     0.210 HD
ENDBRANCH   9  53
TORSDOF 16
ENDMDL
MODEL 2
REMARK VINA RESULT: -5.445344441      2.010      2.305
REMARK  16 active torsions:
REMARK  status: ('A' for Active; 'I' for Inactive)
REMARK    1  A    between atoms: O1_2  and  C2_3 
REMARK    2  A    between atoms: C2_3  and  C3_5 
REMARK    3  A    between atoms: C8_13  and  O4_14 
REMARK    4  A    between atoms: C9_16  and  C10_17 
REMARK    5  A    between atoms: C10_17  and  N2_18 
REMARK    6  A    between atoms: C10_17  and  C11_22 
REMARK    7  A    between atoms: C14_29  and  C15_30 
REMARK    8  A    between atoms: N5_32  and  O6_34 
REMARK    9  A    between atoms: O6_34  and  C16_35 
REMARK   10  A    between atoms: C16_35  and  C17_36 
REMARK   11  A    between atoms: C17_36  and  N6_37 
REMARK   12  A    between atoms: C18_41  and  O7_43 
REMARK   13  A    between atoms: C20_45  and  O8_46 
REMARK   14  A    between atoms: C20_45  and  C21_48 
REMARK   15  A    between atoms: C21_48  and  N7_49 
REMARK   16  A    between atoms: C21_48  and  O9_53 
ROOT
HETATM    1  C3  UNL     1      20.678  38.421   8.129  1.00  0.00     0.189 C 
HETATM    2  N1  UNL     1      20.665  39.643   8.981  1.00  0.00    -0.337 N 
ATOM      3  H1  UNL     1      19.908  40.326   8.957  1.00  0.00     0.164 HD
HETATM    4  C4  UNL     1      21.783  39.775   9.820  1.00  0.00     0.230 C 
HETATM    5  O3  UNL     1      22.310  40.819  10.308  1.00  0.00    -0.273 OA
HETATM    6  C5  UNL     1      22.237  38.382  10.040  1.00  0.00     0.078 C 
HETATM    7  C6  UNL     1      23.614  38.199  10.515  1.00  0.00     0.029 C 
HETATM    8  C7  UNL     1      21.377  37.779  11.082  1.00  0.00     0.054 C 
HETATM    9  C8  UNL     1      21.120  38.654  12.283  1.00  0.00     0.126 C 
HETATM   10  C9  UNL     1      20.576  37.742  13.367  1.00  0.00     0.064 C 
HETATM   11  C12 UNL     1      19.659  36.654  12.829  1.00  0.00     0.096 C 
HETATM   12  S1  UNL     1      18.050  37.205  12.347  1.00  0.00    -0.097 SA
HETATM   13  S2  UNL     1      17.330  36.495  10.496  1.00  0.00    -0.097 SA
HETATM   14  C13 UNL     1      18.477  35.677   9.464  1.00  0.00     0.101 C 
HETATM   15  C14 UNL     1      19.096  36.303   8.299  1.00  0.00     0.099 C 
HETATM   16  C18 UNL     1      19.399  37.705   8.135  1.00  0.00     0.103 C 
HETATM   17  C19 UNL     1      18.324  38.638   8.729  1.00  0.00     0.050 C 
HETATM   18  C20 UNL     1      21.986  37.909   8.585  1.00  0.00     0.163 C 
ENDROOT
BRANCH  15  19
HETATM   19  C15 UNL     1      18.297  35.686   7.125  1.00  0.00     0.121 C 
HETATM   20  N4  UNL     1      18.911  35.141   6.006  1.00  0.00    -0.085 NA
HETATM   21  N5  UNL     1      17.039  35.733   7.205  1.00  0.00    -0.257 N 
ATOM     22  H5  UNL     1      16.710  36.181   8.060  1.00  0.00     0.195 HD
BRANCH  21  23
HETATM   23  O6  UNL     1      16.046  35.323   6.412  1.00  0.00    -0.278 OA
BRANCH  23  24
HETATM   24  C16 UNL     1      15.081  34.451   7.032  1.00  0.00     0.228 C 
BRANCH  24  25
HETATM   25  C17 UNL     1      14.407  35.259   8.127  1.00  0.00     0.258 C 
BRANCH  25  26
HETATM   26  N6  UNL     1      13.553  36.244   7.538  1.00  0.00    -0.077 N 
ATOM     27  H63 UNL     1      13.378  37.028   8.168  1.00  0.00     0.274 HD
ATOM     28  H62 UNL     1      14.018  36.759   6.791  1.00  0.00     0.274 HD
ATOM     29  H61 UNL     1      12.689  35.803   7.222  1.00  0.00     0.274 HD
ENDBRANCH  25  26
ENDBRANCH  24  25
ENDBRANCH  23  24
ENDBRANCH  21  23
ENDBRANCH  15  19
BRANCH  16  30
HETATM   30  O7  UNL     1      18.892  37.842   6.743  1.00  0.00    -0.386 OA
ATOM     31  H7  UNL     1      17.947  37.800   6.830  1.00  0.00     0.210 HD
ENDBRANCH  16  30
BRANCH   1  32
HETATM   32  C2  UNL     1      20.714  39.126   6.799  1.00  0.00     0.293 C 
HETATM   33  O2  UNL     1      21.064  38.640   5.687  1.00  0.00    -0.262 OA
BRANCH  32  34
HETATM   34  O1  UNL     1      20.367  40.476   6.621  1.00  0.00    -0.324 OA
HETATM   35  C1  UNL     1      20.979  41.294   5.650  1.00  0.00     0.213 C 
ENDBRANCH  32  34
ENDBRANCH   1  32
BRANCH  18  36
HETATM   36  O8  UNL     1      22.147  36.552   8.646  1.00  0.00    -0.381 OA
ATOM     37  H8  UNL     1      22.720  36.148   8.004  1.00  0.00     0.211 HD
ENDBRANCH  18  36
BRANCH  18  38
HETATM   38  C21 UNL     1      23.243  38.324   7.859  1.00  0.00     0.357 C 
BRANCH  38  39
HETATM   39  N7  UNL     1      23.317  39.680   7.360  1.00  0.00    -0.050 N 
ATOM     40  H73 UNL     1      22.751  39.758   6.515  1.00  0.00     0.277 HD
ATOM     41  H72 UNL     1      22.807  40.298   7.990  1.00  0.00     0.277 HD
ATOM     42  H71 UNL     1      24.242  40.070   7.181  1.00  0.00     0.277 HD
ENDBRANCH  38  39
BRANCH  38  43
HETATM   43  O9  UNL     1      23.719  37.400   6.942  1.00  0.00    -0.362 OA
HETATM   44  C22 UNL     1      24.532  37.976   6.005  1.00  0.00     0.204 C 
ENDBRANCH  38  43
ENDBRANCH  18  38
BRANCH  10  45
HETATM   45  C10 UNL     1      19.944  38.475  14.521  1.00  0.00     0.279 C 
BRANCH  45  46
HETATM   46  N2  UNL     1      19.416  37.664  15.559  1.00  0.00    -0.066 N 
ATOM     47  H23 UNL     1      20.022  36.858  15.711  1.00  0.00     0.275 HD
ATOM     48  H22 UNL     1      19.517  38.140  16.456  1.00  0.00     0.275 HD
ATOM     49  H21 UNL     1      18.453  37.354  15.438  1.00  0.00     0.275 HD
ENDBRANCH  45  46
BRANCH  45  50
HETATM   50  C11 UNL     1      20.972  39.383  15.092  1.00  0.00     0.262 C 
HETATM   51  N3  UNL     1      22.129  38.827  15.729  1.00  0.00    -0.060 NA
HETATM   52  O5  UNL     1      20.904  40.637  15.064  1.00  0.00    -0.275 OA
ENDBRANCH  45  50
ENDBRANCH  10  45
BRANCH   9  53
HETATM   53  O4  UNL     1      20.347  39.753  12.061  1.00  0.00    -0.395 OA
ATOM     54  H4  UNL     1      19.774  40.008  12.775  1.00  0.00     0.210 HD
ENDBRANCH   9  53
TORSDOF 16
ENDMDL
MODEL 3
REMARK VINA RESULT: -5.298403189      3.062      5.256
REMARK  16 active torsions:
REMARK  status: ('A' for Active; 'I' for Inactive)
REMARK    1  A    between atoms: O1_2  and  C2_3 
REMARK    2  A    between atoms: C2_3  and  C3_5 
REMARK    3  A    between atoms: C8_13  and  O4_14 
REMARK    4  A    between atoms: C9_16  and  C10_17 
REMARK    5  A    between atoms: C10_17  and  N2_18 
REMARK    6  A    between atoms: C10_17  and  C11_22 
REMARK    7  A    between atoms: C14_29  and  C15_30 
REMARK    8  A    between atoms: N5_32  and  O6_34 
REMARK    9  A    between atoms: O6_34  and  C16_35 
REMARK   10  A    between atoms: C16_35  and  C17_36 
REMARK   11  A    between atoms: C17_36  and  N6_37 
REMARK   12  A    between atoms: C18_41  and  O7_43 
REMARK   13  A    between atoms: C20_45  and  O8_46 
REMARK   14  A    between atoms: C20_45  and  C21_48 
REMARK   15  A    between atoms: C21_48  and  N7_49 
REMARK   16  A    between atoms: C21_48  and  O9_53 
ROOT
HETATM    1  C3  UNL     1      20.621  37.269  11.327  1.00  0.00     0.189 C 
HETATM    2  N1  UNL     1      21.968  37.707  11.787  1.00  0.00    -0.337 N 
ATOM      3  H1  UNL     1      22.808  37.599  11.219  1.00  0.00     0.164 HD
HETATM    4  C4  UNL     1      21.986  38.280  13.069  1.00  0.00     0.230 C 
HETATM    5  O3  UNL     1      22.926  38.344  13.915  1.00  0.00    -0.273 OA
HETATM    6  C5  UNL     1      20.621  38.833  13.235  1.00  0.00     0.078 C 
HETATM    7  C6  UNL     1      20.183  39.118  14.607  1.00  0.00     0.029 C 
HETATM    8  C7  UNL     1      20.562  40.130  12.525  1.00  0.00     0.054 C 
HETATM    9  C8  UNL     1      21.743  41.038  12.755  1.00  0.00     0.126 C 
HETATM   10  C9  UNL     1      21.320  42.417  12.284  1.00  0.00     0.064 C 
HETATM   11  C12 UNL     1      20.435  42.381  11.047  1.00  0.00     0.096 C 
HETATM   12  S1  UNL     1      21.278  42.016   9.537  1.00  0.00    -0.097 SA
HETATM   13  S2  UNL     1      20.363  40.601   8.269  1.00  0.00    -0.097 SA
HETATM   14  C13 UNL     1      19.027  39.695   8.934  1.00  0.00     0.101 C 
HETATM   15  C14 UNL     1      19.143  38.313   9.392  1.00  0.00     0.099 C 
HETATM   16  C18 UNL     1      20.318  37.691   9.957  1.00  0.00     0.103 C 
HETATM   17  C19 UNL     1      21.632  38.139   9.286  1.00  0.00     0.050 C 
HETATM   18  C20 UNL     1      19.892  37.646  12.555  1.00  0.00     0.163 C 
ENDROOT
BRANCH  15  19
HETATM   19  C15 UNL     1      18.505  37.519   8.227  1.00  0.00     0.121 C 
HETATM   20  N4  UNL     1      18.937  37.640   6.913  1.00  0.00    -0.085 NA
HETATM   21  N5  UNL     1      17.529  36.773   8.513  1.00  0.00    -0.257 N 
ATOM     22  H5  UNL     1      17.289  36.791   9.504  1.00  0.00     0.195 HD
BRANCH  21  23
HETATM   23  O6  UNL     1      16.743  35.964   7.798  1.00  0.00    -0.278 OA
BRANCH  23  24
HETATM   24  C16 UNL     1      15.768  35.221   8.556  1.00  0.00     0.228 C 
BRANCH  24  25
HETATM   25  C17 UNL     1      14.541  35.086   7.672  1.00  0.00     0.258 C 
BRANCH  25  26
HETATM   26  N6  UNL     1      13.739  36.267   7.784  1.00  0.00    -0.077 N 
ATOM     27  H63 UNL     1      12.775  36.054   8.041  1.00  0.00     0.274 HD
ATOM     28  H62 UNL     1      13.988  36.825   8.600  1.00  0.00     0.274 HD
ATOM     29  H61 UNL     1      13.798  36.802   6.917  1.00  0.00     0.274 HD
ENDBRANCH  25  26
ENDBRANCH  24  25
ENDBRANCH  23  24
ENDBRANCH  21  23
ENDBRANCH  15  19
BRANCH  16  30
HETATM   30  O7  UNL     1      20.242  36.420   9.187  1.00  0.00    -0.386 OA
ATOM     31  H7  UNL     1      20.039  36.692   8.300  1.00  0.00     0.210 HD
ENDBRANCH  16  30
BRANCH   1  32
HETATM   32  C2  UNL     1      20.935  35.801  11.214  1.00  0.00     0.293 C 
HETATM   33  O2  UNL     1      22.077  35.262  11.222  1.00  0.00    -0.262 OA
BRANCH  32  34
HETATM   34  O1  UNL     1      19.958  34.803  11.057  1.00  0.00    -0.324 OA
HETATM   35  C1  UNL     1      20.281  33.435  10.958  1.00  0.00     0.213 C 
ENDBRANCH  32  34
ENDBRANCH   1  32
BRANCH  18  36
HETATM   36  O8  UNL     1      18.604  38.084  12.417  1.00  0.00    -0.381 OA
ATOM     37  H8  UNL     1      18.399  38.955  12.737  1.00  0.00     0.211 HD
ENDBRANCH  18  36
BRANCH  18  38
HETATM   38  C21 UNL     1      19.743  36.640  13.672  1.00  0.00     0.357 C 
BRANCH  38  39
HETATM   39  N7  UNL     1      20.836  35.720  13.901  1.00  0.00    -0.050 N 
ATOM     40  H73 UNL     1      20.680  35.225  14.779  1.00  0.00     0.277 HD
ATOM     41  H72 UNL     1      20.773  34.951  13.233  1.00  0.00     0.277 HD
ATOM     42  H71 UNL     1      21.784  36.097  13.891  1.00  0.00     0.277 HD
ENDBRANCH  38  39
BRANCH  38  43
HETATM   43  O9  UNL     1      18.508  36.014  13.732  1.00  0.00    -0.362 OA
HETATM   44  C22 UNL     1      18.619  34.687  14.043  1.00  0.00     0.204 C 
ENDBRANCH  38  43
ENDBRANCH  18  38
BRANCH  10  45
HETATM   45  C10 UNL     1      22.464  43.383  12.117  1.00  0.00     0.279 C 
BRANCH  45  46
HETATM   46  N2  UNL     1      22.199  44.529  11.322  1.00  0.00    -0.066 N 
ATOM     47  H23 UNL     1      23.019  45.134  11.303  1.00  0.00     0.275 HD
ATOM     48  H22 UNL     1      22.143  44.263  10.339  1.00  0.00     0.275 HD
ATOM     49  H21 UNL     1      21.375  45.072  11.581  1.00  0.00     0.275 HD
ENDBRANCH  45  46
BRANCH  45  50
HETATM   50  C11 UNL     1      22.881  43.821  13.473  1.00  0.00     0.262 C 
HETATM   51  N3  UNL     1      21.888  44.230  14.420  1.00  0.00    -0.060 NA
HETATM   52  O5  UNL     1      24.074  43.867  13.867  1.00  0.00    -0.275 OA
ENDBRANCH  45  50
ENDBRANCH  10  45
BRANCH   9  53
HETATM   53  O4  UNL     1      22.925  40.622  12.219  1.00  0.00    -0.395 OA
ATOM     54  H4  UNL     1      23.032  40.770  11.287  1.00  0.00     0.210 HD
ENDBRANCH   9  53
TORSDOF 16
ENDMDL
MODEL 4
REMARK VINA RESULT: -5.228796453      2.021      2.669
REMARK  16 active torsions:
REMARK  status: ('A' for Active; 'I' for Inactive)
REMARK    1  A    between atoms: O1_2  and  C2_3 
REMARK    2  A    between atoms: C2_3  and  C3_5 
REMARK    3  A    between atoms: C8_13  and  O4_14 
REMARK    4  A    between atoms: C9_16  and  C10_17 
REMARK    5  A    between atoms: C10_17  and  N2_18 
REMARK    6  A    between atoms: C10_17  and  C11_22 
REMARK    7  A    between atoms: C14_29  and  C15_30 
REMARK    8  A    between atoms: N5_32  and  O6_34 
REMARK    9  A    between atoms: O6_34  and  C16_35 
REMARK   10  A    between atoms: C16_35  and  C17_36 
REMARK   11  A    between atoms: C17_36  and  N6_37 
REMARK   12  A    between atoms: C18_41  and  O7_43 
REMARK   13  A    between atoms: C20_45  and  O8_46 
REMARK   14  A    between atoms: C20_45  and  C21_48 
REMARK   15  A    between atoms: C21_48  and  N7_49 
REMARK   16  A    between atoms: C21_48  and  O9_53 
ROOT
HETATM    1  C3  UNL     1      19.901  37.469  11.820  1.00  0.00     0.189 C 
HETATM    2  N1  UNL     1      19.995  38.464  12.924  1.00  0.00    -0.337 N 
ATOM      3  H1  UNL     1      19.200  38.715  13.512  1.00  0.00     0.164 HD
HETATM    4  C4  UNL     1      21.270  39.030  13.088  1.00  0.00     0.230 C 
HETATM    5  O3  UNL     1      21.602  40.152  13.573  1.00  0.00    -0.273 OA
HETATM    6  C5  UNL     1      22.193  37.995  12.564  1.00  0.00     0.078 C 
HETATM    7  C6  UNL     1      23.546  38.436  12.202  1.00  0.00     0.029 C 
HETATM    8  C7  UNL     1      22.381  36.973  13.618  1.00  0.00     0.054 C 
HETATM    9  C8  UNL     1      22.617  37.519  15.003  1.00  0.00     0.126 C 
HETATM   10  C9  UNL     1      23.162  36.369  15.829  1.00  0.00     0.064 C 
HETATM   11  C12 UNL     1      22.529  35.030  15.481  1.00  0.00     0.096 C 
HETATM   12  S1  UNL     1      20.880  34.807  16.078  1.00  0.00    -0.097 SA
HETATM   13  S2  UNL     1      19.487  34.007  14.712  1.00  0.00    -0.097 SA
HETATM   14  C13 UNL     1      19.986  33.911  13.041  1.00  0.00     0.101 C 
HETATM   15  C14 UNL     1      19.541  34.851  12.016  1.00  0.00     0.099 C 
HETATM   16  C18 UNL     1      19.203  36.242  12.214  1.00  0.00     0.103 C 
HETATM   17  C19 UNL     1      18.459  36.510  13.537  1.00  0.00     0.050 C 
HETATM   18  C20 UNL     1      21.301  37.588  11.364  1.00  0.00     0.163 C 
ENDROOT
BRANCH  15  19
HETATM   19  C15 UNL     1      18.461  34.038  11.263  1.00  0.00     0.121 C 
HETATM   20  N4  UNL     1      17.394  33.431  11.909  1.00  0.00    -0.085 NA
HETATM   21  N5  UNL     1      18.611  33.909  10.017  1.00  0.00    -0.257 N 
ATOM     22  H5  UNL     1      19.446  34.377   9.664  1.00  0.00     0.195 HD
BRANCH  21  23
HETATM   23  O6  UNL     1      17.911  33.293   9.060  1.00  0.00    -0.278 OA
BRANCH  23  24
HETATM   24  C16 UNL     1      16.642  33.895   8.739  1.00  0.00     0.228 C 
BRANCH  24  25
HETATM   25  C17 UNL     1      16.946  35.255   8.135  1.00  0.00     0.258 C 
BRANCH  25  26
HETATM   26  N6  UNL     1      16.163  36.257   8.790  1.00  0.00    -0.077 N 
ATOM     27  H63 UNL     1      15.387  36.579   8.210  1.00  0.00     0.274 HD
ATOM     28  H62 UNL     1      15.618  35.875   9.563  1.00  0.00     0.274 HD
ATOM     29  H61 UNL     1      16.767  37.023   9.086  1.00  0.00     0.274 HD
ENDBRANCH  25  26
ENDBRANCH  24  25
ENDBRANCH  23  24
ENDBRANCH  21  23
ENDBRANCH  15  19
BRANCH  16  30
HETATM   30  O7  UNL     1      17.959  36.247  11.397  1.00  0.00    -0.386 OA
ATOM     31  H7  UNL     1      17.257  36.300  12.036  1.00  0.00     0.210 HD
ENDBRANCH  16  30
BRANCH   1  32
HETATM   32  C2  UNL     1      18.905  38.222  10.979  1.00  0.00     0.293 C 
HETATM   33  O2  UNL     1      18.133  39.147  11.357  1.00  0.00    -0.262 OA
BRANCH  32  34
HETATM   34  O1  UNL     1      18.682  37.967   9.616  1.00  0.00    -0.324 OA
HETATM   35  C1  UNL     1      18.212  38.954   8.727  1.00  0.00     0.213 C 
ENDBRANCH  32  34
ENDBRANCH   1  32
BRANCH  18  36
HETATM   36  O8  UNL     1      21.903  36.463  10.871  1.00  0.00    -0.381 OA
ATOM     37  H8  UNL     1      22.837  36.504  10.701  1.00  0.00     0.211 HD
ENDBRANCH  18  36
BRANCH  18  38
HETATM   38  C21 UNL     1      21.655  38.602  10.304  1.00  0.00     0.357 C 
BRANCH  38  39
HETATM   39  N7  UNL     1      20.987  39.885  10.347  1.00  0.00    -0.050 N 
ATOM     40  H73 UNL     1      20.623  40.106   9.421  1.00  0.00     0.277 HD
ATOM     41  H72 UNL     1      20.120  39.795  10.878  1.00  0.00     0.277 HD
ATOM     42  H71 UNL     1      21.515  40.684  10.700  1.00  0.00     0.277 HD
ENDBRANCH  38  39
BRANCH  38  43
HETATM   43  O9  UNL     1      21.735  38.096   9.016  1.00  0.00    -0.362 OA
HETATM   44  C22 UNL     1      21.923  39.081   8.086  1.00  0.00     0.204 C 
ENDBRANCH  38  43
ENDBRANCH  18  38
BRANCH  10  45
HETATM   45  C10 UNL     1      23.142  36.620  17.314  1.00  0.00     0.279 C 
BRANCH  45  46
HETATM   46  N2  UNL     1      23.387  35.490  18.138  1.00  0.00    -0.066 N 
ATOM     47  H23 UNL     1      22.504  35.122  18.491  1.00  0.00     0.275 HD
ATOM     48  H22 UNL     1      23.698  34.705  17.567  1.00  0.00     0.275 HD
ATOM     49  H21 UNL     1      24.035  35.633  18.912  1.00  0.00     0.275 HD
ENDBRANCH  45  46
BRANCH  45  50
HETATM   50  C11 UNL     1      24.160  37.661  17.606  1.00  0.00     0.262 C 
HETATM   51  N3  UNL     1      23.748  39.021  17.785  1.00  0.00    -0.060 NA
HETATM   52  O5  UNL     1      25.393  37.438  17.708  1.00  0.00    -0.275 OA
ENDBRANCH  45  50
ENDBRANCH  10  45
BRANCH   9  53
HETATM   53  O4  UNL     1      21.554  38.146  15.582  1.00  0.00    -0.395 OA
ATOM     54  H4  UNL     1      21.738  38.988  15.982  1.00  0.00     0.210 HD
ENDBRANCH   9  53
TORSDOF 16
ENDMDL
MODEL 5
REMARK VINA RESULT: -5.111409984      2.880      7.773
REMARK  16 active torsions:
REMARK  status: ('A' for Active; 'I' for Inactive)
REMARK    1  A    between atoms: O1_2  and  C2_3 
REMARK    2  A    between atoms: C2_3  and  C3_5 
REMARK    3  A    between atoms: C8_13  and  O4_14 
REMARK    4  A    between atoms: C9_16  and  C10_17 
REMARK    5  A    between atoms: C10_17  and  N2_18 
REMARK    6  A    between atoms: C10_17  and  C11_22 
REMARK    7  A    between atoms: C14_29  and  C15_30 
REMARK    8  A    between atoms: N5_32  and  O6_34 
REMARK    9  A    between atoms: O6_34  and  C16_35 
REMARK   10  A    between atoms: C16_35  and  C17_36 
REMARK   11  A    between atoms: C17_36  and  N6_37 
REMARK   12  A    between atoms: C18_41  and  O7_43 
REMARK   13  A    between atoms: C20_45  and  O8_46 
REMARK   14  A    between atoms: C20_45  and  C21_48 
REMARK   15  A    between atoms: C21_48  and  N7_49 
REMARK   16  A    between atoms: C21_48  and  O9_53 
ROOT
HETATM    1  C3  UNL     1      19.855  38.112  11.652  1.00  0.00     0.189 C 
HETATM    2  N1  UNL     1      18.448  38.496  11.351  1.00  0.00    -0.337 N 
ATOM      3  H1  UNL     1      18.199  39.383  10.913  1.00  0.00     0.164 HD
HETATM    4  C4  UNL     1      17.493  37.536  11.722  1.00  0.00     0.230 C 
HETATM    5  O3  UNL     1      16.271  37.684  12.024  1.00  0.00    -0.273 OA
HETATM    6  C5  UNL     1      18.233  36.254  11.673  1.00  0.00     0.078 C 
HETATM    7  C6  UNL     1      17.650  35.122  12.406  1.00  0.00     0.029 C 
HETATM    8  C7  UNL     1      18.300  35.816  10.261  1.00  0.00     0.054 C 
HETATM    9  C8  UNL     1      17.008  35.935   9.494  1.00  0.00     0.126 C 
HETATM   10  C9  UNL     1      17.176  35.096   8.241  1.00  0.00     0.064 C 
HETATM   11  C12 UNL     1      18.582  35.163   7.660  1.00  0.00     0.096 C 
HETATM   12  S1  UNL     1      18.972  36.670   6.824  1.00  0.00    -0.097 SA
HETATM   13  S2  UNL     1      20.843  37.534   7.269  1.00  0.00    -0.097 SA
HETATM   14  C13 UNL     1      21.716  36.869   8.628  1.00  0.00     0.101 C 
HETATM   15  C14 UNL     1      21.782  37.518   9.934  1.00  0.00     0.099 C 
HETATM   16  C18 UNL     1      20.768  38.354  10.531  1.00  0.00     0.103 C 
HETATM   17  C19 UNL     1      20.057  39.274   9.518  1.00  0.00     0.050 C 
HETATM   18  C20 UNL     1      19.545  36.812  12.281  1.00  0.00     0.163 C 
ENDROOT
BRANCH  15  19
HETATM   19  C15 UNL     1      23.196  38.148   9.922  1.00  0.00     0.121 C 
HETATM   20  N4  UNL     1      23.590  39.086   8.979  1.00  0.00    -0.085 NA
HETATM   21  N5  UNL     1      24.009  37.739  10.796  1.00  0.00    -0.257 N 
ATOM     22  H5  UNL     1      23.611  37.031  11.412  1.00  0.00     0.195 HD
BRANCH  21  23
HETATM   23  O6  UNL     1      25.279  38.034  11.087  1.00  0.00    -0.278 OA
BRANCH  23  24
HETATM   24  C16 UNL     1      26.251  37.052  10.676  1.00  0.00     0.228 C 
BRANCH  24  25
HETATM   25  C17 UNL     1      26.884  37.577   9.399  1.00  0.00     0.258 C 
BRANCH  25  26
HETATM   26  N6  UNL     1      26.834  39.007   9.393  1.00  0.00    -0.077 N 
ATOM     27  H63 UNL     1      27.075  39.397   8.481  1.00  0.00     0.274 HD
ATOM     28  H62 UNL     1      25.879  39.359   9.455  1.00  0.00     0.274 HD
ATOM     29  H61 UNL     1      27.429  39.372  10.137  1.00  0.00     0.274 HD
ENDBRANCH  25  26
ENDBRANCH  24  25
ENDBRANCH  23  24
ENDBRANCH  21  23
ENDBRANCH  15  19
BRANCH  16  30
HETATM   30  O7  UNL     1      21.676  39.427  11.019  1.00  0.00    -0.386 OA
ATOM     31  H7  UNL     1      22.421  38.959  11.380  1.00  0.00     0.210 HD
ENDBRANCH  16  30
BRANCH   1  32
HETATM   32  C2  UNL     1      20.144  39.223  12.626  1.00  0.00     0.293 C 
HETATM   33  O2  UNL     1      19.509  40.307  12.757  1.00  0.00    -0.262 OA
BRANCH  32  34
HETATM   34  O1  UNL     1      21.213  39.205  13.538  1.00  0.00    -0.324 OA
HETATM   35  C1  UNL     1      21.147  39.833  14.797  1.00  0.00     0.213 C 
ENDBRANCH  32  34
ENDBRANCH   1  32
BRANCH  18  36
HETATM   36  O8  UNL     1      20.446  35.797  12.112  1.00  0.00    -0.381 OA
ATOM     37  H8  UNL     1      20.581  35.202  12.841  1.00  0.00     0.211 HD
ENDBRANCH  18  36
BRANCH  18  38
HETATM   38  C21 UNL     1      19.299  36.744  13.769  1.00  0.00     0.357 C 
BRANCH  38  39
HETATM   39  N7  UNL     1      18.574  37.835  14.383  1.00  0.00    -0.050 N 
ATOM     40  H73 UNL     1      17.582  37.747  14.160  1.00  0.00     0.277 HD
ATOM     41  H72 UNL     1      18.556  37.699  15.394  1.00  0.00     0.277 HD
ATOM     42  H71 UNL     1      18.881  38.785  14.177  1.00  0.00     0.277 HD
ENDBRANCH  38  39
BRANCH  38  43
HETATM   43  O9  UNL     1      20.393  36.350  14.524  1.00  0.00    -0.362 OA
HETATM   44  C22 UNL     1      20.048  36.047  15.812  1.00  0.00     0.204 C 
ENDBRANCH  38  43
ENDBRANCH  18  38
BRANCH  10  45
HETATM   45  C10 UNL     1      16.131  35.355   7.187  1.00  0.00     0.279 C 
BRANCH  45  46
HETATM   46  N2  UNL     1      16.235  34.577   6.004  1.00  0.00    -0.066 N 
ATOM     47  H23 UNL     1      16.974  33.884   6.110  1.00  0.00     0.275 HD
ATOM     48  H22 UNL     1      15.422  33.967   5.919  1.00  0.00     0.275 HD
ATOM     49  H21 UNL     1      16.369  35.098   5.138  1.00  0.00     0.275 HD
ENDBRANCH  45  46
BRANCH  45  50
HETATM   50  C11 UNL     1      14.803  35.118   7.807  1.00  0.00     0.262 C 
HETATM   51  N3  UNL     1      13.860  36.194   7.890  1.00  0.00    -0.060 NA
HETATM   52  O5  UNL     1      14.428  34.017   8.282  1.00  0.00    -0.275 OA
ENDBRANCH  45  50
ENDBRANCH  10  45
BRANCH   9  53
HETATM   53  O4  UNL     1      16.582  37.204   9.243  1.00  0.00    -0.395 OA
ATOM     54  H4  UNL     1      15.860  37.285   8.630  1.00  0.00     0.210 HD
ENDBRANCH   9  53
TORSDOF 16
ENDMDL
