MODEL 1
REMARK VINA RESULT: -10.132794644      0.000      0.000
REMARK  14 active torsions:
REMARK  status: ('A' for Active; 'I' for Inactive)
REMARK    1  A    between atoms: C2_2  and  C3_3 
REMARK    2  A    between atoms: C3_3  and  S1_4 
REMARK    3  A    between atoms: S1_4  and  N1_7 
REMARK    4  A    between atoms: N1_7  and  C4_9 
REMARK    5  A    between atoms: C4_9  and  C5_10 
REMARK    6  A    between atoms: C5_10  and  N2_11 
REMARK    7  A    between atoms: C6_12  and  O3_13 
REMARK    8  A    between atoms: N3_16  and  C8_17 
REMARK    9  A    between atoms: C11_20  and  C12_21 
REMARK       I    between atoms: C12_21  and  N4_23 
REMARK   10  A    between atoms: N4_23  and  C13_25 
REMARK   11  A    between atoms: C18_38  and  N8_39 
REMARK   12  A    between atoms: C19_46  and  C20_47 
REMARK   13  A    between atoms: C20_47  and  O6_48 
REMARK   14  A    between atoms: O6_48  and  C21_49 
ROOT
HETATM    1  N1  UNL     1      23.721  44.398  17.125  1.00  0.00    -0.318 N 
ATOM      2  H1  UNL     1      24.140  43.607  17.615  1.00  0.00     0.172 HD
ENDROOT
BRANCH   1   3
HETATM    3  S1  UNL     1      23.294  44.436  15.414  1.00  0.00     0.230 S 
HETATM    4  O1  UNL     1      24.505  44.027  14.631  1.00  0.00    -0.206 OA
HETATM    5  O2  UNL     1      22.135  43.525  15.248  1.00  0.00    -0.206 OA
BRANCH   3   6
HETATM    6  C3  UNL     1      22.914  46.116  14.988  1.00  0.00     0.223 C 
BRANCH   6   7
HETATM    7  C2  UNL     1      22.958  46.353  13.483  1.00  0.00     0.210 C 
HETATM    8  C1  UNL     1      22.542  47.775  13.237  1.00  0.00     0.072 C 
HETATM    9  N7  UNL     1      24.298  46.043  13.089  1.00  0.00    -0.342 N 
HETATM   10  C18 UNL     1      24.535  45.686  11.747  1.00  0.00     0.483 C 
ATOM     11  H7  UNL     1      25.062  46.080  13.763  1.00  0.00     0.159 HD
HETATM   12  N9  UNL     1      23.365  45.232  11.004  1.00  0.00     0.002 N 
HETATM   13  C19 UNL     1      22.528  44.568  11.946  1.00  0.00     0.414 C 
ATOM     14  H92 UNL     1      22.892  45.981  10.498  1.00  0.00     0.284 HD
ATOM     15  H91 UNL     1      23.597  44.660  10.193  1.00  0.00     0.284 HD
HETATM   16  N12 UNL     1      21.965  45.462  12.932  1.00  0.00    -0.017 N 
ATOM     17 2H12 UNL     1      21.482  44.946  13.667  1.00  0.00     0.282 HD
ATOM     18 1H12 UNL     1      21.172  45.980  12.553  1.00  0.00     0.282 HD
BRANCH  10  19
HETATM   19  N8  UNL     1      25.571  44.699  11.659  1.00  0.00    -0.033 N 
ATOM     20  H83 UNL     1      25.763  44.439  10.692  1.00  0.00     0.278 HD
ATOM     21  H82 UNL     1      26.484  45.087  11.898  1.00  0.00     0.278 HD
ATOM     22  H81 UNL     1      25.346  43.886  12.232  1.00  0.00     0.278 HD
ENDBRANCH  10  19
BRANCH  13  23
HETATM   23  C20 UNL     1      21.524  43.645  11.343  1.00  0.00     0.241 C 
BRANCH  23  24
HETATM   24  O6  UNL     1      22.001  42.449  10.823  1.00  0.00    -0.321 OA
BRANCH  24  25
HETATM   25  C21 UNL     1      22.636  41.466  11.541  1.00  0.00     0.225 C 
HETATM   26  N10 UNL     1      22.008  41.017  12.574  1.00  0.00    -0.368 N 
ATOM     27 2H10 UNL     1      21.093  41.405  12.802  1.00  0.00     0.159 HD
ATOM     28 1H10 UNL     1      22.479  40.287  13.106  1.00  0.00     0.159 HD
HETATM   29  N11 UNL     1      23.903  40.929  11.225  1.00  0.00    -0.057 NA
ENDBRANCH  24  25
ENDBRANCH  23  24
ENDBRANCH  13  23
ENDBRANCH   6   7
ENDBRANCH   3   6
ENDBRANCH   1   3
BRANCH   1  30
HETATM   30  C4  UNL     1      23.385  45.657  17.713  1.00  0.00     0.152 C 
BRANCH  30  31
HETATM   31  C5  UNL     1      24.520  46.235  18.482  1.00  0.00     0.156 C 
BRANCH  31  32
HETATM   32  N2  UNL     1      24.831  45.422  19.633  1.00  0.00    -0.277 N 
HETATM   33  C6  UNL     1      26.004  44.829  19.904  1.00  0.00     0.162 A 
HETATM   34  C7  UNL     1      25.871  44.151  21.099  1.00  0.00     0.158 A 
HETATM   35  N3  UNL     1      24.625  44.327  21.554  1.00  0.00    -0.271 N 
HETATM   36  C17 UNL     1      24.004  45.100  20.655  1.00  0.00     0.335 A 
HETATM   37  O5  UNL     1      22.815  45.500  20.710  1.00  0.00    -0.246 OA
BRANCH  33  38
HETATM   38  O3  UNL     1      27.166  44.873  19.136  1.00  0.00    -0.345 OA
ATOM     39  H3  UNL     1      27.842  45.540  19.156  1.00  0.00     0.219 HD
ENDBRANCH  33  38
BRANCH  35  40
HETATM   40  C8  UNL     1      24.098  43.777  22.757  1.00  0.00     0.043 A 
HETATM   41  C9  UNL     1      24.115  42.422  22.958  1.00  0.00     0.031 A 
HETATM   42  C10 UNL     1      23.577  41.959  24.156  1.00  0.00     0.019 A 
HETATM   43  C11 UNL     1      23.046  42.791  25.112  1.00  0.00     0.032 A 
HETATM   44  C15 UNL     1      23.055  44.135  24.861  1.00  0.00     0.019 A 
HETATM   45  C16 UNL     1      23.579  44.647  23.686  1.00  0.00     0.031 A 
BRANCH  43  46
HETATM   46  C12 UNL     1      22.490  42.243  26.350  1.00  0.00     0.257 C 
HETATM   47  O4  UNL     1      22.744  41.070  26.707  1.00  0.00    -0.267 OA
HETATM   48  N4  UNL     1      21.662  43.057  27.133  1.00  0.00    -0.302 N 
ATOM     49  H4  UNL     1      21.751  44.071  27.069  1.00  0.00     0.171 HD
BRANCH  48  50
HETATM   50  C13 UNL     1      20.772  42.537  27.950  1.00  0.00     0.167 A 
HETATM   51  N5  UNL     1      20.547  41.242  28.185  1.00  0.00    -0.279 N 
HETATM   52  N6  UNL     1      19.643  40.919  29.010  1.00  0.00    -0.303 N 
ATOM     53  H5  UNL     1      21.093  40.525  27.707  1.00  0.00     0.189 HD
HETATM   54  C14 UNL     1      18.934  41.853  29.631  1.00  0.00     0.160 A 
ATOM     55  H6  UNL     1      19.459  39.933  29.201  1.00  0.00     0.186 HD
HETATM   56  S2  UNL     1      19.621  43.278  28.976  1.00  0.00    -0.046 SA
ENDBRANCH  48  50
ENDBRANCH  43  46
ENDBRANCH  35  40
ENDBRANCH  31  32
ENDBRANCH  30  31
ENDBRANCH   1  30
TORSDOF 14
ENDMDL
MODEL 2
REMARK VINA RESULT: -10.067556810      2.678      4.058
REMARK  14 active torsions:
REMARK  status: ('A' for Active; 'I' for Inactive)
REMARK    1  A    between atoms: C2_2  and  C3_3 
REMARK    2  A    between atoms: C3_3  and  S1_4 
REMARK    3  A    between atoms: S1_4  and  N1_7 
REMARK    4  A    between atoms: N1_7  and  C4_9 
REMARK    5  A    between atoms: C4_9  and  C5_10 
REMARK    6  A    between atoms: C5_10  and  N2_11 
REMARK    7  A    between atoms: C6_12  and  O3_13 
REMARK    8  A    between atoms: N3_16  and  C8_17 
REMARK    9  A    between atoms: C11_20  and  C12_21 
REMARK       I    between atoms: C12_21  and  N4_23 
REMARK   10  A    between atoms: N4_23  and  C13_25 
REMARK   11  A    between atoms: C18_38  and  N8_39 
REMARK   12  A    between atoms: C19_46  and  C20_47 
REMARK   13  A    between atoms: C20_47  and  O6_48 
REMARK   14  A    between atoms: O6_48  and  C21_49 
ROOT
HETATM    1  N1  UNL     1      23.656  45.600  19.151  1.00  0.00    -0.318 N 
ATOM      2  H1  UNL     1      23.193  46.083  19.920  1.00  0.00     0.172 HD
ENDROOT
BRANCH   1   3
HETATM    3  S1  UNL     1      23.664  46.123  17.466  1.00  0.00     0.230 S 
HETATM    4  O1  UNL     1      22.306  46.678  17.154  1.00  0.00    -0.206 OA
HETATM    5  O2  UNL     1      24.762  47.112  17.336  1.00  0.00    -0.206 OA
BRANCH   3   6
HETATM    6  C3  UNL     1      23.909  44.686  16.454  1.00  0.00     0.223 C 
BRANCH   6   7
HETATM    7  C2  UNL     1      23.581  44.951  14.989  1.00  0.00     0.210 C 
HETATM    8  C1  UNL     1      24.605  44.231  14.160  1.00  0.00     0.072 C 
HETATM    9  N7  UNL     1      22.237  44.494  14.813  1.00  0.00    -0.342 N 
HETATM   10  C18 UNL     1      21.482  45.029  13.750  1.00  0.00     0.483 C 
ATOM     11  H7  UNL     1      21.835  43.798  15.442  1.00  0.00     0.159 HD
HETATM   12  N9  UNL     1      21.965  46.297  13.216  1.00  0.00     0.002 N 
HETATM   13  C19 UNL     1      22.540  46.998  14.314  1.00  0.00     0.414 C 
ATOM     14  H92 UNL     1      22.602  46.187  12.427  1.00  0.00     0.284 HD
ATOM     15  H91 UNL     1      21.248  46.829  12.725  1.00  0.00     0.284 HD
HETATM   16  N12 UNL     1      23.743  46.375  14.818  1.00  0.00    -0.017 N 
ATOM     17 2H12 UNL     1      24.057  46.818  15.680  1.00  0.00     0.282 HD
ATOM     18 1H12 UNL     1      24.546  46.588  14.226  1.00  0.00     0.282 HD
BRANCH  10  19
HETATM   19  N8  UNL     1      20.104  45.158  14.121  1.00  0.00    -0.033 N 
ATOM     20  H83 UNL     1      19.761  44.323  14.597  1.00  0.00     0.278 HD
ATOM     21  H82 UNL     1      19.977  45.830  14.878  1.00  0.00     0.278 HD
ATOM     22  H81 UNL     1      19.532  45.393  13.310  1.00  0.00     0.278 HD
ENDBRANCH  10  19
BRANCH  13  23
HETATM   23  C20 UNL     1      22.678  48.469  14.108  1.00  0.00     0.241 C 
BRANCH  23  24
HETATM   24  O6  UNL     1      21.565  49.251  14.385  1.00  0.00    -0.321 OA
BRANCH  24  25
HETATM   25  C21 UNL     1      20.526  48.894  15.208  1.00  0.00     0.225 C 
HETATM   26  N10 UNL     1      20.742  48.990  16.476  1.00  0.00    -0.368 N 
ATOM     27 2H10 UNL     1      21.652  49.319  16.798  1.00  0.00     0.159 HD
ATOM     28 1H10 UNL     1      19.970  48.725  17.086  1.00  0.00     0.159 HD
HETATM   29  N11 UNL     1      19.266  48.438  14.762  1.00  0.00    -0.057 NA
ENDBRANCH  24  25
ENDBRANCH  23  24
ENDBRANCH  13  23
ENDBRANCH   6   7
ENDBRANCH   3   6
ENDBRANCH   1   3
BRANCH   1  30
HETATM   30  C4  UNL     1      24.406  44.388  19.261  1.00  0.00     0.152 C 
BRANCH  30  31
HETATM   31  C5  UNL     1      25.386  44.437  20.379  1.00  0.00     0.156 C 
BRANCH  31  32
HETATM   32  N2  UNL     1      24.911  43.687  21.516  1.00  0.00    -0.277 N 
HETATM   33  C6  UNL     1      25.209  42.415  21.822  1.00  0.00     0.162 A 
HETATM   34  C7  UNL     1      24.544  42.090  22.987  1.00  0.00     0.158 A 
HETATM   35  N3  UNL     1      23.843  43.156  23.390  1.00  0.00    -0.271 N 
HETATM   36  C17 UNL     1      24.074  44.119  22.489  1.00  0.00     0.335 A 
HETATM   37  O5  UNL     1      23.601  45.282  22.503  1.00  0.00    -0.246 OA
BRANCH  33  38
HETATM   38  O3  UNL     1      26.039  41.552  21.109  1.00  0.00    -0.345 OA
ATOM     39  H3  UNL     1      26.939  41.325  21.310  1.00  0.00     0.219 HD
ENDBRANCH  33  38
BRANCH  35  40
HETATM   40  C8  UNL     1      23.019  43.214  24.550  1.00  0.00     0.043 A 
HETATM   41  C9  UNL     1      22.997  42.164  25.430  1.00  0.00     0.031 A 
HETATM   42  C10 UNL     1      22.162  42.291  26.537  1.00  0.00     0.019 A 
HETATM   43  C11 UNL     1      21.386  43.400  26.768  1.00  0.00     0.032 A 
HETATM   44  C15 UNL     1      21.446  44.420  25.860  1.00  0.00     0.019 A 
HETATM   45  C16 UNL     1      22.260  44.344  24.742  1.00  0.00     0.031 A 
BRANCH  43  46
HETATM   46  C12 UNL     1      20.524  43.472  27.950  1.00  0.00     0.257 C 
HETATM   47  O4  UNL     1      20.467  44.512  28.643  1.00  0.00    -0.267 OA
HETATM   48  N4  UNL     1      19.760  42.349  28.294  1.00  0.00    -0.302 N 
ATOM     49  H4  UNL     1      19.509  41.673  27.572  1.00  0.00     0.171 HD
BRANCH  48  50
HETATM   50  C13 UNL     1      19.360  42.151  29.531  1.00  0.00     0.167 A 
HETATM   51  N5  UNL     1      19.955  42.570  30.651  1.00  0.00    -0.279 N 
HETATM   52  N6  UNL     1      19.426  42.286  31.766  1.00  0.00    -0.303 N 
ATOM     53  H5  UNL     1      20.820  43.108  30.610  1.00  0.00     0.189 HD
HETATM   54  C14 UNL     1      18.300  41.586  31.817  1.00  0.00     0.160 A 
ATOM     55  H6  UNL     1      19.868  42.599  32.631  1.00  0.00     0.186 HD
HETATM   56  S2  UNL     1      17.996  41.327  30.152  1.00  0.00    -0.046 SA
ENDBRANCH  48  50
ENDBRANCH  43  46
ENDBRANCH  35  40
ENDBRANCH  31  32
ENDBRANCH  30  31
ENDBRANCH   1  30
TORSDOF 14
ENDMDL
MODEL 3
REMARK VINA RESULT: -10.052661330      3.123     12.580
REMARK  14 active torsions:
REMARK  status: ('A' for Active; 'I' for Inactive)
REMARK    1  A    between atoms: C2_2  and  C3_3 
REMARK    2  A    between atoms: C3_3  and  S1_4 
REMARK    3  A    between atoms: S1_4  and  N1_7 
REMARK    4  A    between atoms: N1_7  and  C4_9 
REMARK    5  A    between atoms: C4_9  and  C5_10 
REMARK    6  A    between atoms: C5_10  and  N2_11 
REMARK    7  A    between atoms: C6_12  and  O3_13 
REMARK    8  A    between atoms: N3_16  and  C8_17 
REMARK    9  A    between atoms: C11_20  and  C12_21 
REMARK       I    between atoms: C12_21  and  N4_23 
REMARK   10  A    between atoms: N4_23  and  C13_25 
REMARK   11  A    between atoms: C18_38  and  N8_39 
REMARK   12  A    between atoms: C19_46  and  C20_47 
REMARK   13  A    between atoms: C20_47  and  O6_48 
REMARK   14  A    between atoms: O6_48  and  C21_49 
ROOT
HETATM    1  N1  UNL     1      23.263  45.554  19.635  1.00  0.00    -0.318 N 
ATOM      2  H1  UNL     1      22.868  46.493  19.683  1.00  0.00     0.172 HD
ENDROOT
BRANCH   1   3
HETATM    3  S1  UNL     1      23.318  44.393  20.961  1.00  0.00     0.230 S 
HETATM    4  O1  UNL     1      23.680  45.141  22.209  1.00  0.00    -0.206 OA
HETATM    5  O2  UNL     1      21.982  43.749  21.013  1.00  0.00    -0.206 OA
BRANCH   3   6
HETATM    6  C3  UNL     1      24.623  43.241  20.619  1.00  0.00     0.223 C 
BRANCH   6   7
HETATM    7  C2  UNL     1      24.472  41.947  21.412  1.00  0.00     0.210 C 
HETATM    8  C1  UNL     1      23.781  40.952  20.525  1.00  0.00     0.072 C 
HETATM    9  N7  UNL     1      25.800  41.584  21.801  1.00  0.00    -0.342 N 
HETATM   10  C18 UNL     1      25.964  40.748  22.923  1.00  0.00     0.483 C 
ATOM     11  H7  UNL     1      26.609  41.921  21.278  1.00  0.00     0.159 HD
HETATM   12  N9  UNL     1      24.828  40.698  23.837  1.00  0.00     0.002 N 
HETATM   13  C19 UNL     1      24.225  41.988  23.793  1.00  0.00     0.414 C 
ATOM     14  H92 UNL     1      24.178  39.939  23.633  1.00  0.00     0.284 HD
ATOM     15  H91 UNL     1      25.079  40.400  24.779  1.00  0.00     0.284 HD
HETATM   16  N12 UNL     1      23.609  42.282  22.519  1.00  0.00    -0.017 N 
ATOM     17 2H12 UNL     1      23.304  43.254  22.470  1.00  0.00     0.282 HD
ATOM     18 1H12 UNL     1      22.701  41.825  22.432  1.00  0.00     0.282 HD
BRANCH  10  19
HETATM   19  N8  UNL     1      27.149  41.099  23.649  1.00  0.00    -0.033 N 
ATOM     20  H83 UNL     1      27.805  40.319  23.699  1.00  0.00     0.278 HD
ATOM     21  H82 UNL     1      27.730  41.756  23.130  1.00  0.00     0.278 HD
ATOM     22  H81 UNL     1      26.914  41.454  24.576  1.00  0.00     0.278 HD
ENDBRANCH  10  19
BRANCH  13  23
HETATM   23  C20 UNL     1      23.352  42.305  24.960  1.00  0.00     0.241 C 
BRANCH  23  24
HETATM   24  O6  UNL     1      23.134  43.648  25.236  1.00  0.00    -0.321 OA
BRANCH  24  25
HETATM   25  C21 UNL     1      21.914  44.278  25.213  1.00  0.00     0.225 C 
HETATM   26  N10 UNL     1      21.474  44.627  24.053  1.00  0.00    -0.368 N 
ATOM     27 2H10 UNL     1      22.040  44.425  23.229  1.00  0.00     0.159 HD
ATOM     28 1H10 UNL     1      20.568  45.095  24.036  1.00  0.00     0.159 HD
HETATM   29  N11 UNL     1      21.131  44.558  26.354  1.00  0.00    -0.057 NA
ENDBRANCH  24  25
ENDBRANCH  23  24
ENDBRANCH  13  23
ENDBRANCH   6   7
ENDBRANCH   3   6
ENDBRANCH   1   3
BRANCH   1  30
HETATM   30  C4  UNL     1      23.864  44.964  18.480  1.00  0.00     0.152 C 
BRANCH  30  31
HETATM   31  C5  UNL     1      24.386  45.989  17.536  1.00  0.00     0.156 C 
BRANCH  31  32
HETATM   32  N2  UNL     1      23.561  46.071  16.355  1.00  0.00    -0.277 N 
HETATM   33  C6  UNL     1      22.710  47.058  16.036  1.00  0.00     0.162 A 
HETATM   34  C7  UNL     1      22.125  46.741  14.827  1.00  0.00     0.158 A 
HETATM   35  N3  UNL     1      22.614  45.568  14.410  1.00  0.00    -0.271 N 
HETATM   36  C17 UNL     1      23.485  45.171  15.346  1.00  0.00     0.335 A 
HETATM   37  O5  UNL     1      24.164  44.115  15.334  1.00  0.00    -0.246 OA
BRANCH  33  38
HETATM   38  O3  UNL     1      22.444  48.210  16.775  1.00  0.00    -0.345 OA
ATOM     39  H3  UNL     1      22.282  49.083  16.437  1.00  0.00     0.219 HD
ENDBRANCH  33  38
BRANCH  35  40
HETATM   40  C8  UNL     1      22.250  44.900  13.206  1.00  0.00     0.043 A 
HETATM   41  C9  UNL     1      23.005  45.066  12.074  1.00  0.00     0.031 A 
HETATM   42  C10 UNL     1      22.583  44.386  10.934  1.00  0.00     0.019 A 
HETATM   43  C11 UNL     1      21.470  43.582  10.909  1.00  0.00     0.032 A 
HETATM   44  C15 UNL     1      20.753  43.451  12.065  1.00  0.00     0.019 A 
HETATM   45  C16 UNL     1      21.130  44.105  13.227  1.00  0.00     0.031 A 
BRANCH  43  46
HETATM   46  C12 UNL     1      21.074  42.898   9.677  1.00  0.00     0.257 C 
HETATM   47  O4  UNL     1      20.560  43.529   8.725  1.00  0.00    -0.267 OA
HETATM   48  N4  UNL     1      21.281  41.515   9.579  1.00  0.00    -0.302 N 
ATOM     49  H4  UNL     1      22.006  41.076  10.146  1.00  0.00     0.171 HD
BRANCH  48  50
HETATM   50  C13 UNL     1      20.556  40.774   8.769  1.00  0.00     0.167 A 
HETATM   51  N5  UNL     1      20.259  41.024   7.491  1.00  0.00    -0.279 N 
HETATM   52  N6  UNL     1      19.544  40.194   6.857  1.00  0.00    -0.303 N 
ATOM     53  H5  UNL     1      20.602  41.869   7.034  1.00  0.00     0.189 HD
HETATM   54  C14 UNL     1      19.100  39.095   7.454  1.00  0.00     0.160 A 
ATOM     55  H6  UNL     1      19.309  40.370   5.880  1.00  0.00     0.186 HD
HETATM   56  S2  UNL     1      19.760  39.282   9.023  1.00  0.00    -0.046 SA
ENDBRANCH  48  50
ENDBRANCH  43  46
ENDBRANCH  35  40
ENDBRANCH  31  32
ENDBRANCH  30  31
ENDBRANCH   1  30
TORSDOF 14
ENDMDL
MODEL 4
REMARK VINA RESULT: -10.044146938      1.832      2.209
REMARK  14 active torsions:
REMARK  status: ('A' for Active; 'I' for Inactive)
REMARK    1  A    between atoms: C2_2  and  C3_3 
REMARK    2  A    between atoms: C3_3  and  S1_4 
REMARK    3  A    between atoms: S1_4  and  N1_7 
REMARK    4  A    between atoms: N1_7  and  C4_9 
REMARK    5  A    between atoms: C4_9  and  C5_10 
REMARK    6  A    between atoms: C5_10  and  N2_11 
REMARK    7  A    between atoms: C6_12  and  O3_13 
REMARK    8  A    between atoms: N3_16  and  C8_17 
REMARK    9  A    between atoms: C11_20  and  C12_21 
REMARK       I    between atoms: C12_21  and  N4_23 
REMARK   10  A    between atoms: N4_23  and  C13_25 
REMARK   11  A    between atoms: C18_38  and  N8_39 
REMARK   12  A    between atoms: C19_46  and  C20_47 
REMARK   13  A    between atoms: C20_47  and  O6_48 
REMARK   14  A    between atoms: O6_48  and  C21_49 
ROOT
HETATM    1  N1  UNL     1      23.081  45.830  18.377  1.00  0.00    -0.318 N 
ATOM      2  H1  UNL     1      22.201  46.060  18.840  1.00  0.00     0.172 HD
ENDROOT
BRANCH   1   3
HETATM    3  S1  UNL     1      23.471  46.162  16.690  1.00  0.00     0.230 S 
HETATM    4  O1  UNL     1      24.676  47.054  16.666  1.00  0.00    -0.206 OA
HETATM    5  O2  UNL     1      23.684  44.846  16.039  1.00  0.00    -0.206 OA
BRANCH   3   6
HETATM    6  C3  UNL     1      22.114  47.064  15.987  1.00  0.00     0.223 C 
BRANCH   6   7
HETATM    7  C2  UNL     1      22.129  47.034  14.463  1.00  0.00     0.210 C 
HETATM    8  C1  UNL     1      21.516  48.317  13.980  1.00  0.00     0.072 C 
HETATM    9  N7  UNL     1      23.501  46.851  14.101  1.00  0.00    -0.342 N 
HETATM   10  C18 UNL     1      23.793  46.299  12.838  1.00  0.00     0.483 C 
ATOM     11  H7  UNL     1      24.250  47.115  14.742  1.00  0.00     0.159 HD
HETATM   12  N9  UNL     1      22.702  45.561  12.212  1.00  0.00     0.002 N 
HETATM   13  C19 UNL     1      21.964  44.963  13.274  1.00  0.00     0.414 C 
ATOM     14  H92 UNL     1      22.129  46.134  11.592  1.00  0.00     0.284 HD
ATOM     15  H91 UNL     1      23.016  44.892  11.510  1.00  0.00     0.284 HD
HETATM   16  N12 UNL     1      21.275  45.930  14.099  1.00  0.00    -0.017 N 
ATOM     17 2H12 UNL     1      20.868  45.489  14.924  1.00  0.00     0.282 HD
ATOM     18 1H12 UNL     1      20.419  46.255  13.652  1.00  0.00     0.282 HD
BRANCH  10  19
HETATM   19  N8  UNL     1      24.959  45.469  12.903  1.00  0.00    -0.033 N 
ATOM     20  H83 UNL     1      25.744  45.881  12.399  1.00  0.00     0.278 HD
ATOM     21  H82 UNL     1      25.365  45.460  13.839  1.00  0.00     0.278 HD
ATOM     22  H81 UNL     1      24.751  44.526  12.574  1.00  0.00     0.278 HD
ENDBRANCH  10  19
BRANCH  13  23
HETATM   23  C20 UNL     1      21.105  43.815  12.864  1.00  0.00     0.241 C 
BRANCH  23  24
HETATM   24  O6  UNL     1      21.649  42.545  12.989  1.00  0.00    -0.321 OA
BRANCH  24  25
HETATM   25  C21 UNL     1      22.556  41.979  12.127  1.00  0.00     0.225 C 
HETATM   26  N10 UNL     1      22.232  40.834  11.628  1.00  0.00    -0.368 N 
ATOM     27 2H10 UNL     1      21.340  40.416  11.892  1.00  0.00     0.159 HD
ATOM     28 1H10 UNL     1      22.905  40.414  10.988  1.00  0.00     0.159 HD
HETATM   29  N11 UNL     1      23.790  42.558  11.762  1.00  0.00    -0.057 NA
ENDBRANCH  24  25
ENDBRANCH  23  24
ENDBRANCH  13  23
ENDBRANCH   6   7
ENDBRANCH   3   6
ENDBRANCH   1   3
BRANCH   1  30
HETATM   30  C4  UNL     1      24.200  45.187  18.991  1.00  0.00     0.152 C 
BRANCH  30  31
HETATM   31  C5  UNL     1      23.860  43.826  19.485  1.00  0.00     0.156 C 
BRANCH  31  32
HETATM   32  N2  UNL     1      23.992  43.748  20.920  1.00  0.00    -0.277 N 
HETATM   33  C6  UNL     1      25.134  43.652  21.618  1.00  0.00     0.162 A 
HETATM   34  C7  UNL     1      24.810  43.603  22.958  1.00  0.00     0.158 A 
HETATM   35  N3  UNL     1      23.479  43.668  23.080  1.00  0.00    -0.271 N 
HETATM   36  C17 UNL     1      22.994  43.756  21.835  1.00  0.00     0.335 A 
HETATM   37  O5  UNL     1      21.784  43.838  21.510  1.00  0.00    -0.246 OA
BRANCH  33  38
HETATM   38  O3  UNL     1      26.430  43.607  21.107  1.00  0.00    -0.345 OA
ATOM     39  H3  UNL     1      26.923  44.326  20.731  1.00  0.00     0.219 HD
ENDBRANCH  33  38
BRANCH  35  40
HETATM   40  C8  UNL     1      22.757  43.639  24.307  1.00  0.00     0.043 A 
HETATM   41  C9  UNL     1      22.901  42.579  25.162  1.00  0.00     0.031 A 
HETATM   42  C10 UNL     1      22.157  42.619  26.340  1.00  0.00     0.019 A 
HETATM   43  C11 UNL     1      21.313  43.653  26.659  1.00  0.00     0.032 A 
HETATM   44  C15 UNL     1      21.207  44.686  25.771  1.00  0.00     0.019 A 
HETATM   45  C16 UNL     1      21.925  44.696  24.586  1.00  0.00     0.031 A 
BRANCH  43  46
HETATM   46  C12 UNL     1      20.554  43.634  27.911  1.00  0.00     0.257 C 
HETATM   47  O4  UNL     1      20.615  44.590  28.716  1.00  0.00    -0.267 OA
HETATM   48  N4  UNL     1      19.753  42.520  28.195  1.00  0.00    -0.302 N 
ATOM     49  H4  UNL     1      19.405  41.945  27.428  1.00  0.00     0.171 HD
BRANCH  48  50
HETATM   50  C13 UNL     1      19.441  42.203  29.433  1.00  0.00     0.167 A 
HETATM   51  N5  UNL     1      20.124  42.501  30.542  1.00  0.00    -0.279 N 
HETATM   52  N6  UNL     1      19.673  42.114  31.659  1.00  0.00    -0.303 N 
ATOM     53  H5  UNL     1      20.993  43.032  30.489  1.00  0.00     0.189 HD
HETATM   54  C14 UNL     1      18.542  41.424  31.725  1.00  0.00     0.160 A 
ATOM     55  H6  UNL     1      20.183  42.333  32.515  1.00  0.00     0.186 HD
HETATM   56  S2  UNL     1      18.112  41.336  30.069  1.00  0.00    -0.046 SA
ENDBRANCH  48  50
ENDBRANCH  43  46
ENDBRANCH  35  40
ENDBRANCH  31  32
ENDBRANCH  30  31
ENDBRANCH   1  30
TORSDOF 14
ENDMDL
MODEL 5
REMARK VINA RESULT: -9.886567462      3.218     12.348
REMARK  14 active torsions:
REMARK  status: ('A' for Active; 'I' for Inactive)
REMARK    1  A    between atoms: C2_2  and  C3_3 
REMARK    2  A    between atoms: C3_3  and  S1_4 
REMARK    3  A    between atoms: S1_4  and  N1_7 
REMARK    4  A    between atoms: N1_7  and  C4_9 
REMARK    5  A    between atoms: C4_9  and  C5_10 
REMARK    6  A    between atoms: C5_10  and  N2_11 
REMARK    7  A    between atoms: C6_12  and  O3_13 
REMARK    8  A    between atoms: N3_16  and  C8_17 
REMARK    9  A    between atoms: C11_20  and  C12_21 
REMARK       I    between atoms: C12_21  and  N4_23 
REMARK   10  A    between atoms: N4_23  and  C13_25 
REMARK   11  A    between atoms: C18_38  and  N8_39 
REMARK   12  A    between atoms: C19_46  and  C20_47 
REMARK   13  A    between atoms: C20_47  and  O6_48 
REMARK   14  A    between atoms: O6_48  and  C21_49 
ROOT
HETATM    1  N1  UNL     1      24.322  45.670  20.021  1.00  0.00    -0.318 N 
ATOM      2  H1  UNL     1      24.361  46.577  20.487  1.00  0.00     0.172 HD
ENDROOT
BRANCH   1   3
HETATM    3  S1  UNL     1      25.033  44.174  20.625  1.00  0.00     0.230 S 
HETATM    4  O1  UNL     1      26.366  44.000  19.959  1.00  0.00    -0.206 OA
HETATM    5  O2  UNL     1      25.111  44.308  22.100  1.00  0.00    -0.206 OA
BRANCH   3   6
HETATM    6  C3  UNL     1      23.991  42.833  20.111  1.00  0.00     0.223 C 
BRANCH   6   7
HETATM    7  C2  UNL     1      24.314  41.537  20.847  1.00  0.00     0.210 C 
HETATM    8  C1  UNL     1      23.896  40.399  19.962  1.00  0.00     0.072 C 
HETATM    9  N7  UNL     1      25.716  41.599  21.124  1.00  0.00    -0.342 N 
HETATM   10  C18 UNL     1      26.222  40.828  22.190  1.00  0.00     0.483 C 
ATOM     11  H7  UNL     1      26.334  42.186  20.564  1.00  0.00     0.159 HD
HETATM   12  N9  UNL     1      25.236  40.401  23.176  1.00  0.00     0.002 N 
HETATM   13  C19 UNL     1      24.261  41.437  23.239  1.00  0.00     0.414 C 
ATOM     14  H92 UNL     1      24.839  39.482  22.981  1.00  0.00     0.284 HD
ATOM     15  H91 UNL     1      25.643  40.172  24.082  1.00  0.00     0.284 HD
HETATM   16  N12 UNL     1      23.482  41.556  22.026  1.00  0.00    -0.017 N 
ATOM     17 2H12 UNL     1      22.888  42.384  22.047  1.00  0.00     0.282 HD
ATOM     18 1H12 UNL     1      22.757  40.840  21.980  1.00  0.00     0.282 HD
BRANCH  10  19
HETATM   19  N8  UNL     1      27.294  41.513  22.849  1.00  0.00    -0.033 N 
ATOM     20  H83 UNL     1      27.207  41.463  23.864  1.00  0.00     0.278 HD
ATOM     21  H82 UNL     1      28.180  41.017  22.746  1.00  0.00     0.278 HD
ATOM     22  H81 UNL     1      27.362  42.477  22.523  1.00  0.00     0.278 HD
ENDBRANCH  10  19
BRANCH  13  23
HETATM   23  C20 UNL     1      23.431  41.435  24.477  1.00  0.00     0.241 C 
BRANCH  23  24
HETATM   24  O6  UNL     1      23.344  42.629  25.180  1.00  0.00    -0.321 OA
BRANCH  24  25
HETATM   25  C21 UNL     1      23.080  43.859  24.630  1.00  0.00     0.225 C 
HETATM   26  N10 UNL     1      23.872  44.818  24.970  1.00  0.00    -0.368 N 
ATOM     27 2H10 UNL     1      24.637  44.622  25.616  1.00  0.00     0.159 HD
ATOM     28 1H10 UNL     1      23.676  45.732  24.562  1.00  0.00     0.159 HD
HETATM   29  N11 UNL     1      22.022  44.131  23.737  1.00  0.00    -0.057 NA
ENDBRANCH  24  25
ENDBRANCH  23  24
ENDBRANCH  13  23
ENDBRANCH   6   7
ENDBRANCH   3   6
ENDBRANCH   1   3
BRANCH   1  30
HETATM   30  C4  UNL     1      23.681  45.405  18.771  1.00  0.00     0.152 C 
BRANCH  30  31
HETATM   31  C5  UNL     1      24.433  45.981  17.625  1.00  0.00     0.156 C 
BRANCH  31  32
HETATM   32  N2  UNL     1      23.601  46.062  16.449  1.00  0.00    -0.277 N 
HETATM   33  C6  UNL     1      22.780  47.069  16.114  1.00  0.00     0.162 A 
HETATM   34  C7  UNL     1      22.174  46.743  14.917  1.00  0.00     0.158 A 
HETATM   35  N3  UNL     1      22.621  45.545  14.523  1.00  0.00    -0.271 N 
HETATM   36  C17 UNL     1      23.487  45.143  15.462  1.00  0.00     0.335 A 
HETATM   37  O5  UNL     1      24.132  44.064  15.469  1.00  0.00    -0.246 OA
BRANCH  33  38
HETATM   38  O3  UNL     1      22.557  48.246  16.827  1.00  0.00    -0.345 OA
ATOM     39  H3  UNL     1      22.176  49.051  16.499  1.00  0.00     0.219 HD
ENDBRANCH  33  38
BRANCH  35  40
HETATM   40  C8  UNL     1      22.226  44.862  13.338  1.00  0.00     0.043 A 
HETATM   41  C9  UNL     1      21.137  44.031  13.356  1.00  0.00     0.031 A 
HETATM   42  C10 UNL     1      20.815  43.393  12.160  1.00  0.00     0.019 A 
HETATM   43  C11 UNL     1      21.532  43.565  11.002  1.00  0.00     0.032 A 
HETATM   44  C15 UNL     1      22.609  44.406  11.039  1.00  0.00     0.019 A 
HETATM   45  C16 UNL     1      22.971  45.065  12.202  1.00  0.00     0.031 A 
BRANCH  43  46
HETATM   46  C12 UNL     1      21.146  42.862   9.777  1.00  0.00     0.257 C 
HETATM   47  O4  UNL     1      20.675  43.483   8.798  1.00  0.00    -0.267 OA
HETATM   48  N4  UNL     1      21.314  41.472   9.719  1.00  0.00    -0.302 N 
ATOM     49  H4  UNL     1      22.012  41.026  10.315  1.00  0.00     0.171 HD
BRANCH  48  50
HETATM   50  C13 UNL     1      20.588  40.732   8.909  1.00  0.00     0.167 A 
HETATM   51  N5  UNL     1      20.318  40.965   7.622  1.00  0.00    -0.279 N 
HETATM   52  N6  UNL     1      19.597  40.139   6.990  1.00  0.00    -0.303 N 
ATOM     53  H5  UNL     1      20.687  41.795   7.157  1.00  0.00     0.189 HD
HETATM   54  C14 UNL     1      19.120  39.061   7.598  1.00  0.00     0.160 A 
ATOM     55  H6  UNL     1      19.382  40.303   6.006  1.00  0.00     0.186 HD
HETATM   56  S2  UNL     1      19.757  39.262   9.175  1.00  0.00    -0.046 SA
ENDBRANCH  48  50
ENDBRANCH  43  46
ENDBRANCH  35  40
ENDBRANCH  31  32
ENDBRANCH  30  31
ENDBRANCH   1  30
TORSDOF 14
ENDMDL
