MODEL 1
REMARK VINA RESULT: -7.669734631      0.000      0.000
REMARK  6 active torsions:
REMARK  status: ('A' for Active; 'I' for Inactive)
REMARK    1  A    between atoms: C5_6  and  N1_7 
REMARK    2  A    between atoms: C8_10  and  C9_11 
REMARK    3  A    between atoms: C8_10  and  S1_18 
REMARK    4  A    between atoms: C9_11  and  O2_12 
REMARK    5  A    between atoms: N2_14  and  O3_16 
REMARK    6  A    between atoms: S1_18  and  C10_20 
ROOT
HETATM    1  N1  UNL     1      19.989 -13.195   7.229  1.00  0.00    -0.378 N 
HETATM    2  C6  UNL     1      19.851 -11.864   7.805  1.00  0.00     0.125 C 
HETATM    3  C7  UNL     1      18.436 -11.797   8.336  1.00  0.00     0.052 C 
HETATM    4  C8  UNL     1      17.522 -11.606   7.148  1.00  0.00     0.111 C 
HETATM    5  C16 UNL     1      18.025 -12.477   6.026  1.00  0.00     0.052 C 
HETATM    6  C17 UNL     1      18.831 -13.669   6.495  1.00  0.00     0.125 C 
ENDROOT
BRANCH   4   7
HETATM    7  C9  UNL     1      17.569 -10.181   6.769  1.00  0.00     0.157 C 
HETATM    8  N2  UNL     1      16.650  -9.671   6.051  1.00  0.00    -0.250 N 
ATOM      9  H2  UNL     1      15.892 -10.286   5.756  1.00  0.00     0.196 HD
BRANCH   7  10
HETATM   10  O2  UNL     1      18.619  -9.404   7.198  1.00  0.00    -0.347 OA
ATOM     11  H2  UNL     1      19.419  -9.376   6.685  1.00  0.00     0.219 HD
ENDBRANCH   7  10
BRANCH   8  12
HETATM   12  O3  UNL     1      16.595  -8.378   5.644  1.00  0.00    -0.288 OA
ATOM     13  H3  UNL     1      17.177  -7.972   5.012  1.00  0.00     0.244 HD
ENDBRANCH   8  12
ENDBRANCH   4   7
BRANCH   4  14
HETATM   14  S1  UNL     1      15.815 -11.952   7.565  1.00  0.00     0.067 S 
HETATM   15  O4  UNL     1      15.308 -13.059   6.665  1.00  0.00    -0.251 OA
BRANCH  14  16
HETATM   16  C10 UNL     1      15.494 -12.190   9.250  1.00  0.00     0.032 A 
HETATM   17  C11 UNL     1      15.744 -11.191  10.160  1.00  0.00     0.021 A 
HETATM   18  C12 UNL     1      15.488 -11.360  11.521  1.00  0.00     0.001 A 
HETATM   19  C13 UNL     1      14.978 -12.545  11.977  1.00  0.00     0.000 A 
HETATM   20  C14 UNL     1      14.724 -13.551  11.082  1.00  0.00     0.001 A 
HETATM   21  C15 UNL     1      14.981 -13.377   9.716  1.00  0.00     0.021 A 
ENDBRANCH  14  16
ENDBRANCH   4  14
BRANCH   1  22
HETATM   22  C5  UNL     1      21.176 -13.977   7.377  1.00  0.00     0.072 C 
HETATM   23  C1  UNL     1      22.447 -13.724   6.684  1.00  0.00     0.175 C 
HETATM   24  O1  UNL     1      22.546 -12.905   5.719  1.00  0.00    -0.291 OA
HETATM   25  C2  UNL     1      23.521 -14.539   7.269  1.00  0.00     0.089 C 
HETATM   26  C3  UNL     1      22.732 -15.584   8.025  1.00  0.00     0.037 C 
HETATM   27  C4  UNL     1      21.361 -15.043   8.136  1.00  0.00     0.007 C 
ENDBRANCH   1  22
TORSDOF 6
ENDMDL
MODEL 2
REMARK VINA RESULT: -7.568382148      1.050      1.518
REMARK  6 active torsions:
REMARK  status: ('A' for Active; 'I' for Inactive)
REMARK    1  A    between atoms: C5_6  and  N1_7 
REMARK    2  A    between atoms: C8_10  and  C9_11 
REMARK    3  A    between atoms: C8_10  and  S1_18 
REMARK    4  A    between atoms: C9_11  and  O2_12 
REMARK    5  A    between atoms: N2_14  and  O3_16 
REMARK    6  A    between atoms: S1_18  and  C10_20 
ROOT
HETATM    1  N1  UNL     1      20.611 -13.550   7.059  1.00  0.00    -0.378 N 
HETATM    2  C6  UNL     1      20.224 -12.266   7.626  1.00  0.00     0.125 C 
HETATM    3  C7  UNL     1      18.854 -12.486   8.231  1.00  0.00     0.052 C 
HETATM    4  C8  UNL     1      17.862 -12.519   7.093  1.00  0.00     0.111 C 
HETATM    5  C16 UNL     1      18.482 -13.290   5.955  1.00  0.00     0.052 C 
HETATM    6  C17 UNL     1      19.544 -14.274   6.394  1.00  0.00     0.125 C 
ENDROOT
BRANCH   4   7
HETATM    7  C9  UNL     1      17.588 -11.126   6.695  1.00  0.00     0.157 C 
HETATM    8  N2  UNL     1      18.366 -10.184   7.051  1.00  0.00    -0.250 N 
ATOM      9  H2  UNL     1      19.176 -10.436   7.616  1.00  0.00     0.196 HD
BRANCH   7  10
HETATM   10  O2  UNL     1      16.477 -10.849   5.931  1.00  0.00    -0.347 OA
ATOM     11  H2  UNL     1      16.324  -9.959   5.636  1.00  0.00     0.219 HD
ENDBRANCH   7  10
BRANCH   8  12
HETATM   12  O3  UNL     1      18.209  -8.872   6.742  1.00  0.00    -0.288 OA
ATOM     13  H3  UNL     1      18.027  -8.527   5.876  1.00  0.00     0.244 HD
ENDBRANCH   8  12
ENDBRANCH   4   7
BRANCH   4  14
HETATM   14  S1  UNL     1      16.291 -13.208   7.605  1.00  0.00     0.067 S 
HETATM   15  O4  UNL     1      16.272 -14.683   7.267  1.00  0.00    -0.251 OA
BRANCH  14  16
HETATM   16  C10 UNL     1      15.806 -12.833   9.224  1.00  0.00     0.032 A 
HETATM   17  C11 UNL     1      15.144 -13.761   9.992  1.00  0.00     0.021 A 
HETATM   18  C12 UNL     1      14.750 -13.481  11.300  1.00  0.00     0.001 A 
HETATM   19  C13 UNL     1      15.019 -12.256  11.847  1.00  0.00     0.000 A 
HETATM   20  C14 UNL     1      15.678 -11.320  11.094  1.00  0.00     0.001 A 
HETATM   21  C15 UNL     1      16.074 -11.605   9.781  1.00  0.00     0.021 A 
ENDBRANCH  14  16
ENDBRANCH   4  14
BRANCH   1  22
HETATM   22  C5  UNL     1      21.943 -14.061   7.151  1.00  0.00     0.072 C 
HETATM   23  C1  UNL     1      23.082 -13.603   6.343  1.00  0.00     0.175 C 
HETATM   24  O1  UNL     1      22.941 -12.850   5.331  1.00  0.00    -0.291 OA
HETATM   25  C2  UNL     1      24.340 -14.138   6.882  1.00  0.00     0.089 C 
HETATM   26  C3  UNL     1      23.841 -15.266   7.756  1.00  0.00     0.037 C 
HETATM   27  C4  UNL     1      22.398 -15.010   7.949  1.00  0.00     0.007 C 
ENDBRANCH   1  22
TORSDOF 6
ENDMDL
MODEL 3
REMARK VINA RESULT: -7.434327840      2.134      2.826
REMARK  6 active torsions:
REMARK  status: ('A' for Active; 'I' for Inactive)
REMARK    1  A    between atoms: C5_6  and  N1_7 
REMARK    2  A    between atoms: C8_10  and  C9_11 
REMARK    3  A    between atoms: C8_10  and  S1_18 
REMARK    4  A    between atoms: C9_11  and  O2_12 
REMARK    5  A    between atoms: N2_14  and  O3_16 
REMARK    6  A    between atoms: S1_18  and  C10_20 
ROOT
HETATM    1  N1  UNL     1      19.915 -13.107   7.221  1.00  0.00    -0.378 N 
HETATM    2  C6  UNL     1      19.816 -11.738   7.709  1.00  0.00     0.125 C 
HETATM    3  C7  UNL     1      18.429 -11.618   8.301  1.00  0.00     0.052 C 
HETATM    4  C8  UNL     1      17.460 -11.499   7.149  1.00  0.00     0.111 C 
HETATM    5  C16 UNL     1      17.900 -12.452   6.068  1.00  0.00     0.052 C 
HETATM    6  C17 UNL     1      18.718 -13.618   6.579  1.00  0.00     0.125 C 
ENDROOT
BRANCH   4   7
HETATM    7  C9  UNL     1      17.499 -10.105   6.669  1.00  0.00     0.157 C 
HETATM    8  N2  UNL     1      16.640  -9.684   5.830  1.00  0.00    -0.250 N 
ATOM      9  H2  UNL     1      15.933 -10.347   5.512  1.00  0.00     0.196 HD
BRANCH   7  10
HETATM   10  O2  UNL     1      18.478  -9.259   7.137  1.00  0.00    -0.347 OA
ATOM     11  H2  UNL     1      18.434  -8.334   6.924  1.00  0.00     0.219 HD
ENDBRANCH   7  10
BRANCH   8  12
HETATM   12  O3  UNL     1      16.584  -8.426   5.324  1.00  0.00    -0.288 OA
ATOM     13  H3  UNL     1      17.059  -8.117   4.562  1.00  0.00     0.244 HD
ENDBRANCH   8  12
ENDBRANCH   4   7
BRANCH   4  14
HETATM   14  S1  UNL     1      15.773 -11.797   7.671  1.00  0.00     0.067 S 
HETATM   15  O4  UNL     1      15.141 -10.478   8.059  1.00  0.00    -0.251 OA
BRANCH  14  16
HETATM   16  C10 UNL     1      14.821 -12.762   6.594  1.00  0.00     0.032 A 
HETATM   17  C11 UNL     1      14.163 -12.189   5.531  1.00  0.00     0.021 A 
HETATM   18  C12 UNL     1      13.395 -12.949   4.649  1.00  0.00     0.001 A 
HETATM   19  C13 UNL     1      13.283 -14.300   4.833  1.00  0.00     0.000 A 
HETATM   20  C14 UNL     1      13.932 -14.886   5.887  1.00  0.00     0.001 A 
HETATM   21  C15 UNL     1      14.703 -14.120   6.771  1.00  0.00     0.021 A 
ENDBRANCH  14  16
ENDBRANCH   4  14
BRANCH   1  22
HETATM   22  C5  UNL     1      21.102 -13.890   7.365  1.00  0.00     0.072 C 
HETATM   23  C1  UNL     1      22.347 -13.685   6.611  1.00  0.00     0.175 C 
HETATM   24  O1  UNL     1      22.414 -12.920   5.601  1.00  0.00    -0.291 OA
HETATM   25  C2  UNL     1      23.437 -14.477   7.199  1.00  0.00     0.089 C 
HETATM   26  C3  UNL     1      22.671 -15.473   8.040  1.00  0.00     0.037 C 
HETATM   27  C4  UNL     1      21.309 -14.915   8.174  1.00  0.00     0.007 C 
ENDBRANCH   1  22
TORSDOF 6
ENDMDL
MODEL 4
REMARK VINA RESULT: -7.367583008      2.196      2.855
REMARK  6 active torsions:
REMARK  status: ('A' for Active; 'I' for Inactive)
REMARK    1  A    between atoms: C5_6  and  N1_7 
REMARK    2  A    between atoms: C8_10  and  C9_11 
REMARK    3  A    between atoms: C8_10  and  S1_18 
REMARK    4  A    between atoms: C9_11  and  O2_12 
REMARK    5  A    between atoms: N2_14  and  O3_16 
REMARK    6  A    between atoms: S1_18  and  C10_20 
ROOT
HETATM    1  N1  UNL     1      20.850 -13.562   7.210  1.00  0.00    -0.378 N 
HETATM    2  C6  UNL     1      20.535 -12.184   7.564  1.00  0.00     0.125 C 
HETATM    3  C7  UNL     1      19.281 -12.260   8.408  1.00  0.00     0.052 C 
HETATM    4  C8  UNL     1      18.124 -12.504   7.468  1.00  0.00     0.111 C 
HETATM    5  C16 UNL     1      18.571 -13.495   6.424  1.00  0.00     0.052 C 
HETATM    6  C17 UNL     1      19.705 -14.388   6.878  1.00  0.00     0.125 C 
ENDROOT
BRANCH   4   7
HETATM    7  C9  UNL     1      17.767 -11.214   6.849  1.00  0.00     0.157 C 
HETATM    8  N2  UNL     1      18.358 -10.142   7.196  1.00  0.00    -0.250 N 
ATOM      9  H2  UNL     1      19.080 -10.218   7.913  1.00  0.00     0.196 HD
BRANCH   7  10
HETATM   10  O2  UNL     1      16.784 -11.177   5.887  1.00  0.00    -0.347 OA
ATOM     11  H2  UNL     1      16.999 -10.877   5.012  1.00  0.00     0.219 HD
ENDBRANCH   7  10
BRANCH   8  12
HETATM   12  O3  UNL     1      18.109  -8.906   6.694  1.00  0.00    -0.288 OA
ATOM     13  H3  UNL     1      18.391  -8.086   7.083  1.00  0.00     0.244 HD
ENDBRANCH   8  12
ENDBRANCH   4   7
BRANCH   4  14
HETATM   14  S1  UNL     1      16.664 -13.054   8.347  1.00  0.00     0.067 S 
HETATM   15  O4  UNL     1      15.699 -11.895   8.465  1.00  0.00    -0.251 OA
BRANCH  14  16
HETATM   16  C10 UNL     1      15.956 -14.523   7.765  1.00  0.00     0.032 A 
HETATM   17  C11 UNL     1      15.001 -14.500   6.777  1.00  0.00     0.021 A 
HETATM   18  C12 UNL     1      14.422 -15.672   6.291  1.00  0.00     0.001 A 
HETATM   19  C13 UNL     1      14.802 -16.884   6.801  1.00  0.00     0.000 A 
HETATM   20  C14 UNL     1      15.753 -16.923   7.786  1.00  0.00     0.001 A 
HETATM   21  C15 UNL     1      16.333 -15.744   8.271  1.00  0.00     0.021 A 
ENDBRANCH  14  16
ENDBRANCH   4  14
BRANCH   1  22
HETATM   22  C5  UNL     1      22.189 -14.063   7.192  1.00  0.00     0.072 C 
HETATM   23  C1  UNL     1      23.260 -13.583   6.308  1.00  0.00     0.175 C 
HETATM   24  O1  UNL     1      23.038 -12.815   5.322  1.00  0.00    -0.291 OA
HETATM   25  C2  UNL     1      24.559 -14.117   6.741  1.00  0.00     0.089 C 
HETATM   26  C3  UNL     1      24.136 -15.264   7.631  1.00  0.00     0.037 C 
HETATM   27  C4  UNL     1      22.709 -15.022   7.938  1.00  0.00     0.007 C 
ENDBRANCH   1  22
TORSDOF 6
ENDMDL
MODEL 5
REMARK VINA RESULT: -7.200346925      1.023      1.593
REMARK  6 active torsions:
REMARK  status: ('A' for Active; 'I' for Inactive)
REMARK    1  A    between atoms: C5_6  and  N1_7 
REMARK    2  A    between atoms: C8_10  and  C9_11 
REMARK    3  A    between atoms: C8_10  and  S1_18 
REMARK    4  A    between atoms: C9_11  and  O2_12 
REMARK    5  A    between atoms: N2_14  and  O3_16 
REMARK    6  A    between atoms: S1_18  and  C10_20 
ROOT
HETATM    1  N1  UNL     1      20.032 -13.261   7.272  1.00  0.00    -0.378 N 
HETATM    2  C6  UNL     1      19.838 -11.954   7.886  1.00  0.00     0.125 C 
HETATM    3  C7  UNL     1      18.391 -11.926   8.328  1.00  0.00     0.052 C 
HETATM    4  C8  UNL     1      17.550 -11.704   7.093  1.00  0.00     0.111 C 
HETATM    5  C16 UNL     1      18.137 -12.526   5.974  1.00  0.00     0.052 C 
HETATM    6  C17 UNL     1      18.930 -13.723   6.450  1.00  0.00     0.125 C 
ENDROOT
BRANCH   4   7
HETATM    7  C9  UNL     1      17.598 -10.266   6.769  1.00  0.00     0.157 C 
HETATM    8  N2  UNL     1      16.676  -9.726   6.077  1.00  0.00    -0.250 N 
ATOM      9  H2  UNL     1      15.915 -10.328   5.763  1.00  0.00     0.196 HD
BRANCH   7  10
HETATM   10  O2  UNL     1      18.653  -9.507   7.222  1.00  0.00    -0.347 OA
ATOM     11  H2  UNL     1      18.542  -8.569   7.324  1.00  0.00     0.219 HD
ENDBRANCH   7  10
BRANCH   8  12
HETATM   12  O3  UNL     1      16.621  -8.418   5.721  1.00  0.00    -0.288 OA
ATOM     13  H3  UNL     1      15.999  -8.038   5.111  1.00  0.00     0.244 HD
ENDBRANCH   8  12
ENDBRANCH   4   7
BRANCH   4  14
HETATM   14  S1  UNL     1      15.826 -12.089   7.388  1.00  0.00     0.067 S 
HETATM   15  O4  UNL     1      15.392 -13.162   6.413  1.00  0.00    -0.251 OA
BRANCH  14  16
HETATM   16  C10 UNL     1      15.407 -12.403   9.038  1.00  0.00     0.032 A 
HETATM   17  C11 UNL     1      15.127 -13.681   9.461  1.00  0.00     0.021 A 
HETATM   18  C12 UNL     1      14.792 -13.956  10.787  1.00  0.00     0.001 A 
HETATM   19  C13 UNL     1      14.733 -12.939  11.701  1.00  0.00     0.000 A 
HETATM   20  C14 UNL     1      15.009 -11.661  11.295  1.00  0.00     0.001 A 
HETATM   21  C15 UNL     1      15.346 -11.388   9.963  1.00  0.00     0.021 A 
ENDBRANCH  14  16
ENDBRANCH   4  14
BRANCH   1  22
HETATM   22  C5  UNL     1      21.221 -14.032   7.466  1.00  0.00     0.072 C 
HETATM   23  C1  UNL     1      21.275 -15.359   8.096  1.00  0.00     0.175 C 
HETATM   24  O1  UNL     1      20.290 -15.856   8.724  1.00  0.00    -0.291 OA
HETATM   25  C2  UNL     1      22.593 -15.972   7.885  1.00  0.00     0.089 C 
HETATM   26  C3  UNL     1      23.428 -14.774   7.494  1.00  0.00     0.037 C 
HETATM   27  C4  UNL     1      22.459 -13.717   7.131  1.00  0.00     0.007 C 
ENDBRANCH   1  22
TORSDOF 6
ENDMDL
