MODEL 1
REMARK VINA RESULT: -6.938047647      0.000      0.000
REMARK  9 active torsions:
REMARK  status: ('A' for Active; 'I' for Inactive)
REMARK    1  A    between atoms: C1_2  and  C2_3 
REMARK    2  A    between atoms: C1_2  and  S1_5 
REMARK    3  A    between atoms: S1_5  and  C3_6 
REMARK    4  A    between atoms: C3_6  and  C4_7 
REMARK    5  A    between atoms: C4_7  and  S2_8 
REMARK    6  A    between atoms: S2_8  and  C5_9 
REMARK    7  A    between atoms: C6_14  and  C7_15 
REMARK    8  A    between atoms: C7_15  and  N3_16 
REMARK       I    between atoms: N3_16  and  C8_18 
REMARK    9  A    between atoms: C8_18  and  C9_20 
ROOT
HETATM    1  C5  UNL     1       6.325  37.987  25.374  1.00  0.00     0.203 A 
HETATM    2  N1  UNL     1       7.569  38.446  25.652  1.00  0.00    -0.272 N 
ATOM      3  H1  UNL     1       7.849  39.418  25.780  1.00  0.00     0.189 HD
HETATM    4  N2  UNL     1       8.336  37.390  25.724  1.00  0.00    -0.279 N 
ATOM      5  H2  UNL     1       9.336  37.411  25.922  1.00  0.00     0.189 HD
HETATM    6  C6  UNL     1       7.611  36.257  25.497  1.00  0.00     0.159 A 
HETATM    7  O3  UNL     1       6.395  36.688  25.291  1.00  0.00    -0.270 OA
ENDROOT
BRANCH   6   8
HETATM    8  C7  UNL     1       8.133  34.870  25.494  1.00  0.00     0.209 C 
BRANCH   8   9
HETATM    9  N3  UNL     1       7.045  33.956  25.237  1.00  0.00    -0.349 N 
HETATM   10  C8  UNL     1       7.234  32.756  24.505  1.00  0.00     0.258 C 
HETATM   11  O2  UNL     1       8.344  32.422  24.046  1.00  0.00    -0.267 OA
ATOM     12  H3  UNL     1       6.115  34.179  25.592  1.00  0.00     0.163 HD
BRANCH  10  13
HETATM   13  C9  UNL     1       6.086  31.867  24.276  1.00  0.00     0.072 A 
HETATM   14  C10 UNL     1       6.110  30.545  23.926  1.00  0.00     0.025 A 
HETATM   15  C11 UNL     1       4.934  29.928  23.771  1.00  0.00     0.009 A 
HETATM   16  C12 UNL     1       3.799  30.670  23.977  1.00  0.00     0.050 A 
HETATM   17  S3  UNL     1       4.422  32.205  24.379  1.00  0.00    -0.097 SA
ENDBRANCH  10  13
ENDBRANCH   8   9
ENDBRANCH   6   8
BRANCH   1  18
HETATM   18  S2  UNL     1       4.944  39.091  25.185  1.00  0.00    -0.084 SA
BRANCH  18  19
HETATM   19  C4  UNL     1       3.552  38.147  24.536  1.00  0.00     0.093 C 
BRANCH  19  20
HETATM   20  C3  UNL     1       2.582  37.875  25.691  1.00  0.00     0.093 C 
BRANCH  20  21
HETATM   21  S1  UNL     1       1.174  36.925  25.073  1.00  0.00    -0.091 SA
BRANCH  21  22
HETATM   22  C1  UNL     1       1.342  35.200  25.490  1.00  0.00     0.195 C 
HETATM   23  O1  UNL     1       2.195  34.876  26.291  1.00  0.00    -0.285 OA
BRANCH  22  24
HETATM   24  C2  UNL     1       0.451  34.198  24.863  1.00  0.00     0.175 C 
HETATM   25 BR1  UNL     1       0.797  32.474  25.623  1.00  0.00    -0.088 Br
ENDBRANCH  22  24
ENDBRANCH  21  22
ENDBRANCH  20  21
ENDBRANCH  19  20
ENDBRANCH  18  19
ENDBRANCH   1  18
TORSDOF 9
ENDMDL
MODEL 2
REMARK VINA RESULT: -6.935608196      4.432      6.223
REMARK  9 active torsions:
REMARK  status: ('A' for Active; 'I' for Inactive)
REMARK    1  A    between atoms: C1_2  and  C2_3 
REMARK    2  A    between atoms: C1_2  and  S1_5 
REMARK    3  A    between atoms: S1_5  and  C3_6 
REMARK    4  A    between atoms: C3_6  and  C4_7 
REMARK    5  A    between atoms: C4_7  and  S2_8 
REMARK    6  A    between atoms: S2_8  and  C5_9 
REMARK    7  A    between atoms: C6_14  and  C7_15 
REMARK    8  A    between atoms: C7_15  and  N3_16 
REMARK       I    between atoms: N3_16  and  C8_18 
REMARK    9  A    between atoms: C8_18  and  C9_20 
ROOT
HETATM    1  C5  UNL     1      -1.502  34.929  23.076  1.00  0.00     0.203 A 
HETATM    2  N1  UNL     1      -2.672  34.723  23.724  1.00  0.00    -0.272 N 
ATOM      3  H1  UNL     1      -3.594  35.063  23.448  1.00  0.00     0.189 HD
HETATM    4  N2  UNL     1      -2.383  33.999  24.773  1.00  0.00    -0.279 N 
ATOM      5  H2  UNL     1      -3.061  33.678  25.464  1.00  0.00     0.189 HD
HETATM    6  C6  UNL     1      -1.045  33.735  24.815  1.00  0.00     0.159 A 
HETATM    7  O3  UNL     1      -0.565  34.328  23.755  1.00  0.00    -0.270 OA
ENDROOT
BRANCH   6   8
HETATM    8  C7  UNL     1      -0.342  32.946  25.855  1.00  0.00     0.209 C 
BRANCH   8   9
HETATM    9  N3  UNL     1       0.829  32.333  25.271  1.00  0.00    -0.349 N 
HETATM   10  C8  UNL     1       2.122  32.896  25.425  1.00  0.00     0.258 C 
HETATM   11  O2  UNL     1       2.321  33.943  26.069  1.00  0.00    -0.267 OA
ATOM     12  H3  UNL     1       0.723  31.473  24.735  1.00  0.00     0.163 HD
BRANCH  10  13
HETATM   13  C9  UNL     1       3.274  32.224  24.805  1.00  0.00     0.072 A 
HETATM   14  C10 UNL     1       3.301  30.994  24.208  1.00  0.00     0.025 A 
HETATM   15  C11 UNL     1       4.468  30.579  23.705  1.00  0.00     0.009 A 
HETATM   16  C12 UNL     1       5.544  31.422  23.827  1.00  0.00     0.050 A 
HETATM   17  S3  UNL     1       4.879  32.763  24.643  1.00  0.00    -0.097 SA
ENDBRANCH  10  13
ENDBRANCH   8   9
ENDBRANCH   6   8
BRANCH   1  18
HETATM   18  S2  UNL     1      -1.421  35.876  21.573  1.00  0.00    -0.084 SA
BRANCH  18  19
HETATM   19  C4  UNL     1      -0.032  37.018  21.700  1.00  0.00     0.093 C 
BRANCH  19  20
HETATM   20  C3  UNL     1      -0.593  38.423  21.943  1.00  0.00     0.093 C 
BRANCH  20  21
HETATM   21  S1  UNL     1      -0.533  38.788  23.713  1.00  0.00    -0.091 SA
BRANCH  21  22
HETATM   22  C1  UNL     1       0.769  37.863  24.506  1.00  0.00     0.195 C 
HETATM   23  O1  UNL     1       0.464  36.972  25.273  1.00  0.00    -0.285 OA
BRANCH  22  24
HETATM   24  C2  UNL     1       2.185  38.188  24.224  1.00  0.00     0.175 C 
HETATM   25 BR1  UNL     1       3.146  36.573  23.854  1.00  0.00    -0.088 Br
ENDBRANCH  22  24
ENDBRANCH  21  22
ENDBRANCH  20  21
ENDBRANCH  19  20
ENDBRANCH  18  19
ENDBRANCH   1  18
TORSDOF 9
ENDMDL
MODEL 3
REMARK VINA RESULT: -6.880835038      4.385      6.170
REMARK  9 active torsions:
REMARK  status: ('A' for Active; 'I' for Inactive)
REMARK    1  A    between atoms: C1_2  and  C2_3 
REMARK    2  A    between atoms: C1_2  and  S1_5 
REMARK    3  A    between atoms: S1_5  and  C3_6 
REMARK    4  A    between atoms: C3_6  and  C4_7 
REMARK    5  A    between atoms: C4_7  and  S2_8 
REMARK    6  A    between atoms: S2_8  and  C5_9 
REMARK    7  A    between atoms: C6_14  and  C7_15 
REMARK    8  A    between atoms: C7_15  and  N3_16 
REMARK       I    between atoms: N3_16  and  C8_18 
REMARK    9  A    between atoms: C8_18  and  C9_20 
ROOT
HETATM    1  C5  UNL     1      -1.416  34.928  23.070  1.00  0.00     0.203 A 
HETATM    2  N1  UNL     1      -2.582  34.685  23.715  1.00  0.00    -0.272 N 
ATOM      3  H1  UNL     1      -3.512  35.001  23.439  1.00  0.00     0.189 HD
HETATM    4  N2  UNL     1      -2.274  33.964  24.760  1.00  0.00    -0.279 N 
ATOM      5  H2  UNL     1      -2.945  33.619  25.447  1.00  0.00     0.189 HD
HETATM    6  C6  UNL     1      -0.930  33.737  24.804  1.00  0.00     0.159 A 
HETATM    7  O3  UNL     1      -0.464  34.349  23.748  1.00  0.00    -0.270 OA
ENDROOT
BRANCH   6   8
HETATM    8  C7  UNL     1      -0.207  32.962  25.840  1.00  0.00     0.209 C 
BRANCH   8   9
HETATM    9  N3  UNL     1       0.941  32.324  25.238  1.00  0.00    -0.349 N 
HETATM   10  C8  UNL     1       2.252  32.841  25.396  1.00  0.00     0.258 C 
HETATM   11  O2  UNL     1       2.488  33.869  26.060  1.00  0.00    -0.267 OA
ATOM     12  H3  UNL     1       0.805  31.478  24.685  1.00  0.00     0.163 HD
BRANCH  10  13
HETATM   13  C9  UNL     1       3.378  32.146  24.757  1.00  0.00     0.072 A 
HETATM   14  C10 UNL     1       3.374  30.908  24.174  1.00  0.00     0.025 A 
HETATM   15  C11 UNL     1       4.522  30.471  23.648  1.00  0.00     0.009 A 
HETATM   16  C12 UNL     1       5.612  31.299  23.734  1.00  0.00     0.050 A 
HETATM   17  S3  UNL     1       4.987  32.659  24.549  1.00  0.00    -0.097 SA
ENDBRANCH  10  13
ENDBRANCH   8   9
ENDBRANCH   6   8
BRANCH   1  18
HETATM   18  S2  UNL     1      -1.358  35.886  21.574  1.00  0.00    -0.084 SA
BRANCH  18  19
HETATM   19  C4  UNL     1      -0.776  37.542  21.985  1.00  0.00     0.093 C 
BRANCH  19  20
HETATM   20  C3  UNL     1       0.610  37.728  21.358  1.00  0.00     0.093 C 
BRANCH  20  21
HETATM   21  S1  UNL     1       1.782  38.220  22.643  1.00  0.00    -0.091 SA
BRANCH  21  22
HETATM   22  C1  UNL     1       1.983  36.922  23.848  1.00  0.00     0.195 C 
HETATM   23  O1  UNL     1       2.691  35.976  23.570  1.00  0.00    -0.285 OA
BRANCH  22  24
HETATM   24  C2  UNL     1       1.294  37.012  25.155  1.00  0.00     0.175 C 
HETATM   25 BR1  UNL     1       0.584  38.777  25.379  1.00  0.00    -0.088 Br
ENDBRANCH  22  24
ENDBRANCH  21  22
ENDBRANCH  20  21
ENDBRANCH  19  20
ENDBRANCH  18  19
ENDBRANCH   1  18
TORSDOF 9
ENDMDL
MODEL 4
REMARK VINA RESULT: -6.874979982      4.832      8.725
REMARK  9 active torsions:
REMARK  status: ('A' for Active; 'I' for Inactive)
REMARK    1  A    between atoms: C1_2  and  C2_3 
REMARK    2  A    between atoms: C1_2  and  S1_5 
REMARK    3  A    between atoms: S1_5  and  C3_6 
REMARK    4  A    between atoms: C3_6  and  C4_7 
REMARK    5  A    between atoms: C4_7  and  S2_8 
REMARK    6  A    between atoms: S2_8  and  C5_9 
REMARK    7  A    between atoms: C6_14  and  C7_15 
REMARK    8  A    between atoms: C7_15  and  N3_16 
REMARK       I    between atoms: N3_16  and  C8_18 
REMARK    9  A    between atoms: C8_18  and  C9_20 
ROOT
HETATM    1  C5  UNL     1       4.186  31.583  24.376  1.00  0.00     0.203 A 
HETATM    2  N1  UNL     1       4.603  32.744  24.935  1.00  0.00    -0.272 N 
ATOM      3  H1  UNL     1       5.568  33.042  25.080  1.00  0.00     0.189 HD
HETATM    4  N2  UNL     1       3.520  33.404  25.250  1.00  0.00    -0.279 N 
ATOM      5  H2  UNL     1       3.507  34.323  25.692  1.00  0.00     0.189 HD
HETATM    6  C6  UNL     1       2.409  32.690  24.906  1.00  0.00     0.159 A 
HETATM    7  O3  UNL     1       2.882  31.592  24.378  1.00  0.00    -0.270 OA
ENDROOT
BRANCH   6   8
HETATM    8  C7  UNL     1       1.002  33.111  25.107  1.00  0.00     0.209 C 
BRANCH   8   9
HETATM    9  N3  UNL     1       0.842  34.466  24.636  1.00  0.00    -0.349 N 
HETATM   10  C8  UNL     1      -0.280  34.861  23.863  1.00  0.00     0.258 C 
HETATM   11  O2  UNL     1      -1.187  34.067  23.550  1.00  0.00    -0.267 OA
ATOM     12  H3  UNL     1       1.555  35.159  24.865  1.00  0.00     0.163 HD
BRANCH  10  13
HETATM   13  C9  UNL     1      -0.385  36.256  23.412  1.00  0.00     0.072 A 
HETATM   14  C10 UNL     1      -0.328  37.388  24.179  1.00  0.00     0.025 A 
HETATM   15  C11 UNL     1      -0.444  38.564  23.552  1.00  0.00     0.009 A 
HETATM   16  C12 UNL     1      -0.610  38.539  22.190  1.00  0.00     0.050 A 
HETATM   17  S3  UNL     1      -0.598  36.871  21.840  1.00  0.00    -0.097 SA
ENDBRANCH  10  13
ENDBRANCH   8   9
ENDBRANCH   6   8
BRANCH   1  18
HETATM   18  S2  UNL     1       5.337  30.362  23.791  1.00  0.00    -0.084 SA
BRANCH  18  19
HETATM   19  C4  UNL     1       7.006  31.005  24.015  1.00  0.00     0.093 C 
BRANCH  19  20
HETATM   20  C3  UNL     1       7.514  31.494  22.655  1.00  0.00     0.093 C 
BRANCH  20  21
HETATM   21  S1  UNL     1       9.209  32.095  22.836  1.00  0.00    -0.091 SA
BRANCH  21  22
HETATM   22  C1  UNL     1      10.378  30.881  22.254  1.00  0.00     0.195 C 
HETATM   23  O1  UNL     1      10.136  29.706  22.441  1.00  0.00    -0.285 OA
BRANCH  22  24
HETATM   24  C2  UNL     1      11.611  31.314  21.560  1.00  0.00     0.175 C 
HETATM   25 BR1  UNL     1      13.074  31.304  22.796  1.00  0.00    -0.088 Br
ENDBRANCH  22  24
ENDBRANCH  21  22
ENDBRANCH  20  21
ENDBRANCH  19  20
ENDBRANCH  18  19
ENDBRANCH   1  18
TORSDOF 9
ENDMDL
MODEL 5
REMARK VINA RESULT: -6.859844889      3.085      3.594
REMARK  9 active torsions:
REMARK  status: ('A' for Active; 'I' for Inactive)
REMARK    1  A    between atoms: C1_2  and  C2_3 
REMARK    2  A    between atoms: C1_2  and  S1_5 
REMARK    3  A    between atoms: S1_5  and  C3_6 
REMARK    4  A    between atoms: C3_6  and  C4_7 
REMARK    5  A    between atoms: C4_7  and  S2_8 
REMARK    6  A    between atoms: S2_8  and  C5_9 
REMARK    7  A    between atoms: C6_14  and  C7_15 
REMARK    8  A    between atoms: C7_15  and  N3_16 
REMARK       I    between atoms: N3_16  and  C8_18 
REMARK    9  A    between atoms: C8_18  and  C9_20 
ROOT
HETATM    1  C5  UNL     1       6.408  38.023  25.148  1.00  0.00     0.203 A 
HETATM    2  N1  UNL     1       7.647  38.461  25.473  1.00  0.00    -0.272 N 
ATOM      3  H1  UNL     1       7.960  39.431  25.527  1.00  0.00     0.189 HD
HETATM    4  N2  UNL     1       8.360  37.390  25.704  1.00  0.00    -0.279 N 
ATOM      5  H2  UNL     1       9.344  37.394  25.974  1.00  0.00     0.189 HD
HETATM    6  C6  UNL     1       7.605  36.268  25.532  1.00  0.00     0.159 A 
HETATM    7  O3  UNL     1       6.426  36.720  25.195  1.00  0.00    -0.270 OA
ENDROOT
BRANCH   6   8
HETATM    8  C7  UNL     1       8.065  34.869  25.703  1.00  0.00     0.209 C 
BRANCH   8   9
HETATM    9  N3  UNL     1       6.975  33.972  25.396  1.00  0.00    -0.349 N 
HETATM   10  C8  UNL     1       7.171  32.787  24.642  1.00  0.00     0.258 C 
HETATM   11  O2  UNL     1       8.289  32.452  24.206  1.00  0.00    -0.267 OA
ATOM     12  H3  UNL     1       6.038  34.197  25.730  1.00  0.00     0.163 HD
BRANCH  10  13
HETATM   13  C9  UNL     1       6.021  31.916  24.363  1.00  0.00     0.072 A 
HETATM   14  C10 UNL     1       6.041  30.604  23.977  1.00  0.00     0.025 A 
HETATM   15  C11 UNL     1       4.863  30.002  23.778  1.00  0.00     0.009 A 
HETATM   16  C12 UNL     1       3.731  30.750  23.979  1.00  0.00     0.050 A 
HETATM   17  S3  UNL     1       4.358  32.267  24.437  1.00  0.00    -0.097 SA
ENDBRANCH  10  13
ENDBRANCH   8   9
ENDBRANCH   6   8
BRANCH   1  18
HETATM   18  S2  UNL     1       5.093  39.152  24.750  1.00  0.00    -0.084 SA
BRANCH  18  19
HETATM   19  C4  UNL     1       4.686  40.090  26.234  1.00  0.00     0.093 C 
BRANCH  19  20
HETATM   20  C3  UNL     1       3.934  39.161  27.193  1.00  0.00     0.093 C 
BRANCH  20  21
HETATM   21  S1  UNL     1       3.793  39.962  28.808  1.00  0.00    -0.091 SA
BRANCH  21  22
HETATM   22  C1  UNL     1       3.893  38.761  30.122  1.00  0.00     0.195 C 
HETATM   23  O1  UNL     1       4.311  37.651  29.863  1.00  0.00    -0.285 OA
BRANCH  22  24
HETATM   24  C2  UNL     1       3.472  39.127  31.492  1.00  0.00     0.175 C 
HETATM   25 BR1  UNL     1       2.009  40.359  31.400  1.00  0.00    -0.088 Br
ENDBRANCH  22  24
ENDBRANCH  21  22
ENDBRANCH  20  21
ENDBRANCH  19  20
ENDBRANCH  18  19
ENDBRANCH   1  18
TORSDOF 9
ENDMDL
