MODEL 1
REMARK VINA RESULT: -9.720275158      0.000      0.000
REMARK  8 active torsions:
REMARK  status: ('A' for Active; 'I' for Inactive)
REMARK    1  A    between atoms: C1_2  and  C2_3 
REMARK       I    between atoms: C1_2  and  N6_27 
REMARK    2  A    between atoms: C2_3  and  S1_4 
REMARK    3  A    between atoms: S1_4  and  C3_5 
REMARK    4  A    between atoms: C4_10  and  N3_11 
REMARK    5  A    between atoms: N3_11  and  C5_12 
REMARK    6  A    between atoms: N3_11  and  C9_20 
REMARK    7  A    between atoms: N6_27  and  C13_29 
REMARK    8  A    between atoms: C13_29  and  C14_30 
ROOT
HETATM    1  C3  UNL     1       5.174  36.673  25.482  1.00  0.00     0.130 A 
HETATM    2  N1  UNL     1       4.371  37.051  26.477  1.00  0.00    -0.286 N 
ATOM      3  H1  UNL     1       4.762  37.516  27.296  1.00  0.00     0.188 HD
HETATM    4  N2  UNL     1       3.128  36.835  26.409  1.00  0.00    -0.278 N 
ATOM      5  H2  UNL     1       2.521  37.126  27.176  1.00  0.00     0.189 HD
HETATM    6  C4  UNL     1       2.611  36.237  25.356  1.00  0.00     0.170 A 
HETATM    7  S2  UNL     1       4.018  35.968  24.419  1.00  0.00    -0.026 SA
ENDROOT
BRANCH   6   8
HETATM    8  N3  UNL     1       1.228  35.955  24.996  1.00  0.00    -0.307 N 
BRANCH   8   9
HETATM    9  C5  UNL     1       0.588  36.695  24.003  1.00  0.00     0.111 A 
HETATM   10  C6  UNL     1       0.019  37.944  24.315  1.00  0.00     0.066 A 
HETATM   11  C7  UNL     1      -0.596  38.710  23.352  1.00  0.00     0.092 A 
HETATM   12  N4  UNL     1      -0.655  38.250  22.079  1.00  0.00    -0.362 N 
HETATM   13  C8  UNL     1      -0.124  37.067  21.751  1.00  0.00     0.181 A 
ATOM     14  H4  UNL     1      -1.111  38.814  21.360  1.00  0.00     0.165 HD
HETATM   15  N5  UNL     1       0.459  36.364  22.715  1.00  0.00    -0.338 N 
ATOM     16  H5  UNL     1       0.856  35.465  22.440  1.00  0.00     0.168 HD
ENDBRANCH   8   9
BRANCH   8  17
HETATM   17  C9  UNL     1       0.678  34.877  25.767  1.00  0.00     0.105 C 
HETATM   18  C10 UNL     1       1.657  33.738  26.019  1.00  0.00     0.105 C 
HETATM   19  C11 UNL     1       0.496  32.793  25.847  1.00  0.00     0.247 C 
HETATM   20  F1  UNL     1       0.047  32.377  27.097  1.00  0.00    -0.206 F 
HETATM   21  F2  UNL     1       0.675  31.794  24.925  1.00  0.00    -0.206 F 
HETATM   22  C12 UNL     1      -0.357  33.974  25.311  1.00  0.00     0.105 C 
ENDBRANCH   8  17
ENDBRANCH   6   8
BRANCH   1  23
HETATM   23  S1  UNL     1       6.934  36.968  25.269  1.00  0.00    -0.094 SA
BRANCH  23  24
HETATM   24  C2  UNL     1       7.839  35.744  26.220  1.00  0.00     0.184 C 
BRANCH  24  25
HETATM   25  C1  UNL     1       8.151  34.555  25.370  1.00  0.00     0.227 C 
HETATM   26  O1  UNL     1       9.376  34.329  25.122  1.00  0.00    -0.273 OA
HETATM   27  N6  UNL     1       7.111  33.748  24.897  1.00  0.00    -0.356 N 
ATOM     28  H6  UNL     1       6.133  33.970  25.087  1.00  0.00     0.162 HD
BRANCH  27  29
HETATM   29  C13 UNL     1       7.496  32.556  24.108  1.00  0.00     0.161 C 
BRANCH  29  30
HETATM   30  C14 UNL     1       6.202  31.790  23.992  1.00  0.00    -0.041 A 
HETATM   31  C15 UNL     1       6.094  30.549  23.446  1.00  0.00     0.009 A 
HETATM   32  C16 UNL     1       4.882  29.861  23.398  1.00  0.00     0.001 A 
HETATM   33  C17 UNL     1       3.750  30.426  23.906  1.00  0.00     0.000 A 
HETATM   34  C18 UNL     1       3.862  31.703  24.466  1.00  0.00     0.001 A 
HETATM   35  C19 UNL     1       5.056  32.381  24.514  1.00  0.00     0.009 A 
ENDBRANCH  29  30
ENDBRANCH  27  29
ENDBRANCH  24  25
ENDBRANCH  23  24
ENDBRANCH   1  23
TORSDOF 8
ENDMDL
MODEL 2
REMARK VINA RESULT: -9.641942218      3.597      7.163
REMARK  8 active torsions:
REMARK  status: ('A' for Active; 'I' for Inactive)
REMARK    1  A    between atoms: C1_2  and  C2_3 
REMARK       I    between atoms: C1_2  and  N6_27 
REMARK    2  A    between atoms: C2_3  and  S1_4 
REMARK    3  A    between atoms: S1_4  and  C3_5 
REMARK    4  A    between atoms: C4_10  and  N3_11 
REMARK    5  A    between atoms: N3_11  and  C5_12 
REMARK    6  A    between atoms: N3_11  and  C9_20 
REMARK    7  A    between atoms: N6_27  and  C13_29 
REMARK    8  A    between atoms: C13_29  and  C14_30 
ROOT
HETATM    1  C3  UNL     1       1.757  36.821  24.458  1.00  0.00     0.130 A 
HETATM    2  N1  UNL     1       1.966  36.497  25.734  1.00  0.00    -0.286 N 
ATOM      3  H1  UNL     1       1.355  36.871  26.460  1.00  0.00     0.188 HD
HETATM    4  N2  UNL     1       2.917  35.727  26.047  1.00  0.00    -0.278 N 
ATOM      5  H2  UNL     1       3.071  35.485  27.026  1.00  0.00     0.189 HD
HETATM    6  C4  UNL     1       3.712  35.236  25.119  1.00  0.00     0.170 A 
HETATM    7  S2  UNL     1       3.037  35.943  23.714  1.00  0.00    -0.026 SA
ENDROOT
BRANCH   6   8
HETATM    8  N3  UNL     1       4.804  34.276  25.202  1.00  0.00    -0.307 N 
BRANCH   8   9
HETATM    9  C5  UNL     1       4.698  33.026  24.595  1.00  0.00     0.111 A 
HETATM   10  C6  UNL     1       3.537  32.251  24.783  1.00  0.00     0.066 A 
HETATM   11  C7  UNL     1       3.391  31.024  24.176  1.00  0.00     0.092 A 
HETATM   12  N4  UNL     1       4.386  30.555  23.385  1.00  0.00    -0.362 N 
HETATM   13  C8  UNL     1       5.501  31.267  23.188  1.00  0.00     0.181 A 
ATOM     14  H4  UNL     1       4.283  29.645  22.933  1.00  0.00     0.165 HD
HETATM   15  N5  UNL     1       5.596  32.445  23.794  1.00  0.00    -0.338 N 
ATOM     16  H5  UNL     1       6.455  32.969  23.628  1.00  0.00     0.168 HD
ENDBRANCH   8   9
BRANCH   8  17
HETATM   17  C9  UNL     1       5.918  34.788  25.947  1.00  0.00     0.105 C 
HETATM   18  C10 UNL     1       6.753  35.809  25.185  1.00  0.00     0.105 C 
HETATM   19  C11 UNL     1       7.968  35.198  25.834  1.00  0.00     0.247 C 
HETATM   20  F1  UNL     1       8.378  35.998  26.896  1.00  0.00    -0.206 F 
HETATM   21  F2  UNL     1       8.964  34.803  24.978  1.00  0.00    -0.206 F 
HETATM   22  C12 UNL     1       7.085  34.021  26.329  1.00  0.00     0.105 C 
ENDBRANCH   8  17
ENDBRANCH   6   8
BRANCH   1  23
HETATM   23  S1  UNL     1       0.418  37.778  23.735  1.00  0.00    -0.094 SA
BRANCH  23  24
HETATM   24  C2  UNL     1      -0.153  36.938  22.255  1.00  0.00     0.184 C 
BRANCH  24  25
HETATM   25  C1  UNL     1      -1.020  35.777  22.620  1.00  0.00     0.227 C 
HETATM   26  O1  UNL     1      -1.408  35.027  21.672  1.00  0.00    -0.273 OA
HETATM   27  N6  UNL     1      -1.359  35.559  23.960  1.00  0.00    -0.356 N 
ATOM     28  H6  UNL     1      -1.059  36.195  24.698  1.00  0.00     0.162 HD
BRANCH  27  29
HETATM   29  C13 UNL     1      -2.176  34.359  24.254  1.00  0.00     0.161 C 
BRANCH  29  30
HETATM   30  C14 UNL     1      -1.470  33.750  25.440  1.00  0.00    -0.041 A 
HETATM   31  C15 UNL     1      -0.123  33.586  25.529  1.00  0.00     0.009 A 
HETATM   32  C16 UNL     1       0.489  33.054  26.663  1.00  0.00     0.001 A 
HETATM   33  C17 UNL     1      -0.262  32.676  27.736  1.00  0.00     0.000 A 
HETATM   34  C18 UNL     1      -1.648  32.844  27.644  1.00  0.00     0.001 A 
HETATM   35  C19 UNL     1      -2.251  33.368  26.526  1.00  0.00     0.009 A 
ENDBRANCH  29  30
ENDBRANCH  27  29
ENDBRANCH  24  25
ENDBRANCH  23  24
ENDBRANCH   1  23
TORSDOF 8
ENDMDL
MODEL 3
REMARK VINA RESULT: -9.540534981      0.626      1.311
REMARK  8 active torsions:
REMARK  status: ('A' for Active; 'I' for Inactive)
REMARK    1  A    between atoms: C1_2  and  C2_3 
REMARK       I    between atoms: C1_2  and  N6_27 
REMARK    2  A    between atoms: C2_3  and  S1_4 
REMARK    3  A    between atoms: S1_4  and  C3_5 
REMARK    4  A    between atoms: C4_10  and  N3_11 
REMARK    5  A    between atoms: N3_11  and  C5_12 
REMARK    6  A    between atoms: N3_11  and  C9_20 
REMARK    7  A    between atoms: N6_27  and  C13_29 
REMARK    8  A    between atoms: C13_29  and  C14_30 
ROOT
HETATM    1  C3  UNL     1       5.281  36.695  25.642  1.00  0.00     0.130 A 
HETATM    2  N1  UNL     1       4.313  37.188  26.415  1.00  0.00    -0.286 N 
ATOM      3  H1  UNL     1       4.551  37.756  27.227  1.00  0.00     0.188 HD
HETATM    4  N2  UNL     1       3.101  36.954  26.144  1.00  0.00    -0.278 N 
ATOM      5  H2  UNL     1       2.367  37.333  26.742  1.00  0.00     0.189 HD
HETATM    6  C4  UNL     1       2.780  36.223  25.097  1.00  0.00     0.170 A 
HETATM    7  S2  UNL     1       4.332  35.852  24.479  1.00  0.00    -0.026 SA
ENDROOT
BRANCH   6   8
HETATM    8  N3  UNL     1       1.484  35.885  24.524  1.00  0.00    -0.307 N 
BRANCH   8   9
HETATM    9  C5  UNL     1       0.735  36.846  23.847  1.00  0.00     0.111 A 
HETATM   10  C6  UNL     1       0.057  37.846  24.569  1.00  0.00     0.066 A 
HETATM   11  C7  UNL     1      -0.669  38.824  23.928  1.00  0.00     0.092 A 
HETATM   12  N4  UNL     1      -0.732  38.821  22.575  1.00  0.00    -0.362 N 
HETATM   13  C8  UNL     1      -0.099  37.884  21.860  1.00  0.00     0.181 A 
ATOM     14  H4  UNL     1      -1.269  39.543  22.094  1.00  0.00     0.165 HD
HETATM   15  N5  UNL     1       0.589  36.961  22.523  1.00  0.00    -0.338 N 
ATOM     16  H5  UNL     1       1.062  36.258  21.956  1.00  0.00     0.168 HD
ENDBRANCH   8   9
BRANCH   8  17
HETATM   17  C9  UNL     1       1.135  34.512  24.750  1.00  0.00     0.105 C 
HETATM   18  C10 UNL     1      -0.332  34.197  24.489  1.00  0.00     0.105 C 
HETATM   19  C11 UNL     1      -0.272  33.268  25.674  1.00  0.00     0.247 C 
HETATM   20  F1  UNL     1      -0.149  31.955  25.227  1.00  0.00    -0.206 F 
HETATM   21  F2  UNL     1      -1.224  33.473  26.638  1.00  0.00    -0.206 F 
HETATM   22  C12 UNL     1       1.113  33.863  26.044  1.00  0.00     0.105 C 
ENDBRANCH   8  17
ENDBRANCH   6   8
BRANCH   1  23
HETATM   23  S1  UNL     1       7.054  36.978  25.725  1.00  0.00    -0.094 SA
BRANCH  23  24
HETATM   24  C2  UNL     1       7.812  35.606  26.600  1.00  0.00     0.184 C 
BRANCH  24  25
HETATM   25  C1  UNL     1       8.026  34.454  25.672  1.00  0.00     0.227 C 
HETATM   26  O1  UNL     1       9.149  34.391  25.082  1.00  0.00    -0.273 OA
HETATM   27  N6  UNL     1       7.012  33.507  25.498  1.00  0.00    -0.356 N 
ATOM     28  H6  UNL     1       6.109  33.598  25.962  1.00  0.00     0.162 HD
BRANCH  27  29
HETATM   29  C13 UNL     1       7.314  32.363  24.607  1.00  0.00     0.161 C 
BRANCH  29  30
HETATM   30  C14 UNL     1       5.960  31.736  24.386  1.00  0.00    -0.041 A 
HETATM   31  C15 UNL     1       4.779  32.336  24.693  1.00  0.00     0.009 A 
HETATM   32  C16 UNL     1       3.548  31.734  24.433  1.00  0.00     0.001 A 
HETATM   33  C17 UNL     1       3.496  30.502  23.853  1.00  0.00     0.000 A 
HETATM   34  C18 UNL     1       4.711  29.884  23.538  1.00  0.00     0.001 A 
HETATM   35  C19 UNL     1       5.924  30.478  23.794  1.00  0.00     0.009 A 
ENDBRANCH  29  30
ENDBRANCH  27  29
ENDBRANCH  24  25
ENDBRANCH  23  24
ENDBRANCH   1  23
TORSDOF 8
ENDMDL
MODEL 4
REMARK VINA RESULT: -9.497191050      2.454      3.659
REMARK  8 active torsions:
REMARK  status: ('A' for Active; 'I' for Inactive)
REMARK    1  A    between atoms: C1_2  and  C2_3 
REMARK       I    between atoms: C1_2  and  N6_27 
REMARK    2  A    between atoms: C2_3  and  S1_4 
REMARK    3  A    between atoms: S1_4  and  C3_5 
REMARK    4  A    between atoms: C4_10  and  N3_11 
REMARK    5  A    between atoms: N3_11  and  C5_12 
REMARK    6  A    between atoms: N3_11  and  C9_20 
REMARK    7  A    between atoms: N6_27  and  C13_29 
REMARK    8  A    between atoms: C13_29  and  C14_30 
ROOT
HETATM    1  C3  UNL     1       4.501  36.962  25.477  1.00  0.00     0.130 A 
HETATM    2  N1  UNL     1       3.455  37.391  26.183  1.00  0.00    -0.286 N 
ATOM      3  H1  UNL     1       3.604  37.931  27.035  1.00  0.00     0.188 HD
HETATM    4  N2  UNL     1       2.279  37.130  25.801  1.00  0.00    -0.278 N 
ATOM      5  H2  UNL     1       1.484  37.461  26.348  1.00  0.00     0.189 HD
HETATM    6  C4  UNL     1       2.074  36.435  24.702  1.00  0.00     0.170 A 
HETATM    7  S2  UNL     1       3.684  36.139  24.205  1.00  0.00    -0.026 SA
ENDROOT
BRANCH   6   8
HETATM    8  N3  UNL     1       0.843  36.080  24.008  1.00  0.00    -0.307 N 
BRANCH   8   9
HETATM    9  C5  UNL     1      -0.033  35.141  24.549  1.00  0.00     0.111 A 
HETATM   10  C6  UNL     1       0.434  33.854  24.879  1.00  0.00     0.066 A 
HETATM   11  C7  UNL     1      -0.400  32.914  25.440  1.00  0.00     0.092 A 
HETATM   12  N4  UNL     1      -1.695  33.235  25.675  1.00  0.00    -0.362 N 
HETATM   13  C8  UNL     1      -2.168  34.448  25.372  1.00  0.00     0.181 A 
ATOM     14  H4  UNL     1      -2.318  32.541  26.091  1.00  0.00     0.165 HD
HETATM   15  N5  UNL     1      -1.326  35.323  24.833  1.00  0.00    -0.338 N 
ATOM     16  H5  UNL     1      -1.711  36.240  24.610  1.00  0.00     0.168 HD
ENDBRANCH   8   9
BRANCH   8  17
HETATM   17  C9  UNL     1       0.692  36.801  22.775  1.00  0.00     0.105 C 
HETATM   18  C10 UNL     1       0.865  38.307  22.916  1.00  0.00     0.105 C 
HETATM   19  C11 UNL     1      -0.240  38.460  21.904  1.00  0.00     0.247 C 
HETATM   20  F1  UNL     1       0.309  38.745  20.657  1.00  0.00    -0.206 F 
HETATM   21  F2  UNL     1      -1.286  39.261  22.282  1.00  0.00    -0.206 F 
HETATM   22  C12 UNL     1      -0.549  36.945  22.044  1.00  0.00     0.105 C 
ENDBRANCH   8  17
ENDBRANCH   6   8
BRANCH   1  23
HETATM   23  S1  UNL     1       6.250  37.297  25.722  1.00  0.00    -0.094 SA
BRANCH  23  24
HETATM   24  C2  UNL     1       6.945  35.996  26.745  1.00  0.00     0.184 C 
BRANCH  24  25
HETATM   25  C1  UNL     1       7.433  34.871  25.892  1.00  0.00     0.227 C 
HETATM   26  O1  UNL     1       8.626  34.947  25.464  1.00  0.00    -0.273 OA
HETATM   27  N6  UNL     1       6.583  33.796  25.608  1.00  0.00    -0.356 N 
ATOM     28  H6  UNL     1       5.618  33.775  25.940  1.00  0.00     0.162 HD
BRANCH  27  29
HETATM   29  C13 UNL     1       7.151  32.691  24.803  1.00  0.00     0.161 C 
BRANCH  29  30
HETATM   30  C14 UNL     1       5.934  31.880  24.431  1.00  0.00    -0.041 A 
HETATM   31  C15 UNL     1       5.981  30.619  23.922  1.00  0.00     0.009 A 
HETATM   32  C16 UNL     1       4.828  29.891  23.630  1.00  0.00     0.001 A 
HETATM   33  C17 UNL     1       3.598  30.435  23.852  1.00  0.00     0.000 A 
HETATM   34  C18 UNL     1       3.550  31.732  24.374  1.00  0.00     0.001 A 
HETATM   35  C19 UNL     1       4.687  32.450  24.661  1.00  0.00     0.009 A 
ENDBRANCH  29  30
ENDBRANCH  27  29
ENDBRANCH  24  25
ENDBRANCH  23  24
ENDBRANCH   1  23
TORSDOF 8
ENDMDL
MODEL 5
REMARK VINA RESULT: -9.369653676      2.995      6.842
REMARK  8 active torsions:
REMARK  status: ('A' for Active; 'I' for Inactive)
REMARK    1  A    between atoms: C1_2  and  C2_3 
REMARK       I    between atoms: C1_2  and  N6_27 
REMARK    2  A    between atoms: C2_3  and  S1_4 
REMARK    3  A    between atoms: S1_4  and  C3_5 
REMARK    4  A    between atoms: C4_10  and  N3_11 
REMARK    5  A    between atoms: N3_11  and  C5_12 
REMARK    6  A    between atoms: N3_11  and  C9_20 
REMARK    7  A    between atoms: N6_27  and  C13_29 
REMARK    8  A    between atoms: C13_29  and  C14_30 
ROOT
HETATM    1  C3  UNL     1       1.631  36.996  24.338  1.00  0.00     0.130 A 
HETATM    2  N1  UNL     1       1.689  36.648  25.623  1.00  0.00    -0.286 N 
ATOM      3  H1  UNL     1       0.927  36.902  26.253  1.00  0.00     0.188 HD
HETATM    4  N2  UNL     1       2.683  36.006  26.065  1.00  0.00    -0.278 N 
ATOM      5  H2  UNL     1       2.720  35.746  27.050  1.00  0.00     0.189 HD
HETATM    6  C4  UNL     1       3.671  35.672  25.262  1.00  0.00     0.170 A 
HETATM    7  S2  UNL     1       3.122  36.338  23.784  1.00  0.00    -0.026 SA
ENDROOT
BRANCH   6   8
HETATM    8  N3  UNL     1       4.866  34.871  25.493  1.00  0.00    -0.307 N 
BRANCH   8   9
HETATM    9  C5  UNL     1       6.065  35.475  25.866  1.00  0.00     0.111 A 
HETATM   10  C6  UNL     1       6.566  36.561  25.121  1.00  0.00     0.066 A 
HETATM   11  C7  UNL     1       7.733  37.196  25.480  1.00  0.00     0.092 A 
HETATM   12  N4  UNL     1       8.412  36.765  26.570  1.00  0.00    -0.362 N 
HETATM   13  C8  UNL     1       7.963  35.737  27.297  1.00  0.00     0.181 A 
ATOM     14  H4  UNL     1       9.279  37.232  26.840  1.00  0.00     0.165 HD
HETATM   15  N5  UNL     1       6.832  35.155  26.913  1.00  0.00    -0.338 N 
ATOM     16  H5  UNL     1       6.511  34.374  27.483  1.00  0.00     0.168 HD
ENDBRANCH   8   9
BRANCH   8  17
HETATM   17  C9  UNL     1       4.625  33.470  25.293  1.00  0.00     0.105 C 
HETATM   18  C10 UNL     1       5.796  32.726  24.667  1.00  0.00     0.105 C 
HETATM   19  C11 UNL     1       4.784  31.923  23.892  1.00  0.00     0.247 C 
HETATM   20  F1  UNL     1       4.616  30.681  24.498  1.00  0.00    -0.206 F 
HETATM   21  F2  UNL     1       4.962  31.894  22.534  1.00  0.00    -0.206 F 
HETATM   22  C12 UNL     1       3.681  32.918  24.344  1.00  0.00     0.105 C 
ENDBRANCH   8  17
ENDBRANCH   6   8
BRANCH   1  23
HETATM   23  S1  UNL     1       0.293  37.787  23.435  1.00  0.00    -0.094 SA
BRANCH  23  24
HETATM   24  C2  UNL     1      -0.162  36.739  22.050  1.00  0.00     0.184 C 
BRANCH  24  25
HETATM   25  C1  UNL     1      -1.049  35.628  22.510  1.00  0.00     0.227 C 
HETATM   26  O1  UNL     1      -1.474  34.826  21.622  1.00  0.00    -0.273 OA
HETATM   27  N6  UNL     1      -1.364  35.509  23.867  1.00  0.00    -0.356 N 
ATOM     28  H6  UNL     1      -1.033  36.185  24.555  1.00  0.00     0.162 HD
BRANCH  27  29
HETATM   29  C13 UNL     1      -2.202  34.352  24.258  1.00  0.00     0.161 C 
BRANCH  29  30
HETATM   30  C14 UNL     1      -1.431  33.743  25.403  1.00  0.00    -0.041 A 
HETATM   31  C15 UNL     1      -0.085  33.546  25.400  1.00  0.00     0.009 A 
HETATM   32  C16 UNL     1       0.592  33.017  26.499  1.00  0.00     0.001 A 
HETATM   33  C17 UNL     1      -0.092  32.676  27.627  1.00  0.00     0.000 A 
HETATM   34  C18 UNL     1      -1.476  32.878  27.630  1.00  0.00     0.001 A 
HETATM   35  C19 UNL     1      -2.143  33.400  26.547  1.00  0.00     0.009 A 
ENDBRANCH  29  30
ENDBRANCH  27  29
ENDBRANCH  24  25
ENDBRANCH  23  24
ENDBRANCH   1  23
TORSDOF 8
ENDMDL
