MODEL 1
REMARK VINA RESULT: -8.988161313      0.000      0.000
REMARK  9 active torsions:
REMARK  status: ('A' for Active; 'I' for Inactive)
REMARK    1  A    between atoms: C1_2  and  C2_3 
REMARK       I    between atoms: C1_2  and  N4_22 
REMARK    2  A    between atoms: C2_3  and  O2_4 
REMARK    3  A    between atoms: O2_4  and  C3_5 
REMARK    4  A    between atoms: C3_5  and  C4_7 
REMARK    5  A    between atoms: C7_10  and  N1_11 
REMARK    6  A    between atoms: C11_17  and  N3_18 
REMARK    7  A    between atoms: N4_22  and  C13_24 
REMARK    8  A    between atoms: C16_27  and  O6_28 
REMARK    9  A    between atoms: O6_28  and  C17_29 
ROOT
HETATM    1  C3  UNL     1       0.305  32.898  26.194  1.00  0.00     0.293 C 
HETATM    2  O3  UNL     1       0.196  33.186  27.412  1.00  0.00    -0.259 OA
ENDROOT
BRANCH   1   3
HETATM    3  O2  UNL     1      -0.826  32.862  25.401  1.00  0.00    -0.308 OA
BRANCH   3   4
HETATM    4  C2  UNL     1      -1.664  33.954  25.152  1.00  0.00     0.282 C 
BRANCH   4   5
HETATM    5  C1  UNL     1      -1.170  34.763  24.029  1.00  0.00     0.246 C 
HETATM    6  O1  UNL     1      -1.594  34.414  22.889  1.00  0.00    -0.271 OA
HETATM    7  N4  UNL     1      -0.297  35.830  24.204  1.00  0.00    -0.325 N 
ATOM      8  H4  UNL     1      -0.009  36.017  25.165  1.00  0.00     0.169 HD
BRANCH   7   9
HETATM    9  C13 UNL     1       0.242  36.691  23.219  1.00  0.00     0.035 A 
HETATM   10  C14 UNL     1       1.513  36.621  22.710  1.00  0.00     0.032 A 
HETATM   11  C15 UNL     1       1.990  37.518  21.745  1.00  0.00     0.039 A 
HETATM   12  C16 UNL     1       1.216  38.529  21.241  1.00  0.00     0.075 A 
HETATM   13  C18 UNL     1      -0.086  38.602  21.760  1.00  0.00     0.039 A 
HETATM   14  C19 UNL     1      -0.552  37.724  22.705  1.00  0.00     0.032 A 
BRANCH  12  15
HETATM   15  O6  UNL     1       1.627  39.442  20.291  1.00  0.00    -0.290 OA
BRANCH  15  16
HETATM   16  C17 UNL     1       1.284  39.382  18.941  1.00  0.00     0.505 C 
HETATM   17  F1  UNL     1       0.100  40.092  18.797  1.00  0.00    -0.184 F 
HETATM   18  F2  UNL     1       0.929  38.053  18.640  1.00  0.00    -0.184 F 
ENDBRANCH  15  16
ENDBRANCH  12  15
ENDBRANCH   7   9
ENDBRANCH   4   5
ENDBRANCH   3   4
ENDBRANCH   1   3
BRANCH   1  19
HETATM   19  C4  UNL     1       1.599  32.598  25.588  1.00  0.00     0.042 A 
HETATM   20  C5  UNL     1       1.838  31.404  24.942  1.00  0.00     0.020 A 
HETATM   21  C6  UNL     1       3.063  31.131  24.371  1.00  0.00     0.035 A 
HETATM   22  C7  UNL     1       4.109  32.043  24.422  1.00  0.00     0.088 A 
HETATM   23  C11 UNL     1       3.873  33.237  25.065  1.00  0.00     0.132 A 
HETATM   24  C12 UNL     1       2.628  33.510  25.644  1.00  0.00     0.056 A 
BRANCH  22  25
HETATM   25  N1  UNL     1       5.340  31.687  23.812  1.00  0.00    -0.266 N 
HETATM   26  C8  UNL     1       5.583  31.693  22.481  1.00  0.00     0.118 A 
HETATM   27  C9  UNL     1       6.871  31.287  22.273  1.00  0.00     0.038 A 
HETATM   28  C10 UNL     1       7.422  31.030  23.511  1.00  0.00     0.109 A 
HETATM   29  N2  UNL     1       6.453  31.288  24.403  1.00  0.00    -0.305 N 
ATOM     30  H2  UNL     1       6.562  31.189  25.412  1.00  0.00     0.186 HD
ENDBRANCH  22  25
BRANCH  23  31
HETATM   31  N3  UNL     1       4.920  34.193  25.137  1.00  0.00    -0.113 N 
HETATM   32  O4  UNL     1       4.823  35.267  24.514  1.00  0.00    -0.532 OA
HETATM   33  O5  UNL     1       6.054  33.978  25.877  1.00  0.00    -0.532 OA
ENDBRANCH  23  31
ENDBRANCH   1  19
TORSDOF 9
ENDMDL
MODEL 2
REMARK VINA RESULT: -8.941937378      0.612      1.137
REMARK  9 active torsions:
REMARK  status: ('A' for Active; 'I' for Inactive)
REMARK    1  A    between atoms: C1_2  and  C2_3 
REMARK       I    between atoms: C1_2  and  N4_22 
REMARK    2  A    between atoms: C2_3  and  O2_4 
REMARK    3  A    between atoms: O2_4  and  C3_5 
REMARK    4  A    between atoms: C3_5  and  C4_7 
REMARK    5  A    between atoms: C7_10  and  N1_11 
REMARK    6  A    between atoms: C11_17  and  N3_18 
REMARK    7  A    between atoms: N4_22  and  C13_24 
REMARK    8  A    between atoms: C16_27  and  O6_28 
REMARK    9  A    between atoms: O6_28  and  C17_29 
ROOT
HETATM    1  C3  UNL     1       0.306  32.899  26.250  1.00  0.00     0.293 C 
HETATM    2  O3  UNL     1       0.217  33.236  27.458  1.00  0.00    -0.259 OA
ENDROOT
BRANCH   1   3
HETATM    3  O2  UNL     1      -0.841  32.801  25.487  1.00  0.00    -0.308 OA
BRANCH   3   4
HETATM    4  C2  UNL     1      -1.729  33.854  25.238  1.00  0.00     0.282 C 
BRANCH   4   5
HETATM    5  C1  UNL     1      -1.238  34.726  24.161  1.00  0.00     0.246 C 
HETATM    6  O1  UNL     1      -1.661  34.437  23.004  1.00  0.00    -0.271 OA
HETATM    7  N4  UNL     1      -0.370  35.785  24.395  1.00  0.00    -0.325 N 
ATOM      8  H4  UNL     1      -0.083  35.920  25.364  1.00  0.00     0.169 HD
BRANCH   7   9
HETATM    9  C13 UNL     1       0.166  36.701  23.458  1.00  0.00     0.035 A 
HETATM   10  C14 UNL     1      -0.536  37.697  22.828  1.00  0.00     0.032 A 
HETATM   11  C15 UNL     1       0.054  38.561  21.897  1.00  0.00     0.039 A 
HETATM   12  C16 UNL     1       1.376  38.471  21.551  1.00  0.00     0.075 A 
HETATM   13  C18 UNL     1       2.096  37.454  22.196  1.00  0.00     0.039 A 
HETATM   14  C19 UNL     1       1.518  36.608  23.107  1.00  0.00     0.032 A 
BRANCH  12  15
HETATM   15  O6  UNL     1       2.014  39.291  20.643  1.00  0.00    -0.290 OA
BRANCH  15  16
HETATM   16  C17 UNL     1       2.396  38.900  19.360  1.00  0.00     0.505 C 
HETATM   17  F1  UNL     1       1.576  37.837  19.006  1.00  0.00    -0.184 F 
HETATM   18  F2  UNL     1       3.682  38.332  19.443  1.00  0.00    -0.184 F 
ENDBRANCH  15  16
ENDBRANCH  12  15
ENDBRANCH   7   9
ENDBRANCH   4   5
ENDBRANCH   3   4
ENDBRANCH   1   3
BRANCH   1  19
HETATM   19  C4  UNL     1       1.594  32.605  25.627  1.00  0.00     0.042 A 
HETATM   20  C5  UNL     1       1.833  31.406  24.990  1.00  0.00     0.020 A 
HETATM   21  C6  UNL     1       3.052  31.139  24.403  1.00  0.00     0.035 A 
HETATM   22  C7  UNL     1       4.090  32.061  24.429  1.00  0.00     0.088 A 
HETATM   23  C11 UNL     1       3.853  33.259  25.064  1.00  0.00     0.132 A 
HETATM   24  C12 UNL     1       2.615  33.526  25.659  1.00  0.00     0.056 A 
BRANCH  22  25
HETATM   25  N1  UNL     1       5.315  31.710  23.803  1.00  0.00    -0.266 N 
HETATM   26  C8  UNL     1       5.541  31.719  22.469  1.00  0.00     0.118 A 
HETATM   27  C9  UNL     1       6.828  31.317  22.245  1.00  0.00     0.038 A 
HETATM   28  C10 UNL     1       7.395  31.061  23.476  1.00  0.00     0.109 A 
HETATM   29  N2  UNL     1       6.436  31.314  24.380  1.00  0.00    -0.305 N 
ATOM     30  H2  UNL     1       6.558  31.214  25.388  1.00  0.00     0.186 HD
ENDBRANCH  22  25
BRANCH  23  31
HETATM   31  N3  UNL     1       4.892  34.226  25.110  1.00  0.00    -0.113 N 
HETATM   32  O4  UNL     1       4.762  35.305  24.504  1.00  0.00    -0.532 OA
HETATM   33  O5  UNL     1       6.053  34.013  25.807  1.00  0.00    -0.532 OA
ENDBRANCH  23  31
ENDBRANCH   1  19
TORSDOF 9
ENDMDL
MODEL 3
REMARK VINA RESULT: -8.940972040      3.366      7.395
REMARK  9 active torsions:
REMARK  status: ('A' for Active; 'I' for Inactive)
REMARK    1  A    between atoms: C1_2  and  C2_3 
REMARK       I    between atoms: C1_2  and  N4_22 
REMARK    2  A    between atoms: C2_3  and  O2_4 
REMARK    3  A    between atoms: O2_4  and  C3_5 
REMARK    4  A    between atoms: C3_5  and  C4_7 
REMARK    5  A    between atoms: C7_10  and  N1_11 
REMARK    6  A    between atoms: C11_17  and  N3_18 
REMARK    7  A    between atoms: N4_22  and  C13_24 
REMARK    8  A    between atoms: C16_27  and  O6_28 
REMARK    9  A    between atoms: O6_28  and  C17_29 
ROOT
HETATM    1  C3  UNL     1      -1.340  34.368  25.358  1.00  0.00     0.293 C 
HETATM    2  O3  UNL     1      -2.541  34.394  25.728  1.00  0.00    -0.259 OA
ENDROOT
BRANCH   1   3
HETATM    3  O2  UNL     1      -0.462  33.492  25.968  1.00  0.00    -0.308 OA
BRANCH   3   4
HETATM    4  C2  UNL     1       0.122  32.382  25.348  1.00  0.00     0.282 C 
BRANCH   4   5
HETATM    5  C1  UNL     1       1.586  32.504  25.301  1.00  0.00     0.246 C 
HETATM    6  O1  UNL     1       2.062  33.486  25.941  1.00  0.00    -0.271 OA
HETATM    7  N4  UNL     1       2.388  31.610  24.602  1.00  0.00    -0.325 N 
ATOM      8  H4  UNL     1       1.897  30.862  24.111  1.00  0.00     0.169 HD
BRANCH   7   9
HETATM    9  C13 UNL     1       3.798  31.605  24.486  1.00  0.00     0.035 A 
HETATM   10  C14 UNL     1       4.625  32.656  24.787  1.00  0.00     0.032 A 
HETATM   11  C15 UNL     1       6.016  32.589  24.632  1.00  0.00     0.039 A 
HETATM   12  C16 UNL     1       6.647  31.466  24.170  1.00  0.00     0.075 A 
HETATM   13  C18 UNL     1       5.802  30.388  23.862  1.00  0.00     0.039 A 
HETATM   14  C19 UNL     1       4.441  30.454  24.012  1.00  0.00     0.032 A 
BRANCH  12  15
HETATM   15  O6  UNL     1       8.010  31.339  23.996  1.00  0.00    -0.290 OA
BRANCH  15  16
HETATM   16  C17 UNL     1       8.741  31.982  22.998  1.00  0.00     0.505 C 
HETATM   17  F1  UNL     1       9.126  33.212  23.514  1.00  0.00    -0.184 F 
HETATM   18  F2  UNL     1       7.856  32.308  21.952  1.00  0.00    -0.184 F 
ENDBRANCH  15  16
ENDBRANCH  12  15
ENDBRANCH   7   9
ENDBRANCH   4   5
ENDBRANCH   3   4
ENDBRANCH   1   3
BRANCH   1  19
HETATM   19  C4  UNL     1      -0.842  35.240  24.298  1.00  0.00     0.042 A 
HETATM   20  C5  UNL     1      -1.157  35.022  22.974  1.00  0.00     0.020 A 
HETATM   21  C6  UNL     1      -0.682  35.853  21.980  1.00  0.00     0.035 A 
HETATM   22  C7  UNL     1       0.130  36.941  22.268  1.00  0.00     0.088 A 
HETATM   23  C11 UNL     1       0.444  37.161  23.590  1.00  0.00     0.132 A 
HETATM   24  C12 UNL     1      -0.038  36.316  24.595  1.00  0.00     0.056 A 
BRANCH  22  25
HETATM   25  N1  UNL     1       0.579  37.748  21.189  1.00  0.00    -0.266 N 
HETATM   26  C8  UNL     1       1.669  37.499  20.429  1.00  0.00     0.118 A 
HETATM   27  C9  UNL     1       1.785  38.492  19.497  1.00  0.00     0.038 A 
HETATM   28  C10 UNL     1       0.735  39.364  19.699  1.00  0.00     0.109 A 
HETATM   29  N2  UNL     1       0.040  38.865  20.734  1.00  0.00    -0.305 N 
ATOM     30  H2  UNL     1      -0.801  39.296  21.120  1.00  0.00     0.186 HD
ENDBRANCH  22  25
BRANCH  23  31
HETATM   31  N3  UNL     1       1.274  38.265  23.921  1.00  0.00    -0.113 N 
HETATM   32  O4  UNL     1       2.451  38.071  24.279  1.00  0.00    -0.532 OA
HETATM   33  O5  UNL     1       0.823  39.558  23.862  1.00  0.00    -0.532 OA
ENDBRANCH  23  31
ENDBRANCH   1  19
TORSDOF 9
ENDMDL
MODEL 4
REMARK VINA RESULT: -8.679745708      1.299      1.912
REMARK  9 active torsions:
REMARK  status: ('A' for Active; 'I' for Inactive)
REMARK    1  A    between atoms: C1_2  and  C2_3 
REMARK       I    between atoms: C1_2  and  N4_22 
REMARK    2  A    between atoms: C2_3  and  O2_4 
REMARK    3  A    between atoms: O2_4  and  C3_5 
REMARK    4  A    between atoms: C3_5  and  C4_7 
REMARK    5  A    between atoms: C7_10  and  N1_11 
REMARK    6  A    between atoms: C11_17  and  N3_18 
REMARK    7  A    between atoms: N4_22  and  C13_24 
REMARK    8  A    between atoms: C16_27  and  O6_28 
REMARK    9  A    between atoms: O6_28  and  C17_29 
ROOT
HETATM    1  C3  UNL     1       1.807  32.028  25.102  1.00  0.00     0.293 C 
HETATM    2  O3  UNL     1       0.941  31.177  24.777  1.00  0.00    -0.259 OA
ENDROOT
BRANCH   1   3
HETATM    3  O2  UNL     1       1.436  33.114  25.871  1.00  0.00    -0.308 OA
BRANCH   3   4
HETATM    4  C2  UNL     1       0.164  33.697  25.873  1.00  0.00     0.282 C 
BRANCH   4   5
HETATM    5  C1  UNL     1      -0.022  34.578  24.711  1.00  0.00     0.246 C 
HETATM    6  O1  UNL     1      -0.916  34.208  23.895  1.00  0.00    -0.271 OA
HETATM    7  N4  UNL     1       0.730  35.731  24.519  1.00  0.00    -0.325 N 
ATOM      8  H4  UNL     1       1.433  35.927  25.232  1.00  0.00     0.169 HD
BRANCH   7   9
HETATM    9  C13 UNL     1       0.646  36.665  23.460  1.00  0.00     0.035 A 
HETATM   10  C14 UNL     1      -0.397  37.529  23.242  1.00  0.00     0.032 A 
HETATM   11  C15 UNL     1      -0.424  38.420  22.161  1.00  0.00     0.039 A 
HETATM   12  C16 UNL     1       0.592  38.491  21.246  1.00  0.00     0.075 A 
HETATM   13  C18 UNL     1       1.660  37.608  21.468  1.00  0.00     0.039 A 
HETATM   14  C19 UNL     1       1.686  36.736  22.525  1.00  0.00     0.032 A 
BRANCH  12  15
HETATM   15  O6  UNL     1       0.623  39.345  20.163  1.00  0.00    -0.290 OA
BRANCH  15  16
HETATM   16  C17 UNL     1       0.682  38.930  18.833  1.00  0.00     0.505 C 
HETATM   17  F1  UNL     1       2.005  39.056  18.433  1.00  0.00    -0.184 F 
HETATM   18  F2  UNL     1      -0.007  39.877  18.050  1.00  0.00    -0.184 F 
ENDBRANCH  15  16
ENDBRANCH  12  15
ENDBRANCH   7   9
ENDBRANCH   4   5
ENDBRANCH   3   4
ENDBRANCH   1   3
BRANCH   1  19
HETATM   19  C4  UNL     1       3.201  31.902  24.687  1.00  0.00     0.042 A 
HETATM   20  C5  UNL     1       3.641  30.831  23.938  1.00  0.00     0.020 A 
HETATM   21  C6  UNL     1       4.960  30.722  23.550  1.00  0.00     0.035 A 
HETATM   22  C7  UNL     1       5.901  31.684  23.895  1.00  0.00     0.088 A 
HETATM   23  C11 UNL     1       5.464  32.755  24.641  1.00  0.00     0.132 A 
HETATM   24  C12 UNL     1       4.125  32.860  25.034  1.00  0.00     0.056 A 
BRANCH  22  25
HETATM   25  N1  UNL     1       7.240  31.499  23.458  1.00  0.00    -0.266 N 
HETATM   26  C8  UNL     1       7.788  32.067  22.360  1.00  0.00     0.118 A 
HETATM   27  C9  UNL     1       9.086  31.653  22.260  1.00  0.00     0.038 A 
HETATM   28  C10 UNL     1       9.330  30.814  23.327  1.00  0.00     0.109 A 
HETATM   29  N2  UNL     1       8.180  30.757  24.017  1.00  0.00    -0.305 N 
ATOM     30  H2  UNL     1       8.048  30.209  24.867  1.00  0.00     0.186 HD
ENDBRANCH  22  25
BRANCH  23  31
HETATM   31  N3  UNL     1       6.400  33.756  25.013  1.00  0.00    -0.113 N 
HETATM   32  O4  UNL     1       6.158  34.953  24.768  1.00  0.00    -0.532 OA
HETATM   33  O5  UNL     1       7.580  33.453  25.640  1.00  0.00    -0.532 OA
ENDBRANCH  23  31
ENDBRANCH   1  19
TORSDOF 9
ENDMDL
MODEL 5
REMARK VINA RESULT: -8.651835648      4.257      6.856
REMARK  9 active torsions:
REMARK  status: ('A' for Active; 'I' for Inactive)
REMARK    1  A    between atoms: C1_2  and  C2_3 
REMARK       I    between atoms: C1_2  and  N4_22 
REMARK    2  A    between atoms: C2_3  and  O2_4 
REMARK    3  A    between atoms: O2_4  and  C3_5 
REMARK    4  A    between atoms: C3_5  and  C4_7 
REMARK    5  A    between atoms: C7_10  and  N1_11 
REMARK    6  A    between atoms: C11_17  and  N3_18 
REMARK    7  A    between atoms: N4_22  and  C13_24 
REMARK    8  A    between atoms: C16_27  and  O6_28 
REMARK    9  A    between atoms: O6_28  and  C17_29 
ROOT
HETATM    1  C3  UNL     1       0.282  35.473  24.750  1.00  0.00     0.293 C 
HETATM    2  O3  UNL     1      -0.694  36.265  24.710  1.00  0.00    -0.259 OA
ENDROOT
BRANCH   1   3
HETATM    3  O2  UNL     1       0.054  34.112  24.683  1.00  0.00    -0.308 OA
BRANCH   3   4
HETATM    4  C2  UNL     1       0.444  33.185  25.656  1.00  0.00     0.282 C 
BRANCH   4   5
HETATM    5  C1  UNL     1       1.567  32.360  25.190  1.00  0.00     0.246 C 
HETATM    6  O1  UNL     1       1.274  31.158  24.922  1.00  0.00    -0.271 OA
HETATM    7  N4  UNL     1       2.857  32.859  25.057  1.00  0.00    -0.325 N 
ATOM      8  H4  UNL     1       2.983  33.839  25.313  1.00  0.00     0.169 HD
BRANCH   7   9
HETATM    9  C13 UNL     1       4.017  32.182  24.612  1.00  0.00     0.035 A 
HETATM   10  C14 UNL     1       4.045  30.920  24.075  1.00  0.00     0.032 A 
HETATM   11  C15 UNL     1       5.234  30.301  23.669  1.00  0.00     0.039 A 
HETATM   12  C16 UNL     1       6.453  30.914  23.779  1.00  0.00     0.075 A 
HETATM   13  C18 UNL     1       6.426  32.205  24.328  1.00  0.00     0.039 A 
HETATM   14  C19 UNL     1       5.263  32.811  24.726  1.00  0.00     0.032 A 
BRANCH  12  15
HETATM   15  O6  UNL     1       7.656  30.357  23.397  1.00  0.00    -0.290 OA
BRANCH  15  16
HETATM   16  C17 UNL     1       8.841  31.075  23.236  1.00  0.00     0.505 C 
HETATM   17  F1  UNL     1       8.675  31.875  22.115  1.00  0.00    -0.184 F 
HETATM   18  F2  UNL     1       9.853  30.168  22.867  1.00  0.00    -0.184 F 
ENDBRANCH  15  16
ENDBRANCH  12  15
ENDBRANCH   7   9
ENDBRANCH   4   5
ENDBRANCH   3   4
ENDBRANCH   1   3
BRANCH   1  19
HETATM   19  C4  UNL     1       1.656  35.952  24.868  1.00  0.00     0.042 A 
HETATM   20  C5  UNL     1       2.526  35.928  23.798  1.00  0.00     0.020 A 
HETATM   21  C6  UNL     1       3.822  36.384  23.920  1.00  0.00     0.035 A 
HETATM   22  C7  UNL     1       4.307  36.886  25.120  1.00  0.00     0.088 A 
HETATM   23  C11 UNL     1       3.440  36.912  26.189  1.00  0.00     0.132 A 
HETATM   24  C12 UNL     1       2.126  36.447  26.062  1.00  0.00     0.056 A 
BRANCH  22  25
HETATM   25  N1  UNL     1       5.653  37.335  25.164  1.00  0.00    -0.266 N 
HETATM   26  C8  UNL     1       6.735  36.543  25.345  1.00  0.00     0.118 A 
HETATM   27  C9  UNL     1       7.854  37.328  25.335  1.00  0.00     0.038 A 
HETATM   28  C10 UNL     1       7.437  38.629  25.142  1.00  0.00     0.109 A 
HETATM   29  N2  UNL     1       6.099  38.573  25.046  1.00  0.00    -0.305 N 
ATOM     30  H2  UNL     1       5.501  39.386  24.900  1.00  0.00     0.186 HD
ENDBRANCH  22  25
BRANCH  23  31
HETATM   31  N3  UNL     1       3.903  37.418  27.432  1.00  0.00    -0.113 N 
HETATM   32  O4  UNL     1       4.036  38.646  27.592  1.00  0.00    -0.532 OA
HETATM   33  O5  UNL     1       4.216  36.595  28.482  1.00  0.00    -0.532 OA
ENDBRANCH  23  31
ENDBRANCH   1  19
TORSDOF 9
ENDMDL
