MODEL 1
REMARK VINA RESULT: -6.627425235      0.000      0.000
REMARK  5 active torsions:
REMARK  status: ('A' for Active; 'I' for Inactive)
REMARK    1  A    between atoms: C4_6  and  C5_7 
REMARK    2  A    between atoms: C5_7  and  C6_12 
REMARK    3  A    between atoms: N2_8  and  O1_10 
REMARK    4  A    between atoms: C10_16  and  S1_17 
REMARK    5  A    between atoms: S1_17  and  C11_18 
ROOT
HETATM    1  C1  UNL     1      64.447  37.584  23.021  1.00  0.00     0.069 C 
HETATM    2  C2  UNL     1      64.266  36.220  23.570  1.00  0.00     0.023 A 
HETATM    3  N1  UNL     1      63.781  35.150  22.942  1.00  0.00    -0.367 N 
ATOM      4  H1  UNL     1      63.469  35.130  21.972  1.00  0.00     0.165 HD
HETATM    5  C3  UNL     1      63.767  34.108  23.778  1.00  0.00     0.103 A 
HETATM    6  C4  UNL     1      64.265  34.477  25.046  1.00  0.00     0.023 A 
HETATM    7  C10 UNL     1      64.569  35.799  24.884  1.00  0.00     0.036 A 
ENDROOT
BRANCH   6   8
HETATM    8  C5  UNL     1      64.335  33.570  26.158  1.00  0.00     0.052 C 
HETATM    9  N2  UNL     1      63.461  33.314  26.973  1.00  0.00    -0.272 N 
ATOM     10  H2  UNL     1      63.819  32.631  27.640  1.00  0.00     0.194 HD
BRANCH   9  11
HETATM   11  O1  UNL     1      62.253  33.604  27.284  1.00  0.00    -0.290 OA
ATOM     12  H1  UNL     1      61.499  33.268  27.755  1.00  0.00     0.244 HD
ENDBRANCH   9  11
BRANCH   8  13
HETATM   13  C6  UNL     1      65.617  32.789  26.416  1.00  0.00    -0.006 C 
HETATM   14  C7  UNL     1      65.688  32.479  27.899  1.00  0.00     0.021 C 
HETATM   15  C8  UNL     1      66.836  33.606  26.078  1.00  0.00     0.021 C 
HETATM   16  C9  UNL     1      65.641  31.486  25.703  1.00  0.00     0.021 C 
ENDBRANCH   8  13
ENDBRANCH   6   8
BRANCH   7  17
HETATM   17  S1  UNL     1      65.266  36.906  26.078  1.00  0.00    -0.122 SA
BRANCH  17  18
HETATM   18  C11 UNL     1      66.742  37.682  25.361  1.00  0.00     0.055 C 
HETATM   19  C12 UNL     1      66.657  39.188  25.376  1.00  0.00     0.043 C 
HETATM   20  C13 UNL     1      68.052  39.761  25.088  1.00  0.00     0.233 C 
HETATM   21  N3  UNL     1      68.911  39.496  26.204  1.00  0.00    -0.075 N 
HETATM   22  C14 UNL     1      68.552  38.318  26.952  1.00  0.00     0.233 C 
ATOM     23  H32 UNL     1      69.885  39.446  25.904  1.00  0.00     0.277 HD
ATOM     24  H31 UNL     1      68.962  40.308  26.818  1.00  0.00     0.277 HD
HETATM   25  C15 UNL     1      67.998  37.220  26.075  1.00  0.00     0.043 C 
ENDBRANCH  17  18
ENDBRANCH   7  17
TORSDOF 5
ENDMDL
MODEL 2
REMARK VINA RESULT: -6.539369134      2.104      5.691
REMARK  5 active torsions:
REMARK  status: ('A' for Active; 'I' for Inactive)
REMARK    1  A    between atoms: C4_6  and  C5_7 
REMARK    2  A    between atoms: C5_7  and  C6_12 
REMARK    3  A    between atoms: N2_8  and  O1_10 
REMARK    4  A    between atoms: C10_16  and  S1_17 
REMARK    5  A    between atoms: S1_17  and  C11_18 
ROOT
HETATM    1  C1  UNL     1      63.931  36.603  22.306  1.00  0.00     0.069 C 
HETATM    2  C2  UNL     1      65.177  37.049  22.972  1.00  0.00     0.023 A 
HETATM    3  N1  UNL     1      66.254  37.586  22.401  1.00  0.00    -0.367 N 
ATOM      4  H1  UNL     1      66.361  37.770  21.404  1.00  0.00     0.165 HD
HETATM    5  C3  UNL     1      67.174  37.845  23.334  1.00  0.00     0.103 A 
HETATM    6  C4  UNL     1      66.709  37.468  24.613  1.00  0.00     0.023 A 
HETATM    7  C10 UNL     1      65.461  36.977  24.354  1.00  0.00     0.036 A 
ENDROOT
BRANCH   6   8
HETATM    8  C5  UNL     1      67.498  37.597  25.807  1.00  0.00     0.052 C 
HETATM    9  N2  UNL     1      68.083  36.714  26.418  1.00  0.00    -0.272 N 
ATOM     10  H2  UNL     1      68.554  37.125  27.223  1.00  0.00     0.194 HD
BRANCH   9  11
HETATM   11  O1  UNL     1      68.311  35.455  26.401  1.00  0.00    -0.290 OA
ATOM     12  H1  UNL     1      68.705  34.758  26.912  1.00  0.00     0.244 HD
ENDBRANCH   9  11
BRANCH   8  13
HETATM   13  C6  UNL     1      67.683  38.967  26.446  1.00  0.00    -0.006 C 
HETATM   14  C7  UNL     1      67.680  38.788  27.952  1.00  0.00     0.021 C 
HETATM   15  C8  UNL     1      66.541  39.889  26.110  1.00  0.00     0.021 C 
HETATM   16  C9  UNL     1      68.984  39.589  26.090  1.00  0.00     0.021 C 
ENDBRANCH   8  13
ENDBRANCH   6   8
BRANCH   7  17
HETATM   17  S1  UNL     1      64.283  36.339  25.513  1.00  0.00    -0.122 SA
BRANCH  17  18
HETATM   18  C11 UNL     1      64.259  34.529  25.383  1.00  0.00     0.055 C 
HETATM   19  C12 UNL     1      65.352  33.886  26.201  1.00  0.00     0.043 C 
HETATM   20  C13 UNL     1      65.056  32.384  26.321  1.00  0.00     0.233 C 
HETATM   21  N3  UNL     1      63.904  32.195  27.154  1.00  0.00    -0.075 N 
HETATM   22  C14 UNL     1      62.983  33.303  27.138  1.00  0.00     0.233 C 
ATOM     23  H32 UNL     1      63.426  31.327  26.912  1.00  0.00     0.277 HD
ATOM     24  H31 UNL     1      64.185  31.977  28.110  1.00  0.00     0.277 HD
HETATM   25  C15 UNL     1      62.906  33.974  25.787  1.00  0.00     0.043 C 
ENDBRANCH  17  18
ENDBRANCH   7  17
TORSDOF 5
ENDMDL
MODEL 3
REMARK VINA RESULT: -6.193232756      2.544      5.710
REMARK  5 active torsions:
REMARK  status: ('A' for Active; 'I' for Inactive)
REMARK    1  A    between atoms: C4_6  and  C5_7 
REMARK    2  A    between atoms: C5_7  and  C6_12 
REMARK    3  A    between atoms: N2_8  and  O1_10 
REMARK    4  A    between atoms: C10_16  and  S1_17 
REMARK    5  A    between atoms: S1_17  and  C11_18 
ROOT
HETATM    1  C1  UNL     1      63.463  35.175  22.656  1.00  0.00     0.069 C 
HETATM    2  C2  UNL     1      64.137  36.432  23.057  1.00  0.00     0.023 A 
HETATM    3  N1  UNL     1      63.797  37.676  22.726  1.00  0.00    -0.367 N 
ATOM      4  H1  UNL     1      63.000  37.933  22.143  1.00  0.00     0.165 HD
HETATM    5  C3  UNL     1      64.657  38.538  23.275  1.00  0.00     0.103 A 
HETATM    6  C4  UNL     1      65.641  37.854  24.022  1.00  0.00     0.023 A 
HETATM    7  C10 UNL     1      65.289  36.544  23.867  1.00  0.00     0.036 A 
ENDROOT
BRANCH   6   8
HETATM    8  C5  UNL     1      66.721  38.520  24.696  1.00  0.00     0.052 C 
HETATM    9  N2  UNL     1      67.640  39.152  24.198  1.00  0.00    -0.272 N 
ATOM     10  H2  UNL     1      68.243  39.502  24.941  1.00  0.00     0.194 HD
BRANCH   9  11
HETATM   11  O1  UNL     1      68.111  39.529  23.069  1.00  0.00    -0.290 OA
ATOM     12  H1  UNL     1      68.818  40.033  22.682  1.00  0.00     0.244 HD
ENDBRANCH   9  11
BRANCH   8  13
HETATM   13  C6  UNL     1      66.796  38.487  26.218  1.00  0.00    -0.006 C 
HETATM   14  C7  UNL     1      67.178  39.873  26.699  1.00  0.00     0.021 C 
HETATM   15  C8  UNL     1      67.868  37.544  26.695  1.00  0.00     0.021 C 
HETATM   16  C9  UNL     1      65.489  38.160  26.844  1.00  0.00     0.021 C 
ENDBRANCH   8  13
ENDBRANCH   6   8
BRANCH   7  17
HETATM   17  S1  UNL     1      66.081  35.118  24.558  1.00  0.00    -0.122 SA
BRANCH  17  18
HETATM   18  C11 UNL     1      65.171  34.608  26.043  1.00  0.00     0.055 C 
HETATM   19  C12 UNL     1      63.735  34.257  25.738  1.00  0.00     0.043 C 
HETATM   20  C13 UNL     1      63.144  33.516  26.946  1.00  0.00     0.233 C 
HETATM   21  N3  UNL     1      63.756  32.224  27.054  1.00  0.00    -0.075 N 
HETATM   22  C14 UNL     1      65.092  32.163  26.518  1.00  0.00     0.233 C 
ATOM     23  H32 UNL     1      63.742  31.900  28.021  1.00  0.00     0.277 HD
ATOM     24  H31 UNL     1      63.165  31.511  26.625  1.00  0.00     0.277 HD
HETATM   25  C15 UNL     1      65.861  33.445  26.730  1.00  0.00     0.043 C 
ENDBRANCH  17  18
ENDBRANCH   7  17
TORSDOF 5
ENDMDL
MODEL 4
REMARK VINA RESULT: -5.864037530      1.945      2.405
REMARK  5 active torsions:
REMARK  status: ('A' for Active; 'I' for Inactive)
REMARK    1  A    between atoms: C4_6  and  C5_7 
REMARK    2  A    between atoms: C5_7  and  C6_12 
REMARK    3  A    between atoms: N2_8  and  O1_10 
REMARK    4  A    between atoms: C10_16  and  S1_17 
REMARK    5  A    between atoms: S1_17  and  C11_18 
ROOT
HETATM    1  C1  UNL     1      64.585  37.373  22.901  1.00  0.00     0.069 C 
HETATM    2  C2  UNL     1      64.599  36.096  23.650  1.00  0.00     0.023 A 
HETATM    3  N1  UNL     1      63.715  35.102  23.574  1.00  0.00    -0.367 N 
ATOM      4  H1  UNL     1      62.895  35.089  22.968  1.00  0.00     0.165 HD
HETATM    5  C3  UNL     1      64.068  34.123  24.413  1.00  0.00     0.103 A 
HETATM    6  C4  UNL     1      65.252  34.460  25.103  1.00  0.00     0.023 A 
HETATM    7  C10 UNL     1      65.559  35.694  24.605  1.00  0.00     0.036 A 
ENDROOT
BRANCH   6   8
HETATM    8  C5  UNL     1      65.850  33.613  26.099  1.00  0.00     0.052 C 
HETATM    9  N2  UNL     1      67.001  33.636  26.510  1.00  0.00    -0.272 N 
ATOM     10  H2  UNL     1      67.115  32.909  27.215  1.00  0.00     0.194 HD
BRANCH   9  11
HETATM   11  O1  UNL     1      68.113  34.253  26.365  1.00  0.00    -0.290 OA
ATOM     12  H1  UNL     1      68.539  35.083  26.548  1.00  0.00     0.244 HD
ENDBRANCH   9  11
BRANCH   8  13
HETATM   13  C6  UNL     1      65.012  32.536  26.776  1.00  0.00    -0.006 C 
HETATM   14  C7  UNL     1      65.492  32.399  28.208  1.00  0.00     0.021 C 
HETATM   15  C8  UNL     1      65.203  31.195  26.118  1.00  0.00     0.021 C 
HETATM   16  C9  UNL     1      63.572  32.893  26.838  1.00  0.00     0.021 C 
ENDBRANCH   8  13
ENDBRANCH   6   8
BRANCH   7  17
HETATM   17  S1  UNL     1      66.948  36.715  25.012  1.00  0.00    -0.122 SA
BRANCH  17  18
HETATM   18  C11 UNL     1      66.560  37.654  26.516  1.00  0.00     0.055 C 
HETATM   19  C12 UNL     1      67.803  38.147  27.215  1.00  0.00     0.043 C 
HETATM   20  C13 UNL     1      67.396  39.203  28.252  1.00  0.00     0.233 C 
HETATM   21  N3  UNL     1      66.943  40.382  27.573  1.00  0.00    -0.075 N 
HETATM   22  C14 UNL     1      66.383  40.128  26.270  1.00  0.00     0.233 C 
ATOM     23  H32 UNL     1      66.281  40.898  28.154  1.00  0.00     0.277 HD
ATOM     24  H31 UNL     1      67.693  41.070  27.513  1.00  0.00     0.277 HD
HETATM   25  C15 UNL     1      65.636  38.816  26.206  1.00  0.00     0.043 C 
ENDBRANCH  17  18
ENDBRANCH   7  17
TORSDOF 5
ENDMDL
MODEL 5
REMARK VINA RESULT: -5.829785447      2.274      3.203
REMARK  5 active torsions:
REMARK  status: ('A' for Active; 'I' for Inactive)
REMARK    1  A    between atoms: C4_6  and  C5_7 
REMARK    2  A    between atoms: C5_7  and  C6_12 
REMARK    3  A    between atoms: N2_8  and  O1_10 
REMARK    4  A    between atoms: C10_16  and  S1_17 
REMARK    5  A    between atoms: S1_17  and  C11_18 
ROOT
HETATM    1  C1  UNL     1      67.257  38.410  20.907  1.00  0.00     0.069 C 
HETATM    2  C2  UNL     1      66.145  37.836  21.699  1.00  0.00     0.023 A 
HETATM    3  N1  UNL     1      64.907  37.568  21.285  1.00  0.00    -0.367 N 
ATOM      4  H1  UNL     1      64.557  37.722  20.340  1.00  0.00     0.165 HD
HETATM    5  C3  UNL     1      64.194  37.066  22.297  1.00  0.00     0.103 A 
HETATM    6  C4  UNL     1      64.979  36.985  23.468  1.00  0.00     0.023 A 
HETATM    7  C10 UNL     1      66.189  37.471  23.063  1.00  0.00     0.036 A 
ENDROOT
BRANCH   6   8
HETATM    8  C5  UNL     1      64.466  36.516  24.727  1.00  0.00     0.052 C 
HETATM    9  N2  UNL     1      64.122  37.183  25.691  1.00  0.00    -0.272 N 
ATOM     10  H2  UNL     1      63.805  36.557  26.431  1.00  0.00     0.194 HD
BRANCH   9  11
HETATM   11  O1  UNL     1      64.019  38.392  26.098  1.00  0.00    -0.290 OA
ATOM     12  H1  UNL     1      64.445  39.240  26.045  1.00  0.00     0.244 HD
ENDBRANCH   9  11
BRANCH   8  13
HETATM   13  C6  UNL     1      64.296  35.021  24.963  1.00  0.00    -0.006 C 
HETATM   14  C7  UNL     1      65.644  34.452  25.363  1.00  0.00     0.021 C 
HETATM   15  C8  UNL     1      63.875  34.310  23.704  1.00  0.00     0.021 C 
HETATM   16  C9  UNL     1      63.357  34.724  26.075  1.00  0.00     0.021 C 
ENDBRANCH   8  13
ENDBRANCH   6   8
BRANCH   7  17
HETATM   17  S1  UNL     1      67.668  37.638  24.023  1.00  0.00    -0.122 SA
BRANCH  17  18
HETATM   18  C11 UNL     1      67.315  38.689  25.459  1.00  0.00     0.055 C 
HETATM   19  C12 UNL     1      67.464  37.941  26.761  1.00  0.00     0.043 C 
HETATM   20  C13 UNL     1      67.495  38.958  27.911  1.00  0.00     0.233 C 
HETATM   21  N3  UNL     1      68.718  39.704  27.849  1.00  0.00    -0.075 N 
HETATM   22  C14 UNL     1      69.267  39.818  26.521  1.00  0.00     0.233 C 
ATOM     23  H32 UNL     1      68.598  40.626  28.268  1.00  0.00     0.277 HD
ATOM     24  H31 UNL     1      69.409  39.312  28.489  1.00  0.00     0.277 HD
HETATM   25  C15 UNL     1      68.198  39.922  25.459  1.00  0.00     0.043 C 
ENDBRANCH  17  18
ENDBRANCH   7  17
TORSDOF 5
ENDMDL
