MODEL 1
REMARK VINA RESULT: -6.678168445      0.000      0.000
REMARK  5 active torsions:
REMARK  status: ('A' for Active; 'I' for Inactive)
REMARK    1  A    between atoms: C5_7  and  C6_8 
REMARK    2  A    between atoms: C6_8  and  C7_9 
REMARK    3  A    between atoms: C10_12  and  C11_13 
REMARK    4  A    between atoms: C11_13  and  O1_14 
REMARK    5  A    between atoms: C12_16  and  O2_17 
ROOT
HETATM    1  C7  UNL     1      65.820  34.609  25.000  1.00  0.00    -0.010 C 
HETATM    2  C8  UNL     1      64.347  34.581  24.783  1.00  0.00     0.032 C 
HETATM    3  C9  UNL     1      63.561  34.147  25.950  1.00  0.00    -0.019 C 
HETATM    4  C10 UNL     1      63.761  33.125  26.739  1.00  0.00    -0.032 C 
HETATM    5  C12 UNL     1      64.804  32.097  26.725  1.00  0.00     0.149 C 
HETATM    6  C13 UNL     1      66.131  32.540  26.227  1.00  0.00     0.037 C 
HETATM    7  C14 UNL     1      66.200  34.058  26.341  1.00  0.00     0.007 C 
ENDROOT
BRANCH   1   8
HETATM    8  C6  UNL     1      66.418  35.990  24.827  1.00  0.00     0.017 C 
BRANCH   8   9
HETATM    9  C5  UNL     1      65.359  36.997  24.433  1.00  0.00     0.055 C 
HETATM   10  C2  UNL     1      65.458  38.275  25.191  1.00  0.00     0.015 C 
HETATM   11  C1  UNL     1      65.569  38.213  26.667  1.00  0.00     0.028 C 
HETATM   12  C3  UNL     1      64.451  39.321  24.764  1.00  0.00     0.028 C 
HETATM   13  S1  UNL     1      67.021  38.556  24.299  1.00  0.00    -0.112 SA
HETATM   14  C4  UNL     1      65.839  37.748  23.223  1.00  0.00     0.051 C 
HETATM   15  S2  UNL     1      65.564  37.851  21.834  1.00  0.00    -0.077 SA
ENDBRANCH   8   9
ENDBRANCH   1   8
BRANCH   4  16
HETATM   16  C11 UNL     1      62.760  32.959  27.855  1.00  0.00     0.200 C 
BRANCH  16  17
HETATM   17  O1  UNL     1      61.906  31.907  27.638  1.00  0.00    -0.397 OA
ATOM     18  H1  UNL     1      61.544  31.563  28.446  1.00  0.00     0.209 HD
ENDBRANCH  16  17
ENDBRANCH   4  16
BRANCH   5  19
HETATM   19  O2  UNL     1      64.972  31.605  28.032  1.00  0.00    -0.391 OA
ATOM     20  H2  UNL     1      65.401  32.271  28.557  1.00  0.00     0.210 HD
ENDBRANCH   5  19
TORSDOF 5
ENDMDL
MODEL 2
REMARK VINA RESULT: -6.600276856      1.341      2.081
REMARK  5 active torsions:
REMARK  status: ('A' for Active; 'I' for Inactive)
REMARK    1  A    between atoms: C5_7  and  C6_8 
REMARK    2  A    between atoms: C6_8  and  C7_9 
REMARK    3  A    between atoms: C10_12  and  C11_13 
REMARK    4  A    between atoms: C11_13  and  O1_14 
REMARK    5  A    between atoms: C12_16  and  O2_17 
ROOT
HETATM    1  C7  UNL     1      64.678  34.894  24.833  1.00  0.00    -0.010 C 
HETATM    2  C8  UNL     1      63.292  34.351  24.832  1.00  0.00     0.032 C 
HETATM    3  C9  UNL     1      62.861  33.766  26.113  1.00  0.00    -0.019 C 
HETATM    4  C10 UNL     1      63.502  32.936  26.893  1.00  0.00    -0.032 C 
HETATM    5  C12 UNL     1      64.825  32.326  26.755  1.00  0.00     0.149 C 
HETATM    6  C13 UNL     1      65.842  33.154  26.057  1.00  0.00     0.037 C 
HETATM    7  C14 UNL     1      65.393  34.609  26.119  1.00  0.00     0.007 C 
ENDROOT
BRANCH   1   8
HETATM    8  C6  UNL     1      64.732  36.379  24.536  1.00  0.00     0.017 C 
BRANCH   8   9
HETATM    9  C5  UNL     1      66.048  36.760  23.895  1.00  0.00     0.055 C 
HETATM   10  C2  UNL     1      65.940  37.946  23.000  1.00  0.00     0.015 C 
HETATM   11  C1  UNL     1      64.861  37.968  21.986  1.00  0.00     0.028 C 
HETATM   12  C3  UNL     1      67.259  38.385  22.401  1.00  0.00     0.028 C 
HETATM   13  S1  UNL     1      65.619  38.916  24.508  1.00  0.00    -0.112 SA
HETATM   14  C4  UNL     1      66.815  37.628  24.853  1.00  0.00     0.051 C 
HETATM   15  S2  UNL     1      67.958  37.567  25.692  1.00  0.00    -0.077 SA
ENDBRANCH   8   9
ENDBRANCH   1   8
BRANCH   4  16
HETATM   16  C11 UNL     1      62.771  32.525  28.147  1.00  0.00     0.200 C 
BRANCH  16  17
HETATM   17  O1  UNL     1      61.662  31.763  27.878  1.00  0.00    -0.397 OA
ATOM     18  H1  UNL     1      61.850  30.832  27.903  1.00  0.00     0.209 HD
ENDBRANCH  16  17
ENDBRANCH   4  16
BRANCH   5  19
HETATM   19  O2  UNL     1      65.319  32.022  28.037  1.00  0.00    -0.391 OA
ATOM     20  H2  UNL     1      65.984  32.660  28.268  1.00  0.00     0.210 HD
ENDBRANCH   5  19
TORSDOF 5
ENDMDL
MODEL 3
REMARK VINA RESULT: -6.129410117      1.134      1.530
REMARK  5 active torsions:
REMARK  status: ('A' for Active; 'I' for Inactive)
REMARK    1  A    between atoms: C5_7  and  C6_8 
REMARK    2  A    between atoms: C6_8  and  C7_9 
REMARK    3  A    between atoms: C10_12  and  C11_13 
REMARK    4  A    between atoms: C11_13  and  O1_14 
REMARK    5  A    between atoms: C12_16  and  O2_17 
ROOT
HETATM    1  C7  UNL     1      66.037  34.859  24.918  1.00  0.00    -0.010 C 
HETATM    2  C8  UNL     1      64.576  34.843  24.626  1.00  0.00     0.032 C 
HETATM    3  C9  UNL     1      63.731  34.397  25.747  1.00  0.00    -0.019 C 
HETATM    4  C10 UNL     1      63.886  33.362  26.529  1.00  0.00    -0.032 C 
HETATM    5  C12 UNL     1      64.922  32.329  26.552  1.00  0.00     0.149 C 
HETATM    6  C13 UNL     1      66.275  32.771  26.128  1.00  0.00     0.037 C 
HETATM    7  C14 UNL     1      66.346  34.287  26.268  1.00  0.00     0.007 C 
ENDROOT
BRANCH   1   8
HETATM    8  C6  UNL     1      66.649  36.240  24.795  1.00  0.00     0.017 C 
BRANCH   8   9
HETATM    9  C5  UNL     1      66.035  37.199  25.791  1.00  0.00     0.055 C 
HETATM   10  C2  UNL     1      67.046  38.045  26.486  1.00  0.00     0.015 C 
HETATM   11  C1  UNL     1      68.226  37.383  27.088  1.00  0.00     0.028 C 
HETATM   12  C3  UNL     1      66.447  39.059  27.437  1.00  0.00     0.028 C 
HETATM   13  S1  UNL     1      67.330  38.839  24.872  1.00  0.00    -0.112 SA
HETATM   14  C4  UNL     1      65.595  38.435  25.057  1.00  0.00     0.051 C 
HETATM   15  S2  UNL     1      64.400  39.081  24.645  1.00  0.00    -0.077 SA
ENDBRANCH   8   9
ENDBRANCH   1   8
BRANCH   4  16
HETATM   16  C11 UNL     1      62.829  33.186  27.591  1.00  0.00     0.200 C 
BRANCH  16  17
HETATM   17  O1  UNL     1      62.025  32.100  27.351  1.00  0.00    -0.397 OA
ATOM     18  H1  UNL     1      61.358  32.282  26.699  1.00  0.00     0.209 HD
ENDBRANCH  16  17
ENDBRANCH   4  16
BRANCH   5  19
HETATM   19  O2  UNL     1      65.023  31.817  27.859  1.00  0.00    -0.391 OA
ATOM     20  H2  UNL     1      65.052  32.543  28.471  1.00  0.00     0.210 HD
ENDBRANCH   5  19
TORSDOF 5
ENDMDL
MODEL 4
REMARK VINA RESULT: -6.037972450      3.889      6.163
REMARK  5 active torsions:
REMARK  status: ('A' for Active; 'I' for Inactive)
REMARK    1  A    between atoms: C5_7  and  C6_8 
REMARK    2  A    between atoms: C6_8  and  C7_9 
REMARK    3  A    between atoms: C10_12  and  C11_13 
REMARK    4  A    between atoms: C11_13  and  O1_14 
REMARK    5  A    between atoms: C12_16  and  O2_17 
ROOT
HETATM    1  C7  UNL     1      63.928  35.170  24.780  1.00  0.00    -0.010 C 
HETATM    2  C8  UNL     1      63.358  35.335  23.415  1.00  0.00     0.032 C 
HETATM    3  C9  UNL     1      64.126  36.230  22.532  1.00  0.00    -0.019 C 
HETATM    4  C10 UNL     1      64.617  37.413  22.791  1.00  0.00    -0.032 C 
HETATM    5  C12 UNL     1      64.567  38.222  24.010  1.00  0.00     0.149 C 
HETATM    6  C13 UNL     1      64.555  37.458  25.284  1.00  0.00     0.037 C 
HETATM    7  C14 UNL     1      65.108  36.065  25.009  1.00  0.00     0.007 C 
ENDROOT
BRANCH   1   8
HETATM    8  C6  UNL     1      64.304  33.737  25.095  1.00  0.00     0.017 C 
BRANCH   8   9
HETATM    9  C5  UNL     1      64.939  33.628  26.464  1.00  0.00     0.055 C 
HETATM   10  C2  UNL     1      64.411  32.486  27.263  1.00  0.00     0.015 C 
HETATM   11  C1  UNL     1      62.943  32.323  27.374  1.00  0.00     0.028 C 
HETATM   12  C3  UNL     1      65.081  32.319  28.610  1.00  0.00     0.028 C 
HETATM   13  S1  UNL     1      65.231  31.402  26.051  1.00  0.00    -0.112 SA
HETATM   14  C4  UNL     1      66.227  32.864  26.336  1.00  0.00     0.051 C 
HETATM   15  S2  UNL     1      67.628  33.086  26.393  1.00  0.00    -0.077 SA
ENDBRANCH   8   9
ENDBRANCH   1   8
BRANCH   4  16
HETATM   16  C11 UNL     1      65.361  38.071  21.655  1.00  0.00     0.200 C 
BRANCH  16  17
HETATM   17  O1  UNL     1      66.685  37.712  21.622  1.00  0.00    -0.397 OA
ATOM     18  H1  UNL     1      66.875  37.101  20.919  1.00  0.00     0.209 HD
ENDBRANCH  16  17
ENDBRANCH   4  16
BRANCH   5  19
HETATM   19  O2  UNL     1      65.682  39.081  24.030  1.00  0.00    -0.391 OA
ATOM     20  H2  UNL     1      66.204  38.887  24.799  1.00  0.00     0.210 HD
ENDBRANCH   5  19
TORSDOF 5
ENDMDL
MODEL 5
REMARK VINA RESULT: -5.702629490      4.195      6.379
REMARK  5 active torsions:
REMARK  status: ('A' for Active; 'I' for Inactive)
REMARK    1  A    between atoms: C5_7  and  C6_8 
REMARK    2  A    between atoms: C6_8  and  C7_9 
REMARK    3  A    between atoms: C10_12  and  C11_13 
REMARK    4  A    between atoms: C11_13  and  O1_14 
REMARK    5  A    between atoms: C12_16  and  O2_17 
ROOT
HETATM    1  C7  UNL     1      64.748  35.593  25.740  1.00  0.00    -0.010 C 
HETATM    2  C8  UNL     1      64.455  35.258  24.319  1.00  0.00     0.032 C 
HETATM    3  C9  UNL     1      65.085  36.153  23.334  1.00  0.00    -0.019 C 
HETATM    4  C10 UNL     1      65.131  37.459  23.324  1.00  0.00    -0.032 C 
HETATM    5  C12 UNL     1      64.586  38.440  24.264  1.00  0.00     0.149 C 
HETATM    6  C13 UNL     1      64.538  38.008  25.684  1.00  0.00     0.037 C 
HETATM    7  C14 UNL     1      65.529  36.865  25.868  1.00  0.00     0.007 C 
ENDROOT
BRANCH   1   8
HETATM    8  C6  UNL     1      65.465  34.478  26.475  1.00  0.00     0.017 C 
BRANCH   8   9
HETATM    9  C5  UNL     1      64.961  33.121  26.032  1.00  0.00     0.055 C 
HETATM   10  C2  UNL     1      65.903  32.014  26.359  1.00  0.00     0.015 C 
HETATM   11  C1  UNL     1      67.328  32.168  25.986  1.00  0.00     0.028 C 
HETATM   12  C3  UNL     1      65.388  30.641  25.985  1.00  0.00     0.028 C 
HETATM   13  S1  UNL     1      65.509  32.342  28.106  1.00  0.00    -0.112 SA
HETATM   14  C4  UNL     1      64.049  32.578  27.096  1.00  0.00     0.051 C 
HETATM   15  S2  UNL     1      62.669  32.325  27.313  1.00  0.00    -0.077 SA
ENDBRANCH   8   9
ENDBRANCH   1   8
BRANCH   4  16
HETATM   16  C11 UNL     1      65.862  38.076  22.158  1.00  0.00     0.200 C 
BRANCH  16  17
HETATM   17  O1  UNL     1      65.039  38.844  21.373  1.00  0.00    -0.397 OA
ATOM     18  H1  UNL     1      64.872  39.698  21.754  1.00  0.00     0.209 HD
ENDBRANCH  16  17
ENDBRANCH   4  16
BRANCH   5  19
HETATM   19  O2  UNL     1      65.359  39.614  24.194  1.00  0.00    -0.391 OA
ATOM     20  H2  UNL     1      66.143  39.495  24.717  1.00  0.00     0.210 HD
ENDBRANCH   5  19
TORSDOF 5
ENDMDL
