MODEL 1
REMARK VINA RESULT: -7.034402452      0.000      0.000
REMARK  3 active torsions:
REMARK  status: ('A' for Active; 'I' for Inactive)
REMARK    1  A    between atoms: C2_2  and  C3_4 
REMARK    2  A    between atoms: C6_7  and  N1_8 
REMARK       I    between atoms: N1_8  and  C7_10 
REMARK       I    between atoms: C7_10  and  N2_12 
REMARK    3  A    between atoms: N2_12  and  C8_14 
ROOT
HETATM    1  N1  UNL     1      64.990  37.987  22.034  1.00  0.00    -0.307 N 
ATOM      2  H1  UNL     1      64.442  38.798  22.323  1.00  0.00     0.170 HD
HETATM    3  C7  UNL     1      65.740  38.132  20.859  1.00  0.00     0.321 C 
HETATM    4  O2  UNL     1      66.455  37.229  20.391  1.00  0.00    -0.247 OA
HETATM    5  N2  UNL     1      65.674  39.415  20.149  1.00  0.00    -0.338 N 
ATOM      6  H2  UNL     1      65.100  40.184  20.496  1.00  0.00     0.164 HD
ENDROOT
BRANCH   1   7
HETATM    7  C6  UNL     1      64.907  36.867  22.849  1.00  0.00     0.062 A 
HETATM    8  C5  UNL     1      64.122  35.792  22.577  1.00  0.00     0.032 A 
HETATM    9  C4  UNL     1      64.094  34.700  23.456  1.00  0.00     0.019 A 
HETATM   10  C3  UNL     1      64.831  34.644  24.611  1.00  0.00     0.033 A 
HETATM   11  C15 UNL     1      65.620  35.749  24.863  1.00  0.00     0.074 A 
HETATM   12  C14 UNL     1      65.670  36.829  24.025  1.00  0.00     0.095 A 
HETATM   13 CL1  UNL     1      66.578  35.691  26.350  1.00  0.00    -0.081 Cl
HETATM   14  N3  UNL     1      66.512  37.922  24.366  1.00  0.00    -0.098 NA
BRANCH  10  15
HETATM   15  C2  UNL     1      64.790  33.503  25.515  1.00  0.00     0.157 C 
HETATM   16  C1  UNL     1      63.654  33.341  26.448  1.00  0.00     0.097 C 
HETATM   17  O1  UNL     1      65.707  32.659  25.511  1.00  0.00    -0.293 OA
ENDBRANCH  10  15
ENDBRANCH   1   7
BRANCH   5  18
HETATM   18  C8  UNL     1      66.444  39.545  18.955  1.00  0.00     0.086 C 
HETATM   19  C9  UNL     1      65.490  39.540  17.778  1.00  0.00     0.025 C 
HETATM   20  C10 UNL     1      66.327  39.315  16.537  1.00  0.00     0.002 C 
HETATM   21  C11 UNL     1      67.682  39.942  16.702  1.00  0.00     0.000 C 
HETATM   22  C12 UNL     1      67.567  41.210  17.544  1.00  0.00     0.002 C 
HETATM   23  C13 UNL     1      67.253  40.835  18.963  1.00  0.00     0.025 C 
ENDBRANCH   5  18
TORSDOF 3
ENDMDL
MODEL 2
REMARK VINA RESULT: -6.817444389      1.210      1.429
REMARK  3 active torsions:
REMARK  status: ('A' for Active; 'I' for Inactive)
REMARK    1  A    between atoms: C2_2  and  C3_4 
REMARK    2  A    between atoms: C6_7  and  N1_8 
REMARK       I    between atoms: N1_8  and  C7_10 
REMARK       I    between atoms: C7_10  and  N2_12 
REMARK    3  A    between atoms: N2_12  and  C8_14 
ROOT
HETATM    1  N1  UNL     1      64.984  37.288  22.838  1.00  0.00    -0.307 N 
ATOM      2  H1  UNL     1      64.202  37.893  23.092  1.00  0.00     0.170 HD
HETATM    3  C7  UNL     1      65.703  37.654  21.692  1.00  0.00     0.321 C 
HETATM    4  O2  UNL     1      66.680  37.013  21.266  1.00  0.00    -0.247 OA
HETATM    5  N2  UNL     1      65.277  38.853  20.961  1.00  0.00    -0.338 N 
ATOM      6  H2  UNL     1      64.481  39.410  21.273  1.00  0.00     0.164 HD
ENDROOT
BRANCH   1   7
HETATM    7  C6  UNL     1      65.214  36.198  23.666  1.00  0.00     0.062 A 
HETATM    8  C5  UNL     1      64.504  35.042  23.605  1.00  0.00     0.032 A 
HETATM    9  C4  UNL     1      64.798  33.987  24.482  1.00  0.00     0.019 A 
HETATM   10  C3  UNL     1      65.790  34.050  25.428  1.00  0.00     0.033 A 
HETATM   11  C15 UNL     1      66.496  35.236  25.467  1.00  0.00     0.074 A 
HETATM   12  C14 UNL     1      66.232  36.282  24.626  1.00  0.00     0.095 A 
HETATM   13 CL1  UNL     1      67.779  35.331  26.683  1.00  0.00    -0.081 Cl
HETATM   14  N3  UNL     1      67.012  37.465  24.739  1.00  0.00    -0.098 NA
BRANCH  10  15
HETATM   15  C2  UNL     1      66.083  32.947  26.333  1.00  0.00     0.157 C 
HETATM   16  C1  UNL     1      67.056  31.906  25.935  1.00  0.00     0.097 C 
HETATM   17  O1  UNL     1      65.520  32.871  27.441  1.00  0.00    -0.293 OA
ENDBRANCH  10  15
ENDBRANCH   1   7
BRANCH   5  18
HETATM   18  C8  UNL     1      66.020  39.211  19.796  1.00  0.00     0.086 C 
HETATM   19  C9  UNL     1      65.066  39.241  18.620  1.00  0.00     0.025 C 
HETATM   20  C10 UNL     1      65.915  39.261  17.367  1.00  0.00     0.002 C 
HETATM   21  C11 UNL     1      67.192  40.012  17.617  1.00  0.00     0.000 C 
HETATM   22  C12 UNL     1      66.942  41.149  18.603  1.00  0.00     0.002 C 
HETATM   23  C13 UNL     1      66.680  40.573  19.965  1.00  0.00     0.025 C 
ENDBRANCH   5  18
TORSDOF 3
ENDMDL
MODEL 3
REMARK VINA RESULT: -6.682241557      5.636      6.779
REMARK  3 active torsions:
REMARK  status: ('A' for Active; 'I' for Inactive)
REMARK    1  A    between atoms: C2_2  and  C3_4 
REMARK    2  A    between atoms: C6_7  and  N1_8 
REMARK       I    between atoms: N1_8  and  C7_10 
REMARK       I    between atoms: C7_10  and  N2_12 
REMARK    3  A    between atoms: N2_12  and  C8_14 
ROOT
HETATM    1  N1  UNL     1      67.848  37.830  27.386  1.00  0.00    -0.307 N 
ATOM      2  H1  UNL     1      67.993  37.625  28.376  1.00  0.00     0.170 HD
HETATM    3  C7  UNL     1      68.633  38.855  26.843  1.00  0.00     0.321 C 
HETATM    4  O2  UNL     1      68.566  39.209  25.653  1.00  0.00    -0.247 OA
HETATM    5  N2  UNL     1      69.582  39.543  27.727  1.00  0.00    -0.338 N 
ATOM      6  H2  UNL     1      69.671  39.286  28.711  1.00  0.00     0.164 HD
ENDROOT
BRANCH   1   7
HETATM    7  C6  UNL     1      66.895  37.061  26.732  1.00  0.00     0.062 A 
HETATM    8  C5  UNL     1      65.733  37.560  26.237  1.00  0.00     0.032 A 
HETATM    9  C4  UNL     1      64.820  36.714  25.591  1.00  0.00     0.019 A 
HETATM   10  C3  UNL     1      65.032  35.369  25.422  1.00  0.00     0.033 A 
HETATM   11  C15 UNL     1      66.220  34.888  25.934  1.00  0.00     0.074 A 
HETATM   12  C14 UNL     1      67.130  35.688  26.569  1.00  0.00     0.095 A 
HETATM   13 CL1  UNL     1      66.507  33.155  25.722  1.00  0.00    -0.081 Cl
HETATM   14  N3  UNL     1      68.327  35.105  27.063  1.00  0.00    -0.098 NA
BRANCH  10  15
HETATM   15  C2  UNL     1      64.074  34.502  24.749  1.00  0.00     0.157 C 
HETATM   16  C1  UNL     1      62.964  33.895  25.516  1.00  0.00     0.097 C 
HETATM   17  O1  UNL     1      64.182  34.265  23.531  1.00  0.00    -0.293 OA
ENDBRANCH  10  15
ENDBRANCH   1   7
BRANCH   5  18
HETATM   18  C8  UNL     1      70.374  40.584  27.158  1.00  0.00     0.086 C 
HETATM   19  C9  UNL     1      69.852  41.909  27.675  1.00  0.00     0.025 C 
HETATM   20  C10 UNL     1      70.450  42.988  26.798  1.00  0.00     0.002 C 
HETATM   21  C11 UNL     1      71.822  42.584  26.340  1.00  0.00     0.000 C 
HETATM   22  C12 UNL     1      72.511  41.762  27.425  1.00  0.00     0.002 C 
HETATM   23  C13 UNL     1      71.841  40.423  27.532  1.00  0.00     0.025 C 
ENDBRANCH   5  18
TORSDOF 3
ENDMDL
MODEL 4
REMARK VINA RESULT: -6.653902325      2.489      3.720
REMARK  3 active torsions:
REMARK  status: ('A' for Active; 'I' for Inactive)
REMARK    1  A    between atoms: C2_2  and  C3_4 
REMARK    2  A    between atoms: C6_7  and  N1_8 
REMARK       I    between atoms: N1_8  and  C7_10 
REMARK       I    between atoms: C7_10  and  N2_12 
REMARK    3  A    between atoms: N2_12  and  C8_14 
ROOT
HETATM    1  N1  UNL     1      66.407  35.415  24.445  1.00  0.00    -0.307 N 
ATOM      2  H1  UNL     1      67.410  35.273  24.571  1.00  0.00     0.170 HD
HETATM    3  C7  UNL     1      66.030  36.399  23.521  1.00  0.00     0.321 C 
HETATM    4  O2  UNL     1      64.845  36.676  23.265  1.00  0.00    -0.247 OA
HETATM    5  N2  UNL     1      67.090  37.137  22.824  1.00  0.00    -0.338 N 
ATOM      6  H2  UNL     1      68.076  36.943  23.003  1.00  0.00     0.164 HD
ENDROOT
BRANCH   1   7
HETATM    7  C6  UNL     1      65.572  34.611  25.209  1.00  0.00     0.062 A 
HETATM    8  C5  UNL     1      64.260  34.882  25.430  1.00  0.00     0.032 A 
HETATM    9  C4  UNL     1      63.484  34.019  26.218  1.00  0.00     0.019 A 
HETATM   10  C3  UNL     1      63.982  32.881  26.799  1.00  0.00     0.033 A 
HETATM   11  C15 UNL     1      65.318  32.629  26.558  1.00  0.00     0.074 A 
HETATM   12  C14 UNL     1      66.100  33.452  25.795  1.00  0.00     0.095 A 
HETATM   13 CL1  UNL     1      65.974  31.163  27.302  1.00  0.00    -0.081 Cl
HETATM   14  N3  UNL     1      67.466  33.112  25.601  1.00  0.00    -0.098 NA
BRANCH  10  15
HETATM   15  C2  UNL     1      63.165  31.994  27.617  1.00  0.00     0.157 C 
HETATM   16  C1  UNL     1      63.519  31.762  29.034  1.00  0.00     0.097 C 
HETATM   17  O1  UNL     1      62.168  31.426  27.131  1.00  0.00    -0.293 OA
ENDBRANCH  10  15
ENDBRANCH   1   7
BRANCH   5  18
HETATM   18  C8  UNL     1      66.689  38.135  21.887  1.00  0.00     0.086 C 
HETATM   19  C9  UNL     1      67.894  38.997  21.573  1.00  0.00     0.025 C 
HETATM   20  C10 UNL     1      67.376  40.239  20.881  1.00  0.00     0.002 C 
HETATM   21  C11 UNL     1      66.163  39.908  20.059  1.00  0.00     0.000 C 
HETATM   22  C12 UNL     1      66.288  38.497  19.492  1.00  0.00     0.002 C 
HETATM   23  C13 UNL     1      66.155  37.502  20.609  1.00  0.00     0.025 C 
ENDBRANCH   5  18
TORSDOF 3
ENDMDL
MODEL 5
REMARK VINA RESULT: -6.560614955      4.985      6.797
REMARK  3 active torsions:
REMARK  status: ('A' for Active; 'I' for Inactive)
REMARK    1  A    between atoms: C2_2  and  C3_4 
REMARK    2  A    between atoms: C6_7  and  N1_8 
REMARK       I    between atoms: N1_8  and  C7_10 
REMARK       I    between atoms: C7_10  and  N2_12 
REMARK    3  A    between atoms: N2_12  and  C8_14 
ROOT
HETATM    1  N1  UNL     1      68.687  37.629  25.477  1.00  0.00    -0.307 N 
ATOM      2  H1  UNL     1      69.553  37.282  25.065  1.00  0.00     0.170 HD
HETATM    3  C7  UNL     1      68.767  38.861  26.140  1.00  0.00     0.321 C 
HETATM    4  O2  UNL     1      67.792  39.407  26.687  1.00  0.00    -0.247 OA
HETATM    5  N2  UNL     1      70.069  39.538  26.190  1.00  0.00    -0.338 N 
ATOM      6  H2  UNL     1      70.896  39.127  25.757  1.00  0.00     0.164 HD
ENDROOT
BRANCH   1   7
HETATM    7  C6  UNL     1      67.564  36.829  25.318  1.00  0.00     0.062 A 
HETATM    8  C5  UNL     1      67.216  35.838  26.179  1.00  0.00     0.032 A 
HETATM    9  C4  UNL     1      66.066  35.071  25.943  1.00  0.00     0.019 A 
HETATM   10  C3  UNL     1      65.242  35.263  24.863  1.00  0.00     0.033 A 
HETATM   11  C15 UNL     1      65.619  36.276  24.004  1.00  0.00     0.074 A 
HETATM   12  C14 UNL     1      66.735  37.041  24.207  1.00  0.00     0.095 A 
HETATM   13 CL1  UNL     1      64.565  36.536  22.606  1.00  0.00    -0.081 Cl
HETATM   14  N3  UNL     1      67.044  38.063  23.270  1.00  0.00    -0.098 NA
BRANCH  10  15
HETATM   15  C2  UNL     1      64.051  34.458  24.631  1.00  0.00     0.157 C 
HETATM   16  C1  UNL     1      63.081  34.242  25.727  1.00  0.00     0.097 C 
HETATM   17  O1  UNL     1      63.841  33.946  23.514  1.00  0.00    -0.293 OA
ENDBRANCH  10  15
ENDBRANCH   1   7
BRANCH   5  18
HETATM   18  C8  UNL     1      70.132  40.791  26.869  1.00  0.00     0.086 C 
HETATM   19  C9  UNL     1      70.578  40.532  28.294  1.00  0.00     0.025 C 
HETATM   20  C10 UNL     1      70.292  41.794  29.079  1.00  0.00     0.002 C 
HETATM   21  C11 UNL     1      70.458  43.002  28.200  1.00  0.00     0.000 C 
HETATM   22  C12 UNL     1      71.570  42.756  27.185  1.00  0.00     0.002 C 
HETATM   23  C13 UNL     1      71.108  41.737  26.183  1.00  0.00     0.025 C 
ENDBRANCH   5  18
TORSDOF 3
ENDMDL
