MODEL 1
REMARK VINA RESULT: -6.872270285      0.000      0.000
REMARK  5 active torsions:
REMARK  status: ('A' for Active; 'I' for Inactive)
REMARK    1  A    between atoms: S1_2  and  C2_3 
REMARK    2  A    between atoms: C5_6  and  O1_7 
REMARK    3  A    between atoms: O1_7  and  C6_8 
REMARK    4  A    between atoms: C6_8  and  N2_12 
REMARK    5  A    between atoms: N2_12  and  C7_14 
ROOT
HETATM    1  C6  UNL     1      64.101  34.760  24.264  1.00  0.00     0.218 C 
HETATM    2  N1  UNL     1      63.921  34.197  23.121  1.00  0.00    -0.365 N 
ATOM      3  H11 UNL     1      63.733  33.195  23.146  1.00  0.00     0.159 HD
ATOM      4  H12 UNL     1      63.956  34.682  22.225  1.00  0.00     0.159 HD
ENDROOT
BRANCH   1   5
HETATM    5  O1  UNL     1      64.357  36.112  24.231  1.00  0.00    -0.280 OA
BRANCH   5   6
HETATM    6  C5  UNL     1      65.354  36.718  23.496  1.00  0.00     0.081 A 
HETATM    7  C4  UNL     1      66.699  36.653  23.733  1.00  0.00     0.039 A 
HETATM    8  C3  UNL     1      67.615  37.312  22.918  1.00  0.00     0.023 A 
HETATM    9  C2  UNL     1      67.207  38.058  21.834  1.00  0.00     0.022 A 
HETATM   10  C14 UNL     1      65.850  38.125  21.591  1.00  0.00     0.053 A 
HETATM   11  C13 UNL     1      64.946  37.466  22.409  1.00  0.00     0.062 A 
HETATM   12 CL1  UNL     1      65.299  39.071  20.213  1.00  0.00    -0.083 Cl
BRANCH   9  13
HETATM   13  S1  UNL     1      68.384  38.909  20.780  1.00  0.00    -0.133 SA
HETATM   14  C1  UNL     1      68.689  40.591  21.337  1.00  0.00     0.095 C 
ENDBRANCH   9  13
ENDBRANCH   5   6
ENDBRANCH   1   5
BRANCH   1  15
HETATM   15  N2  UNL     1      64.054  34.088  25.507  1.00  0.00    -0.352 N 
ATOM     16  H2  UNL     1      63.270  34.213  26.148  1.00  0.00     0.163 HD
BRANCH  15  17
HETATM   17  C7  UNL     1      65.167  33.214  25.835  1.00  0.00     0.085 C 
HETATM   18  C8  UNL     1      64.750  32.391  27.031  1.00  0.00     0.031 C 
HETATM   19  C9  UNL     1      65.902  31.521  27.524  1.00  0.00     0.054 C 
HETATM   20  C10 UNL     1      66.990  31.616  26.512  1.00  0.00    -0.020 C 
HETATM   21  N3  UNL     1      67.413  30.556  25.923  1.00  0.00    -0.406 N 
HETATM   22  C11 UNL     1      67.555  32.962  26.219  1.00  0.00     0.054 C 
ATOM     23  H32 UNL     1      67.025  29.634  26.124  1.00  0.00     0.155 HD
ATOM     24  H31 UNL     1      68.158  30.621  25.230  1.00  0.00     0.155 HD
HETATM   25  C12 UNL     1      66.416  33.990  26.181  1.00  0.00     0.031 C 
ENDBRANCH  15  17
ENDBRANCH   1  15
TORSDOF 5
ENDMDL
MODEL 2
REMARK VINA RESULT: -6.806031272      2.642      2.890
REMARK  5 active torsions:
REMARK  status: ('A' for Active; 'I' for Inactive)
REMARK    1  A    between atoms: S1_2  and  C2_3 
REMARK    2  A    between atoms: C5_6  and  O1_7 
REMARK    3  A    between atoms: O1_7  and  C6_8 
REMARK    4  A    between atoms: C6_8  and  N2_12 
REMARK    5  A    between atoms: N2_12  and  C7_14 
ROOT
HETATM    1  C6  UNL     1      64.185  34.795  24.291  1.00  0.00     0.218 C 
HETATM    2  N1  UNL     1      63.981  34.140  23.203  1.00  0.00    -0.365 N 
ATOM      3  H11 UNL     1      63.816  33.140  23.313  1.00  0.00     0.159 HD
ATOM      4  H12 UNL     1      63.977  34.553  22.270  1.00  0.00     0.159 HD
ENDROOT
BRANCH   1   5
HETATM    5  O1  UNL     1      64.409  36.145  24.143  1.00  0.00    -0.280 OA
BRANCH   5   6
HETATM    6  C5  UNL     1      65.533  36.819  24.570  1.00  0.00     0.081 A 
HETATM    7  C4  UNL     1      66.722  36.931  23.904  1.00  0.00     0.039 A 
HETATM    8  C3  UNL     1      67.794  37.641  24.440  1.00  0.00     0.023 A 
HETATM    9  C2  UNL     1      67.703  38.262  25.667  1.00  0.00     0.022 A 
HETATM   10  C14 UNL     1      66.504  38.152  26.341  1.00  0.00     0.053 A 
HETATM   11  C13 UNL     1      65.444  37.443  25.799  1.00  0.00     0.062 A 
HETATM   12 CL1  UNL     1      66.360  38.937  27.911  1.00  0.00    -0.083 Cl
BRANCH   9  13
HETATM   13  S1  UNL     1      69.081  39.178  26.362  1.00  0.00    -0.133 SA
HETATM   14  C1  UNL     1      69.014  40.922  25.931  1.00  0.00     0.095 C 
ENDBRANCH   9  13
ENDBRANCH   5   6
ENDBRANCH   1   5
BRANCH   1  15
HETATM   15  N2  UNL     1      64.192  34.223  25.584  1.00  0.00    -0.352 N 
ATOM     16  H2  UNL     1      63.485  34.468  26.277  1.00  0.00     0.163 HD
BRANCH  15  17
HETATM   17  C7  UNL     1      65.249  33.274  25.886  1.00  0.00     0.085 C 
HETATM   18  C8  UNL     1      64.784  32.448  27.062  1.00  0.00     0.031 C 
HETATM   19  C9  UNL     1      65.880  31.496  27.530  1.00  0.00     0.054 C 
HETATM   20  C10 UNL     1      66.971  31.549  26.518  1.00  0.00    -0.020 C 
HETATM   21  N3  UNL     1      67.325  30.479  25.901  1.00  0.00    -0.406 N 
HETATM   22  C11 UNL     1      67.618  32.864  26.257  1.00  0.00     0.054 C 
ATOM     23  H32 UNL     1      66.882  29.578  26.080  1.00  0.00     0.155 HD
ATOM     24  H31 UNL     1      68.072  30.516  25.208  1.00  0.00     0.155 HD
HETATM   25  C12 UNL     1      66.545  33.961  26.248  1.00  0.00     0.031 C 
ENDBRANCH  15  17
ENDBRANCH   1  15
TORSDOF 5
ENDMDL
MODEL 3
REMARK VINA RESULT: -6.768741478      2.149      2.869
REMARK  5 active torsions:
REMARK  status: ('A' for Active; 'I' for Inactive)
REMARK    1  A    between atoms: S1_2  and  C2_3 
REMARK    2  A    between atoms: C5_6  and  O1_7 
REMARK    3  A    between atoms: O1_7  and  C6_8 
REMARK    4  A    between atoms: C6_8  and  N2_12 
REMARK    5  A    between atoms: N2_12  and  C7_14 
ROOT
HETATM    1  C6  UNL     1      67.296  35.885  25.841  1.00  0.00     0.218 C 
HETATM    2  N1  UNL     1      68.175  36.143  26.744  1.00  0.00    -0.365 N 
ATOM      3  H11 UNL     1      68.732  35.349  27.060  1.00  0.00     0.159 HD
ATOM      4  H12 UNL     1      68.338  37.066  27.147  1.00  0.00     0.159 HD
ENDROOT
BRANCH   1   5
HETATM    5  O1  UNL     1      66.544  36.956  25.415  1.00  0.00    -0.280 OA
BRANCH   5   6
HETATM    6  C5  UNL     1      66.264  37.263  24.100  1.00  0.00     0.081 A 
HETATM    7  C4  UNL     1      65.062  37.119  23.464  1.00  0.00     0.039 A 
HETATM    8  C3  UNL     1      64.901  37.463  22.125  1.00  0.00     0.023 A 
HETATM    9  C2  UNL     1      65.946  37.966  21.381  1.00  0.00     0.022 A 
HETATM   10  C14 UNL     1      67.160  38.113  22.020  1.00  0.00     0.053 A 
HETATM   11  C13 UNL     1      67.311  37.767  23.353  1.00  0.00     0.062 A 
HETATM   12 CL1  UNL     1      68.513  38.753  21.093  1.00  0.00    -0.083 Cl
BRANCH   9  13
HETATM   13  S1  UNL     1      65.743  38.411  19.654  1.00  0.00    -0.133 SA
HETATM   14  C1  UNL     1      65.592  40.188  19.433  1.00  0.00     0.095 C 
ENDBRANCH   9  13
ENDBRANCH   5   6
ENDBRANCH   1   5
BRANCH   1  15
HETATM   15  N2  UNL     1      67.069  34.606  25.282  1.00  0.00    -0.352 N 
ATOM     16  H2  UNL     1      67.443  34.352  24.368  1.00  0.00     0.163 HD
BRANCH  15  17
HETATM   17  C7  UNL     1      66.282  33.668  26.064  1.00  0.00     0.085 C 
HETATM   18  C8  UNL     1      66.978  32.330  25.987  1.00  0.00     0.031 C 
HETATM   19  C9  UNL     1      66.159  31.247  26.684  1.00  0.00     0.054 C 
HETATM   20  C10 UNL     1      65.048  31.930  27.403  1.00  0.00    -0.020 C 
HETATM   21  N3  UNL     1      64.934  31.803  28.676  1.00  0.00    -0.406 N 
HETATM   22  C11 UNL     1      64.096  32.747  26.601  1.00  0.00     0.054 C 
ATOM     23  H32 UNL     1      65.586  31.243  29.225  1.00  0.00     0.155 HD
ATOM     24  H31 UNL     1      64.172  32.270  29.167  1.00  0.00     0.155 HD
HETATM   25  C12 UNL     1      64.875  33.525  25.532  1.00  0.00     0.031 C 
ENDBRANCH  15  17
ENDBRANCH   1  15
TORSDOF 5
ENDMDL
MODEL 4
REMARK VINA RESULT: -6.696558502      2.225      3.090
REMARK  5 active torsions:
REMARK  status: ('A' for Active; 'I' for Inactive)
REMARK    1  A    between atoms: S1_2  and  C2_3 
REMARK    2  A    between atoms: C5_6  and  O1_7 
REMARK    3  A    between atoms: O1_7  and  C6_8 
REMARK    4  A    between atoms: C6_8  and  N2_12 
REMARK    5  A    between atoms: N2_12  and  C7_14 
ROOT
HETATM    1  C6  UNL     1      66.396  36.622  25.970  1.00  0.00     0.218 C 
HETATM    2  N1  UNL     1      65.585  37.307  26.696  1.00  0.00    -0.365 N 
ATOM      3  H11 UNL     1      65.068  36.780  27.400  1.00  0.00     0.159 HD
ATOM      4  H12 UNL     1      65.437  38.313  26.609  1.00  0.00     0.159 HD
ENDROOT
BRANCH   1   5
HETATM    5  O1  UNL     1      67.094  37.332  25.020  1.00  0.00    -0.280 OA
BRANCH   5   6
HETATM    6  C5  UNL     1      66.666  37.575  23.731  1.00  0.00     0.081 A 
HETATM    7  C4  UNL     1      65.411  37.360  23.232  1.00  0.00     0.039 A 
HETATM    8  C3  UNL     1      65.096  37.644  21.906  1.00  0.00     0.023 A 
HETATM    9  C2  UNL     1      66.036  38.155  21.037  1.00  0.00     0.022 A 
HETATM   10  C14 UNL     1      67.303  38.374  21.538  1.00  0.00     0.053 A 
HETATM   11  C13 UNL     1      67.607  38.088  22.860  1.00  0.00     0.062 A 
HETATM   12 CL1  UNL     1      68.524  39.026  20.451  1.00  0.00    -0.083 Cl
BRANCH   9  13
HETATM   13  S1  UNL     1      65.635  38.522  19.327  1.00  0.00    -0.133 SA
HETATM   14  C1  UNL     1      65.206  40.252  19.095  1.00  0.00     0.095 C 
ENDBRANCH   9  13
ENDBRANCH   5   6
ENDBRANCH   1   5
BRANCH   1  15
HETATM   15  N2  UNL     1      66.601  35.228  26.090  1.00  0.00    -0.352 N 
ATOM     16  H2  UNL     1      67.535  34.822  26.043  1.00  0.00     0.163 HD
BRANCH  15  17
HETATM   17  C7  UNL     1      65.425  34.397  26.283  1.00  0.00     0.085 C 
HETATM   18  C8  UNL     1      65.912  33.006  26.613  1.00  0.00     0.031 C 
HETATM   19  C9  UNL     1      64.745  32.028  26.718  1.00  0.00     0.054 C 
HETATM   20  C10 UNL     1      63.492  32.832  26.676  1.00  0.00    -0.020 C 
HETATM   21  N3  UNL     1      62.664  32.781  27.657  1.00  0.00    -0.406 N 
HETATM   22  C11 UNL     1      63.246  33.678  25.476  1.00  0.00     0.054 C 
ATOM     23  H32 UNL     1      62.834  32.201  28.479  1.00  0.00     0.155 HD
ATOM     24  H31 UNL     1      61.807  33.332  27.628  1.00  0.00     0.155 HD
HETATM   25  C12 UNL     1      64.563  34.336  25.043  1.00  0.00     0.031 C 
ENDBRANCH  15  17
ENDBRANCH   1  15
TORSDOF 5
ENDMDL
MODEL 5
REMARK VINA RESULT: -6.602930604      1.675      2.166
REMARK  5 active torsions:
REMARK  status: ('A' for Active; 'I' for Inactive)
REMARK    1  A    between atoms: S1_2  and  C2_3 
REMARK    2  A    between atoms: C5_6  and  O1_7 
REMARK    3  A    between atoms: O1_7  and  C6_8 
REMARK    4  A    between atoms: C6_8  and  N2_12 
REMARK    5  A    between atoms: N2_12  and  C7_14 
ROOT
HETATM    1  C6  UNL     1      65.292  36.084  25.139  1.00  0.00     0.218 C 
HETATM    2  N1  UNL     1      64.829  36.926  25.995  1.00  0.00    -0.365 N 
ATOM      3  H11 UNL     1      65.037  36.722  26.973  1.00  0.00     0.159 HD
ATOM      4  H12 UNL     1      64.286  37.755  25.757  1.00  0.00     0.159 HD
ENDROOT
BRANCH   1   5
HETATM    5  O1  UNL     1      65.011  36.359  23.820  1.00  0.00    -0.280 OA
BRANCH   5   6
HETATM    6  C5  UNL     1      65.796  37.120  22.979  1.00  0.00     0.081 A 
HETATM    7  C4  UNL     1      67.075  37.543  23.214  1.00  0.00     0.039 A 
HETATM    8  C3  UNL     1      67.770  38.312  22.285  1.00  0.00     0.023 A 
HETATM    9  C2  UNL     1      67.200  38.681  21.087  1.00  0.00     0.022 A 
HETATM   10  C14 UNL     1      65.910  38.255  20.846  1.00  0.00     0.053 A 
HETATM   11  C13 UNL     1      65.226  37.490  21.777  1.00  0.00     0.062 A 
HETATM   12 CL1  UNL     1      65.156  38.712  19.321  1.00  0.00    -0.083 Cl
BRANCH   9  13
HETATM   13  S1  UNL     1      68.092  39.673  19.886  1.00  0.00    -0.133 SA
HETATM   14  C1  UNL     1      69.826  39.858  20.324  1.00  0.00     0.095 C 
ENDBRANCH   9  13
ENDBRANCH   5   6
ENDBRANCH   1   5
BRANCH   1  15
HETATM   15  N2  UNL     1      66.045  34.934  25.469  1.00  0.00    -0.352 N 
ATOM     16  H2  UNL     1      67.006  34.818  25.147  1.00  0.00     0.163 HD
BRANCH  15  17
HETATM   17  C7  UNL     1      65.394  33.923  26.284  1.00  0.00     0.085 C 
HETATM   18  C8  UNL     1      66.299  32.715  26.304  1.00  0.00     0.031 C 
HETATM   19  C9  UNL     1      65.644  31.552  27.042  1.00  0.00     0.054 C 
HETATM   20  C10 UNL     1      64.412  32.081  27.691  1.00  0.00    -0.020 C 
HETATM   21  N3  UNL     1      64.276  32.006  28.966  1.00  0.00    -0.406 N 
HETATM   22  C11 UNL     1      63.369  32.686  26.818  1.00  0.00     0.054 C 
ATOM     23  H32 UNL     1      64.991  31.591  29.564  1.00  0.00     0.155 HD
ATOM     24  H31 UNL     1      63.432  32.368  29.410  1.00  0.00     0.155 HD
HETATM   25  C12 UNL     1      64.048  33.523  25.726  1.00  0.00     0.031 C 
ENDBRANCH  15  17
ENDBRANCH   1  15
TORSDOF 5
ENDMDL
