MODEL 1
REMARK VINA RESULT: -8.019814970      0.000      0.000
REMARK  5 active torsions:
REMARK  status: ('A' for Active; 'I' for Inactive)
REMARK    1  A    between atoms: N1_1  and  N2_4 
REMARK    2  A    between atoms: C1_6  and  C2_7 
REMARK    3  A    between atoms: C6_14  and  C7_15 
REMARK    4  A    between atoms: C10_18  and  C11_19 
REMARK    5  A    between atoms: C17_25  and  O1_26 
ROOT
HETATM    1  C7  UNL     1      66.248  34.761  25.534  1.00  0.00     0.015 A 
HETATM    2  C8  UNL     1      65.389  34.735  24.479  1.00  0.00     0.013 A 
HETATM    3  C9  UNL     1      65.431  35.750  23.511  1.00  0.00     0.015 A 
HETATM    4  C10 UNL     1      66.317  36.796  23.584  1.00  0.00     0.003 A 
HETATM    5  C17 UNL     1      67.163  36.808  24.654  1.00  0.00     0.115 A 
HETATM    6  C18 UNL     1      67.159  35.832  25.619  1.00  0.00     0.158 A 
HETATM    7  F1  UNL     1      68.005  35.922  26.662  1.00  0.00    -0.203 F 
ENDROOT
BRANCH   1   8
HETATM    8  C6  UNL     1      66.380  33.666  26.513  1.00  0.00     0.230 C 
HETATM    9  C2  UNL     1      65.320  32.643  26.534  1.00  0.00     0.061 C 
HETATM   10  C3  UNL     1      65.543  31.406  25.730  1.00  0.00     0.014 C 
HETATM   11  C4  UNL     1      66.943  30.860  25.866  1.00  0.00     0.028 C 
HETATM   12  C5  UNL     1      67.883  31.757  26.615  1.00  0.00     0.233 C 
HETATM   13  N3  UNL     1      67.707  33.102  26.200  1.00  0.00    -0.066 N 
ATOM     14  H32 UNL     1      68.444  33.693  26.583  1.00  0.00     0.278 HD
ATOM     15  H31 UNL     1      67.907  33.196  25.204  1.00  0.00     0.278 HD
BRANCH   9  16
HETATM   16  C1  UNL     1      65.118  32.166  27.975  1.00  0.00     0.086 C 
HETATM   17  N2  UNL     1      64.047  32.087  28.517  1.00  0.00    -0.322 N 
ATOM     18  H2  UNL     1      64.254  31.744  29.456  1.00  0.00     0.185 HD
BRANCH  17  19
HETATM   19  N1  UNL     1      62.730  32.228  28.489  1.00  0.00    -0.346 N 
ATOM     20  H12 UNL     1      62.587  32.846  27.690  1.00  0.00     0.176 HD
ATOM     21  H11 UNL     1      61.808  32.021  28.873  1.00  0.00     0.176 HD
ENDBRANCH  17  19
ENDBRANCH   9  16
ENDBRANCH   1   8
BRANCH   5  22
HETATM   22  O1  UNL     1      68.106  37.886  24.806  1.00  0.00    -0.357 OA
ATOM     23  H1  UNL     1      68.700  38.096  24.095  1.00  0.00     0.218 HD
ENDBRANCH   5  22
BRANCH   4  24
HETATM   24  C11 UNL     1      66.518  37.712  22.459  1.00  0.00    -0.067 C 
HETATM   25  C12 UNL     1      67.685  37.438  21.570  1.00  0.00     0.035 C 
HETATM   26  C13 UNL     1      67.862  38.545  20.576  1.00  0.00     0.004 C 
HETATM   27  C14 UNL     1      66.598  38.938  19.884  1.00  0.00     0.001 C 
HETATM   28  C15 UNL     1      65.350  38.244  20.303  1.00  0.00     0.004 C 
HETATM   29  C16 UNL     1      65.290  38.241  21.815  1.00  0.00     0.035 C 
ENDBRANCH   4  24
TORSDOF 5
ENDMDL
MODEL 2
REMARK VINA RESULT: -7.559188765      4.291      7.350
REMARK  5 active torsions:
REMARK  status: ('A' for Active; 'I' for Inactive)
REMARK    1  A    between atoms: N1_1  and  N2_4 
REMARK    2  A    between atoms: C1_6  and  C2_7 
REMARK    3  A    between atoms: C6_14  and  C7_15 
REMARK    4  A    between atoms: C10_18  and  C11_19 
REMARK    5  A    between atoms: C17_25  and  O1_26 
ROOT
HETATM    1  C7  UNL     1      67.123  37.648  26.404  1.00  0.00     0.015 A 
HETATM    2  C8  UNL     1      68.091  36.788  26.821  1.00  0.00     0.013 A 
HETATM    3  C9  UNL     1      67.852  35.406  26.823  1.00  0.00     0.015 A 
HETATM    4  C10 UNL     1      66.656  34.869  26.417  1.00  0.00     0.003 A 
HETATM    5  C17 UNL     1      65.696  35.749  26.011  1.00  0.00     0.115 A 
HETATM    6  C18 UNL     1      65.891  37.107  25.988  1.00  0.00     0.158 A 
HETATM    7  F1  UNL     1      64.889  37.918  25.601  1.00  0.00    -0.203 F 
ENDROOT
BRANCH   1   8
HETATM    8  C6  UNL     1      67.333  39.098  26.226  1.00  0.00     0.230 C 
HETATM    9  C2  UNL     1      67.670  39.887  27.423  1.00  0.00     0.061 C 
HETATM   10  C3  UNL     1      69.116  40.124  27.706  1.00  0.00     0.014 C 
HETATM   11  C4  UNL     1      69.904  40.489  26.473  1.00  0.00     0.028 C 
HETATM   12  C5  UNL     1      69.137  40.356  25.191  1.00  0.00     0.233 C 
HETATM   13  N3  UNL     1      68.387  39.153  25.195  1.00  0.00    -0.066 N 
ATOM     14  H32 UNL     1      67.992  38.976  24.272  1.00  0.00     0.278 HD
ATOM     15  H31 UNL     1      69.007  38.347  25.277  1.00  0.00     0.278 HD
BRANCH   9  16
HETATM   16  C1  UNL     1      67.043  41.278  27.294  1.00  0.00     0.086 C 
HETATM   17  N2  UNL     1      66.982  42.078  28.190  1.00  0.00    -0.322 N 
ATOM     18  H2  UNL     1      66.514  42.889  27.786  1.00  0.00     0.185 HD
BRANCH  17  19
HETATM   19  N1  UNL     1      67.228  42.419  29.448  1.00  0.00    -0.346 N 
ATOM     20  H12 UNL     1      66.548  41.865  29.968  1.00  0.00     0.176 HD
ATOM     21  H11 UNL     1      67.760  42.957  30.131  1.00  0.00     0.176 HD
ENDBRANCH  17  19
ENDBRANCH   9  16
ENDBRANCH   1   8
BRANCH   5  22
HETATM   22  O1  UNL     1      64.409  35.257  25.590  1.00  0.00    -0.357 OA
ATOM     23  H1  UNL     1      63.711  35.159  26.228  1.00  0.00     0.218 HD
ENDBRANCH   5  22
BRANCH   4  24
HETATM   24  C11 UNL     1      66.496  33.430  26.193  1.00  0.00    -0.067 C 
HETATM   25  C12 UNL     1      67.747  32.633  26.028  1.00  0.00     0.035 C 
HETATM   26  C13 UNL     1      67.426  31.222  25.640  1.00  0.00     0.004 C 
HETATM   27  C14 UNL     1      66.364  30.595  26.481  1.00  0.00     0.001 C 
HETATM   28  C15 UNL     1      65.734  31.445  27.527  1.00  0.00     0.004 C 
HETATM   29  C16 UNL     1      65.369  32.775  26.904  1.00  0.00     0.035 C 
ENDBRANCH   4  24
TORSDOF 5
ENDMDL
MODEL 3
REMARK VINA RESULT: -7.155094368      3.160      7.527
REMARK  5 active torsions:
REMARK  status: ('A' for Active; 'I' for Inactive)
REMARK    1  A    between atoms: N1_1  and  N2_4 
REMARK    2  A    between atoms: C1_6  and  C2_7 
REMARK    3  A    between atoms: C6_14  and  C7_15 
REMARK    4  A    between atoms: C10_18  and  C11_19 
REMARK    5  A    between atoms: C17_25  and  O1_26 
ROOT
HETATM    1  C7  UNL     1      66.325  36.615  23.673  1.00  0.00     0.015 A 
HETATM    2  C8  UNL     1      65.315  35.719  23.507  1.00  0.00     0.013 A 
HETATM    3  C9  UNL     1      65.155  34.661  24.415  1.00  0.00     0.015 A 
HETATM    4  C10 UNL     1      65.995  34.482  25.486  1.00  0.00     0.003 A 
HETATM    5  C17 UNL     1      67.006  35.386  25.629  1.00  0.00     0.115 A 
HETATM    6  C18 UNL     1      67.194  36.438  24.767  1.00  0.00     0.158 A 
HETATM    7  F1  UNL     1      68.229  37.276  24.955  1.00  0.00    -0.203 F 
ENDROOT
BRANCH   1   8
HETATM    8  C6  UNL     1      66.480  37.837  22.862  1.00  0.00     0.230 C 
HETATM    9  C2  UNL     1      67.597  37.879  21.903  1.00  0.00     0.061 C 
HETATM   10  C3  UNL     1      67.312  37.470  20.496  1.00  0.00     0.014 C 
HETATM   11  C4  UNL     1      66.015  38.034  19.972  1.00  0.00     0.028 C 
HETATM   12  C5  UNL     1      65.180  38.725  21.009  1.00  0.00     0.233 C 
HETATM   13  N3  UNL     1      65.164  37.965  22.206  1.00  0.00    -0.066 N 
ATOM     14  H32 UNL     1      64.476  38.342  22.858  1.00  0.00     0.278 HD
ATOM     15  H31 UNL     1      64.759  37.044  22.038  1.00  0.00     0.278 HD
BRANCH   9  16
HETATM   16  C1  UNL     1      68.123  39.314  21.815  1.00  0.00     0.086 C 
HETATM   17  N2  UNL     1      69.095  39.641  21.185  1.00  0.00    -0.322 N 
ATOM     18  H2  UNL     1      69.175  40.647  21.331  1.00  0.00     0.185 HD
BRANCH  17  19
HETATM   19  N1  UNL     1      70.112  39.329  20.394  1.00  0.00    -0.346 N 
ATOM     20  H12 UNL     1      70.838  39.059  21.056  1.00  0.00     0.176 HD
ATOM     21  H11 UNL     1      70.509  39.231  19.460  1.00  0.00     0.176 HD
ENDBRANCH  17  19
ENDBRANCH   9  16
ENDBRANCH   1   8
BRANCH   5  22
HETATM   22  O1  UNL     1      67.938  35.248  26.719  1.00  0.00    -0.357 OA
ATOM     23  H1  UNL     1      68.503  35.977  26.951  1.00  0.00     0.218 HD
ENDBRANCH   5  22
BRANCH   4  24
HETATM   24  C11 UNL     1      65.684  33.530  26.555  1.00  0.00    -0.067 C 
HETATM   25  C12 UNL     1      64.275  33.043  26.633  1.00  0.00     0.035 C 
HETATM   26  C13 UNL     1      64.070  32.218  27.866  1.00  0.00     0.004 C 
HETATM   27  C14 UNL     1      65.126  31.184  28.079  1.00  0.00     0.001 C 
HETATM   28  C15 UNL     1      66.248  31.147  27.103  1.00  0.00     0.004 C 
HETATM   29  C16 UNL     1      66.753  32.559  26.902  1.00  0.00     0.035 C 
ENDBRANCH   4  24
TORSDOF 5
ENDMDL
MODEL 4
REMARK VINA RESULT: -7.124715717      4.550      6.583
REMARK  5 active torsions:
REMARK  status: ('A' for Active; 'I' for Inactive)
REMARK    1  A    between atoms: N1_1  and  N2_4 
REMARK    2  A    between atoms: C1_6  and  C2_7 
REMARK    3  A    between atoms: C6_14  and  C7_15 
REMARK    4  A    between atoms: C10_18  and  C11_19 
REMARK    5  A    between atoms: C17_25  and  O1_26 
ROOT
HETATM    1  C7  UNL     1      67.289  38.793  27.655  1.00  0.00     0.015 A 
HETATM    2  C8  UNL     1      66.285  39.171  26.818  1.00  0.00     0.013 A 
HETATM    3  C9  UNL     1      65.814  38.287  25.836  1.00  0.00     0.015 A 
HETATM    4  C10 UNL     1      66.336  37.028  25.674  1.00  0.00     0.003 A 
HETATM    5  C17 UNL     1      67.348  36.671  26.517  1.00  0.00     0.115 A 
HETATM    6  C18 UNL     1      67.833  37.504  27.494  1.00  0.00     0.158 A 
HETATM    7  F1  UNL     1      68.852  37.095  28.273  1.00  0.00    -0.203 F 
ENDROOT
BRANCH   1   8
HETATM    8  C6  UNL     1      67.744  39.593  28.807  1.00  0.00     0.230 C 
HETATM    9  C2  UNL     1      69.160  39.480  29.197  1.00  0.00     0.061 C 
HETATM   10  C3  UNL     1      70.109  40.488  28.640  1.00  0.00     0.014 C 
HETATM   11  C4  UNL     1      69.561  41.893  28.673  1.00  0.00     0.028 C 
HETATM   12  C5  UNL     1      68.118  41.981  29.071  1.00  0.00     0.233 C 
HETATM   13  N3  UNL     1      67.370  40.968  28.420  1.00  0.00    -0.066 N 
ATOM     14  H32 UNL     1      66.371  41.117  28.558  1.00  0.00     0.278 HD
ATOM     15  H31 UNL     1      67.425  41.080  27.408  1.00  0.00     0.278 HD
BRANCH   9  16
HETATM   16  C1  UNL     1      69.269  39.610  30.718  1.00  0.00     0.086 C 
HETATM   17  N2  UNL     1      69.096  38.703  31.489  1.00  0.00    -0.322 N 
ATOM     18  H2  UNL     1      69.237  39.113  32.412  1.00  0.00     0.185 HD
BRANCH  17  19
HETATM   19  N1  UNL     1      68.810  37.429  31.722  1.00  0.00    -0.346 N 
ATOM     20  H12 UNL     1      68.733  37.040  30.782  1.00  0.00     0.176 HD
ATOM     21  H11 UNL     1      68.635  36.666  32.375  1.00  0.00     0.176 HD
ENDBRANCH  17  19
ENDBRANCH   9  16
ENDBRANCH   1   8
BRANCH   5  22
HETATM   22  O1  UNL     1      67.957  35.372  26.391  1.00  0.00    -0.357 OA
ATOM     23  H1  UNL     1      67.549  34.712  25.843  1.00  0.00     0.218 HD
ENDBRANCH   5  22
BRANCH   4  24
HETATM   24  C11 UNL     1      65.687  36.032  24.819  1.00  0.00    -0.067 C 
HETATM   25  C12 UNL     1      64.470  35.365  25.368  1.00  0.00     0.035 C 
HETATM   26  C13 UNL     1      64.020  34.260  24.462  1.00  0.00     0.004 C 
HETATM   27  C14 UNL     1      63.951  34.653  23.023  1.00  0.00     0.001 C 
HETATM   28  C15 UNL     1      64.383  36.034  22.674  1.00  0.00     0.004 C 
HETATM   29  C16 UNL     1      65.704  36.307  23.360  1.00  0.00     0.035 C 
ENDBRANCH   4  24
TORSDOF 5
ENDMDL
MODEL 5
REMARK VINA RESULT: -7.063040875      3.509      7.622
REMARK  5 active torsions:
REMARK  status: ('A' for Active; 'I' for Inactive)
REMARK    1  A    between atoms: N1_1  and  N2_4 
REMARK    2  A    between atoms: C1_6  and  C2_7 
REMARK    3  A    between atoms: C6_14  and  C7_15 
REMARK    4  A    between atoms: C10_18  and  C11_19 
REMARK    5  A    between atoms: C17_25  and  O1_26 
ROOT
HETATM    1  C7  UNL     1      66.190  36.786  23.776  1.00  0.00     0.015 A 
HETATM    2  C8  UNL     1      66.981  36.476  24.839  1.00  0.00     0.013 A 
HETATM    3  C9  UNL     1      66.798  35.266  25.524  1.00  0.00     0.015 A 
HETATM    4  C10 UNL     1      65.831  34.359  25.165  1.00  0.00     0.003 A 
HETATM    5  C17 UNL     1      65.044  34.693  24.102  1.00  0.00     0.115 A 
HETATM    6  C18 UNL     1      65.194  35.864  23.401  1.00  0.00     0.158 A 
HETATM    7  F1  UNL     1      64.363  36.140  22.380  1.00  0.00    -0.203 F 
ENDROOT
BRANCH   1   8
HETATM    8  C6  UNL     1      66.405  37.958  22.907  1.00  0.00     0.230 C 
HETATM    9  C2  UNL     1      67.560  37.924  21.993  1.00  0.00     0.061 C 
HETATM   10  C3  UNL     1      67.321  37.444  20.600  1.00  0.00     0.014 C 
HETATM   11  C4  UNL     1      66.059  38.006  19.993  1.00  0.00     0.028 C 
HETATM   12  C5  UNL     1      65.201  38.770  20.956  1.00  0.00     0.233 C 
HETATM   13  N3  UNL     1      65.120  38.077  22.191  1.00  0.00    -0.066 N 
ATOM     14  H32 UNL     1      64.415  38.503  22.794  1.00  0.00     0.278 HD
ATOM     15  H31 UNL     1      64.701  37.157  22.057  1.00  0.00     0.278 HD
BRANCH   9  16
HETATM   16  C1  UNL     1      68.122  39.341  21.849  1.00  0.00     0.086 C 
HETATM   17  N2  UNL     1      69.097  39.620  21.203  1.00  0.00    -0.322 N 
ATOM     18  H2  UNL     1      69.205  40.628  21.311  1.00  0.00     0.185 HD
BRANCH  17  19
HETATM   19  N1  UNL     1      70.101  39.253  20.418  1.00  0.00    -0.346 N 
ATOM     20  H12 UNL     1      69.753  38.393  19.994  1.00  0.00     0.176 HD
ATOM     21  H11 UNL     1      71.035  39.413  20.042  1.00  0.00     0.176 HD
ENDBRANCH  17  19
ENDBRANCH   9  16
ENDBRANCH   1   8
BRANCH   5  22
HETATM   22  O1  UNL     1      63.996  33.799  23.682  1.00  0.00    -0.357 OA
ATOM     23  H1  UNL     1      63.600  33.907  22.825  1.00  0.00     0.218 HD
ENDBRANCH   5  22
BRANCH   4  24
HETATM   24  C11 UNL     1      65.802  33.006  25.723  1.00  0.00    -0.067 C 
HETATM   25  C12 UNL     1      67.099  32.269  25.767  1.00  0.00     0.035 C 
HETATM   26  C13 UNL     1      66.886  30.850  26.200  1.00  0.00     0.004 C 
HETATM   27  C14 UNL     1      66.022  30.715  27.410  1.00  0.00     0.001 C 
HETATM   28  C15 UNL     1      65.450  31.966  27.980  1.00  0.00     0.004 C 
HETATM   29  C16 UNL     1      64.860  32.779  26.848  1.00  0.00     0.035 C 
ENDBRANCH   4  24
TORSDOF 5
ENDMDL
