MODEL 1
REMARK VINA RESULT: -8.786436143      0.000      0.000
REMARK  5 active torsions:
REMARK  status: ('A' for Active; 'I' for Inactive)
REMARK    1  A    between atoms: O1_1  and  C1_3 
REMARK    2  A    between atoms: C1_3  and  C2_4 
REMARK    3  A    between atoms: C2_4  and  C3_5 
REMARK    4  A    between atoms: N1_10  and  N2_12 
REMARK    5  A    between atoms: N2_12  and  C8_14 
ROOT
HETATM    1  N2  UNL     1      63.001  33.617  25.084  1.00  0.00    -0.282 N 
ATOM      2  H2  UNL     1      62.652  32.782  24.614  1.00  0.00     0.188 HD
ENDROOT
BRANCH   1   3
HETATM    3  N1  UNL     1      62.714  33.667  26.415  1.00  0.00    -0.282 N 
HETATM    4  C1  UNL     1      63.156  32.740  27.189  1.00  0.00     0.130 C 
ATOM      5  H1  UNL     1      62.154  34.431  26.794  1.00  0.00     0.189 HD
BRANCH   4   6
HETATM    6  O1  UNL     1      62.842  32.828  28.528  1.00  0.00    -0.348 OA
ATOM      7  H1  UNL     1      62.066  33.295  28.814  1.00  0.00     0.219 HD
ENDBRANCH   4   6
BRANCH   4   8
HETATM    8  C2  UNL     1      63.966  31.624  26.682  1.00  0.00     0.090 C 
BRANCH   8   9
HETATM    9  C3  UNL     1      65.390  31.901  26.416  1.00  0.00    -0.007 C 
HETATM   10  C4  UNL     1      66.209  32.437  27.538  1.00  0.00     0.005 C 
HETATM   11  C5  UNL     1      67.607  32.431  26.892  1.00  0.00     0.000 C 
HETATM   12  C6  UNL     1      67.574  31.306  25.881  1.00  0.00     0.000 C 
HETATM   13  C7  UNL     1      66.202  30.649  26.079  1.00  0.00     0.005 C 
ENDBRANCH   8   9
ENDBRANCH   4   8
ENDBRANCH   1   3
BRANCH   1  14
HETATM   14  C8  UNL     1      63.614  34.409  24.333  1.00  0.00     0.147 A 
HETATM   15  N3  UNL     1      63.382  34.560  23.019  1.00  0.00    -0.283 N 
HETATM   16  N4  UNL     1      64.191  35.464  22.523  1.00  0.00    -0.298 N 
ATOM     17  H3  UNL     1      62.680  34.047  22.486  1.00  0.00     0.188 HD
HETATM   18  C9  UNL     1      64.995  35.950  23.495  1.00  0.00     0.063 A 
ATOM     19  H4  UNL     1      64.210  35.759  21.546  1.00  0.00     0.187 HD
HETATM   20  C10 UNL     1      65.992  36.887  23.514  1.00  0.00     0.055 A 
HETATM   21  C14 UNL     1      64.628  35.273  24.668  1.00  0.00     0.039 A 
HETATM   22  C11 UNL     1      66.642  37.170  24.688  1.00  0.00     0.036 A 
HETATM   23 CL1  UNL     1      67.921  38.370  24.720  1.00  0.00    -0.084 Cl
HETATM   24  C12 UNL     1      66.321  36.535  25.866  1.00  0.00     0.025 A 
HETATM   25  C13 UNL     1      65.304  35.583  25.834  1.00  0.00     0.019 A 
ENDBRANCH   1  14
TORSDOF 5
ENDMDL
MODEL 2
REMARK VINA RESULT: -8.123025368      1.277      1.574
REMARK  5 active torsions:
REMARK  status: ('A' for Active; 'I' for Inactive)
REMARK    1  A    between atoms: O1_1  and  C1_3 
REMARK    2  A    between atoms: C1_3  and  C2_4 
REMARK    3  A    between atoms: C2_4  and  C3_5 
REMARK    4  A    between atoms: N1_10  and  N2_12 
REMARK    5  A    between atoms: N2_12  and  C8_14 
ROOT
HETATM    1  N2  UNL     1      64.028  33.926  24.208  1.00  0.00    -0.282 N 
ATOM      2  H2  UNL     1      64.718  33.189  24.066  1.00  0.00     0.188 HD
ENDROOT
BRANCH   1   3
HETATM    3  N1  UNL     1      63.108  33.649  25.174  1.00  0.00    -0.282 N 
HETATM    4  C1  UNL     1      63.501  33.483  26.387  1.00  0.00     0.130 C 
ATOM      5  H1  UNL     1      62.119  33.573  24.937  1.00  0.00     0.189 HD
BRANCH   4   6
HETATM    6  O1  UNL     1      62.538  33.203  27.333  1.00  0.00    -0.348 OA
ATOM      7  H1  UNL     1      61.797  33.785  27.457  1.00  0.00     0.219 HD
ENDBRANCH   4   6
BRANCH   4   8
HETATM    8  C2  UNL     1      64.915  33.584  26.768  1.00  0.00     0.090 C 
BRANCH   8   9
HETATM    9  C3  UNL     1      65.810  32.508  26.301  1.00  0.00    -0.007 C 
HETATM   10  C4  UNL     1      67.277  32.731  26.423  1.00  0.00     0.005 C 
HETATM   11  C5  UNL     1      67.808  31.354  25.983  1.00  0.00     0.000 C 
HETATM   12  C6  UNL     1      66.722  30.370  26.361  1.00  0.00     0.000 C 
HETATM   13  C7  UNL     1      65.677  31.213  27.103  1.00  0.00     0.005 C 
ENDBRANCH   8   9
ENDBRANCH   4   8
ENDBRANCH   1   3
BRANCH   1  14
HETATM   14  C8  UNL     1      64.181  34.921  23.462  1.00  0.00     0.147 A 
HETATM   15  N3  UNL     1      63.295  35.340  22.545  1.00  0.00    -0.283 N 
HETATM   16  N4  UNL     1      63.752  36.404  21.934  1.00  0.00    -0.298 N 
ATOM     17  H3  UNL     1      62.397  34.895  22.352  1.00  0.00     0.188 HD
HETATM   18  C9  UNL     1      64.968  36.734  22.426  1.00  0.00     0.063 A 
ATOM     19  H4  UNL     1      63.263  36.910  21.195  1.00  0.00     0.187 HD
HETATM   20  C10 UNL     1      65.859  37.734  22.145  1.00  0.00     0.055 A 
HETATM   21  C14 UNL     1      65.252  35.780  23.415  1.00  0.00     0.039 A 
HETATM   22  C11 UNL     1      67.043  37.808  22.834  1.00  0.00     0.036 A 
HETATM   23 CL1  UNL     1      68.191  39.085  22.480  1.00  0.00    -0.084 Cl
HETATM   24  C12 UNL     1      67.370  36.897  23.814  1.00  0.00     0.025 A 
HETATM   25  C13 UNL     1      66.454  35.884  24.090  1.00  0.00     0.019 A 
ENDBRANCH   1  14
TORSDOF 5
ENDMDL
MODEL 3
REMARK VINA RESULT: -7.845536310      2.987      5.357
REMARK  5 active torsions:
REMARK  status: ('A' for Active; 'I' for Inactive)
REMARK    1  A    between atoms: O1_1  and  C1_3 
REMARK    2  A    between atoms: C1_3  and  C2_4 
REMARK    3  A    between atoms: C2_4  and  C3_5 
REMARK    4  A    between atoms: N1_10  and  N2_12 
REMARK    5  A    between atoms: N2_12  and  C8_14 
ROOT
HETATM    1  N2  UNL     1      64.636  35.047  23.008  1.00  0.00    -0.282 N 
ATOM      2  H2  UNL     1      65.373  34.492  22.573  1.00  0.00     0.188 HD
ENDROOT
BRANCH   1   3
HETATM    3  N1  UNL     1      64.462  36.276  22.448  1.00  0.00    -0.282 N 
HETATM    4  C1  UNL     1      65.353  37.185  22.634  1.00  0.00     0.130 C 
ATOM      5  H1  UNL     1      63.633  36.475  21.887  1.00  0.00     0.189 HD
BRANCH   4   6
HETATM    6  O1  UNL     1      65.137  38.414  22.050  1.00  0.00    -0.348 OA
ATOM      7  H1  UNL     1      65.597  39.185  22.360  1.00  0.00     0.219 HD
ENDBRANCH   4   6
BRANCH   4   8
HETATM    8  C2  UNL     1      66.559  36.938  23.434  1.00  0.00     0.090 C 
BRANCH   8   9
HETATM    9  C3  UNL     1      66.598  37.533  24.782  1.00  0.00    -0.007 C 
HETATM   10  C4  UNL     1      65.324  37.580  25.552  1.00  0.00     0.005 C 
HETATM   11  C5  UNL     1      65.833  38.114  26.904  1.00  0.00     0.000 C 
HETATM   12  C6  UNL     1      67.264  37.633  27.009  1.00  0.00     0.000 C 
HETATM   13  C7  UNL     1      67.468  36.753  25.769  1.00  0.00     0.005 C 
ENDBRANCH   8   9
ENDBRANCH   4   8
ENDBRANCH   1   3
BRANCH   1  14
HETATM   14  C8  UNL     1      64.058  34.473  23.959  1.00  0.00     0.147 A 
HETATM   15  N3  UNL     1      62.726  34.396  24.116  1.00  0.00    -0.283 N 
HETATM   16  N4  UNL     1      62.443  33.731  25.209  1.00  0.00    -0.298 N 
ATOM     17  H3  UNL     1      62.037  34.796  23.479  1.00  0.00     0.188 HD
HETATM   18  C9  UNL     1      63.583  33.339  25.822  1.00  0.00     0.063 A 
ATOM     19  H4  UNL     1      61.501  33.537  25.548  1.00  0.00     0.187 HD
HETATM   20  C10 UNL     1      63.845  32.635  26.966  1.00  0.00     0.055 A 
HETATM   21  C14 UNL     1      64.631  33.815  25.020  1.00  0.00     0.039 A 
HETATM   22  C11 UNL     1      65.142  32.390  27.336  1.00  0.00     0.036 A 
HETATM   23 CL1  UNL     1      65.487  31.489  28.800  1.00  0.00    -0.084 Cl
HETATM   24  C12 UNL     1      66.207  32.834  26.584  1.00  0.00     0.025 A 
HETATM   25  C13 UNL     1      65.927  33.550  25.421  1.00  0.00     0.019 A 
ENDBRANCH   1  14
TORSDOF 5
ENDMDL
MODEL 4
REMARK VINA RESULT: -7.662158427      2.367      2.950
REMARK  5 active torsions:
REMARK  status: ('A' for Active; 'I' for Inactive)
REMARK    1  A    between atoms: O1_1  and  C1_3 
REMARK    2  A    between atoms: C1_3  and  C2_4 
REMARK    3  A    between atoms: C2_4  and  C3_5 
REMARK    4  A    between atoms: N1_10  and  N2_12 
REMARK    5  A    between atoms: N2_12  and  C8_14 
ROOT
HETATM    1  N2  UNL     1      64.924  36.020  25.861  1.00  0.00    -0.282 N 
ATOM      2  H2  UNL     1      64.968  36.407  26.804  1.00  0.00     0.188 HD
ENDROOT
BRANCH   1   3
HETATM    3  N1  UNL     1      63.825  35.251  25.626  1.00  0.00    -0.282 N 
HETATM    4  C1  UNL     1      63.763  34.070  26.132  1.00  0.00     0.130 C 
ATOM      5  H1  UNL     1      63.059  35.608  25.054  1.00  0.00     0.189 HD
BRANCH   4   6
HETATM    6  O1  UNL     1      62.633  33.326  25.869  1.00  0.00    -0.348 OA
ATOM      7  H1  UNL     1      61.933  33.265  26.508  1.00  0.00     0.219 HD
ENDBRANCH   4   6
BRANCH   4   8
HETATM    8  C2  UNL     1      64.844  33.522  26.960  1.00  0.00     0.090 C 
BRANCH   8   9
HETATM    9  C3  UNL     1      65.638  32.424  26.379  1.00  0.00    -0.007 C 
HETATM   10  C4  UNL     1      67.071  32.694  26.077  1.00  0.00     0.005 C 
HETATM   11  C5  UNL     1      67.537  31.290  25.649  1.00  0.00     0.000 C 
HETATM   12  C6  UNL     1      66.646  30.327  26.402  1.00  0.00     0.000 C 
HETATM   13  C7  UNL     1      65.792  31.222  27.311  1.00  0.00     0.005 C 
ENDBRANCH   8   9
ENDBRANCH   4   8
ENDBRANCH   1   3
BRANCH   1  14
HETATM   14  C8  UNL     1      65.891  36.340  25.131  1.00  0.00     0.147 A 
HETATM   15  N3  UNL     1      67.185  36.166  25.447  1.00  0.00    -0.283 N 
HETATM   16  N4  UNL     1      67.945  36.603  24.474  1.00  0.00    -0.298 N 
ATOM     17  H3  UNL     1      67.525  35.754  26.316  1.00  0.00     0.188 HD
HETATM   18  C9  UNL     1      67.180  37.087  23.469  1.00  0.00     0.063 A 
ATOM     19  H4  UNL     1      68.965  36.581  24.473  1.00  0.00     0.187 HD
HETATM   20  C10 UNL     1      67.463  37.647  22.253  1.00  0.00     0.055 A 
HETATM   21  C14 UNL     1      65.850  36.920  23.887  1.00  0.00     0.039 A 
HETATM   22  C11 UNL     1      66.442  38.051  21.432  1.00  0.00     0.036 A 
HETATM   23 CL1  UNL     1      66.796  38.771  19.872  1.00  0.00    -0.084 Cl
HETATM   24  C12 UNL     1      65.121  37.910  21.794  1.00  0.00     0.025 A 
HETATM   25  C13 UNL     1      64.845  37.338  23.035  1.00  0.00     0.019 A 
ENDBRANCH   1  14
TORSDOF 5
ENDMDL
MODEL 5
REMARK VINA RESULT: -7.440243673      2.394      2.956
REMARK  5 active torsions:
REMARK  status: ('A' for Active; 'I' for Inactive)
REMARK    1  A    between atoms: O1_1  and  C1_3 
REMARK    2  A    between atoms: C1_3  and  C2_4 
REMARK    3  A    between atoms: C2_4  and  C3_5 
REMARK    4  A    between atoms: N1_10  and  N2_12 
REMARK    5  A    between atoms: N2_12  and  C8_14 
ROOT
HETATM    1  N2  UNL     1      64.833  35.508  25.171  1.00  0.00    -0.282 N 
ATOM      2  H2  UNL     1      65.531  35.131  24.530  1.00  0.00     0.188 HD
ENDROOT
BRANCH   1   3
HETATM    3  N1  UNL     1      63.723  34.728  25.305  1.00  0.00    -0.282 N 
HETATM    4  C1  UNL     1      63.749  33.732  26.119  1.00  0.00     0.130 C 
ATOM      5  H1  UNL     1      62.882  34.932  24.766  1.00  0.00     0.189 HD
BRANCH   4   6
HETATM    6  O1  UNL     1      62.606  32.969  26.223  1.00  0.00    -0.348 OA
ATOM      7  H1  UNL     1      62.348  32.383  25.521  1.00  0.00     0.219 HD
ENDBRANCH   4   6
BRANCH   4   8
HETATM    8  C2  UNL     1      64.941  33.407  26.912  1.00  0.00     0.090 C 
BRANCH   8   9
HETATM    9  C3  UNL     1      65.844  32.376  26.367  1.00  0.00    -0.007 C 
HETATM   10  C4  UNL     1      67.309  32.622  26.468  1.00  0.00     0.005 C 
HETATM   11  C5  UNL     1      67.855  31.281  25.940  1.00  0.00     0.000 C 
HETATM   12  C6  UNL     1      66.798  30.256  26.289  1.00  0.00     0.000 C 
HETATM   13  C7  UNL     1      65.755  31.037  27.100  1.00  0.00     0.005 C 
ENDBRANCH   8   9
ENDBRANCH   4   8
ENDBRANCH   1   3
BRANCH   1  14
HETATM   14  C8  UNL     1      65.152  36.602  25.691  1.00  0.00     0.147 A 
HETATM   15  N3  UNL     1      64.387  37.705  25.693  1.00  0.00    -0.283 N 
HETATM   16  N4  UNL     1      65.006  38.677  26.316  1.00  0.00    -0.298 N 
ATOM     17  H3  UNL     1      63.461  37.776  25.272  1.00  0.00     0.188 HD
HETATM   18  C9  UNL     1      66.213  38.253  26.753  1.00  0.00     0.063 A 
ATOM     19  H4  UNL     1      64.632  39.617  26.452  1.00  0.00     0.187 HD
HETATM   20  C10 UNL     1      67.231  38.853  27.443  1.00  0.00     0.055 A 
HETATM   21  C14 UNL     1      66.315  36.911  26.353  1.00  0.00     0.039 A 
HETATM   22  C11 UNL     1      68.363  38.141  27.749  1.00  0.00     0.036 A 
HETATM   23 CL1  UNL     1      69.672  38.903  28.632  1.00  0.00    -0.084 Cl
HETATM   24  C12 UNL     1      68.512  36.823  27.380  1.00  0.00     0.025 A 
HETATM   25  C13 UNL     1      67.469  36.223  26.677  1.00  0.00     0.019 A 
ENDBRANCH   1  14
TORSDOF 5
ENDMDL
