MODEL 1
REMARK VINA RESULT: -7.230017559      0.000      0.000
REMARK  3 active torsions:
REMARK  status: ('A' for Active; 'I' for Inactive)
REMARK       I    between atoms: N1_2  and  C2_4 
REMARK       I    between atoms: C2_4  and  N2_6 
REMARK    1  A    between atoms: N2_6  and  C3_8 
REMARK    2  A    between atoms: C12_19  and  N3_20 
REMARK    3  A    between atoms: N3_20  and  C13_22 
ROOT
HETATM    1  C3  UNL     1      67.257  36.908  25.083  1.00  0.00     0.179 A 
HETATM    2  O2  UNL     1      67.760  35.817  25.616  1.00  0.00    -0.290 OA
HETATM    3  C4  UNL     1      66.841  34.938  25.930  1.00  0.00     0.098 A 
HETATM    4  C5  UNL     1      66.895  33.672  26.501  1.00  0.00    -0.005 A 
HETATM    5  C6  UNL     1      68.182  33.046  26.895  1.00  0.00     0.053 C 
HETATM    6  C7  UNL     1      65.724  32.976  26.711  1.00  0.00     0.048 A 
HETATM    7 CL1  UNL     1      65.759  31.372  27.433  1.00  0.00    -0.083 Cl
HETATM    8  C8  UNL     1      64.486  33.500  26.369  1.00  0.00    -0.039 A 
HETATM    9  C9  UNL     1      63.255  32.705  26.618  1.00  0.00     0.050 C 
HETATM   10  C10 UNL     1      64.470  34.759  25.804  1.00  0.00     0.025 A 
HETATM   11  C11 UNL     1      65.621  35.493  25.575  1.00  0.00     0.030 A 
HETATM   12  C12 UNL     1      65.895  36.736  25.041  1.00  0.00     0.093 A 
ENDROOT
BRANCH   1  13
HETATM   13  N2  UNL     1      68.010  38.056  24.634  1.00  0.00    -0.287 N 
HETATM   14  C2  UNL     1      68.310  39.101  25.575  1.00  0.00     0.321 C 
HETATM   15  N1  UNL     1      69.039  40.245  25.201  1.00  0.00    -0.347 N 
HETATM   16  O1  UNL     1      67.909  38.988  26.765  1.00  0.00    -0.247 OA
HETATM   17  C1  UNL     1      69.320  41.269  26.171  1.00  0.00     0.151 C 
ATOM     18  H1  UNL     1      69.370  40.347  24.242  1.00  0.00     0.163 HD
ATOM     19  H2  UNL     1      68.323  38.124  23.665  1.00  0.00     0.172 HD
ENDBRANCH   1  13
BRANCH  12  20
HETATM   20  N3  UNL     1      64.958  37.676  24.545  1.00  0.00    -0.381 N 
ATOM     21  H3  UNL     1      64.595  38.355  25.212  1.00  0.00     0.160 HD
BRANCH  20  22
HETATM   22  C13 UNL     1      64.471  37.769  23.206  1.00  0.00     0.082 A 
HETATM   23  C14 UNL     1      64.406  36.609  22.272  1.00  0.00     0.027 A 
HETATM   24  C15 UNL     1      65.401  37.731  22.040  1.00  0.00     0.027 A 
ENDBRANCH  20  22
ENDBRANCH  12  20
TORSDOF 3
ENDMDL
MODEL 2
REMARK VINA RESULT: -6.562846068      2.023      4.076
REMARK  3 active torsions:
REMARK  status: ('A' for Active; 'I' for Inactive)
REMARK       I    between atoms: N1_2  and  C2_4 
REMARK       I    between atoms: C2_4  and  N2_6 
REMARK    1  A    between atoms: N2_6  and  C3_8 
REMARK    2  A    between atoms: C12_19  and  N3_20 
REMARK    3  A    between atoms: N3_20  and  C13_22 
ROOT
HETATM    1  C3  UNL     1      65.519  36.857  23.972  1.00  0.00     0.179 A 
HETATM    2  O2  UNL     1      64.476  36.107  24.252  1.00  0.00    -0.290 OA
HETATM    3  C4  UNL     1      64.777  35.092  25.023  1.00  0.00     0.098 A 
HETATM    4  C5  UNL     1      64.024  34.058  25.567  1.00  0.00    -0.005 A 
HETATM    5  C6  UNL     1      62.566  33.937  25.316  1.00  0.00     0.053 C 
HETATM    6  C7  UNL     1      64.644  33.116  26.360  1.00  0.00     0.048 A 
HETATM    7 CL1  UNL     1      63.719  31.794  27.062  1.00  0.00    -0.083 Cl
HETATM    8  C8  UNL     1      66.003  33.167  26.635  1.00  0.00    -0.039 A 
HETATM    9  C9  UNL     1      66.619  32.124  27.498  1.00  0.00     0.050 C 
HETATM   10  C10 UNL     1      66.720  34.207  26.079  1.00  0.00     0.025 A 
HETATM   11  C11 UNL     1      66.138  35.173  25.277  1.00  0.00     0.030 A 
HETATM   12  C12 UNL     1      66.596  36.292  24.609  1.00  0.00     0.093 A 
ENDROOT
BRANCH   1  13
HETATM   13  N2  UNL     1      65.512  38.045  23.149  1.00  0.00    -0.287 N 
HETATM   14  C2  UNL     1      65.736  37.911  21.736  1.00  0.00     0.321 C 
HETATM   15  N1  UNL     1      65.740  39.028  20.880  1.00  0.00    -0.347 N 
HETATM   16  O1  UNL     1      65.933  36.764  21.252  1.00  0.00    -0.247 OA
HETATM   17  C1  UNL     1      65.968  38.854  19.471  1.00  0.00     0.151 C 
ATOM     18  H1  UNL     1      65.581  39.961  21.259  1.00  0.00     0.163 HD
ATOM     19  H2  UNL     1      65.350  38.962  23.565  1.00  0.00     0.172 HD
ENDBRANCH   1  13
BRANCH  12  20
HETATM   20  N3  UNL     1      67.927  36.776  24.572  1.00  0.00    -0.381 N 
ATOM     21  H3  UNL     1      68.488  36.508  23.764  1.00  0.00     0.160 HD
BRANCH  20  22
HETATM   22  C13 UNL     1      68.562  37.601  25.549  1.00  0.00     0.082 A 
HETATM   23  C14 UNL     1      68.057  37.765  26.941  1.00  0.00     0.027 A 
HETATM   24  C15 UNL     1      67.976  38.913  25.952  1.00  0.00     0.027 A 
ENDBRANCH  20  22
ENDBRANCH  12  20
TORSDOF 3
ENDMDL
MODEL 3
REMARK VINA RESULT: -6.387517567      2.456      4.377
REMARK  3 active torsions:
REMARK  status: ('A' for Active; 'I' for Inactive)
REMARK       I    between atoms: N1_2  and  C2_4 
REMARK       I    between atoms: C2_4  and  N2_6 
REMARK    1  A    between atoms: N2_6  and  C3_8 
REMARK    2  A    between atoms: C12_19  and  N3_20 
REMARK    3  A    between atoms: N3_20  and  C13_22 
ROOT
HETATM    1  C3  UNL     1      67.962  38.692  25.371  1.00  0.00     0.179 A 
HETATM    2  O2  UNL     1      67.389  38.385  24.229  1.00  0.00    -0.290 OA
HETATM    3  C4  UNL     1      66.498  37.433  24.351  1.00  0.00     0.098 A 
HETATM    4  C5  UNL     1      65.660  36.795  23.443  1.00  0.00    -0.005 A 
HETATM    5  C6  UNL     1      65.655  37.149  22.002  1.00  0.00     0.053 C 
HETATM    6  C7  UNL     1      64.811  35.805  23.889  1.00  0.00     0.048 A 
HETATM    7 CL1  UNL     1      63.739  34.978  22.764  1.00  0.00    -0.083 Cl
HETATM    8  C8  UNL     1      64.763  35.422  25.221  1.00  0.00    -0.039 A 
HETATM    9  C9  UNL     1      63.827  34.348  25.646  1.00  0.00     0.050 C 
HETATM   10  C10 UNL     1      65.608  36.077  26.095  1.00  0.00     0.025 A 
HETATM   11  C11 UNL     1      66.477  37.075  25.690  1.00  0.00     0.030 A 
HETATM   12  C12 UNL     1      67.405  37.877  26.325  1.00  0.00     0.093 A 
ENDROOT
BRANCH   1  13
HETATM   13  N2  UNL     1      68.981  39.698  25.564  1.00  0.00    -0.287 N 
HETATM   14  C2  UNL     1      68.587  41.011  25.996  1.00  0.00     0.321 C 
HETATM   15  N1  UNL     1      69.530  42.035  26.203  1.00  0.00    -0.347 N 
HETATM   16  O1  UNL     1      67.365  41.250  26.195  1.00  0.00    -0.247 OA
HETATM   17  C1  UNL     1      69.097  43.336  26.636  1.00  0.00     0.151 C 
ATOM     18  H1  UNL     1      70.521  41.853  26.046  1.00  0.00     0.163 HD
ATOM     19  H2  UNL     1      69.963  39.479  25.397  1.00  0.00     0.172 HD
ENDBRANCH   1  13
BRANCH  12  20
HETATM   20  N3  UNL     1      67.738  37.868  27.702  1.00  0.00    -0.381 N 
ATOM     21  H3  UNL     1      66.971  37.720  28.357  1.00  0.00     0.160 HD
BRANCH  20  22
HETATM   22  C13 UNL     1      69.037  38.045  28.267  1.00  0.00     0.082 A 
HETATM   23  C14 UNL     1      69.359  37.764  29.695  1.00  0.00     0.027 A 
HETATM   24  C15 UNL     1      69.335  39.190  29.177  1.00  0.00     0.027 A 
ENDBRANCH  20  22
ENDBRANCH  12  20
TORSDOF 3
ENDMDL
MODEL 4
REMARK VINA RESULT: -6.378876858      3.419      5.799
REMARK  3 active torsions:
REMARK  status: ('A' for Active; 'I' for Inactive)
REMARK       I    between atoms: N1_2  and  C2_4 
REMARK       I    between atoms: C2_4  and  N2_6 
REMARK    1  A    between atoms: N2_6  and  C3_8 
REMARK    2  A    between atoms: C12_19  and  N3_20 
REMARK    3  A    between atoms: N3_20  and  C13_22 
ROOT
HETATM    1  C3  UNL     1      67.659  35.091  26.077  1.00  0.00     0.179 A 
HETATM    2  O2  UNL     1      68.312  35.575  27.110  1.00  0.00    -0.290 OA
HETATM    3  C4  UNL     1      68.095  36.854  27.291  1.00  0.00     0.098 A 
HETATM    4  C5  UNL     1      68.555  37.771  28.228  1.00  0.00    -0.005 A 
HETATM    5  C6  UNL     1      69.492  37.379  29.312  1.00  0.00     0.053 C 
HETATM    6  C7  UNL     1      68.135  39.082  28.153  1.00  0.00     0.048 A 
HETATM    7 CL1  UNL     1      68.700  40.267  29.325  1.00  0.00    -0.083 Cl
HETATM    8  C8  UNL     1      67.262  39.519  27.168  1.00  0.00    -0.039 A 
HETATM    9  C9  UNL     1      66.841  40.944  27.135  1.00  0.00     0.050 C 
HETATM   10  C10 UNL     1      66.825  38.581  26.253  1.00  0.00     0.025 A 
HETATM   11  C11 UNL     1      67.222  37.256  26.291  1.00  0.00     0.030 A 
HETATM   12  C12 UNL     1      66.953  36.135  25.531  1.00  0.00     0.093 A 
ENDROOT
BRANCH   1  13
HETATM   13  N2  UNL     1      67.690  33.721  25.621  1.00  0.00    -0.287 N 
HETATM   14  C2  UNL     1      66.928  32.734  26.337  1.00  0.00     0.321 C 
HETATM   15  N1  UNL     1      66.916  31.382  25.944  1.00  0.00    -0.347 N 
HETATM   16  O1  UNL     1      66.254  33.089  27.341  1.00  0.00    -0.247 OA
HETATM   17  C1  UNL     1      66.141  30.424  26.685  1.00  0.00     0.151 C 
ATOM     18  H1  UNL     1      67.457  31.083  25.133  1.00  0.00     0.163 HD
ATOM     19  H2  UNL     1      68.244  33.459  24.806  1.00  0.00     0.172 HD
ENDBRANCH   1  13
BRANCH  12  20
HETATM   20  N3  UNL     1      66.113  36.059  24.393  1.00  0.00    -0.381 N 
ATOM     21  H3  UNL     1      66.540  36.280  23.494  1.00  0.00     0.160 HD
BRANCH  20  22
HETATM   22  C13 UNL     1      64.730  35.705  24.376  1.00  0.00     0.082 A 
HETATM   23  C14 UNL     1      64.041  35.021  25.507  1.00  0.00     0.027 A 
HETATM   24  C15 UNL     1      64.297  34.287  24.204  1.00  0.00     0.027 A 
ENDBRANCH  20  22
ENDBRANCH  12  20
TORSDOF 3
ENDMDL
MODEL 5
REMARK VINA RESULT: -6.305197761      3.189      5.753
REMARK  3 active torsions:
REMARK  status: ('A' for Active; 'I' for Inactive)
REMARK       I    between atoms: N1_2  and  C2_4 
REMARK       I    between atoms: C2_4  and  N2_6 
REMARK    1  A    between atoms: N2_6  and  C3_8 
REMARK    2  A    between atoms: C12_19  and  N3_20 
REMARK    3  A    between atoms: N3_20  and  C13_22 
ROOT
HETATM    1  C3  UNL     1      66.348  37.400  24.631  1.00  0.00     0.179 A 
HETATM    2  O2  UNL     1      66.411  38.585  25.198  1.00  0.00    -0.290 OA
HETATM    3  C4  UNL     1      67.126  38.582  26.296  1.00  0.00     0.098 A 
HETATM    4  C5  UNL     1      67.465  39.573  27.210  1.00  0.00    -0.005 A 
HETATM    5  C6  UNL     1      66.999  40.974  27.053  1.00  0.00     0.053 C 
HETATM    6  C7  UNL     1      68.254  39.250  28.293  1.00  0.00     0.048 A 
HETATM    7 CL1  UNL     1      68.700  40.482  29.468  1.00  0.00    -0.083 Cl
HETATM    8  C8  UNL     1      68.724  37.962  28.503  1.00  0.00    -0.039 A 
HETATM    9  C9  UNL     1      69.572  37.671  29.688  1.00  0.00     0.050 C 
HETATM   10  C10 UNL     1      68.368  37.004  27.575  1.00  0.00     0.025 A 
HETATM   11  C11 UNL     1      67.578  37.283  26.474  1.00  0.00     0.030 A 
HETATM   12  C12 UNL     1      67.082  36.546  25.417  1.00  0.00     0.093 A 
ENDROOT
BRANCH   1  13
HETATM   13  N2  UNL     1      65.639  37.081  23.414  1.00  0.00    -0.287 N 
HETATM   14  C2  UNL     1      66.038  37.720  22.190  1.00  0.00     0.321 C 
HETATM   15  N1  UNL     1      65.389  37.452  20.971  1.00  0.00    -0.347 N 
HETATM   16  O1  UNL     1      66.995  38.541  22.210  1.00  0.00    -0.247 OA
HETATM   17  C1  UNL     1      65.817  38.111  19.767  1.00  0.00     0.151 C 
ATOM     18  H1  UNL     1      64.615  36.789  20.941  1.00  0.00     0.163 HD
ATOM     19  H2  UNL     1      64.868  36.413  23.424  1.00  0.00     0.172 HD
ENDBRANCH   1  13
BRANCH  12  20
HETATM   20  N3  UNL     1      67.277  35.164  25.177  1.00  0.00    -0.381 N 
ATOM     21  H3  UNL     1      67.680  34.909  24.276  1.00  0.00     0.160 HD
BRANCH  20  22
HETATM   22  C13 UNL     1      66.968  34.091  26.067  1.00  0.00     0.082 A 
HETATM   23  C14 UNL     1      67.999  33.329  26.827  1.00  0.00     0.027 A 
HETATM   24  C15 UNL     1      67.236  32.672  25.691  1.00  0.00     0.027 A 
ENDBRANCH  20  22
ENDBRANCH  12  20
TORSDOF 3
ENDMDL
