MODEL 1
REMARK VINA RESULT: -9.682787110      0.000      0.000
REMARK  8 active torsions:
REMARK  status: ('A' for Active; 'I' for Inactive)
REMARK    1  A    between atoms: C5_5  and  O1_6 
REMARK    2  A    between atoms: C10_12  and  O2_13 
REMARK    3  A    between atoms: O2_13  and  C11_14 
REMARK    4  A    between atoms: C11_14  and  C12_16 
REMARK    5  A    between atoms: C12_16  and  C13_17 
REMARK    6  A    between atoms: C13_17  and  C14_18 
REMARK    7  A    between atoms: C14_18  and  C16_20 
REMARK    8  A    between atoms: C19_23  and  O4_24 
ROOT
HETATM    1  O2  UNL     1       0.645  34.607  24.534  1.00  0.00    -0.290 OA
ENDROOT
BRANCH   1   2
HETATM    2  C10 UNL     1       0.469  35.999  24.455  1.00  0.00     0.270 C 
HETATM    3  C9  UNL     1       1.524  36.653  25.323  1.00  0.00     0.062 C 
HETATM    4  C8  UNL     1       1.450  38.149  25.308  1.00  0.00     0.019 C 
HETATM    5  C6  UNL     1       1.134  38.714  23.962  1.00  0.00     0.012 C 
HETATM    6  C5  UNL     1       0.411  40.033  24.097  1.00  0.00     0.129 C 
HETATM    7  C7  UNL     1       2.389  38.954  23.149  1.00  0.00     0.021 C 
HETATM    8  C22 UNL     1       0.187  37.805  23.167  1.00  0.00     0.163 C 
HETATM    9  C4  UNL     1       0.115  40.696  22.808  1.00  0.00     0.037 C 
HETATM   10  C3  UNL     1      -0.201  39.823  21.659  1.00  0.00     0.038 C 
HETATM   11  C2  UNL     1       0.104  38.398  21.811  1.00  0.00    -0.060 C 
HETATM   12  C1  UNL     1       0.304  37.633  20.764  1.00  0.00     0.017 C 
HETATM   13  O5  UNL     1       0.631  36.491  23.163  1.00  0.00    -0.350 OA
BRANCH   6  14
HETATM   14  O1  UNL     1       1.146  40.908  24.897  1.00  0.00    -0.395 OA
ATOM     15  H1  UNL     1       1.091  40.619  25.801  1.00  0.00     0.210 HD
ENDBRANCH   6  14
ENDBRANCH   1   2
BRANCH   1  16
HETATM   16  C11 UNL     1       0.208  33.869  25.620  1.00  0.00     0.261 C 
HETATM   17  O3  UNL     1      -1.030  33.815  25.830  1.00  0.00    -0.265 OA
BRANCH  16  18
HETATM   18  C12 UNL     1       1.132  33.150  26.530  1.00  0.00     0.112 C 
BRANCH  18  19
HETATM   19  C13 UNL     1       2.551  33.177  26.031  1.00  0.00     0.019 C 
BRANCH  19  20
HETATM   20  C14 UNL     1       2.768  32.071  25.037  1.00  0.00     0.015 C 
HETATM   21  C15 UNL     1       1.972  30.836  25.360  1.00  0.00     0.015 C 
BRANCH  20  22
HETATM   22  C16 UNL     1       4.219  31.703  25.110  1.00  0.00    -0.051 A 
HETATM   23  C17 UNL     1       4.613  30.441  24.717  1.00  0.00     0.010 A 
HETATM   24  C18 UNL     1       5.955  30.109  24.788  1.00  0.00     0.040 A 
HETATM   25  C19 UNL     1       6.899  31.007  25.240  1.00  0.00     0.104 A 
HETATM   26  C20 UNL     1       6.461  32.263  25.625  1.00  0.00     0.149 A 
HETATM   27  F1  UNL     1       7.377  33.173  26.077  1.00  0.00    -0.203 F 
HETATM   28  C21 UNL     1       5.127  32.630  25.567  1.00  0.00     0.052 A 
BRANCH  25  29
HETATM   29  O4  UNL     1       8.257  30.701  25.323  1.00  0.00    -0.358 OA
ATOM     30  H4  UNL     1       8.631  30.206  26.042  1.00  0.00     0.217 HD
ENDBRANCH  25  29
ENDBRANCH  20  22
ENDBRANCH  19  20
ENDBRANCH  18  19
ENDBRANCH  16  18
ENDBRANCH   1  16
TORSDOF 8
ENDMDL
MODEL 2
REMARK VINA RESULT: -9.597758594      1.412      2.368
REMARK  8 active torsions:
REMARK  status: ('A' for Active; 'I' for Inactive)
REMARK    1  A    between atoms: C5_5  and  O1_6 
REMARK    2  A    between atoms: C10_12  and  O2_13 
REMARK    3  A    between atoms: O2_13  and  C11_14 
REMARK    4  A    between atoms: C11_14  and  C12_16 
REMARK    5  A    between atoms: C12_16  and  C13_17 
REMARK    6  A    between atoms: C13_17  and  C14_18 
REMARK    7  A    between atoms: C14_18  and  C16_20 
REMARK    8  A    between atoms: C19_23  and  O4_24 
ROOT
HETATM    1  O2  UNL     1       0.077  35.089  23.689  1.00  0.00    -0.290 OA
ENDROOT
BRANCH   1   2
HETATM    2  C10 UNL     1       0.622  36.138  22.929  1.00  0.00     0.270 C 
HETATM    3  C9  UNL     1      -0.249  36.330  21.705  1.00  0.00     0.062 C 
HETATM    4  C8  UNL     1       0.223  37.440  20.818  1.00  0.00     0.019 C 
HETATM    5  C6  UNL     1       0.728  38.627  21.570  1.00  0.00     0.012 C 
HETATM    6  C5  UNL     1       1.772  39.362  20.763  1.00  0.00     0.129 C 
HETATM    7  C7  UNL     1      -0.388  39.604  21.884  1.00  0.00     0.021 C 
HETATM    8  C22 UNL     1       1.424  38.224  22.877  1.00  0.00     0.163 C 
HETATM    9  C4  UNL     1       2.281  40.592  21.409  1.00  0.00     0.037 C 
HETATM   10  C3  UNL     1       2.393  40.582  22.881  1.00  0.00     0.038 C 
HETATM   11  C2  UNL     1       1.712  39.493  23.587  1.00  0.00    -0.060 C 
HETATM   12  C1  UNL     1       1.352  39.620  24.842  1.00  0.00     0.017 C 
HETATM   13  O5  UNL     1       0.645  37.348  23.616  1.00  0.00    -0.350 OA
BRANCH   6  14
HETATM   14  O1  UNL     1       1.270  39.687  19.503  1.00  0.00    -0.395 OA
ATOM     15  H1  UNL     1       1.872  39.368  18.840  1.00  0.00     0.210 HD
ENDBRANCH   6  14
ENDBRANCH   1   2
BRANCH   1  16
HETATM   16  C11 UNL     1       0.678  34.627  24.846  1.00  0.00     0.261 C 
HETATM   17  O3  UNL     1      -0.062  34.122  25.728  1.00  0.00    -0.265 OA
BRANCH  16  18
HETATM   18  C12 UNL     1       2.139  34.705  25.082  1.00  0.00     0.112 C 
BRANCH  18  19
HETATM   19  C13 UNL     1       2.645  33.536  25.884  1.00  0.00     0.019 C 
BRANCH  19  20
HETATM   20  C14 UNL     1       2.773  32.324  25.005  1.00  0.00     0.015 C 
HETATM   21  C15 UNL     1       1.901  31.184  25.458  1.00  0.00     0.015 C 
BRANCH  20  22
HETATM   22  C16 UNL     1       4.197  31.867  25.103  1.00  0.00    -0.051 A 
HETATM   23  C17 UNL     1       4.518  30.581  24.723  1.00  0.00     0.010 A 
HETATM   24  C18 UNL     1       5.836  30.168  24.816  1.00  0.00     0.040 A 
HETATM   25  C19 UNL     1       6.826  31.009  25.278  1.00  0.00     0.104 A 
HETATM   26  C20 UNL     1       6.461  32.292  25.649  1.00  0.00     0.149 A 
HETATM   27  F1  UNL     1       7.424  33.146  26.110  1.00  0.00    -0.203 F 
HETATM   28  C21 UNL     1       5.154  32.740  25.569  1.00  0.00     0.052 A 
BRANCH  25  29
HETATM   29  O4  UNL     1       8.161  30.620  25.383  1.00  0.00    -0.358 OA
ATOM     30  H4  UNL     1       8.701  30.825  26.138  1.00  0.00     0.217 HD
ENDBRANCH  25  29
ENDBRANCH  20  22
ENDBRANCH  19  20
ENDBRANCH  18  19
ENDBRANCH  16  18
ENDBRANCH   1  16
TORSDOF 8
ENDMDL
MODEL 3
REMARK VINA RESULT: -9.577277935      2.410      3.770
REMARK  8 active torsions:
REMARK  status: ('A' for Active; 'I' for Inactive)
REMARK    1  A    between atoms: C5_5  and  O1_6 
REMARK    2  A    between atoms: C10_12  and  O2_13 
REMARK    3  A    between atoms: O2_13  and  C11_14 
REMARK    4  A    between atoms: C11_14  and  C12_16 
REMARK    5  A    between atoms: C12_16  and  C13_17 
REMARK    6  A    between atoms: C13_17  and  C14_18 
REMARK    7  A    between atoms: C14_18  and  C16_20 
REMARK    8  A    between atoms: C19_23  and  O4_24 
ROOT
HETATM    1  O2  UNL     1       0.960  36.032  25.346  1.00  0.00    -0.290 OA
ENDROOT
BRANCH   1   2
HETATM    2  C10 UNL     1       2.190  36.616  24.998  1.00  0.00     0.270 C 
HETATM    3  C9  UNL     1       1.958  38.096  24.776  1.00  0.00     0.062 C 
HETATM    4  C8  UNL     1       3.207  38.837  24.413  1.00  0.00     0.019 C 
HETATM    5  C6  UNL     1       4.412  38.375  25.165  1.00  0.00     0.012 C 
HETATM    6  C5  UNL     1       5.664  38.597  24.351  1.00  0.00     0.129 C 
HETATM    7  C7  UNL     1       4.572  39.120  26.475  1.00  0.00     0.021 C 
HETATM    8  C22 UNL     1       4.365  36.868  25.449  1.00  0.00     0.163 C 
HETATM    9  C4  UNL     1       6.914  38.224  25.048  1.00  0.00     0.037 C 
HETATM   10  C3  UNL     1       6.854  37.067  25.965  1.00  0.00     0.038 C 
HETATM   11  C2  UNL     1       5.520  36.589  26.337  1.00  0.00    -0.060 C 
HETATM   12  C1  UNL     1       5.326  35.917  27.447  1.00  0.00     0.017 C 
HETATM   13  O5  UNL     1       3.150  36.492  26.000  1.00  0.00    -0.350 OA
BRANCH   6  14
HETATM   14  O1  UNL     1       5.750  39.929  23.948  1.00  0.00    -0.395 OA
ATOM     15  H1  UNL     1       4.921  40.359  24.124  1.00  0.00     0.210 HD
ENDBRANCH   6  14
ENDBRANCH   1   2
BRANCH   1  16
HETATM   16  C11 UNL     1       0.692  34.693  25.125  1.00  0.00     0.261 C 
HETATM   17  O3  UNL     1       0.116  34.381  24.052  1.00  0.00    -0.265 OA
BRANCH  16  18
HETATM   18  C12 UNL     1       1.052  33.628  26.092  1.00  0.00     0.112 C 
BRANCH  18  19
HETATM   19  C13 UNL     1       2.512  33.271  26.019  1.00  0.00     0.019 C 
BRANCH  19  20
HETATM   20  C14 UNL     1       2.723  32.167  25.021  1.00  0.00     0.015 C 
HETATM   21  C15 UNL     1       1.902  30.943  25.329  1.00  0.00     0.015 C 
BRANCH  20  22
HETATM   22  C16 UNL     1       4.166  31.773  25.110  1.00  0.00    -0.051 A 
HETATM   23  C17 UNL     1       4.540  30.499  24.738  1.00  0.00     0.010 A 
HETATM   24  C18 UNL     1       5.875  30.145  24.823  1.00  0.00     0.040 A 
HETATM   25  C19 UNL     1       6.832  31.032  25.268  1.00  0.00     0.104 A 
HETATM   26  C20 UNL     1       6.414  32.301  25.632  1.00  0.00     0.149 A 
HETATM   27  F1  UNL     1       7.343  33.201  26.077  1.00  0.00    -0.203 F 
HETATM   28  C21 UNL     1       5.088  32.691  25.560  1.00  0.00     0.052 A 
BRANCH  25  29
HETATM   29  O4  UNL     1       8.184  30.703  25.365  1.00  0.00    -0.358 OA
ATOM     30  H4  UNL     1       8.563  30.299  26.137  1.00  0.00     0.217 HD
ENDBRANCH  25  29
ENDBRANCH  20  22
ENDBRANCH  19  20
ENDBRANCH  18  19
ENDBRANCH  16  18
ENDBRANCH   1  16
TORSDOF 8
ENDMDL
MODEL 4
REMARK VINA RESULT: -9.514680535      1.830      2.973
REMARK  8 active torsions:
REMARK  status: ('A' for Active; 'I' for Inactive)
REMARK    1  A    between atoms: C5_5  and  O1_6 
REMARK    2  A    between atoms: C10_12  and  O2_13 
REMARK    3  A    between atoms: O2_13  and  C11_14 
REMARK    4  A    between atoms: C11_14  and  C12_16 
REMARK    5  A    between atoms: C12_16  and  C13_17 
REMARK    6  A    between atoms: C13_17  and  C14_18 
REMARK    7  A    between atoms: C14_18  and  C16_20 
REMARK    8  A    between atoms: C19_23  and  O4_24 
ROOT
HETATM    1  O2  UNL     1       0.594  35.878  24.482  1.00  0.00    -0.290 OA
ENDROOT
BRANCH   1   2
HETATM    2  C10 UNL     1       1.313  36.251  23.334  1.00  0.00     0.270 C 
HETATM    3  C9  UNL     1       0.344  36.894  22.365  1.00  0.00     0.062 C 
HETATM    4  C8  UNL     1       1.000  37.353  21.098  1.00  0.00     0.019 C 
HETATM    5  C6  UNL     1       2.351  37.952  21.312  1.00  0.00     0.012 C 
HETATM    6  C5  UNL     1       3.218  37.757  20.091  1.00  0.00     0.129 C 
HETATM    7  C7  UNL     1       2.264  39.440  21.587  1.00  0.00     0.021 C 
HETATM    8  C22 UNL     1       3.102  37.273  22.465  1.00  0.00     0.163 C 
HETATM    9  C4  UNL     1       4.556  38.377  20.193  1.00  0.00     0.037 C 
HETATM   10  C3  UNL     1       5.193  38.389  21.526  1.00  0.00     0.038 C 
HETATM   11  C2  UNL     1       4.334  38.073  22.670  1.00  0.00    -0.060 C 
HETATM   12  C1  UNL     1       4.634  38.486  23.878  1.00  0.00     0.017 C 
HETATM   13  O5  UNL     1       2.313  37.183  23.601  1.00  0.00    -0.350 OA
BRANCH   6  14
HETATM   14  O1  UNL     1       2.575  38.252  18.957  1.00  0.00    -0.395 OA
ATOM     15  H1  UNL     1       1.636  38.157  19.068  1.00  0.00     0.210 HD
ENDBRANCH   6  14
ENDBRANCH   1   2
BRANCH   1  16
HETATM   16  C11 UNL     1       0.383  34.554  24.823  1.00  0.00     0.261 C 
HETATM   17  O3  UNL     1      -0.510  33.926  24.200  1.00  0.00    -0.265 OA
BRANCH  16  18
HETATM   18  C12 UNL     1       1.158  33.859  25.877  1.00  0.00     0.112 C 
BRANCH  18  19
HETATM   19  C13 UNL     1       2.576  33.591  25.452  1.00  0.00     0.019 C 
BRANCH  19  20
HETATM   20  C14 UNL     1       2.686  32.212  24.864  1.00  0.00     0.015 C 
HETATM   21  C15 UNL     1       1.841  31.203  25.593  1.00  0.00     0.015 C 
BRANCH  20  22
HETATM   22  C16 UNL     1       4.117  31.791  25.012  1.00  0.00    -0.051 A 
HETATM   23  C17 UNL     1       4.484  30.514  24.642  1.00  0.00     0.010 A 
HETATM   24  C18 UNL     1       5.807  30.134  24.782  1.00  0.00     0.040 A 
HETATM   25  C19 UNL     1       6.759  30.999  25.280  1.00  0.00     0.104 A 
HETATM   26  C20 UNL     1       6.348  32.272  25.640  1.00  0.00     0.149 A 
HETATM   27  F1  UNL     1       7.273  33.149  26.137  1.00  0.00    -0.203 F 
HETATM   28  C21 UNL     1       5.034  32.686  25.514  1.00  0.00     0.052 A 
BRANCH  25  29
HETATM   29  O4  UNL     1       8.099  30.644  25.432  1.00  0.00    -0.358 OA
ATOM     30  H4  UNL     1       8.377  29.875  25.917  1.00  0.00     0.217 HD
ENDBRANCH  25  29
ENDBRANCH  20  22
ENDBRANCH  19  20
ENDBRANCH  18  19
ENDBRANCH  16  18
ENDBRANCH   1  16
TORSDOF 8
ENDMDL
MODEL 5
REMARK VINA RESULT: -9.425718011      2.716      4.176
REMARK  8 active torsions:
REMARK  status: ('A' for Active; 'I' for Inactive)
REMARK    1  A    between atoms: C5_5  and  O1_6 
REMARK    2  A    between atoms: C10_12  and  O2_13 
REMARK    3  A    between atoms: O2_13  and  C11_14 
REMARK    4  A    between atoms: C11_14  and  C12_16 
REMARK    5  A    between atoms: C12_16  and  C13_17 
REMARK    6  A    between atoms: C13_17  and  C14_18 
REMARK    7  A    between atoms: C14_18  and  C16_20 
REMARK    8  A    between atoms: C19_23  and  O4_24 
ROOT
HETATM    1  O2  UNL     1       4.361  37.997  27.602  1.00  0.00    -0.290 OA
ENDROOT
BRANCH   1   2
HETATM    2  C10 UNL     1       3.381  37.989  26.595  1.00  0.00     0.270 C 
HETATM    3  C9  UNL     1       3.945  38.710  25.389  1.00  0.00     0.062 C 
HETATM    4  C8  UNL     1       2.992  38.753  24.234  1.00  0.00     0.019 C 
HETATM    5  C6  UNL     1       2.220  37.488  24.055  1.00  0.00     0.012 C 
HETATM    6  C5  UNL     1       0.880  37.769  23.417  1.00  0.00     0.129 C 
HETATM    7  C7  UNL     1       2.957  36.504  23.169  1.00  0.00     0.021 C 
HETATM    8  C22 UNL     1       1.904  36.814  25.397  1.00  0.00     0.163 C 
HETATM    9  C4  UNL     1       0.073  36.560  23.143  1.00  0.00     0.037 C 
HETATM   10  C3  UNL     1       0.185  35.444  24.105  1.00  0.00     0.038 C 
HETATM   11  C2  UNL     1       1.297  35.504  25.057  1.00  0.00    -0.060 C 
HETATM   12  C1  UNL     1       1.768  34.416  25.619  1.00  0.00     0.017 C 
HETATM   13  O5  UNL     1       3.038  36.703  26.187  1.00  0.00    -0.350 OA
BRANCH   6  14
HETATM   14  O1  UNL     1       1.049  38.479  22.228  1.00  0.00    -0.395 OA
ATOM     15  H1  UNL     1       1.951  38.390  21.942  1.00  0.00     0.210 HD
ENDBRANCH   6  14
ENDBRANCH   1   2
BRANCH   1  16
HETATM   16  C11 UNL     1       5.058  36.858  27.963  1.00  0.00     0.261 C 
HETATM   17  O3  UNL     1       4.713  36.272  29.021  1.00  0.00    -0.265 OA
BRANCH  16  18
HETATM   18  C12 UNL     1       6.178  36.311  27.162  1.00  0.00     0.112 C 
BRANCH  18  19
HETATM   19  C13 UNL     1       5.786  35.060  26.423  1.00  0.00     0.019 C 
BRANCH  19  20
HETATM   20  C14 UNL     1       6.876  34.032  26.535  1.00  0.00     0.015 C 
HETATM   21  C15 UNL     1       8.122  34.425  25.789  1.00  0.00     0.015 C 
BRANCH  20  22
HETATM   22  C16 UNL     1       6.353  32.776  25.906  1.00  0.00    -0.051 A 
HETATM   23  C17 UNL     1       7.230  31.749  25.624  1.00  0.00     0.010 A 
HETATM   24  C18 UNL     1       6.738  30.594  25.043  1.00  0.00     0.040 A 
HETATM   25  C19 UNL     1       5.400  30.448  24.742  1.00  0.00     0.104 A 
HETATM   26  C20 UNL     1       4.554  31.504  25.041  1.00  0.00     0.149 A 
HETATM   27  F1  UNL     1       3.223  31.385  24.753  1.00  0.00    -0.203 F 
HETATM   28  C21 UNL     1       5.011  32.674  25.622  1.00  0.00     0.052 A 
BRANCH  25  29
HETATM   29  O4  UNL     1       4.877  29.296  24.157  1.00  0.00    -0.358 OA
ATOM     30  H4  UNL     1       4.021  28.948  24.379  1.00  0.00     0.217 HD
ENDBRANCH  25  29
ENDBRANCH  20  22
ENDBRANCH  19  20
ENDBRANCH  18  19
ENDBRANCH  16  18
ENDBRANCH   1  16
TORSDOF 8
ENDMDL
