MODEL 1
REMARK VINA RESULT: -8.369001565      0.000      0.000
REMARK  8 active torsions:
REMARK  status: ('A' for Active; 'I' for Inactive)
REMARK    1  A    between atoms: O1_2  and  C2_3 
REMARK    2  A    between atoms: C5_6  and  N1_7 
REMARK    3  A    between atoms: N1_7  and  C6_9 
REMARK    4  A    between atoms: C6_9  and  O2_10 
REMARK    5  A    between atoms: C6_9  and  C11_15 
REMARK    6  A    between atoms: O2_10  and  C7_11 
REMARK       I    between atoms: C11_15  and  N2_17 
REMARK    7  A    between atoms: N2_17  and  N3_19 
REMARK    8  A    between atoms: N3_19  and  C12_21 
ROOT
HETATM    1  C6  UNL     1       5.096  36.549  25.859  1.00  0.00     0.317 C 
ENDROOT
BRANCH   1   2
HETATM    2  N1  UNL     1       5.495  35.419  26.717  1.00  0.00    -0.356 N 
ATOM      3  H1  UNL     1       5.670  35.603  27.705  1.00  0.00     0.162 HD
BRANCH   2   4
HETATM    4  C5  UNL     1       5.649  34.101  26.249  1.00  0.00     0.030 A 
HETATM    5  C4  UNL     1       6.857  33.460  26.202  1.00  0.00     0.032 A 
HETATM    6  C3  UNL     1       6.953  32.146  25.723  1.00  0.00     0.039 A 
HETATM    7  C2  UNL     1       5.851  31.452  25.287  1.00  0.00     0.068 A 
HETATM    8  C21 UNL     1       4.640  32.101  25.338  1.00  0.00     0.039 A 
HETATM    9  C20 UNL     1       4.540  33.389  25.806  1.00  0.00     0.032 A 
BRANCH   7  10
HETATM   10  O1  UNL     1       5.974  30.151  24.817  1.00  0.00    -0.356 OA
HETATM   11  C1  UNL     1       5.068  29.601  23.908  1.00  0.00     0.210 C 
ENDBRANCH   7  10
ENDBRANCH   2   4
ENDBRANCH   1   2
BRANCH   1  12
HETATM   12  O2  UNL     1       5.696  37.702  26.247  1.00  0.00    -0.348 OA
BRANCH  12  13
HETATM   13  C7  UNL     1       6.459  38.387  25.362  1.00  0.00     0.053 C 
HETATM   14  C8  UNL     1       5.967  38.554  23.972  1.00  0.00     0.045 C 
HETATM   15  C9  UNL     1       6.629  39.808  25.933  1.00  0.00     0.045 C 
HETATM   16  C10 UNL     1       7.889  37.823  25.348  1.00  0.00     0.045 C 
ENDBRANCH  12  13
ENDBRANCH   1  12
BRANCH   1  17
HETATM   17  C11 UNL     1       3.639  36.653  25.792  1.00  0.00     0.285 C 
HETATM   18  O3  UNL     1       3.004  37.419  26.624  1.00  0.00    -0.267 OA
HETATM   19  N2  UNL     1       2.789  35.986  24.882  1.00  0.00    -0.266 N 
ATOM     20  H2  UNL     1       3.212  35.366  24.193  1.00  0.00     0.190 HD
BRANCH  19  21
HETATM   21  N3  UNL     1       1.405  36.131  24.875  1.00  0.00    -0.302 N 
ATOM     22  H3  UNL     1       0.992  37.064  24.906  1.00  0.00     0.186 HD
BRANCH  21  23
HETATM   23  C12 UNL     1       0.646  35.101  24.829  1.00  0.00     0.026 C 
HETATM   24  C13 UNL     1       1.215  33.891  25.292  1.00  0.00     0.001 C 
HETATM   25  C14 UNL     1       0.752  33.038  26.430  1.00  0.00     0.040 C 
HETATM   26  C15 UNL     1      -0.803  32.863  26.496  1.00  0.00     0.083 C 
HETATM   27  C16 UNL     1      -1.307  33.875  25.672  1.00  0.00    -0.182 C 
HETATM   28  C17 UNL     1      -1.884  34.869  24.868  1.00  0.00     0.090 C 
HETATM   29  C18 UNL     1      -0.663  35.637  24.244  1.00  0.00     0.043 C 
HETATM   30  C19 UNL     1      -0.606  35.250  22.777  1.00  0.00     0.017 C 
ENDBRANCH  21  23
ENDBRANCH  19  21
ENDBRANCH   1  17
TORSDOF 8
ENDMDL
MODEL 2
REMARK VINA RESULT: -8.344498026      2.578      6.337
REMARK  8 active torsions:
REMARK  status: ('A' for Active; 'I' for Inactive)
REMARK    1  A    between atoms: O1_2  and  C2_3 
REMARK    2  A    between atoms: C5_6  and  N1_7 
REMARK    3  A    between atoms: N1_7  and  C6_9 
REMARK    4  A    between atoms: C6_9  and  O2_10 
REMARK    5  A    between atoms: C6_9  and  C11_15 
REMARK    6  A    between atoms: O2_10  and  C7_11 
REMARK       I    between atoms: C11_15  and  N2_17 
REMARK    7  A    between atoms: N2_17  and  N3_19 
REMARK    8  A    between atoms: N3_19  and  C12_21 
ROOT
HETATM    1  C6  UNL     1       1.737  37.165  23.712  1.00  0.00     0.317 C 
ENDROOT
BRANCH   1   2
HETATM    2  N1  UNL     1       1.158  35.859  23.347  1.00  0.00    -0.356 N 
ATOM      3  H1  UNL     1       1.338  35.497  22.411  1.00  0.00     0.162 HD
BRANCH   2   4
HETATM    4  C5  UNL     1       0.371  35.085  24.219  1.00  0.00     0.030 A 
HETATM    5  C4  UNL     1       0.844  33.980  24.873  1.00  0.00     0.032 A 
HETATM    6  C3  UNL     1       0.014  33.242  25.729  1.00  0.00     0.039 A 
HETATM    7  C2  UNL     1      -1.296  33.593  25.946  1.00  0.00     0.068 A 
HETATM    8  C21 UNL     1      -1.765  34.704  25.287  1.00  0.00     0.039 A 
HETATM    9  C20 UNL     1      -0.957  35.431  24.447  1.00  0.00     0.032 A 
BRANCH   7  10
HETATM   10  O1  UNL     1      -2.097  32.846  26.799  1.00  0.00    -0.356 OA
HETATM   11  C1  UNL     1      -1.665  32.449  28.067  1.00  0.00     0.210 C 
ENDBRANCH   7  10
ENDBRANCH   2   4
ENDBRANCH   1   2
BRANCH   1  12
HETATM   12  O2  UNL     1       1.706  38.029  22.667  1.00  0.00    -0.348 OA
BRANCH  12  13
HETATM   13  C7  UNL     1       0.873  39.097  22.710  1.00  0.00     0.053 C 
HETATM   14  C8  UNL     1       0.208  39.435  23.992  1.00  0.00     0.045 C 
HETATM   15  C9  UNL     1       1.714  40.329  22.322  1.00  0.00     0.045 C 
HETATM   16  C10 UNL     1      -0.173  38.998  21.588  1.00  0.00     0.045 C 
ENDBRANCH  12  13
ENDBRANCH   1  12
BRANCH   1  17
HETATM   17  C11 UNL     1       3.075  36.994  24.277  1.00  0.00     0.285 C 
HETATM   18  O3  UNL     1       4.110  37.455  23.646  1.00  0.00    -0.267 OA
HETATM   19  N2  UNL     1       3.398  36.352  25.494  1.00  0.00    -0.266 N 
ATOM     20  H2  UNL     1       2.638  35.963  26.050  1.00  0.00     0.190 HD
BRANCH  19  21
HETATM   21  N3  UNL     1       4.698  36.223  25.973  1.00  0.00    -0.302 N 
ATOM     22  H3  UNL     1       5.299  37.046  26.036  1.00  0.00     0.186 HD
BRANCH  21  23
HETATM   23  C12 UNL     1       5.145  35.080  26.335  1.00  0.00     0.026 C 
HETATM   24  C13 UNL     1       4.218  34.012  26.293  1.00  0.00     0.001 C 
HETATM   25  C14 UNL     1       4.303  32.758  25.482  1.00  0.00     0.040 C 
HETATM   26  C15 UNL     1       5.734  32.120  25.453  1.00  0.00     0.083 C 
HETATM   27  C16 UNL     1       6.582  33.138  25.901  1.00  0.00    -0.182 C 
HETATM   28  C17 UNL     1       7.494  34.111  26.336  1.00  0.00     0.090 C 
HETATM   29  C18 UNL     1       6.606  35.356  26.698  1.00  0.00     0.043 C 
HETATM   30  C19 UNL     1       6.603  35.465  28.212  1.00  0.00     0.017 C 
ENDBRANCH  21  23
ENDBRANCH  19  21
ENDBRANCH   1  17
TORSDOF 8
ENDMDL
MODEL 3
REMARK VINA RESULT: -8.229723469      1.213      2.458
REMARK  8 active torsions:
REMARK  status: ('A' for Active; 'I' for Inactive)
REMARK    1  A    between atoms: O1_2  and  C2_3 
REMARK    2  A    between atoms: C5_6  and  N1_7 
REMARK    3  A    between atoms: N1_7  and  C6_9 
REMARK    4  A    between atoms: C6_9  and  O2_10 
REMARK    5  A    between atoms: C6_9  and  C11_15 
REMARK    6  A    between atoms: O2_10  and  C7_11 
REMARK       I    between atoms: C11_15  and  N2_17 
REMARK    7  A    between atoms: N2_17  and  N3_19 
REMARK    8  A    between atoms: N3_19  and  C12_21 
ROOT
HETATM    1  C6  UNL     1       4.679  36.908  25.899  1.00  0.00     0.317 C 
ENDROOT
BRANCH   1   2
HETATM    2  N1  UNL     1       4.998  35.790  26.804  1.00  0.00    -0.356 N 
ATOM      3  H1  UNL     1       4.970  35.961  27.810  1.00  0.00     0.162 HD
BRANCH   2   4
HETATM    4  C5  UNL     1       5.337  34.499  26.359  1.00  0.00     0.030 A 
HETATM    5  C4  UNL     1       6.612  34.003  26.404  1.00  0.00     0.032 A 
HETATM    6  C3  UNL     1       6.895  32.710  25.943  1.00  0.00     0.039 A 
HETATM    7  C2  UNL     1       5.916  31.893  25.434  1.00  0.00     0.068 A 
HETATM    8  C21 UNL     1       4.638  32.396  25.392  1.00  0.00     0.039 A 
HETATM    9  C20 UNL     1       4.354  33.663  25.841  1.00  0.00     0.032 A 
BRANCH   7  10
HETATM   10  O1  UNL     1       6.224  30.615  24.985  1.00  0.00    -0.356 OA
HETATM   11  C1  UNL     1       5.249  29.748  24.486  1.00  0.00     0.210 C 
ENDBRANCH   7  10
ENDBRANCH   2   4
ENDBRANCH   1   2
BRANCH   1  12
HETATM   12  O2  UNL     1       5.463  37.987  26.150  1.00  0.00    -0.348 OA
BRANCH  12  13
HETATM   13  C7  UNL     1       6.241  38.490  25.162  1.00  0.00     0.053 C 
HETATM   14  C8  UNL     1       5.719  38.495  23.773  1.00  0.00     0.045 C 
HETATM   15  C9  UNL     1       6.517  39.963  25.524  1.00  0.00     0.045 C 
HETATM   16  C10 UNL     1       7.631  37.836  25.197  1.00  0.00     0.045 C 
ENDBRANCH  12  13
ENDBRANCH   1  12
BRANCH   1  17
HETATM   17  C11 UNL     1       3.249  37.214  25.943  1.00  0.00     0.285 C 
HETATM   18  O3  UNL     1       2.836  38.308  26.502  1.00  0.00    -0.267 OA
HETATM   19  N2  UNL     1       2.204  36.419  25.421  1.00  0.00    -0.266 N 
ATOM     20  H2  UNL     1       2.448  35.541  24.963  1.00  0.00     0.190 HD
BRANCH  19  21
HETATM   21  N3  UNL     1       0.860  36.770  25.498  1.00  0.00    -0.302 N 
ATOM     22  H3  UNL     1       0.440  36.974  26.406  1.00  0.00     0.186 HD
BRANCH  21  23
HETATM   23  C12 UNL     1       0.146  36.840  24.438  1.00  0.00     0.026 C 
HETATM   24  C13 UNL     1      -0.107  38.143  23.947  1.00  0.00     0.001 C 
HETATM   25  C14 UNL     1       0.274  38.710  22.616  1.00  0.00     0.040 C 
HETATM   26  C15 UNL     1       0.050  37.721  21.421  1.00  0.00     0.083 C 
HETATM   27  C16 UNL     1      -0.096  36.467  22.024  1.00  0.00    -0.182 C 
HETATM   28  C17 UNL     1      -0.245  35.178  22.556  1.00  0.00     0.090 C 
HETATM   29  C18 UNL     1      -0.171  35.379  24.113  1.00  0.00     0.043 C 
HETATM   30  C19 UNL     1      -1.577  35.171  24.648  1.00  0.00     0.017 C 
ENDBRANCH  21  23
ENDBRANCH  19  21
ENDBRANCH   1  17
TORSDOF 8
ENDMDL
MODEL 4
REMARK VINA RESULT: -8.198499738      1.757      5.955
REMARK  8 active torsions:
REMARK  status: ('A' for Active; 'I' for Inactive)
REMARK    1  A    between atoms: O1_2  and  C2_3 
REMARK    2  A    between atoms: C5_6  and  N1_7 
REMARK    3  A    between atoms: N1_7  and  C6_9 
REMARK    4  A    between atoms: C6_9  and  O2_10 
REMARK    5  A    between atoms: C6_9  and  C11_15 
REMARK    6  A    between atoms: O2_10  and  C7_11 
REMARK       I    between atoms: C11_15  and  N2_17 
REMARK    7  A    between atoms: N2_17  and  N3_19 
REMARK    8  A    between atoms: N3_19  and  C12_21 
ROOT
HETATM    1  C6  UNL     1       1.515  35.032  25.121  1.00  0.00     0.317 C 
ENDROOT
BRANCH   1   2
HETATM    2  N1  UNL     1       1.915  33.915  25.994  1.00  0.00    -0.356 N 
ATOM      3  H1  UNL     1       1.422  33.794  26.879  1.00  0.00     0.162 HD
BRANCH   2   4
HETATM    4  C5  UNL     1       2.941  33.005  25.677  1.00  0.00     0.030 A 
HETATM    5  C4  UNL     1       2.703  31.758  25.164  1.00  0.00     0.032 A 
HETATM    6  C3  UNL     1       3.763  30.890  24.869  1.00  0.00     0.039 A 
HETATM    7  C2  UNL     1       5.072  31.250  25.076  1.00  0.00     0.068 A 
HETATM    8  C21 UNL     1       5.304  32.503  25.590  1.00  0.00     0.039 A 
HETATM    9  C20 UNL     1       4.270  33.359  25.883  1.00  0.00     0.032 A 
BRANCH   7  10
HETATM   10  O1  UNL     1       6.104  30.371  24.774  1.00  0.00    -0.356 OA
HETATM   11  C1  UNL     1       7.425  30.617  25.155  1.00  0.00     0.210 C 
ENDBRANCH   7  10
ENDBRANCH   2   4
ENDBRANCH   1   2
BRANCH   1  12
HETATM   12  O2  UNL     1       0.792  34.596  24.059  1.00  0.00    -0.348 OA
BRANCH  12  13
HETATM   13  C7  UNL     1      -0.394  35.183  23.774  1.00  0.00     0.053 C 
HETATM   14  C8  UNL     1      -1.633  34.611  24.355  1.00  0.00     0.045 C 
HETATM   15  C9  UNL     1      -0.305  36.633  24.291  1.00  0.00     0.045 C 
HETATM   16  C10 UNL     1      -0.555  35.345  22.254  1.00  0.00     0.045 C 
ENDBRANCH  12  13
ENDBRANCH   1  12
BRANCH   1  17
HETATM   17  C11 UNL     1       2.682  35.825  24.735  1.00  0.00     0.285 C 
HETATM   18  O3  UNL     1       3.069  35.852  23.497  1.00  0.00    -0.267 OA
HETATM   19  N2  UNL     1       3.485  36.612  25.591  1.00  0.00    -0.266 N 
ATOM     20  H2  UNL     1       3.244  36.645  26.582  1.00  0.00     0.190 HD
BRANCH  19  21
HETATM   21  N3  UNL     1       4.586  37.343  25.156  1.00  0.00    -0.302 N 
ATOM     22  H3  UNL     1       4.528  37.880  24.290  1.00  0.00     0.186 HD
BRANCH  21  23
HETATM   23  C12 UNL     1       5.670  37.349  25.836  1.00  0.00     0.026 C 
HETATM   24  C13 UNL     1       5.630  36.658  27.070  1.00  0.00     0.001 C 
HETATM   25  C14 UNL     1       6.459  35.486  27.491  1.00  0.00     0.040 C 
HETATM   26  C15 UNL     1       7.967  35.599  27.081  1.00  0.00     0.083 C 
HETATM   27  C16 UNL     1       7.994  36.609  26.114  1.00  0.00    -0.182 C 
HETATM   28  C17 UNL     1       8.098  37.607  25.134  1.00  0.00     0.090 C 
HETATM   29  C18 UNL     1       6.638  38.165  24.976  1.00  0.00     0.043 C 
HETATM   30  C19 UNL     1       6.626  39.547  25.604  1.00  0.00     0.017 C 
ENDBRANCH  21  23
ENDBRANCH  19  21
ENDBRANCH   1  17
TORSDOF 8
ENDMDL
MODEL 5
REMARK VINA RESULT: -8.038621699      2.486      3.687
REMARK  8 active torsions:
REMARK  status: ('A' for Active; 'I' for Inactive)
REMARK    1  A    between atoms: O1_2  and  C2_3 
REMARK    2  A    between atoms: C5_6  and  N1_7 
REMARK    3  A    between atoms: N1_7  and  C6_9 
REMARK    4  A    between atoms: C6_9  and  O2_10 
REMARK    5  A    between atoms: C6_9  and  C11_15 
REMARK    6  A    between atoms: O2_10  and  C7_11 
REMARK       I    between atoms: C11_15  and  N2_17 
REMARK    7  A    between atoms: N2_17  and  N3_19 
REMARK    8  A    between atoms: N3_19  and  C12_21 
ROOT
HETATM    1  C6  UNL     1       3.817  34.980  25.641  1.00  0.00     0.317 C 
ENDROOT
BRANCH   1   2
HETATM    2  N1  UNL     1       3.967  33.584  26.088  1.00  0.00    -0.356 N 
ATOM      3  H1  UNL     1       3.222  33.176  26.652  1.00  0.00     0.162 HD
BRANCH   2   4
HETATM    4  C5  UNL     1       5.081  32.782  25.778  1.00  0.00     0.030 A 
HETATM    5  C4  UNL     1       4.973  31.510  25.283  1.00  0.00     0.032 A 
HETATM    6  C3  UNL     1       6.117  30.753  24.996  1.00  0.00     0.039 A 
HETATM    7  C2  UNL     1       7.382  31.249  25.195  1.00  0.00     0.068 A 
HETATM    8  C21 UNL     1       7.484  32.527  25.692  1.00  0.00     0.039 A 
HETATM    9  C20 UNL     1       6.366  33.274  25.976  1.00  0.00     0.032 A 
BRANCH   7  10
HETATM   10  O1  UNL     1       8.499  30.479  24.901  1.00  0.00    -0.356 OA
HETATM   11  C1  UNL     1       9.349  30.779  23.835  1.00  0.00     0.210 C 
ENDBRANCH   7  10
ENDBRANCH   2   4
ENDBRANCH   1   2
BRANCH   1  12
HETATM   12  O2  UNL     1       3.683  35.826  26.693  1.00  0.00    -0.348 OA
BRANCH  12  13
HETATM   13  C7  UNL     1       4.690  36.680  26.994  1.00  0.00     0.053 C 
HETATM   14  C8  UNL     1       5.761  36.905  25.992  1.00  0.00     0.045 C 
HETATM   15  C9  UNL     1       4.041  38.055  27.248  1.00  0.00     0.045 C 
HETATM   16  C10 UNL     1       5.312  36.311  28.350  1.00  0.00     0.045 C 
ENDBRANCH  12  13
ENDBRANCH   1  12
BRANCH   1  17
HETATM   17  C11 UNL     1       2.729  35.095  24.670  1.00  0.00     0.285 C 
HETATM   18  O3  UNL     1       1.847  34.150  24.568  1.00  0.00    -0.267 OA
HETATM   19  N2  UNL     1       2.508  36.169  23.778  1.00  0.00    -0.266 N 
ATOM     20  H2  UNL     1       3.159  36.953  23.797  1.00  0.00     0.190 HD
BRANCH  19  21
HETATM   21  N3  UNL     1       1.449  36.213  22.876  1.00  0.00    -0.302 N 
ATOM     22  H3  UNL     1       1.323  35.455  22.206  1.00  0.00     0.186 HD
BRANCH  21  23
HETATM   23  C12 UNL     1       0.633  37.199  22.883  1.00  0.00     0.026 C 
HETATM   24  C13 UNL     1       0.222  37.654  24.158  1.00  0.00     0.001 C 
HETATM   25  C14 UNL     1       0.422  39.010  24.755  1.00  0.00     0.040 C 
HETATM   26  C15 UNL     1       0.170  40.186  23.750  1.00  0.00     0.083 C 
HETATM   27  C16 UNL     1       0.193  39.582  22.488  1.00  0.00    -0.182 C 
HETATM   28  C17 UNL     1       0.208  39.047  21.192  1.00  0.00     0.090 C 
HETATM   29  C18 UNL     1       0.414  37.503  21.399  1.00  0.00     0.043 C 
HETATM   30  C19 UNL     1      -0.910  36.837  21.070  1.00  0.00     0.017 C 
ENDBRANCH  21  23
ENDBRANCH  19  21
ENDBRANCH   1  17
TORSDOF 8
ENDMDL
