MODEL 1
REMARK VINA RESULT: -8.365142427      0.000      0.000
REMARK  5 active torsions:
REMARK  status: ('A' for Active; 'I' for Inactive)
REMARK    1  A    between atoms: C2_2  and  C3_3 
REMARK    2  A    between atoms: C3_3  and  C6_6 
REMARK    3  A    between atoms: C11_14  and  C12_15 
REMARK    4  A    between atoms: C12_15  and  S1_16 
REMARK    5  A    between atoms: C12_15  and  C14_18 
ROOT
HETATM    1  C6  UNL     1       5.547  35.991  26.718  1.00  0.00    -0.043 A 
HETATM    2  C7  UNL     1       5.461  37.208  27.359  1.00  0.00     0.053 A 
HETATM    3  C8  UNL     1       4.371  38.044  27.252  1.00  0.00     0.151 A 
HETATM    4  F1  UNL     1       4.265  39.235  27.868  1.00  0.00    -0.203 F 
HETATM    5  C9  UNL     1       3.321  37.593  26.440  1.00  0.00     0.128 A 
HETATM    6  O1  UNL     1       2.243  38.313  26.274  1.00  0.00    -0.271 OA
HETATM    7  C10 UNL     1       1.244  37.920  25.522  1.00  0.00     0.296 A 
HETATM    8  O2  UNL     1       0.200  38.643  25.376  1.00  0.00    -0.259 OA
HETATM    9  C11 UNL     1       1.230  36.724  24.840  1.00  0.00     0.037 A 
HETATM   10  C19 UNL     1       2.346  35.929  24.983  1.00  0.00     0.029 A 
HETATM   11  C20 UNL     1       3.373  36.383  25.785  1.00  0.00     0.002 A 
HETATM   12  C21 UNL     1       4.499  35.580  25.930  1.00  0.00     0.022 A 
ENDROOT
BRANCH   9  13
HETATM   13  C12 UNL     1       0.079  36.315  24.000  1.00  0.00     0.122 C 
BRANCH  13  14
HETATM   14  S1  UNL     1      -0.153  34.501  24.154  1.00  0.00    -0.159 SA
HETATM   15  C13 UNL     1      -1.367  34.268  25.503  1.00  0.00     0.091 C 
ENDBRANCH  13  14
BRANCH  13  16
HETATM   16  C14 UNL     1       0.200  36.719  22.597  1.00  0.00     0.003 A 
HETATM   17  C15 UNL     1       1.111  37.621  22.092  1.00  0.00     0.036 A 
HETATM   18  C16 UNL     1       0.937  37.761  20.726  1.00  0.00     0.007 A 
HETATM   19  C17 UNL     1       1.726  38.642  19.824  1.00  0.00     0.068 C 
HETATM   20  N1  UNL     1      -0.088  36.935  20.410  1.00  0.00    -0.348 N 
HETATM   21  C18 UNL     1      -0.545  36.302  21.514  1.00  0.00     0.124 A 
ATOM     22  H1  UNL     1      -0.463  36.807  19.470  1.00  0.00     0.167 HD
HETATM   23  N2  UNL     1      -1.617  35.365  21.520  1.00  0.00    -0.082 NA
ENDBRANCH  13  16
ENDBRANCH   9  13
BRANCH   1  24
HETATM   24  C3  UNL     1       6.742  35.152  26.881  1.00  0.00    -0.003 C 
HETATM   25  C4  UNL     1       7.222  35.088  28.311  1.00  0.00     0.024 C 
HETATM   26  C5  UNL     1       7.894  35.639  26.033  1.00  0.00     0.024 C 
BRANCH  24  27
HETATM   27  C2  UNL     1       6.443  33.746  26.479  1.00  0.00    -0.023 C 
HETATM   28  C1  UNL     1       7.277  33.007  25.778  1.00  0.00     0.008 C 
ENDBRANCH  24  27
ENDBRANCH   1  24
TORSDOF 5
ENDMDL
MODEL 2
REMARK VINA RESULT: -8.152074668      3.938      7.458
REMARK  5 active torsions:
REMARK  status: ('A' for Active; 'I' for Inactive)
REMARK    1  A    between atoms: C2_2  and  C3_3 
REMARK    2  A    between atoms: C3_3  and  C6_6 
REMARK    3  A    between atoms: C11_14  and  C12_15 
REMARK    4  A    between atoms: C12_15  and  S1_16 
REMARK    5  A    between atoms: C12_15  and  C14_18 
ROOT
HETATM    1  C6  UNL     1       1.142  37.373  22.076  1.00  0.00    -0.043 A 
HETATM    2  C7  UNL     1      -0.039  36.687  22.256  1.00  0.00     0.053 A 
HETATM    3  C8  UNL     1      -0.196  35.679  23.183  1.00  0.00     0.151 A 
HETATM    4  F1  UNL     1      -1.338  34.997  23.377  1.00  0.00    -0.203 F 
HETATM    5  C9  UNL     1       0.931  35.372  23.960  1.00  0.00     0.128 A 
HETATM    6  O1  UNL     1       0.884  34.432  24.867  1.00  0.00    -0.271 OA
HETATM    7  C10 UNL     1       1.918  34.120  25.609  1.00  0.00     0.296 A 
HETATM    8  O2  UNL     1       1.848  33.196  26.490  1.00  0.00    -0.259 OA
HETATM    9  C11 UNL     1       3.143  34.743  25.509  1.00  0.00     0.037 A 
HETATM   10  C19 UNL     1       3.241  35.742  24.565  1.00  0.00     0.029 A 
HETATM   11  C20 UNL     1       2.126  36.036  23.807  1.00  0.00     0.002 A 
HETATM   12  C21 UNL     1       2.226  37.045  22.854  1.00  0.00     0.022 A 
ENDROOT
BRANCH   9  13
HETATM   13  C12 UNL     1       4.288  34.362  26.369  1.00  0.00     0.122 C 
BRANCH  13  14
HETATM   14  S1  UNL     1       5.403  35.808  26.549  1.00  0.00    -0.159 SA
HETATM   15  C13 UNL     1       5.335  36.271  28.318  1.00  0.00     0.091 C 
ENDBRANCH  13  14
BRANCH  13  16
HETATM   16  C14 UNL     1       5.017  33.184  25.891  1.00  0.00     0.003 A 
HETATM   17  C15 UNL     1       4.454  32.063  25.321  1.00  0.00     0.036 A 
HETATM   18  C16 UNL     1       5.441  31.149  24.991  1.00  0.00     0.007 A 
HETATM   19  C17 UNL     1       5.234  29.819  24.358  1.00  0.00     0.068 C 
HETATM   20  N1  UNL     1       6.606  31.730  25.366  1.00  0.00    -0.348 N 
HETATM   21  C18 UNL     1       6.375  32.948  25.908  1.00  0.00     0.124 A 
ATOM     22  H1  UNL     1       7.528  31.308  25.256  1.00  0.00     0.167 HD
HETATM   23  N2  UNL     1       7.391  33.814  26.401  1.00  0.00    -0.082 NA
ENDBRANCH  13  16
ENDBRANCH   9  13
BRANCH   1  24
HETATM   24  C3  UNL     1       1.234  38.437  21.067  1.00  0.00    -0.003 C 
HETATM   25  C4  UNL     1       1.152  37.912  19.653  1.00  0.00     0.024 C 
HETATM   26  C5  UNL     1       2.520  39.222  21.189  1.00  0.00     0.024 C 
BRANCH  24  27
HETATM   27  C2  UNL     1       0.099  39.393  21.223  1.00  0.00    -0.023 C 
HETATM   28  C1  UNL     1       0.011  40.245  22.223  1.00  0.00     0.008 C 
ENDBRANCH  24  27
ENDBRANCH   1  24
TORSDOF 5
ENDMDL
MODEL 3
REMARK VINA RESULT: -7.933731020      2.389      3.406
REMARK  5 active torsions:
REMARK  status: ('A' for Active; 'I' for Inactive)
REMARK    1  A    between atoms: C2_2  and  C3_3 
REMARK    2  A    between atoms: C3_3  and  C6_6 
REMARK    3  A    between atoms: C11_14  and  C12_15 
REMARK    4  A    between atoms: C12_15  and  S1_16 
REMARK    5  A    between atoms: C12_15  and  C14_18 
ROOT
HETATM    1  C6  UNL     1       4.985  32.108  25.083  1.00  0.00    -0.043 A 
HETATM    2  C7  UNL     1       5.771  32.914  25.878  1.00  0.00     0.053 A 
HETATM    3  C8  UNL     1       5.402  34.183  26.269  1.00  0.00     0.151 A 
HETATM    4  F1  UNL     1       6.152  34.986  27.043  1.00  0.00    -0.203 F 
HETATM    5  C9  UNL     1       4.156  34.634  25.812  1.00  0.00     0.128 A 
HETATM    6  O1  UNL     1       3.715  35.823  26.128  1.00  0.00    -0.271 OA
HETATM    7  C10 UNL     1       2.555  36.275  25.717  1.00  0.00     0.296 A 
HETATM    8  O2  UNL     1       2.147  37.442  26.040  1.00  0.00    -0.259 OA
HETATM    9  C11 UNL     1       1.695  35.551  24.921  1.00  0.00     0.037 A 
HETATM   10  C19 UNL     1       2.116  34.290  24.561  1.00  0.00     0.029 A 
HETATM   11  C20 UNL     1       3.345  33.856  25.017  1.00  0.00     0.002 A 
HETATM   12  C21 UNL     1       3.769  32.583  24.653  1.00  0.00     0.022 A 
ENDROOT
BRANCH   9  13
HETATM   13  C12 UNL     1       0.391  36.098  24.478  1.00  0.00     0.122 C 
BRANCH  13  14
HETATM   14  S1  UNL     1      -0.732  34.703  24.076  1.00  0.00    -0.159 SA
HETATM   15  C13 UNL     1      -1.434  34.153  25.673  1.00  0.00     0.091 C 
ENDBRANCH  13  14
BRANCH  13  16
HETATM   16  C14 UNL     1       0.494  37.038  23.359  1.00  0.00     0.003 A 
HETATM   17  C15 UNL     1       0.909  36.728  22.082  1.00  0.00     0.036 A 
HETATM   18  C16 UNL     1       0.884  37.861  21.285  1.00  0.00     0.007 A 
HETATM   19  C17 UNL     1       1.260  37.935  19.848  1.00  0.00     0.068 C 
HETATM   20  N1  UNL     1       0.449  38.857  22.093  1.00  0.00    -0.348 N 
HETATM   21  C18 UNL     1       0.210  38.387  23.339  1.00  0.00     0.124 A 
ATOM     22  H1  UNL     1       0.319  39.826  21.803  1.00  0.00     0.167 HD
HETATM   23  N2  UNL     1      -0.257  39.181  24.423  1.00  0.00    -0.082 NA
ENDBRANCH  13  16
ENDBRANCH   9  13
BRANCH   1  24
HETATM   24  C3  UNL     1       5.445  30.764  24.707  1.00  0.00    -0.003 C 
HETATM   25  C4  UNL     1       5.658  30.613  23.220  1.00  0.00     0.024 C 
HETATM   26  C5  UNL     1       4.471  29.692  25.141  1.00  0.00     0.024 C 
BRANCH  24  27
HETATM   27  C2  UNL     1       6.760  30.472  25.348  1.00  0.00    -0.023 C 
HETATM   28  C1  UNL     1       7.914  30.684  24.748  1.00  0.00     0.008 C 
ENDBRANCH  24  27
ENDBRANCH   1  24
TORSDOF 5
ENDMDL
MODEL 4
REMARK VINA RESULT: -7.887340910      3.943      5.565
REMARK  5 active torsions:
REMARK  status: ('A' for Active; 'I' for Inactive)
REMARK    1  A    between atoms: C2_2  and  C3_3 
REMARK    2  A    between atoms: C3_3  and  C6_6 
REMARK    3  A    between atoms: C11_14  and  C12_15 
REMARK    4  A    between atoms: C12_15  and  S1_16 
REMARK    5  A    between atoms: C12_15  and  C14_18 
ROOT
HETATM    1  C6  UNL     1       1.306  33.945  24.979  1.00  0.00    -0.043 A 
HETATM    2  C7  UNL     1      -0.038  33.863  24.685  1.00  0.00     0.053 A 
HETATM    3  C8  UNL     1      -0.694  34.770  23.883  1.00  0.00     0.151 A 
HETATM    4  F1  UNL     1      -2.004  34.711  23.583  1.00  0.00    -0.203 F 
HETATM    5  C9  UNL     1       0.085  35.813  23.360  1.00  0.00     0.128 A 
HETATM    6  O1  UNL     1      -0.444  36.725  22.587  1.00  0.00    -0.271 OA
HETATM    7  C10 UNL     1       0.256  37.711  22.083  1.00  0.00     0.296 A 
HETATM    8  O2  UNL     1      -0.285  38.590  21.330  1.00  0.00    -0.259 OA
HETATM    9  C11 UNL     1       1.603  37.883  22.313  1.00  0.00     0.037 A 
HETATM   10  C19 UNL     1       2.206  36.946  23.123  1.00  0.00     0.029 A 
HETATM   11  C20 UNL     1       1.430  35.925  23.631  1.00  0.00     0.002 A 
HETATM   12  C21 UNL     1       2.039  34.979  24.449  1.00  0.00     0.022 A 
ENDROOT
BRANCH   9  13
HETATM   13  C12 UNL     1       2.360  39.012  21.722  1.00  0.00     0.122 C 
BRANCH  13  14
HETATM   14  S1  UNL     1       3.525  38.353  20.467  1.00  0.00    -0.159 SA
HETATM   15  C13 UNL     1       2.953  39.014  18.860  1.00  0.00     0.091 C 
ENDBRANCH  13  14
BRANCH  13  16
HETATM   16  C14 UNL     1       3.055  39.839  22.712  1.00  0.00     0.003 A 
HETATM   17  C15 UNL     1       4.416  39.864  22.928  1.00  0.00     0.036 A 
HETATM   18  C16 UNL     1       4.722  40.760  23.939  1.00  0.00     0.007 A 
HETATM   19  C17 UNL     1       6.079  41.068  24.462  1.00  0.00     0.068 C 
HETATM   20  N1  UNL     1       3.532  41.275  24.331  1.00  0.00    -0.348 N 
HETATM   21  C18 UNL     1       2.522  40.737  23.611  1.00  0.00     0.124 A 
ATOM     22  H1  UNL     1       3.415  41.971  25.067  1.00  0.00     0.167 HD
HETATM   23  N2  UNL     1       1.148  41.069  23.778  1.00  0.00    -0.082 NA
ENDBRANCH  13  16
ENDBRANCH   9  13
BRANCH   1  24
HETATM   24  C3  UNL     1       1.938  32.938  25.842  1.00  0.00    -0.003 C 
HETATM   25  C4  UNL     1       1.098  32.591  27.048  1.00  0.00     0.024 C 
HETATM   26  C5  UNL     1       3.291  33.392  26.342  1.00  0.00     0.024 C 
BRANCH  24  27
HETATM   27  C2  UNL     1       2.134  31.664  25.090  1.00  0.00    -0.023 C 
HETATM   28  C1  UNL     1       3.323  31.170  24.812  1.00  0.00     0.008 C 
ENDBRANCH  24  27
ENDBRANCH   1  24
TORSDOF 5
ENDMDL
MODEL 5
REMARK VINA RESULT: -7.859231547      3.379      5.265
REMARK  5 active torsions:
REMARK  status: ('A' for Active; 'I' for Inactive)
REMARK    1  A    between atoms: C2_2  and  C3_3 
REMARK    2  A    between atoms: C3_3  and  C6_6 
REMARK    3  A    between atoms: C11_14  and  C12_15 
REMARK    4  A    between atoms: C12_15  and  S1_16 
REMARK    5  A    between atoms: C12_15  and  C14_18 
ROOT
HETATM    1  C6  UNL     1       6.479  34.482  26.238  1.00  0.00    -0.043 A 
HETATM    2  C7  UNL     1       6.758  33.139  26.112  1.00  0.00     0.053 A 
HETATM    3  C8  UNL     1       5.824  32.205  25.718  1.00  0.00     0.151 A 
HETATM    4  F1  UNL     1       6.073  30.890  25.588  1.00  0.00    -0.203 F 
HETATM    5  C9  UNL     1       4.538  32.693  25.441  1.00  0.00     0.128 A 
HETATM    6  O1  UNL     1       3.582  31.888  25.060  1.00  0.00    -0.271 OA
HETATM    7  C10 UNL     1       2.371  32.312  24.794  1.00  0.00     0.296 A 
HETATM    8  O2  UNL     1       1.453  31.504  24.422  1.00  0.00    -0.259 OA
HETATM    9  C11 UNL     1       1.989  33.632  24.888  1.00  0.00     0.037 A 
HETATM   10  C19 UNL     1       2.963  34.520  25.287  1.00  0.00     0.029 A 
HETATM   11  C20 UNL     1       4.225  34.028  25.556  1.00  0.00     0.002 A 
HETATM   12  C21 UNL     1       5.208  34.926  25.959  1.00  0.00     0.022 A 
ENDROOT
BRANCH   9  13
HETATM   13  C12 UNL     1       0.608  34.071  24.577  1.00  0.00     0.122 C 
BRANCH  13  14
HETATM   14  S1  UNL     1       0.616  35.881  24.273  1.00  0.00    -0.159 SA
HETATM   15  C13 UNL     1       0.193  36.090  22.505  1.00  0.00     0.091 C 
ENDBRANCH  13  14
BRANCH  13  16
HETATM   16  C14 UNL     1      -0.372  33.708  25.603  1.00  0.00     0.003 A 
HETATM   17  C15 UNL     1      -0.142  32.883  26.682  1.00  0.00     0.036 A 
HETATM   18  C16 UNL     1      -1.292  32.761  27.444  1.00  0.00     0.007 A 
HETATM   19  C17 UNL     1      -1.445  31.958  28.685  1.00  0.00     0.068 C 
HETATM   20  N1  UNL     1      -2.219  33.521  26.814  1.00  0.00    -0.348 N 
HETATM   21  C18 UNL     1      -1.691  34.096  25.709  1.00  0.00     0.124 A 
ATOM     22  H1  UNL     1      -3.182  33.643  27.128  1.00  0.00     0.167 HD
HETATM   23  N2  UNL     1      -2.406  34.955  24.828  1.00  0.00    -0.082 NA
ENDBRANCH  13  16
ENDBRANCH   9  13
BRANCH   1  24
HETATM   24  C3  UNL     1       7.527  35.419  26.663  1.00  0.00    -0.003 C 
HETATM   25  C4  UNL     1       8.889  35.061  26.117  1.00  0.00     0.024 C 
HETATM   26  C5  UNL     1       7.643  35.493  28.168  1.00  0.00     0.024 C 
BRANCH  24  27
HETATM   27  C2  UNL     1       7.225  36.792  26.161  1.00  0.00    -0.023 C 
HETATM   28  C1  UNL     1       8.011  37.439  25.325  1.00  0.00     0.008 C 
ENDBRANCH  24  27
ENDBRANCH   1  24
TORSDOF 5
ENDMDL
