MODEL 1
REMARK VINA RESULT: -8.402273855      0.000      0.000
REMARK  6 active torsions:
REMARK  status: ('A' for Active; 'I' for Inactive)
REMARK    1  A    between atoms: C2_2  and  N1_3 
REMARK    2  A    between atoms: N1_3  and  N2_5 
REMARK    3  A    between atoms: C3_6  and  S1_7 
REMARK    4  A    between atoms: S1_7  and  C4_8 
REMARK    5  A    between atoms: C4_8  and  C5_9 
REMARK       I    between atoms: C5_9  and  N3_11 
REMARK    6  A    between atoms: N3_11  and  C6_13 
ROOT
HETATM    1  C4  UNL     1       2.381  37.295  25.426  1.00  0.00     0.184 C 
ENDROOT
BRANCH   1   2
HETATM    2  S1  UNL     1       0.729  37.447  24.797  1.00  0.00    -0.099 SA
BRANCH   2   3
HETATM    3  C3  UNL     1       0.571  37.357  23.044  1.00  0.00     0.118 A 
HETATM    4  N2  UNL     1       1.051  38.326  22.211  1.00  0.00    -0.222 N 
HETATM    5  C17 UNL     1       0.779  37.975  20.952  1.00  0.00     0.198 A 
HETATM    6  N4  UNL     1       0.135  36.804  20.925  1.00  0.00    -0.333 N 
HETATM    7  S2  UNL     1       1.146  38.800  19.574  1.00  0.00    -0.039 SA
HETATM    8  C15 UNL     1       0.001  36.410  22.229  1.00  0.00     0.043 A 
ATOM      9  H4  UNL     1      -0.191  36.303  20.098  1.00  0.00     0.168 HD
HETATM   10  C16 UNL     1      -0.651  35.171  22.691  1.00  0.00     0.071 C 
BRANCH   4  11
HETATM   11  N1  UNL     1       1.710  39.482  22.601  1.00  0.00    -0.306 N 
ATOM     12  H1  UNL     1       2.663  39.411  22.959  1.00  0.00     0.186 HD
BRANCH  11  13
HETATM   13  C2  UNL     1       1.153  40.658  22.526  1.00  0.00     0.076 C 
HETATM   14  C1  UNL     1      -0.228  40.850  23.039  1.00  0.00     0.056 C 
ENDBRANCH  11  13
ENDBRANCH   4  11
ENDBRANCH   2   3
ENDBRANCH   1   2
BRANCH   1  15
HETATM   15  C5  UNL     1       2.914  35.943  25.090  1.00  0.00     0.231 C 
HETATM   16  O1  UNL     1       3.214  35.695  23.904  1.00  0.00    -0.272 OA
HETATM   17  N3  UNL     1       3.075  34.954  26.112  1.00  0.00    -0.326 N 
ATOM     18  H3  UNL     1       2.829  35.162  27.080  1.00  0.00     0.169 HD
BRANCH  17  19
HETATM   19  C6  UNL     1       3.586  33.679  25.753  1.00  0.00     0.047 A 
HETATM   20  C7  UNL     1       2.744  32.657  25.315  1.00  0.00    -0.033 A 
HETATM   21  C8  UNL     1       1.295  32.972  25.247  1.00  0.00     0.050 C 
HETATM   22  C9  UNL     1       3.262  31.429  24.972  1.00  0.00     0.033 A 
HETATM   23  C10 UNL     1       4.595  31.180  25.048  1.00  0.00     0.041 A 
HETATM   24 CL1  UNL     1       5.290  29.614  24.615  1.00  0.00    -0.084 Cl
HETATM   25  C11 UNL     1       5.436  32.184  25.479  1.00  0.00    -0.032 A 
HETATM   26  C12 UNL     1       6.888  31.912  25.562  1.00  0.00     0.050 C 
HETATM   27  C13 UNL     1       4.930  33.422  25.827  1.00  0.00    -0.027 A 
HETATM   28  C14 UNL     1       5.888  34.458  26.282  1.00  0.00     0.051 C 
ENDBRANCH  17  19
ENDBRANCH   1  15
TORSDOF 6
ENDMDL
MODEL 2
REMARK VINA RESULT: -8.275106555      2.010      3.416
REMARK  6 active torsions:
REMARK  status: ('A' for Active; 'I' for Inactive)
REMARK    1  A    between atoms: C2_2  and  N1_3 
REMARK    2  A    between atoms: N1_3  and  N2_5 
REMARK    3  A    between atoms: C3_6  and  S1_7 
REMARK    4  A    between atoms: S1_7  and  C4_8 
REMARK    5  A    between atoms: C4_8  and  C5_9 
REMARK       I    between atoms: C5_9  and  N3_11 
REMARK    6  A    between atoms: N3_11  and  C6_13 
ROOT
HETATM    1  C4  UNL     1       1.424  35.844  25.241  1.00  0.00     0.184 C 
ENDROOT
BRANCH   1   2
HETATM    2  S1  UNL     1       1.923  37.522  25.532  1.00  0.00    -0.099 SA
BRANCH   2   3
HETATM    3  C3  UNL     1       2.265  38.475  24.090  1.00  0.00     0.118 A 
HETATM    4  N2  UNL     1       3.512  38.552  23.538  1.00  0.00    -0.222 N 
HETATM    5  C17 UNL     1       3.450  39.344  22.464  1.00  0.00     0.198 A 
HETATM    6  N4  UNL     1       2.203  39.793  22.288  1.00  0.00    -0.333 N 
HETATM    7  S2  UNL     1       4.678  39.762  21.449  1.00  0.00    -0.039 SA
HETATM    8  C15 UNL     1       1.455  39.253  23.300  1.00  0.00     0.043 A 
ATOM      9  H4  UNL     1       1.874  40.412  21.548  1.00  0.00     0.168 HD
HETATM   10  C16 UNL     1       0.013  39.471  23.515  1.00  0.00     0.071 C 
BRANCH   4  11
HETATM   11  N1  UNL     1       4.652  37.919  24.008  1.00  0.00    -0.306 N 
ATOM     12  H1  UNL     1       4.857  36.972  23.689  1.00  0.00     0.186 HD
BRANCH  11  13
HETATM   13  C2  UNL     1       5.470  38.493  24.844  1.00  0.00     0.076 C 
HETATM   14  C1  UNL     1       6.926  38.208  24.761  1.00  0.00     0.056 C 
ENDBRANCH  11  13
ENDBRANCH   4  11
ENDBRANCH   2   3
ENDBRANCH   1   2
BRANCH   1  15
HETATM   15  C5  UNL     1       2.636  34.996  25.047  1.00  0.00     0.231 C 
HETATM   16  O1  UNL     1       3.275  35.100  23.979  1.00  0.00    -0.272 OA
HETATM   17  N3  UNL     1       3.052  34.084  26.068  1.00  0.00    -0.326 N 
ATOM     18  H3  UNL     1       2.527  34.003  26.938  1.00  0.00     0.169 HD
BRANCH  17  19
HETATM   19  C6  UNL     1       4.211  33.294  25.845  1.00  0.00     0.047 A 
HETATM   20  C7  UNL     1       5.486  33.777  26.137  1.00  0.00    -0.033 A 
HETATM   21  C8  UNL     1       5.567  35.153  26.688  1.00  0.00     0.050 C 
HETATM   22  C9  UNL     1       6.595  32.992  25.913  1.00  0.00     0.033 A 
HETATM   23  C10 UNL     1       6.479  31.737  25.407  1.00  0.00     0.041 A 
HETATM   24 CL1  UNL     1       7.883  30.706  25.109  1.00  0.00    -0.084 Cl
HETATM   25  C11 UNL     1       5.222  31.250  25.116  1.00  0.00    -0.032 A 
HETATM   26  C12 UNL     1       5.098  29.882  24.565  1.00  0.00     0.050 C 
HETATM   27  C13 UNL     1       4.100  32.026  25.335  1.00  0.00    -0.027 A 
HETATM   28  C14 UNL     1       2.779  31.443  25.001  1.00  0.00     0.051 C 
ENDBRANCH  17  19
ENDBRANCH   1  15
TORSDOF 6
ENDMDL
MODEL 3
REMARK VINA RESULT: -8.258370207      1.441      2.386
REMARK  6 active torsions:
REMARK  status: ('A' for Active; 'I' for Inactive)
REMARK    1  A    between atoms: C2_2  and  N1_3 
REMARK    2  A    between atoms: N1_3  and  N2_5 
REMARK    3  A    between atoms: C3_6  and  S1_7 
REMARK    4  A    between atoms: S1_7  and  C4_8 
REMARK    5  A    between atoms: C4_8  and  C5_9 
REMARK       I    between atoms: C5_9  and  N3_11 
REMARK    6  A    between atoms: N3_11  and  C6_13 
ROOT
HETATM    1  C4  UNL     1       1.329  35.755  25.258  1.00  0.00     0.184 C 
ENDROOT
BRANCH   1   2
HETATM    2  S1  UNL     1       1.517  37.301  24.408  1.00  0.00    -0.099 SA
BRANCH   2   3
HETATM    3  C3  UNL     1       1.036  37.300  22.712  1.00  0.00     0.118 A 
HETATM    4  N2  UNL     1       1.553  38.176  21.801  1.00  0.00    -0.222 N 
HETATM    5  C17 UNL     1       0.995  37.928  20.613  1.00  0.00     0.198 A 
HETATM    6  N4  UNL     1       0.127  36.916  20.709  1.00  0.00    -0.333 N 
HETATM    7  S2  UNL     1       1.277  38.703  19.187  1.00  0.00    -0.039 SA
HETATM    8  C15 UNL     1       0.146  36.517  22.018  1.00  0.00     0.043 A 
ATOM      9  H4  UNL     1      -0.437  36.520  19.957  1.00  0.00     0.168 HD
HETATM   10  C16 UNL     1      -0.657  35.426  22.598  1.00  0.00     0.071 C 
BRANCH   4  11
HETATM   11  N1  UNL     1       2.496  39.159  22.060  1.00  0.00    -0.306 N 
ATOM     12  H1  UNL     1       2.192  40.038  22.479  1.00  0.00     0.186 HD
BRANCH  11  13
HETATM   13  C2  UNL     1       3.760  38.997  21.785  1.00  0.00     0.076 C 
HETATM   14  C1  UNL     1       4.689  38.534  22.847  1.00  0.00     0.056 C 
ENDBRANCH  11  13
ENDBRANCH   4  11
ENDBRANCH   2   3
ENDBRANCH   1   2
BRANCH   1  15
HETATM   15  C5  UNL     1       2.556  34.931  25.057  1.00  0.00     0.231 C 
HETATM   16  O1  UNL     1       3.194  35.054  23.991  1.00  0.00    -0.272 OA
HETATM   17  N3  UNL     1       2.988  34.018  26.071  1.00  0.00    -0.326 N 
ATOM     18  H3  UNL     1       2.463  33.920  26.941  1.00  0.00     0.169 HD
BRANCH  17  19
HETATM   19  C6  UNL     1       4.161  33.251  25.843  1.00  0.00     0.047 A 
HETATM   20  C7  UNL     1       5.427  33.757  26.131  1.00  0.00    -0.033 A 
HETATM   21  C8  UNL     1       5.484  35.134  26.685  1.00  0.00     0.050 C 
HETATM   22  C9  UNL     1       6.550  32.995  25.903  1.00  0.00     0.033 A 
HETATM   23  C10 UNL     1       6.457  31.738  25.395  1.00  0.00     0.041 A 
HETATM   24 CL1  UNL     1       7.879  30.735  25.091  1.00  0.00    -0.084 Cl
HETATM   25  C11 UNL     1       5.209  31.227  25.107  1.00  0.00    -0.032 A 
HETATM   26  C12 UNL     1       5.109  29.859  24.554  1.00  0.00     0.050 C 
HETATM   27  C13 UNL     1       4.073  31.982  25.332  1.00  0.00    -0.027 A 
HETATM   28  C14 UNL     1       2.762  31.374  25.001  1.00  0.00     0.051 C 
ENDBRANCH  17  19
ENDBRANCH   1  15
TORSDOF 6
ENDMDL
MODEL 4
REMARK VINA RESULT: -8.212361274      1.710      2.412
REMARK  6 active torsions:
REMARK  status: ('A' for Active; 'I' for Inactive)
REMARK    1  A    between atoms: C2_2  and  N1_3 
REMARK    2  A    between atoms: N1_3  and  N2_5 
REMARK    3  A    between atoms: C3_6  and  S1_7 
REMARK    4  A    between atoms: S1_7  and  C4_8 
REMARK    5  A    between atoms: C4_8  and  C5_9 
REMARK       I    between atoms: C5_9  and  N3_11 
REMARK    6  A    between atoms: N3_11  and  C6_13 
ROOT
HETATM    1  C4  UNL     1       1.688  37.075  25.299  1.00  0.00     0.184 C 
ENDROOT
BRANCH   1   2
HETATM    2  S1  UNL     1       2.529  38.420  24.504  1.00  0.00    -0.099 SA
BRANCH   2   3
HETATM    3  C3  UNL     1       1.964  38.817  22.883  1.00  0.00     0.118 A 
HETATM    4  N2  UNL     1       2.590  38.368  21.755  1.00  0.00    -0.222 N 
HETATM    5  C17 UNL     1       1.931  38.835  20.691  1.00  0.00     0.198 A 
HETATM    6  N4  UNL     1       0.891  39.580  21.079  1.00  0.00    -0.333 N 
HETATM    7  S2  UNL     1       2.279  38.583  19.101  1.00  0.00    -0.039 SA
HETATM    8  C15 UNL     1       0.904  39.574  22.447  1.00  0.00     0.043 A 
ATOM      9  H4  UNL     1       0.221  40.057  20.476  1.00  0.00     0.168 HD
HETATM   10  C16 UNL     1      -0.061  40.267  23.321  1.00  0.00     0.071 C 
BRANCH   4  11
HETATM   11  N1  UNL     1       3.717  37.561  21.715  1.00  0.00    -0.306 N 
ATOM     12  H1  UNL     1       3.599  36.549  21.682  1.00  0.00     0.186 HD
BRANCH  11  13
HETATM   13  C2  UNL     1       4.923  38.055  21.719  1.00  0.00     0.076 C 
HETATM   14  C1  UNL     1       5.846  37.750  20.595  1.00  0.00     0.056 C 
ENDBRANCH  11  13
ENDBRANCH   4  11
ENDBRANCH   2   3
ENDBRANCH   1   2
BRANCH   1  15
HETATM   15  C5  UNL     1       2.407  35.802  25.007  1.00  0.00     0.231 C 
HETATM   16  O1  UNL     1       2.849  35.613  23.854  1.00  0.00    -0.272 OA
HETATM   17  N3  UNL     1       2.586  34.820  26.032  1.00  0.00    -0.326 N 
ATOM     18  H3  UNL     1       2.224  34.978  26.973  1.00  0.00     0.169 HD
BRANCH  17  19
HETATM   19  C6  UNL     1       3.277  33.620  25.715  1.00  0.00     0.047 A 
HETATM   20  C7  UNL     1       2.600  32.491  25.258  1.00  0.00    -0.033 A 
HETATM   21  C8  UNL     1       1.126  32.609  25.121  1.00  0.00     0.050 C 
HETATM   22  C9  UNL     1       3.291  31.340  24.956  1.00  0.00     0.033 A 
HETATM   23  C10 UNL     1       4.641  31.272  25.094  1.00  0.00     0.041 A 
HETATM   24 CL1  UNL     1       5.557  29.809  24.716  1.00  0.00    -0.084 Cl
HETATM   25  C11 UNL     1       5.321  32.384  25.547  1.00  0.00    -0.032 A 
HETATM   26  C12 UNL     1       6.791  32.308  25.697  1.00  0.00     0.050 C 
HETATM   27  C13 UNL     1       4.639  33.546  25.853  1.00  0.00    -0.027 A 
HETATM   28  C14 UNL     1       5.429  34.705  26.333  1.00  0.00     0.051 C 
ENDBRANCH  17  19
ENDBRANCH   1  15
TORSDOF 6
ENDMDL
MODEL 5
REMARK VINA RESULT: -8.202897280      1.882      3.542
REMARK  6 active torsions:
REMARK  status: ('A' for Active; 'I' for Inactive)
REMARK    1  A    between atoms: C2_2  and  N1_3 
REMARK    2  A    between atoms: N1_3  and  N2_5 
REMARK    3  A    between atoms: C3_6  and  S1_7 
REMARK    4  A    between atoms: S1_7  and  C4_8 
REMARK    5  A    between atoms: C4_8  and  C5_9 
REMARK       I    between atoms: C5_9  and  N3_11 
REMARK    6  A    between atoms: N3_11  and  C6_13 
ROOT
HETATM    1  C4  UNL     1       3.453  38.179  26.117  1.00  0.00     0.184 C 
ENDROOT
BRANCH   1   2
HETATM    2  S1  UNL     1       1.719  37.968  25.806  1.00  0.00    -0.099 SA
BRANCH   2   3
HETATM    3  C3  UNL     1       1.283  37.622  24.134  1.00  0.00     0.118 A 
HETATM    4  N2  UNL     1       0.272  36.767  23.800  1.00  0.00    -0.222 N 
HETATM    5  C17 UNL     1       0.187  36.713  22.468  1.00  0.00     0.198 A 
HETATM    6  N4  UNL     1       1.109  37.505  21.910  1.00  0.00    -0.333 N 
HETATM    7  S2  UNL     1      -0.866  35.829  21.561  1.00  0.00    -0.039 SA
HETATM    8  C15 UNL     1       1.798  38.078  22.945  1.00  0.00     0.043 A 
ATOM      9  H4  UNL     1       1.267  37.654  20.914  1.00  0.00     0.168 HD
HETATM   10  C16 UNL     1       2.916  39.029  22.812  1.00  0.00     0.071 C 
BRANCH   4  11
HETATM   11  N1  UNL     1      -0.533  36.070  24.688  1.00  0.00    -0.306 N 
ATOM     12  H1  UNL     1      -1.284  36.566  25.167  1.00  0.00     0.186 HD
BRANCH  11  13
HETATM   13  C2  UNL     1      -0.361  34.801  24.931  1.00  0.00     0.076 C 
HETATM   14  C1  UNL     1      -1.387  34.056  25.706  1.00  0.00     0.056 C 
ENDBRANCH  11  13
ENDBRANCH   4  11
ENDBRANCH   2   3
ENDBRANCH   1   2
BRANCH   1  15
HETATM   15  C5  UNL     1       4.171  36.917  25.779  1.00  0.00     0.231 C 
HETATM   16  O1  UNL     1       4.614  36.770  24.621  1.00  0.00    -0.272 OA
HETATM   17  N3  UNL     1       4.347  35.897  26.767  1.00  0.00    -0.326 N 
ATOM     18  H3  UNL     1       3.983  36.021  27.713  1.00  0.00     0.169 HD
BRANCH  17  19
HETATM   19  C6  UNL     1       5.036  34.709  26.407  1.00  0.00     0.047 A 
HETATM   20  C7  UNL     1       6.413  34.586  26.584  1.00  0.00    -0.033 A 
HETATM   21  C8  UNL     1       7.117  35.758  27.165  1.00  0.00     0.050 C 
HETATM   22  C9  UNL     1       7.060  33.424  26.228  1.00  0.00     0.033 A 
HETATM   23  C10 UNL     1       6.380  32.373  25.699  1.00  0.00     0.041 A 
HETATM   24 CL1  UNL     1       7.181  30.870  25.233  1.00  0.00    -0.084 Cl
HETATM   25  C11 UNL     1       5.017  32.484  25.520  1.00  0.00    -0.032 A 
HETATM   26  C12 UNL     1       4.278  31.339  24.944  1.00  0.00     0.050 C 
HETATM   27  C13 UNL     1       4.355  33.645  25.874  1.00  0.00    -0.027 A 
HETATM   28  C14 UNL     1       2.890  33.699  25.655  1.00  0.00     0.051 C 
ENDBRANCH  17  19
ENDBRANCH   1  15
TORSDOF 6
ENDMDL
