MODEL 1
REMARK VINA RESULT: -8.402269743      0.000      0.000
REMARK  13 active torsions:
REMARK  status: ('A' for Active; 'I' for Inactive)
REMARK    1  A    between atoms: C3_3  and  N1_4 
REMARK       I    between atoms: N1_4  and  C4_6 
REMARK    2  A    between atoms: C4_6  and  C5_8 
REMARK    3  A    between atoms: C5_8  and  O3_10 
REMARK    4  A    between atoms: O3_10  and  C6_11 
REMARK    5  A    between atoms: C11_16  and  C12_17 
REMARK    6  A    between atoms: C12_17  and  C13_18 
REMARK    7  A    between atoms: C13_18  and  N2_19 
REMARK    8  A    between atoms: N2_19  and  C14_21 
REMARK    9  A    between atoms: C14_21  and  C15_22 
REMARK   10  A    between atoms: C15_22  and  C16_23 
REMARK   11  A    between atoms: C19_26  and  C20_27 
REMARK   12  A    between atoms: N3_28  and  O4_30 
REMARK   13  A    between atoms: N5_35  and  N6_37 
ROOT
HETATM    1  C1  UNL     1      -3.169  28.859  -7.009  1.00  0.00     0.014 C 
HETATM    2  C2  UNL     1      -2.511  29.294  -6.100  1.00  0.00    -0.098 C 
HETATM    3  C3  UNL     1      -1.718  29.807  -4.999  1.00  0.00     0.216 C 
ENDROOT
BRANCH   3   4
HETATM    4  N1  UNL     1      -2.135  29.112  -3.787  1.00  0.00    -0.342 N 
HETATM    5  C4  UNL     1      -1.262  28.175  -3.219  1.00  0.00     0.318 C 
HETATM    6  O1  UNL     1      -0.131  27.925  -3.735  1.00  0.00    -0.262 OA
ATOM      7  H1  UNL     1      -3.041  29.304  -3.362  1.00  0.00     0.163 HD
BRANCH   5   8
HETATM    8  C5  UNL     1      -1.594  27.437  -2.015  1.00  0.00     0.356 C 
HETATM    9  O2  UNL     1      -2.395  26.473  -2.111  1.00  0.00    -0.253 OA
BRANCH   8  10
HETATM   10  O3  UNL     1      -1.079  27.731  -0.767  1.00  0.00    -0.271 OA
BRANCH  10  11
HETATM   11  C6  UNL     1      -0.214  26.890  -0.111  1.00  0.00     0.086 A 
HETATM   12  C7  UNL     1       1.157  27.023  -0.384  1.00  0.00     0.038 A 
HETATM   13  C8  UNL     1       2.046  26.184   0.254  1.00  0.00     0.003 A 
HETATM   14  C9  UNL     1       1.609  25.215   1.159  1.00  0.00     0.001 A 
HETATM   15  C10 UNL     1       0.265  25.110   1.407  1.00  0.00     0.010 A 
HETATM   16  C11 UNL     1      -0.664  25.958   0.767  1.00  0.00    -0.023 A 
BRANCH  16  17
HETATM   17  C12 UNL     1      -2.044  25.805   1.145  1.00  0.00     0.061 C 
BRANCH  17  18
HETATM   18  C13 UNL     1      -2.682  26.755   2.073  1.00  0.00     0.126 C 
BRANCH  18  19
HETATM   19  N2  UNL     1      -3.199  27.991   1.578  1.00  0.00    -0.378 N 
ATOM     20  H2  UNL     1      -4.115  28.012   1.130  1.00  0.00     0.160 HD
BRANCH  19  21
HETATM   21  C14 UNL     1      -2.448  29.192   1.704  1.00  0.00     0.095 C 
HETATM   22  N5  UNL     1      -2.314  30.032   0.807  1.00  0.00    -0.296 N 
ATOM     23  H5  UNL     1      -1.734  30.807   1.128  1.00  0.00     0.187 HD
BRANCH  21  24
HETATM   24  C15 UNL     1      -1.760  29.459   3.028  1.00  0.00     0.117 C 
BRANCH  24  25
HETATM   25  C16 UNL     1      -0.306  29.187   2.921  1.00  0.00    -0.035 A 
HETATM   26  C17 UNL     1       0.522  29.897   2.089  1.00  0.00     0.011 A 
HETATM   27  C18 UNL     1       1.893  29.597   2.024  1.00  0.00     0.031 A 
HETATM   28  C19 UNL     1       2.464  28.597   2.777  1.00  0.00     0.051 A 
HETATM   29  N4  UNL     1       1.604  27.922   3.586  1.00  0.00    -0.359 N 
HETATM   30  C21 UNL     1       2.176  26.849   4.402  1.00  0.00     0.156 C 
HETATM   31  C22 UNL     1       0.293  28.190   3.663  1.00  0.00     0.098 A 
BRANCH  28  32
HETATM   32  C20 UNL     1       3.868  28.250   2.754  1.00  0.00     0.143 C 
HETATM   33  N3  UNL     1       4.850  28.805   3.316  1.00  0.00    -0.278 N 
ATOM     34  H3  UNL     1       5.766  28.385   3.161  1.00  0.00     0.193 HD
BRANCH  33  35
HETATM   35  O4  UNL     1       4.810  29.903   4.105  1.00  0.00    -0.290 OA
ATOM     36  H4  UNL     1       5.019  29.942   5.031  1.00  0.00     0.244 HD
ENDBRANCH  33  35
ENDBRANCH  28  32
ENDBRANCH  24  25
ENDBRANCH  21  24
BRANCH  22  37
HETATM   37  N6  UNL     1      -2.702  30.231  -0.461  1.00  0.00    -0.344 N 
ATOM     38  H62 UNL     1      -2.940  29.331  -0.880  1.00  0.00     0.176 HD
ATOM     39  H61 UNL     1      -2.826  31.002  -1.117  1.00  0.00     0.176 HD
ENDBRANCH  22  37
ENDBRANCH  19  21
ENDBRANCH  18  19
ENDBRANCH  17  18
ENDBRANCH  16  17
ENDBRANCH  10  11
ENDBRANCH   8  10
ENDBRANCH   5   8
ENDBRANCH   3   4
TORSDOF 13
ENDMDL
MODEL 2
REMARK VINA RESULT: -8.325336433      2.054      2.517
REMARK  13 active torsions:
REMARK  status: ('A' for Active; 'I' for Inactive)
REMARK    1  A    between atoms: C3_3  and  N1_4 
REMARK       I    between atoms: N1_4  and  C4_6 
REMARK    2  A    between atoms: C4_6  and  C5_8 
REMARK    3  A    between atoms: C5_8  and  O3_10 
REMARK    4  A    between atoms: O3_10  and  C6_11 
REMARK    5  A    between atoms: C11_16  and  C12_17 
REMARK    6  A    between atoms: C12_17  and  C13_18 
REMARK    7  A    between atoms: C13_18  and  N2_19 
REMARK    8  A    between atoms: N2_19  and  C14_21 
REMARK    9  A    between atoms: C14_21  and  C15_22 
REMARK   10  A    between atoms: C15_22  and  C16_23 
REMARK   11  A    between atoms: C19_26  and  C20_27 
REMARK   12  A    between atoms: N3_28  and  O4_30 
REMARK   13  A    between atoms: N5_35  and  N6_37 
ROOT
HETATM    1  C1  UNL     1      -4.299  26.094  -5.645  1.00  0.00     0.014 C 
HETATM    2  C2  UNL     1      -3.870  27.083  -5.108  1.00  0.00    -0.098 C 
HETATM    3  C3  UNL     1      -3.341  28.271  -4.465  1.00  0.00     0.216 C 
ENDROOT
BRANCH   3   4
HETATM    4  N1  UNL     1      -2.025  27.942  -3.932  1.00  0.00    -0.342 N 
HETATM    5  C4  UNL     1      -1.807  28.079  -2.555  1.00  0.00     0.318 C 
HETATM    6  O1  UNL     1      -2.724  28.479  -1.775  1.00  0.00    -0.262 OA
ATOM      7  H1  UNL     1      -1.280  27.619  -4.547  1.00  0.00     0.163 HD
BRANCH   5   8
HETATM    8  C5  UNL     1      -0.530  27.775  -1.938  1.00  0.00     0.356 C 
HETATM    9  O2  UNL     1       0.448  27.528  -2.688  1.00  0.00    -0.253 OA
BRANCH   8  10
HETATM   10  O3  UNL     1      -0.326  27.741  -0.572  1.00  0.00    -0.271 OA
BRANCH  10  11
HETATM   11  C6  UNL     1       0.480  26.805   0.029  1.00  0.00     0.086 A 
HETATM   12  C7  UNL     1       1.788  27.191   0.366  1.00  0.00     0.038 A 
HETATM   13  C8  UNL     1       2.621  26.269   0.960  1.00  0.00     0.003 A 
HETATM   14  C9  UNL     1       2.189  24.969   1.232  1.00  0.00     0.001 A 
HETATM   15  C10 UNL     1       0.907  24.621   0.893  1.00  0.00     0.010 A 
HETATM   16  C11 UNL     1       0.036  25.549   0.284  1.00  0.00    -0.023 A 
BRANCH  16  17
HETATM   17  C12 UNL     1      -1.307  25.099   0.027  1.00  0.00     0.061 C 
BRANCH  17  18
HETATM   18  C13 UNL     1      -2.430  25.563   0.860  1.00  0.00     0.126 C 
BRANCH  18  19
HETATM   19  N2  UNL     1      -2.889  26.910   0.744  1.00  0.00    -0.378 N 
ATOM     20  H2  UNL     1      -3.397  27.201  -0.091  1.00  0.00     0.160 HD
BRANCH  19  21
HETATM   21  C14 UNL     1      -2.646  27.850   1.783  1.00  0.00     0.095 C 
HETATM   22  N5  UNL     1      -2.397  29.047   1.601  1.00  0.00    -0.296 N 
ATOM     23  H5  UNL     1      -2.258  29.522   2.493  1.00  0.00     0.187 HD
BRANCH  21  24
HETATM   24  C15 UNL     1      -2.688  27.349   3.213  1.00  0.00     0.117 C 
BRANCH  24  25
HETATM   25  C16 UNL     1      -1.467  27.767   3.945  1.00  0.00    -0.035 A 
HETATM   26  C17 UNL     1      -0.221  27.272   3.652  1.00  0.00     0.011 A 
HETATM   27  C18 UNL     1       0.903  27.701   4.378  1.00  0.00     0.031 A 
HETATM   28  C19 UNL     1       0.813  28.621   5.397  1.00  0.00     0.051 A 
HETATM   29  N4  UNL     1      -0.442  29.082   5.650  1.00  0.00    -0.359 N 
HETATM   30  C21 UNL     1      -0.575  30.062   6.729  1.00  0.00     0.156 C 
HETATM   31  C22 UNL     1      -1.527  28.687   4.971  1.00  0.00     0.098 A 
BRANCH  28  32
HETATM   32  C20 UNL     1       1.936  29.101   6.173  1.00  0.00     0.143 C 
HETATM   33  N3  UNL     1       2.594  28.532   7.085  1.00  0.00    -0.278 N 
ATOM     34  H3  UNL     1       3.357  29.065   7.501  1.00  0.00     0.193 HD
BRANCH  33  35
HETATM   35  O4  UNL     1       2.390  27.285   7.567  1.00  0.00    -0.290 OA
ATOM     36  H4  UNL     1       2.669  26.952   8.412  1.00  0.00     0.244 HD
ENDBRANCH  33  35
ENDBRANCH  28  32
ENDBRANCH  24  25
ENDBRANCH  21  24
BRANCH  22  37
HETATM   37  N6  UNL     1      -2.256  29.910   0.584  1.00  0.00    -0.344 N 
ATOM     38  H62 UNL     1      -1.341  29.768   0.155  1.00  0.00     0.176 HD
ATOM     39  H61 UNL     1      -2.783  30.651   0.122  1.00  0.00     0.176 HD
ENDBRANCH  22  37
ENDBRANCH  19  21
ENDBRANCH  18  19
ENDBRANCH  17  18
ENDBRANCH  16  17
ENDBRANCH  10  11
ENDBRANCH   8  10
ENDBRANCH   5   8
ENDBRANCH   3   4
TORSDOF 13
ENDMDL
MODEL 3
REMARK VINA RESULT: -8.292450174      2.343      4.137
REMARK  13 active torsions:
REMARK  status: ('A' for Active; 'I' for Inactive)
REMARK    1  A    between atoms: C3_3  and  N1_4 
REMARK       I    between atoms: N1_4  and  C4_6 
REMARK    2  A    between atoms: C4_6  and  C5_8 
REMARK    3  A    between atoms: C5_8  and  O3_10 
REMARK    4  A    between atoms: O3_10  and  C6_11 
REMARK    5  A    between atoms: C11_16  and  C12_17 
REMARK    6  A    between atoms: C12_17  and  C13_18 
REMARK    7  A    between atoms: C13_18  and  N2_19 
REMARK    8  A    between atoms: N2_19  and  C14_21 
REMARK    9  A    between atoms: C14_21  and  C15_22 
REMARK   10  A    between atoms: C15_22  and  C16_23 
REMARK   11  A    between atoms: C19_26  and  C20_27 
REMARK   12  A    between atoms: N3_28  and  O4_30 
REMARK   13  A    between atoms: N5_35  and  N6_37 
ROOT
HETATM    1  C1  UNL     1      -3.927  26.489  -5.289  1.00  0.00     0.014 C 
HETATM    2  C2  UNL     1      -3.282  27.489  -5.110  1.00  0.00    -0.098 C 
HETATM    3  C3  UNL     1      -2.500  28.690  -4.886  1.00  0.00     0.216 C 
ENDROOT
BRANCH   3   4
HETATM    4  N1  UNL     1      -2.337  28.853  -3.446  1.00  0.00    -0.342 N 
HETATM    5  C4  UNL     1      -1.124  28.468  -2.861  1.00  0.00     0.318 C 
HETATM    6  O1  UNL     1      -0.178  27.986  -3.554  1.00  0.00    -0.262 OA
ATOM      7  H1  UNL     1      -3.089  29.240  -2.878  1.00  0.00     0.163 HD
BRANCH   5   8
HETATM    8  C5  UNL     1      -0.875  28.595  -1.438  1.00  0.00     0.356 C 
HETATM    9  O2  UNL     1      -1.751  29.151  -0.729  1.00  0.00    -0.253 OA
BRANCH   8  10
HETATM   10  O3  UNL     1       0.271  28.138  -0.815  1.00  0.00    -0.271 OA
BRANCH  10  11
HETATM   11  C6  UNL     1       0.364  26.877  -0.277  1.00  0.00     0.086 A 
HETATM   12  C7  UNL     1      -0.753  26.033  -0.399  1.00  0.00     0.038 A 
HETATM   13  C8  UNL     1      -0.690  24.766   0.140  1.00  0.00     0.003 A 
HETATM   14  C9  UNL     1       0.456  24.313   0.798  1.00  0.00     0.001 A 
HETATM   15  C10 UNL     1       1.530  25.158   0.900  1.00  0.00     0.010 A 
HETATM   16  C11 UNL     1       1.489  26.459   0.355  1.00  0.00    -0.023 A 
BRANCH  16  17
HETATM   17  C12 UNL     1       2.692  27.242   0.463  1.00  0.00     0.061 C 
BRANCH  17  18
HETATM   18  C13 UNL     1       3.436  27.308   1.733  1.00  0.00     0.126 C 
BRANCH  18  19
HETATM   19  N2  UNL     1       2.974  28.160   2.782  1.00  0.00    -0.378 N 
ATOM     20  H2  UNL     1       2.890  27.793   3.731  1.00  0.00     0.160 HD
BRANCH  19  21
HETATM   21  C14 UNL     1       2.630  29.513   2.518  1.00  0.00     0.095 C 
HETATM   22  N5  UNL     1       3.412  30.466   2.609  1.00  0.00    -0.296 N 
ATOM     23  H5  UNL     1       2.941  31.339   2.372  1.00  0.00     0.187 HD
BRANCH  21  24
HETATM   24  C15 UNL     1       1.203  29.811   2.100  1.00  0.00     0.117 C 
BRANCH  24  25
HETATM   25  C16 UNL     1       0.246  29.207   3.059  1.00  0.00    -0.035 A 
HETATM   26  C17 UNL     1      -0.733  28.325   2.674  1.00  0.00     0.011 A 
HETATM   27  C18 UNL     1      -1.616  27.782   3.623  1.00  0.00     0.031 A 
HETATM   28  C19 UNL     1      -1.544  28.101   4.960  1.00  0.00     0.051 A 
HETATM   29  N4  UNL     1      -0.558  28.977   5.293  1.00  0.00    -0.359 N 
HETATM   30  C21 UNL     1      -0.454  29.339   6.708  1.00  0.00     0.156 C 
HETATM   31  C22 UNL     1       0.294  29.507   4.404  1.00  0.00     0.098 A 
BRANCH  28  32
HETATM   32  C20 UNL     1      -2.422  27.569   5.979  1.00  0.00     0.143 C 
HETATM   33  N3  UNL     1      -2.290  26.551   6.712  1.00  0.00    -0.278 N 
ATOM     34  H3  UNL     1      -3.044  26.361   7.372  1.00  0.00     0.193 HD
BRANCH  33  35
HETATM   35  O4  UNL     1      -1.250  25.687   6.710  1.00  0.00    -0.290 OA
ATOM     36  H4  UNL     1      -0.509  25.691   7.305  1.00  0.00     0.244 HD
ENDBRANCH  33  35
ENDBRANCH  28  32
ENDBRANCH  24  25
ENDBRANCH  21  24
BRANCH  22  37
HETATM   37  N6  UNL     1       4.695  30.698   2.926  1.00  0.00    -0.344 N 
ATOM     38  H62 UNL     1       5.294  30.205   2.263  1.00  0.00     0.176 HD
ATOM     39  H61 UNL     1       5.236  31.211   3.621  1.00  0.00     0.176 HD
ENDBRANCH  22  37
ENDBRANCH  19  21
ENDBRANCH  18  19
ENDBRANCH  17  18
ENDBRANCH  16  17
ENDBRANCH  10  11
ENDBRANCH   8  10
ENDBRANCH   5   8
ENDBRANCH   3   4
TORSDOF 13
ENDMDL
MODEL 4
REMARK VINA RESULT: -8.163894629      2.688      5.236
REMARK  13 active torsions:
REMARK  status: ('A' for Active; 'I' for Inactive)
REMARK    1  A    between atoms: C3_3  and  N1_4 
REMARK       I    between atoms: N1_4  and  C4_6 
REMARK    2  A    between atoms: C4_6  and  C5_8 
REMARK    3  A    between atoms: C5_8  and  O3_10 
REMARK    4  A    between atoms: O3_10  and  C6_11 
REMARK    5  A    between atoms: C11_16  and  C12_17 
REMARK    6  A    between atoms: C12_17  and  C13_18 
REMARK    7  A    between atoms: C13_18  and  N2_19 
REMARK    8  A    between atoms: N2_19  and  C14_21 
REMARK    9  A    between atoms: C14_21  and  C15_22 
REMARK   10  A    between atoms: C15_22  and  C16_23 
REMARK   11  A    between atoms: C19_26  and  C20_27 
REMARK   12  A    between atoms: N3_28  and  O4_30 
REMARK   13  A    between atoms: N5_35  and  N6_37 
ROOT
HETATM    1  C1  UNL     1      -2.609  29.706  -7.531  1.00  0.00     0.014 C 
HETATM    2  C2  UNL     1      -2.005  29.823  -6.496  1.00  0.00    -0.098 C 
HETATM    3  C3  UNL     1      -1.279  29.952  -5.247  1.00  0.00     0.216 C 
ENDROOT
BRANCH   3   4
HETATM    4  N1  UNL     1      -2.038  29.254  -4.216  1.00  0.00    -0.342 N 
HETATM    5  C4  UNL     1      -1.384  28.290  -3.440  1.00  0.00     0.318 C 
HETATM    6  O1  UNL     1      -0.158  28.018  -3.616  1.00  0.00    -0.262 OA
ATOM      7  H1  UNL     1      -3.024  29.464  -4.064  1.00  0.00     0.163 HD
BRANCH   5   8
HETATM    8  C5  UNL     1      -2.060  27.547  -2.394  1.00  0.00     0.356 C 
HETATM    9  O2  UNL     1      -2.977  26.754  -2.726  1.00  0.00    -0.253 OA
BRANCH   8  10
HETATM   10  O3  UNL     1      -1.754  27.660  -1.051  1.00  0.00    -0.271 OA
BRANCH  10  11
HETATM   11  C6  UNL     1      -0.871  26.814  -0.424  1.00  0.00     0.086 A 
HETATM   12  C7  UNL     1      -1.153  25.438  -0.457  1.00  0.00     0.038 A 
HETATM   13  C8  UNL     1      -0.289  24.568   0.173  1.00  0.00     0.003 A 
HETATM   14  C9  UNL     1       0.850  25.028   0.836  1.00  0.00     0.001 A 
HETATM   15  C10 UNL     1       1.099  26.376   0.851  1.00  0.00     0.010 A 
HETATM   16  C11 UNL     1       0.230  27.286   0.212  1.00  0.00    -0.023 A 
BRANCH  16  17
HETATM   17  C12 UNL     1       0.618  28.672   0.234  1.00  0.00     0.061 C 
BRANCH  17  18
HETATM   18  C13 UNL     1       0.756  29.395   1.511  1.00  0.00     0.126 C 
BRANCH  18  19
HETATM   19  N2  UNL     1      -0.408  29.884   2.178  1.00  0.00    -0.378 N 
ATOM     20  H2  UNL     1      -0.838  30.757   1.871  1.00  0.00     0.160 HD
BRANCH  19  21
HETATM   21  C14 UNL     1      -0.975  29.164   3.265  1.00  0.00     0.095 C 
HETATM   22  N5  UNL     1      -0.624  29.286   4.445  1.00  0.00    -0.296 N 
ATOM     23  H5  UNL     1      -1.171  28.668   5.045  1.00  0.00     0.187 HD
BRANCH  21  24
HETATM   24  C15 UNL     1      -2.081  28.174   2.957  1.00  0.00     0.117 C 
BRANCH  24  25
HETATM   25  C16 UNL     1      -3.381  28.876   2.821  1.00  0.00    -0.035 A 
HETATM   26  C17 UNL     1      -3.884  29.277   1.609  1.00  0.00     0.011 A 
HETATM   27  C18 UNL     1      -5.121  29.940   1.536  1.00  0.00     0.031 A 
HETATM   28  C19 UNL     1      -5.876  30.213   2.653  1.00  0.00     0.051 A 
HETATM   29  N4  UNL     1      -5.336  29.795   3.831  1.00  0.00    -0.359 N 
HETATM   30  C21 UNL     1      -6.113  30.070   5.041  1.00  0.00     0.156 C 
HETATM   31  C22 UNL     1      -4.159  29.162   3.923  1.00  0.00     0.098 A 
BRANCH  28  32
HETATM   32  C20 UNL     1      -7.156  30.886   2.636  1.00  0.00     0.143 C 
HETATM   33  N3  UNL     1      -7.452  32.055   2.271  1.00  0.00    -0.278 N 
ATOM     34  H3  UNL     1      -8.433  32.325   2.346  1.00  0.00     0.193 HD
BRANCH  33  35
HETATM   35  O4  UNL     1      -6.600  32.989   1.791  1.00  0.00    -0.290 OA
ATOM     36  H4  UNL     1      -6.473  33.223   0.878  1.00  0.00     0.244 HD
ENDBRANCH  33  35
ENDBRANCH  28  32
ENDBRANCH  24  25
ENDBRANCH  21  24
BRANCH  22  37
HETATM   37  N6  UNL     1       0.258  29.985   5.173  1.00  0.00    -0.344 N 
ATOM     38  H62 UNL     1       0.885  29.335   5.647  1.00  0.00     0.176 HD
ATOM     39  H61 UNL     1       0.481  30.957   5.389  1.00  0.00     0.176 HD
ENDBRANCH  22  37
ENDBRANCH  19  21
ENDBRANCH  18  19
ENDBRANCH  17  18
ENDBRANCH  16  17
ENDBRANCH  10  11
ENDBRANCH   8  10
ENDBRANCH   5   8
ENDBRANCH   3   4
TORSDOF 13
ENDMDL
MODEL 5
REMARK VINA RESULT: -8.158591619      2.914      5.507
REMARK  13 active torsions:
REMARK  status: ('A' for Active; 'I' for Inactive)
REMARK    1  A    between atoms: C3_3  and  N1_4 
REMARK       I    between atoms: N1_4  and  C4_6 
REMARK    2  A    between atoms: C4_6  and  C5_8 
REMARK    3  A    between atoms: C5_8  and  O3_10 
REMARK    4  A    between atoms: O3_10  and  C6_11 
REMARK    5  A    between atoms: C11_16  and  C12_17 
REMARK    6  A    between atoms: C12_17  and  C13_18 
REMARK    7  A    between atoms: C13_18  and  N2_19 
REMARK    8  A    between atoms: N2_19  and  C14_21 
REMARK    9  A    between atoms: C14_21  and  C15_22 
REMARK   10  A    between atoms: C15_22  and  C16_23 
REMARK   11  A    between atoms: C19_26  and  C20_27 
REMARK   12  A    between atoms: N3_28  and  O4_30 
REMARK   13  A    between atoms: N5_35  and  N6_37 
ROOT
HETATM    1  C1  UNL     1      -4.878  31.701   2.834  1.00  0.00     0.014 C 
HETATM    2  C2  UNL     1      -3.975  30.916   2.961  1.00  0.00    -0.098 C 
HETATM    3  C3  UNL     1      -2.880  29.976   3.106  1.00  0.00     0.216 C 
ENDROOT
BRANCH   3   4
HETATM    4  N1  UNL     1      -2.202  29.878   1.820  1.00  0.00    -0.342 N 
HETATM    5  C4  UNL     1      -2.507  28.798   0.982  1.00  0.00     0.318 C 
HETATM    6  O1  UNL     1      -3.353  27.916   1.319  1.00  0.00    -0.262 OA
ATOM      7  H1  UNL     1      -1.520  30.581   1.536  1.00  0.00     0.163 HD
BRANCH   5   8
HETATM    8  C5  UNL     1      -1.881  28.622  -0.315  1.00  0.00     0.356 C 
HETATM    9  O2  UNL     1      -2.565  28.860  -1.342  1.00  0.00    -0.253 OA
BRANCH   8  10
HETATM   10  O3  UNL     1      -0.574  28.207  -0.487  1.00  0.00    -0.271 OA
BRANCH  10  11
HETATM   11  C6  UNL     1      -0.130  26.978  -0.063  1.00  0.00     0.086 A 
HETATM   12  C7  UNL     1      -0.894  25.853  -0.415  1.00  0.00     0.038 A 
HETATM   13  C8  UNL     1      -0.476  24.609   0.006  1.00  0.00     0.003 A 
HETATM   14  C9  UNL     1       0.684  24.451   0.767  1.00  0.00     0.001 A 
HETATM   15  C10 UNL     1       1.410  25.567   1.093  1.00  0.00     0.010 A 
HETATM   16  C11 UNL     1       1.002  26.851   0.673  1.00  0.00    -0.023 A 
BRANCH  16  17
HETATM   17  C12 UNL     1       1.870  27.947   1.017  1.00  0.00     0.061 C 
BRANCH  17  18
HETATM   18  C13 UNL     1       3.203  27.701   1.595  1.00  0.00     0.126 C 
BRANCH  18  19
HETATM   19  N2  UNL     1       3.966  28.794   2.106  1.00  0.00    -0.378 N 
ATOM     20  H2  UNL     1       4.207  29.573   1.492  1.00  0.00     0.160 HD
BRANCH  19  21
HETATM   21  C14 UNL     1       4.394  28.808   3.462  1.00  0.00     0.095 C 
HETATM   22  N5  UNL     1       5.169  29.643   3.944  1.00  0.00    -0.296 N 
ATOM     23  H5  UNL     1       5.330  29.450   4.932  1.00  0.00     0.187 HD
BRANCH  21  24
HETATM   24  C15 UNL     1       3.868  27.722   4.379  1.00  0.00     0.117 C 
BRANCH  24  25
HETATM   25  C16 UNL     1       2.641  28.180   5.074  1.00  0.00    -0.035 A 
HETATM   26  C17 UNL     1       2.653  29.159   6.035  1.00  0.00     0.011 A 
HETATM   27  C18 UNL     1       1.461  29.555   6.664  1.00  0.00     0.031 A 
HETATM   28  C19 UNL     1       0.244  28.993   6.354  1.00  0.00     0.051 A 
HETATM   29  N4  UNL     1       0.282  28.028   5.396  1.00  0.00    -0.359 N 
HETATM   30  C21 UNL     1      -0.995  27.406   5.041  1.00  0.00     0.156 C 
HETATM   31  C22 UNL     1       1.407  27.634   4.783  1.00  0.00     0.098 A 
BRANCH  28  32
HETATM   32  C20 UNL     1      -1.013  29.365   6.964  1.00  0.00     0.143 C 
HETATM   33  N3  UNL     1      -1.635  30.461   6.937  1.00  0.00    -0.278 N 
ATOM     34  H3  UNL     1      -2.517  30.501   7.446  1.00  0.00     0.193 HD
BRANCH  33  35
HETATM   35  O4  UNL     1      -1.248  31.590   6.300  1.00  0.00    -0.290 OA
ATOM     36  H4  UNL     1      -1.077  31.685   5.370  1.00  0.00     0.244 HD
ENDBRANCH  33  35
ENDBRANCH  28  32
ENDBRANCH  24  25
ENDBRANCH  21  24
BRANCH  22  37
HETATM   37  N6  UNL     1       5.862  30.724   3.558  1.00  0.00    -0.344 N 
ATOM     38  H62 UNL     1       6.568  30.440   2.879  1.00  0.00     0.176 HD
ATOM     39  H61 UNL     1       5.889  31.727   3.740  1.00  0.00     0.176 HD
ENDBRANCH  22  37
ENDBRANCH  19  21
ENDBRANCH  18  19
ENDBRANCH  17  18
ENDBRANCH  16  17
ENDBRANCH  10  11
ENDBRANCH   8  10
ENDBRANCH   5   8
ENDBRANCH   3   4
TORSDOF 13
ENDMDL
