MODEL 1
REMARK VINA RESULT: -7.673578387      0.000      0.000
REMARK  13 active torsions:
REMARK  status: ('A' for Active; 'I' for Inactive)
REMARK    1  A    between atoms: C9_10  and  S1_11 
REMARK    2  A    between atoms: S1_11  and  C10_12 
REMARK    3  A    between atoms: C10_12  and  C11_13 
REMARK    4  A    between atoms: C10_12  and  N3_19 
REMARK    5  A    between atoms: C11_13  and  C12_14 
REMARK    6  A    between atoms: C12_14  and  N2_15 
REMARK    7  A    between atoms: N3_19  and  C13_21 
REMARK    8  A    between atoms: C13_21  and  C14_22 
REMARK    9  A    between atoms: C16_24  and  C17_25 
REMARK   10  A    between atoms: C20_32  and  N5_33 
REMARK   11  A    between atoms: N5_33  and  C21_35 
REMARK   12  A    between atoms: C21_35  and  C22_36 
REMARK   13  A    between atoms: C22_36  and  N6_37 
ROOT
HETATM    1  C1  UNL     1      -5.752  31.827   2.486  1.00  0.00     0.019 C 
HETATM    2  C2  UNL     1      -4.727  31.211   2.675  1.00  0.00    -0.059 C 
HETATM    3  C3  UNL     1      -3.526  30.455   2.895  1.00  0.00     0.088 A 
HETATM    4  C4  UNL     1      -2.757  30.174   1.777  1.00  0.00     0.055 A 
HETATM    5  C5  UNL     1      -1.600  29.459   1.917  1.00  0.00     0.023 A 
HETATM    6  C6  UNL     1      -1.235  29.030   3.199  1.00  0.00     0.008 A 
HETATM    7  C7  UNL     1      -2.029  29.332   4.286  1.00  0.00     0.104 A 
HETATM    8  N1  UNL     1      -3.157  30.037   4.118  1.00  0.00    -0.353 N 
HETATM    9  C8  UNL     1      -4.003  30.362   5.271  1.00  0.00     0.156 C 
HETATM   10  C9  UNL     1      -0.216  28.282   3.581  1.00  0.00     0.017 C 
HETATM   11  C16 UNL     1       0.877  27.619   2.846  1.00  0.00     0.188 C 
HETATM   12  C19 UNL     1       1.174  28.222   1.512  1.00  0.00     0.239 C 
HETATM   13  O2  UNL     1       2.384  28.402   1.179  1.00  0.00    -0.272 OA
HETATM   14  N4  UNL     1       0.248  28.645   0.504  1.00  0.00    -0.312 N 
ATOM     15  H4  UNL     1       0.489  28.444  -0.466  1.00  0.00     0.170 HD
HETATM   16  C20 UNL     1      -0.985  29.327   0.746  1.00  0.00     0.115 C 
ENDROOT
BRANCH  16  17
HETATM   17  N5  UNL     1      -1.605  29.927  -0.403  1.00  0.00    -0.374 N 
ATOM     18  H5  UNL     1      -1.566  30.938  -0.535  1.00  0.00     0.161 HD
BRANCH  17  19
HETATM   19  C21 UNL     1      -2.281  29.096  -1.370  1.00  0.00     0.148 C 
BRANCH  19  20
HETATM   20  C22 UNL     1      -1.445  28.686  -2.538  1.00  0.00     0.249 C 
BRANCH  20  21
HETATM   21  N6  UNL     1      -1.959  29.380  -3.724  1.00  0.00    -0.078 N 
ATOM     22  H63 UNL     1      -1.222  29.638  -4.381  1.00  0.00     0.274 HD
ATOM     23  H62 UNL     1      -2.485  28.765  -4.345  1.00  0.00     0.274 HD
ATOM     24  H61 UNL     1      -2.504  30.181  -3.406  1.00  0.00     0.274 HD
ENDBRANCH  20  21
ENDBRANCH  19  20
ENDBRANCH  17  19
ENDBRANCH  16  17
BRANCH  10  25
HETATM   25  S1  UNL     1      -0.123  27.974   5.370  1.00  0.00    -0.079 SA
BRANCH  25  26
HETATM   26  C10 UNL     1       1.070  28.398   6.346  1.00  0.00     0.049 C 
BRANCH  26  27
HETATM   27  C11 UNL     1       1.141  29.835   6.772  1.00  0.00     0.091 C 
BRANCH  27  28
HETATM   28  C12 UNL     1       2.360  30.541   6.272  1.00  0.00     0.236 C 
BRANCH  28  29
HETATM   29  N2  UNL     1       2.122  30.939   4.876  1.00  0.00    -0.079 N 
ATOM     30  H23 UNL     1       2.927  31.406   4.459  1.00  0.00     0.274 HD
ATOM     31  H22 UNL     1       2.080  30.141   4.242  1.00  0.00     0.274 HD
ATOM     32  H21 UNL     1       1.277  31.510   4.846  1.00  0.00     0.274 HD
ENDBRANCH  28  29
ENDBRANCH  27  28
ENDBRANCH  26  27
BRANCH  26  33
HETATM   33  N3  UNL     1       2.066  27.525   6.847  1.00  0.00    -0.384 N 
ATOM     34  H3  UNL     1       2.300  27.595   7.838  1.00  0.00     0.160 HD
BRANCH  33  35
HETATM   35  C13 UNL     1       2.772  26.548   6.066  1.00  0.00     0.146 C 
BRANCH  35  36
HETATM   36  C14 UNL     1       4.033  27.110   5.503  1.00  0.00    -0.018 C 
HETATM   37  C15 UNL     1       4.073  27.773   4.362  1.00  0.00     0.008 C 
ENDBRANCH  35  36
ENDBRANCH  33  35
ENDBRANCH  26  33
ENDBRANCH  25  26
ENDBRANCH  10  25
BRANCH  11  38
HETATM   38  C17 UNL     1       0.622  26.136   2.649  1.00  0.00     0.141 C 
HETATM   39  C18 UNL     1       1.756  25.208   2.861  1.00  0.00     0.092 C 
HETATM   40  O1  UNL     1      -0.462  25.692   2.327  1.00  0.00    -0.297 OA
ENDBRANCH  11  38
TORSDOF 13
ENDMDL
MODEL 2
REMARK VINA RESULT: -7.552910330      3.331      7.715
REMARK  13 active torsions:
REMARK  status: ('A' for Active; 'I' for Inactive)
REMARK    1  A    between atoms: C9_10  and  S1_11 
REMARK    2  A    between atoms: S1_11  and  C10_12 
REMARK    3  A    between atoms: C10_12  and  C11_13 
REMARK    4  A    between atoms: C10_12  and  N3_19 
REMARK    5  A    between atoms: C11_13  and  C12_14 
REMARK    6  A    between atoms: C12_14  and  N2_15 
REMARK    7  A    between atoms: N3_19  and  C13_21 
REMARK    8  A    between atoms: C13_21  and  C14_22 
REMARK    9  A    between atoms: C16_24  and  C17_25 
REMARK   10  A    between atoms: C20_32  and  N5_33 
REMARK   11  A    between atoms: N5_33  and  C21_35 
REMARK   12  A    between atoms: C21_35  and  C22_36 
REMARK   13  A    between atoms: C22_36  and  N6_37 
ROOT
HETATM    1  C1  UNL     1       1.979  25.170   2.826  1.00  0.00     0.019 C 
HETATM    2  C2  UNL     1       1.137  26.006   3.075  1.00  0.00    -0.059 C 
HETATM    3  C3  UNL     1       0.125  26.975   3.382  1.00  0.00     0.088 A 
HETATM    4  C4  UNL     1       0.265  27.659   4.580  1.00  0.00     0.055 A 
HETATM    5  C5  UNL     1      -0.664  28.597   4.934  1.00  0.00     0.023 A 
HETATM    6  C6  UNL     1      -1.737  28.830   4.064  1.00  0.00     0.008 A 
HETATM    7  C7  UNL     1      -1.839  28.128   2.881  1.00  0.00     0.104 A 
HETATM    8  N1  UNL     1      -0.911  27.216   2.560  1.00  0.00    -0.353 N 
HETATM    9  C8  UNL     1      -1.015  26.467   1.303  1.00  0.00     0.156 C 
HETATM   10  C9  UNL     1      -2.782  29.625   4.207  1.00  0.00     0.017 C 
HETATM   11  C16 UNL     1      -3.224  30.523   5.289  1.00  0.00     0.188 C 
HETATM   12  C19 UNL     1      -2.128  30.974   6.198  1.00  0.00     0.239 C 
HETATM   13  O2  UNL     1      -2.084  32.194   6.542  1.00  0.00    -0.272 OA
HETATM   14  N4  UNL     1      -1.069  30.194   6.766  1.00  0.00    -0.312 N 
ATOM     15  H4  UNL     1      -0.816  30.386   7.735  1.00  0.00     0.170 HD
HETATM   16  C20 UNL     1      -0.338  29.170   6.087  1.00  0.00     0.115 C 
ENDROOT
BRANCH  16  17
HETATM   17  N5  UNL     1       0.870  28.733   6.730  1.00  0.00    -0.374 N 
ATOM     18  H5  UNL     1       1.005  27.744   6.945  1.00  0.00     0.161 HD
BRANCH  17  19
HETATM   19  C21 UNL     1       1.891  29.694   7.070  1.00  0.00     0.148 C 
BRANCH  19  20
HETATM   20  C22 UNL     1       2.642  30.249   5.904  1.00  0.00     0.249 C 
BRANCH  20  21
HETATM   21  N6  UNL     1       3.513  29.188   5.384  1.00  0.00    -0.078 N 
ATOM     22  H63 UNL     1       4.354  29.056   5.946  1.00  0.00     0.274 HD
ATOM     23  H62 UNL     1       3.118  28.256   5.507  1.00  0.00     0.274 HD
ATOM     24  H61 UNL     1       3.720  29.404   4.408  1.00  0.00     0.274 HD
ENDBRANCH  20  21
ENDBRANCH  19  20
ENDBRANCH  17  19
ENDBRANCH  16  17
BRANCH  10  25
HETATM   25  S1  UNL     1      -3.942  29.620   2.807  1.00  0.00    -0.079 SA
BRANCH  25  26
HETATM   26  C10 UNL     1      -5.518  29.360   2.880  1.00  0.00     0.049 C 
BRANCH  26  27
HETATM   27  C11 UNL     1      -6.424  30.431   2.348  1.00  0.00     0.091 C 
BRANCH  27  28
HETATM   28  C12 UNL     1      -6.327  31.718   3.102  1.00  0.00     0.236 C 
BRANCH  28  29
HETATM   29  N2  UNL     1      -7.088  31.578   4.353  1.00  0.00    -0.079 N 
ATOM     30  H23 UNL     1      -7.449  32.468   4.695  1.00  0.00     0.274 HD
ATOM     31  H22 UNL     1      -7.984  31.109   4.217  1.00  0.00     0.274 HD
ATOM     32  H21 UNL     1      -6.497  31.105   5.037  1.00  0.00     0.274 HD
ENDBRANCH  28  29
ENDBRANCH  27  28
ENDBRANCH  26  27
BRANCH  26  33
HETATM   33  N3  UNL     1      -6.132  28.197   3.405  1.00  0.00    -0.384 N 
ATOM     34  H3  UNL     1      -5.543  27.550   3.931  1.00  0.00     0.160 HD
BRANCH  33  35
HETATM   35  C13 UNL     1      -7.520  27.859   3.254  1.00  0.00     0.146 C 
BRANCH  35  36
HETATM   36  C14 UNL     1      -8.278  28.098   4.514  1.00  0.00    -0.018 C 
HETATM   37  C15 UNL     1      -7.716  28.046   5.707  1.00  0.00     0.008 C 
ENDBRANCH  35  36
ENDBRANCH  33  35
ENDBRANCH  26  33
ENDBRANCH  25  26
ENDBRANCH  10  25
BRANCH  11  38
HETATM   38  C17 UNL     1      -4.318  29.904   6.140  1.00  0.00     0.141 C 
HETATM   39  C18 UNL     1      -4.172  28.480   6.519  1.00  0.00     0.092 C 
HETATM   40  O1  UNL     1      -5.292  30.525   6.514  1.00  0.00    -0.297 OA
ENDBRANCH  11  38
TORSDOF 13
ENDMDL
MODEL 3
REMARK VINA RESULT: -7.538947224      1.366      1.697
REMARK  13 active torsions:
REMARK  status: ('A' for Active; 'I' for Inactive)
REMARK    1  A    between atoms: C9_10  and  S1_11 
REMARK    2  A    between atoms: S1_11  and  C10_12 
REMARK    3  A    between atoms: C10_12  and  C11_13 
REMARK    4  A    between atoms: C10_12  and  N3_19 
REMARK    5  A    between atoms: C11_13  and  C12_14 
REMARK    6  A    between atoms: C12_14  and  N2_15 
REMARK    7  A    between atoms: N3_19  and  C13_21 
REMARK    8  A    between atoms: C13_21  and  C14_22 
REMARK    9  A    between atoms: C16_24  and  C17_25 
REMARK   10  A    between atoms: C20_32  and  N5_33 
REMARK   11  A    between atoms: N5_33  and  C21_35 
REMARK   12  A    between atoms: C21_35  and  C22_36 
REMARK   13  A    between atoms: C22_36  and  N6_37 
ROOT
HETATM    1  C1  UNL     1      -4.578  31.241   2.612  1.00  0.00     0.019 C 
HETATM    2  C2  UNL     1      -3.543  30.617   2.695  1.00  0.00    -0.059 C 
HETATM    3  C3  UNL     1      -2.332  29.854   2.794  1.00  0.00     0.088 A 
HETATM    4  C4  UNL     1      -1.756  29.447   1.600  1.00  0.00     0.055 A 
HETATM    5  C5  UNL     1      -0.600  28.718   1.623  1.00  0.00     0.023 A 
HETATM    6  C6  UNL     1      -0.038  28.402   2.867  1.00  0.00     0.008 A 
HETATM    7  C7  UNL     1      -0.643  28.827   4.031  1.00  0.00     0.104 A 
HETATM    8  N1  UNL     1      -1.775  29.543   3.977  1.00  0.00    -0.353 N 
HETATM    9  C8  UNL     1      -2.421  29.998   5.213  1.00  0.00     0.156 C 
HETATM   10  C9  UNL     1       1.021  27.666   3.152  1.00  0.00     0.017 C 
HETATM   11  C16 UNL     1       1.973  26.907   2.322  1.00  0.00     0.188 C 
HETATM   12  C19 UNL     1       2.058  27.373   0.905  1.00  0.00     0.239 C 
HETATM   13  O2  UNL     1       3.201  27.488   0.367  1.00  0.00    -0.272 OA
HETATM   14  N4  UNL     1       0.987  27.724   0.021  1.00  0.00    -0.312 N 
ATOM     15  H4  UNL     1       1.066  27.426  -0.951  1.00  0.00     0.170 HD
HETATM   16  C20 UNL     1      -0.183  28.459   0.388  1.00  0.00     0.115 C 
ENDROOT
BRANCH  16  17
HETATM   17  N5  UNL     1      -0.973  28.964  -0.701  1.00  0.00    -0.374 N 
ATOM     18  H5  UNL     1      -1.601  29.755  -0.553  1.00  0.00     0.161 HD
BRANCH  17  19
HETATM   19  C21 UNL     1      -0.875  28.351  -2.003  1.00  0.00     0.148 C 
BRANCH  19  20
HETATM   20  C22 UNL     1      -2.135  28.382  -2.806  1.00  0.00     0.249 C 
BRANCH  20  21
HETATM   21  N6  UNL     1      -2.006  29.451  -3.803  1.00  0.00    -0.078 N 
ATOM     22  H63 UNL     1      -2.572  30.270  -3.581  1.00  0.00     0.274 HD
ATOM     23  H62 UNL     1      -1.093  29.905  -3.781  1.00  0.00     0.274 HD
ATOM     24  H61 UNL     1      -2.228  29.054  -4.717  1.00  0.00     0.274 HD
ENDBRANCH  20  21
ENDBRANCH  19  20
ENDBRANCH  17  19
ENDBRANCH  16  17
BRANCH  10  25
HETATM   25  S1  UNL     1       1.396  27.526   4.925  1.00  0.00    -0.079 SA
BRANCH  25  26
HETATM   26  C10 UNL     1       2.636  28.187   5.689  1.00  0.00     0.049 C 
BRANCH  26  27
HETATM   27  C11 UNL     1       2.346  28.977   6.931  1.00  0.00     0.091 C 
BRANCH  27  28
HETATM   28  C12 UNL     1       2.630  30.437   6.784  1.00  0.00     0.236 C 
BRANCH  28  29
HETATM   29  N2  UNL     1       1.642  31.009   5.858  1.00  0.00    -0.079 N 
ATOM     30  H23 UNL     1       1.842  30.786   4.883  1.00  0.00     0.274 HD
ATOM     31  H22 UNL     1       0.732  30.550   5.920  1.00  0.00     0.274 HD
ATOM     32  H21 UNL     1       1.587  32.013   6.028  1.00  0.00     0.274 HD
ENDBRANCH  28  29
ENDBRANCH  27  28
ENDBRANCH  26  27
BRANCH  26  33
HETATM   33  N3  UNL     1       3.991  28.085   5.289  1.00  0.00    -0.384 N 
ATOM     34  H3  UNL     1       4.668  27.784   5.991  1.00  0.00     0.160 HD
BRANCH  33  35
HETATM   35  C13 UNL     1       4.484  28.373   3.971  1.00  0.00     0.146 C 
BRANCH  35  36
HETATM   36  C14 UNL     1       4.416  29.832   3.672  1.00  0.00    -0.018 C 
HETATM   37  C15 UNL     1       3.548  30.347   2.822  1.00  0.00     0.008 C 
ENDBRANCH  35  36
ENDBRANCH  33  35
ENDBRANCH  26  33
ENDBRANCH  25  26
ENDBRANCH  10  25
BRANCH  11  38
HETATM   38  C17 UNL     1       1.672  25.420   2.313  1.00  0.00     0.141 C 
HETATM   39  C18 UNL     1       2.151  24.628   1.157  1.00  0.00     0.092 C 
HETATM   40  O1  UNL     1       1.061  24.867   3.205  1.00  0.00    -0.297 OA
ENDBRANCH  11  38
TORSDOF 13
ENDMDL
MODEL 4
REMARK VINA RESULT: -7.509227811      3.160      7.703
REMARK  13 active torsions:
REMARK  status: ('A' for Active; 'I' for Inactive)
REMARK    1  A    between atoms: C9_10  and  S1_11 
REMARK    2  A    between atoms: S1_11  and  C10_12 
REMARK    3  A    between atoms: C10_12  and  C11_13 
REMARK    4  A    between atoms: C10_12  and  N3_19 
REMARK    5  A    between atoms: C11_13  and  C12_14 
REMARK    6  A    between atoms: C12_14  and  N2_15 
REMARK    7  A    between atoms: N3_19  and  C13_21 
REMARK    8  A    between atoms: C13_21  and  C14_22 
REMARK    9  A    between atoms: C16_24  and  C17_25 
REMARK   10  A    between atoms: C20_32  and  N5_33 
REMARK   11  A    between atoms: N5_33  and  C21_35 
REMARK   12  A    between atoms: C21_35  and  C22_36 
REMARK   13  A    between atoms: C22_36  and  N6_37 
ROOT
HETATM    1  C1  UNL     1       0.748  25.088   1.229  1.00  0.00     0.019 C 
HETATM    2  C2  UNL     1       0.046  25.972   1.669  1.00  0.00    -0.059 C 
HETATM    3  C3  UNL     1      -0.804  26.999   2.200  1.00  0.00     0.088 A 
HETATM    4  C4  UNL     1      -0.529  27.425   3.490  1.00  0.00     0.055 A 
HETATM    5  C5  UNL     1      -1.300  28.402   4.056  1.00  0.00     0.023 A 
HETATM    6  C6  UNL     1      -2.353  28.937   3.303  1.00  0.00     0.008 A 
HETATM    7  C7  UNL     1      -2.591  28.485   2.022  1.00  0.00     0.104 A 
HETATM    8  N1  UNL     1      -1.817  27.528   1.493  1.00  0.00    -0.353 N 
HETATM    9  C8  UNL     1      -2.067  27.045   0.131  1.00  0.00     0.156 C 
HETATM   10  C9  UNL     1      -3.265  29.829   3.643  1.00  0.00     0.017 C 
HETATM   11  C16 UNL     1      -3.538  30.565   4.891  1.00  0.00     0.188 C 
HETATM   12  C19 UNL     1      -2.361  30.685   5.802  1.00  0.00     0.239 C 
HETATM   13  O2  UNL     1      -2.128  31.803   6.355  1.00  0.00    -0.272 OA
HETATM   14  N4  UNL     1      -1.411  29.675   6.163  1.00  0.00    -0.312 N 
ATOM     15  H4  UNL     1      -1.104  29.648   7.135  1.00  0.00     0.170 HD
HETATM   16  C20 UNL     1      -0.859  28.702   5.273  1.00  0.00     0.115 C 
ENDROOT
BRANCH  16  17
HETATM   17  N5  UNL     1       0.291  27.991   5.759  1.00  0.00    -0.374 N 
ATOM     18  H5  UNL     1       0.316  26.971   5.717  1.00  0.00     0.161 HD
BRANCH  17  19
HETATM   19  C21 UNL     1       1.409  28.720   6.306  1.00  0.00     0.148 C 
BRANCH  19  20
HETATM   20  C22 UNL     1       2.166  29.543   5.314  1.00  0.00     0.249 C 
BRANCH  20  21
HETATM   21  N6  UNL     1       1.811  30.950   5.533  1.00  0.00    -0.078 N 
ATOM     22  H63 UNL     1       1.520  31.422   4.678  1.00  0.00     0.274 HD
ATOM     23  H62 UNL     1       0.942  31.062   6.054  1.00  0.00     0.274 HD
ATOM     24  H61 UNL     1       2.605  31.405   5.985  1.00  0.00     0.274 HD
ENDBRANCH  20  21
ENDBRANCH  19  20
ENDBRANCH  17  19
ENDBRANCH  16  17
BRANCH  10  25
HETATM   25  S1  UNL     1      -4.454  30.242   2.332  1.00  0.00    -0.079 SA
BRANCH  25  26
HETATM   26  C10 UNL     1      -5.678  31.265   2.447  1.00  0.00     0.049 C 
BRANCH  26  27
HETATM   27  C11 UNL     1      -5.354  32.725   2.562  1.00  0.00     0.091 C 
BRANCH  27  28
HETATM   28  C12 UNL     1      -6.522  33.615   2.283  1.00  0.00     0.236 C 
BRANCH  28  29
HETATM   29  N2  UNL     1      -6.751  34.461   3.464  1.00  0.00    -0.079 N 
ATOM     30  H23 UNL     1      -7.565  34.168   4.004  1.00  0.00     0.274 HD
ATOM     31  H22 UNL     1      -6.047  34.322   4.189  1.00  0.00     0.274 HD
ATOM     32  H21 UNL     1      -6.812  35.431   3.156  1.00  0.00     0.274 HD
ENDBRANCH  28  29
ENDBRANCH  27  28
ENDBRANCH  26  27
BRANCH  26  33
HETATM   33  N3  UNL     1      -7.048  30.905   2.446  1.00  0.00    -0.384 N 
ATOM     34  H3  UNL     1      -7.726  31.629   2.207  1.00  0.00     0.160 HD
BRANCH  33  35
HETATM   35  C13 UNL     1      -7.554  29.597   2.756  1.00  0.00     0.146 C 
BRANCH  35  36
HETATM   36  C14 UNL     1      -8.205  29.569   4.096  1.00  0.00    -0.018 C 
HETATM   37  C15 UNL     1      -8.433  28.449   4.757  1.00  0.00     0.008 C 
ENDBRANCH  35  36
ENDBRANCH  33  35
ENDBRANCH  26  33
ENDBRANCH  25  26
ENDBRANCH  10  25
BRANCH  11  38
HETATM   38  C17 UNL     1      -4.685  29.958   5.679  1.00  0.00     0.141 C 
HETATM   39  C18 UNL     1      -4.741  28.482   5.785  1.00  0.00     0.092 C 
HETATM   40  O1  UNL     1      -5.543  30.629   6.215  1.00  0.00    -0.297 OA
ENDBRANCH  11  38
TORSDOF 13
ENDMDL
MODEL 5
REMARK VINA RESULT: -7.432687437      3.178      7.937
REMARK  13 active torsions:
REMARK  status: ('A' for Active; 'I' for Inactive)
REMARK    1  A    between atoms: C9_10  and  S1_11 
REMARK    2  A    between atoms: S1_11  and  C10_12 
REMARK    3  A    between atoms: C10_12  and  C11_13 
REMARK    4  A    between atoms: C10_12  and  N3_19 
REMARK    5  A    between atoms: C11_13  and  C12_14 
REMARK    6  A    between atoms: C12_14  and  N2_15 
REMARK    7  A    between atoms: N3_19  and  C13_21 
REMARK    8  A    between atoms: C13_21  and  C14_22 
REMARK    9  A    between atoms: C16_24  and  C17_25 
REMARK   10  A    between atoms: C20_32  and  N5_33 
REMARK   11  A    between atoms: N5_33  and  C21_35 
REMARK   12  A    between atoms: C21_35  and  C22_36 
REMARK   13  A    between atoms: C22_36  and  N6_37 
ROOT
HETATM    1  C1  UNL     1       1.636  25.047   1.090  1.00  0.00     0.019 C 
HETATM    2  C2  UNL     1       0.745  25.704   1.583  1.00  0.00    -0.059 C 
HETATM    3  C3  UNL     1      -0.314  26.462   2.185  1.00  0.00     0.088 A 
HETATM    4  C4  UNL     1       0.053  27.370   3.167  1.00  0.00     0.055 A 
HETATM    5  C5  UNL     1      -0.906  28.125   3.781  1.00  0.00     0.023 A 
HETATM    6  C6  UNL     1      -2.240  27.947   3.393  1.00  0.00     0.008 A 
HETATM    7  C7  UNL     1      -2.563  27.034   2.412  1.00  0.00     0.104 A 
HETATM    8  N1  UNL     1      -1.600  26.309   1.825  1.00  0.00    -0.353 N 
HETATM    9  C8  UNL     1      -1.939  25.338   0.780  1.00  0.00     0.156 C 
HETATM   10  C9  UNL     1      -3.339  28.500   3.873  1.00  0.00     0.017 C 
HETATM   11  C16 UNL     1      -3.590  29.460   4.963  1.00  0.00     0.188 C 
HETATM   12  C19 UNL     1      -2.412  30.305   5.320  1.00  0.00     0.239 C 
HETATM   13  O2  UNL     1      -2.587  31.546   5.516  1.00  0.00    -0.272 OA
HETATM   14  N4  UNL     1      -1.047  29.900   5.484  1.00  0.00    -0.312 N 
ATOM     15  H4  UNL     1      -0.524  30.319   6.253  1.00  0.00     0.170 HD
HETATM   16  C20 UNL     1      -0.358  28.959   4.658  1.00  0.00     0.115 C 
ENDROOT
BRANCH  16  17
HETATM   17  N5  UNL     1       1.072  28.929   4.802  1.00  0.00    -0.374 N 
ATOM     18  H5  UNL     1       1.644  28.434   4.117  1.00  0.00     0.161 HD
BRANCH  17  19
HETATM   19  C21 UNL     1       1.696  29.600   5.916  1.00  0.00     0.148 C 
BRANCH  19  20
HETATM   20  C22 UNL     1       2.579  28.734   6.754  1.00  0.00     0.249 C 
BRANCH  20  21
HETATM   21  N6  UNL     1       1.872  27.472   6.996  1.00  0.00    -0.078 N 
ATOM     22  H63 UNL     1       0.906  27.609   7.292  1.00  0.00     0.274 HD
ATOM     23  H62 UNL     1       1.678  26.956   6.137  1.00  0.00     0.274 HD
ATOM     24  H61 UNL     1       2.418  26.931   7.667  1.00  0.00     0.274 HD
ENDBRANCH  20  21
ENDBRANCH  19  20
ENDBRANCH  17  19
ENDBRANCH  16  17
BRANCH  10  25
HETATM   25  S1  UNL     1      -4.876  27.977   3.055  1.00  0.00    -0.079 SA
BRANCH  25  26
HETATM   26  C10 UNL     1      -6.224  28.830   2.931  1.00  0.00     0.049 C 
BRANCH  26  27
HETATM   27  C11 UNL     1      -6.160  30.123   2.174  1.00  0.00     0.091 C 
BRANCH  27  28
HETATM   28  C12 UNL     1      -6.476  31.318   3.014  1.00  0.00     0.236 C 
BRANCH  28  29
HETATM   29  N2  UNL     1      -7.274  32.252   2.206  1.00  0.00    -0.079 N 
ATOM     30  H23 UNL     1      -8.235  31.936   2.075  1.00  0.00     0.274 HD
ATOM     31  H22 UNL     1      -7.481  33.121   2.700  1.00  0.00     0.274 HD
ATOM     32  H21 UNL     1      -6.788  32.409   1.324  1.00  0.00     0.274 HD
ENDBRANCH  28  29
ENDBRANCH  27  28
ENDBRANCH  26  27
BRANCH  26  33
HETATM   33  N3  UNL     1      -7.478  28.461   3.477  1.00  0.00    -0.384 N 
ATOM     34  H3  UNL     1      -7.720  28.832   4.396  1.00  0.00     0.160 HD
BRANCH  33  35
HETATM   35  C13 UNL     1      -8.434  27.603   2.834  1.00  0.00     0.146 C 
BRANCH  35  36
HETATM   36  C14 UNL     1      -9.555  28.387   2.243  1.00  0.00    -0.018 C 
HETATM   37  C15 UNL     1      -9.828  29.627   2.602  1.00  0.00     0.008 C 
ENDBRANCH  35  36
ENDBRANCH  33  35
ENDBRANCH  26  33
ENDBRANCH  25  26
ENDBRANCH  10  25
BRANCH  11  38
HETATM   38  C17 UNL     1      -4.084  28.780   6.227  1.00  0.00     0.141 C 
HETATM   39  C18 UNL     1      -5.480  29.039   6.647  1.00  0.00     0.092 C 
HETATM   40  O1  UNL     1      -3.385  28.045   6.895  1.00  0.00    -0.297 OA
ENDBRANCH  11  38
TORSDOF 13
ENDMDL
