MODEL 1
REMARK VINA RESULT: -9.545883248      0.000      0.000
REMARK  11 active torsions:
REMARK  status: ('A' for Active; 'I' for Inactive)
REMARK    1  A    between atoms: N2_5  and  C4_6 
REMARK    2  A    between atoms: C4_6  and  O1_7 
REMARK    3  A    between atoms: C4_6  and  C5_9 
REMARK    4  A    between atoms: C5_9  and  C6_10 
REMARK    5  A    between atoms: C6_10  and  N3_11 
REMARK       I    between atoms: N3_11  and  C7_13 
REMARK    6  A    between atoms: C7_13  and  C8_15 
REMARK    7  A    between atoms: C8_15  and  C9_16 
REMARK    8  A    between atoms: C8_15  and  N4_23 
REMARK    9  A    between atoms: C9_16  and  C10_17 
REMARK       I    between atoms: N4_23  and  C16_25 
REMARK   10  A    between atoms: C16_25  and  C17_27 
REMARK   11  A    between atoms: N6_33  and  O4_34 
ROOT
HETATM    1  C8  UNL     1      -1.240  28.503  -0.608  1.00  0.00     0.181 C 
ENDROOT
BRANCH   1   2
HETATM    2  C7  UNL     1      -1.989  29.375   0.334  1.00  0.00     0.240 C 
HETATM    3  N3  UNL     1      -2.217  28.955   1.664  1.00  0.00    -0.359 N 
ATOM      4  H3  UNL     1      -1.865  28.048   1.971  1.00  0.00     0.162 HD
HETATM    5  O2  UNL     1      -2.434  30.502  -0.028  1.00  0.00    -0.271 OA
BRANCH   3   6
HETATM    6  C6  UNL     1      -2.943  29.789   2.598  1.00  0.00     0.127 C 
BRANCH   6   7
HETATM    7  C5  UNL     1      -4.276  29.188   2.975  1.00  0.00     0.073 C 
BRANCH   7   8
HETATM    8  C4  UNL     1      -5.384  30.032   2.421  1.00  0.00     0.226 C 
BRANCH   8   9
HETATM    9  N2  UNL     1      -6.690  29.422   2.657  1.00  0.00    -0.325 N 
HETATM   10  C3  UNL     1      -6.989  28.250   3.200  1.00  0.00     0.111 A 
HETATM   11  C2  UNL     1      -8.363  28.131   3.200  1.00  0.00     0.108 A 
HETATM   12  N1  UNL     1      -8.893  29.254   2.646  1.00  0.00    -0.356 N 
HETATM   13  C1  UNL     1     -10.308  29.521   2.462  1.00  0.00     0.156 C 
HETATM   14  C21 UNL     1      -7.833  30.016   2.329  1.00  0.00     0.186 A 
ENDBRANCH   8   9
BRANCH   8  15
HETATM   15  O1  UNL     1      -5.151  30.245   1.069  1.00  0.00    -0.376 OA
ATOM     16  H1  UNL     1      -5.454  31.101   0.788  1.00  0.00     0.212 HD
ENDBRANCH   8  15
ENDBRANCH   7   8
ENDBRANCH   6   7
ENDBRANCH   3   6
ENDBRANCH   1   2
BRANCH   1  17
HETATM   17  C9  UNL     1       0.159  28.338  -0.050  1.00  0.00     0.073 C 
BRANCH  17  18
HETATM   18  C10 UNL     1       0.490  26.945   0.251  1.00  0.00    -0.056 A 
HETATM   19  C11 UNL     1       1.703  26.561   0.780  1.00  0.00     0.007 A 
HETATM   20  C12 UNL     1       1.987  25.234   1.054  1.00  0.00     0.001 A 
HETATM   21  C13 UNL     1       1.065  24.268   0.804  1.00  0.00     0.000 A 
HETATM   22  C14 UNL     1      -0.161  24.618   0.274  1.00  0.00     0.001 A 
HETATM   23  C15 UNL     1      -0.440  25.960   0.000  1.00  0.00     0.007 A 
ENDBRANCH  17  18
ENDBRANCH   1  17
BRANCH   1  24
HETATM   24  N4  UNL     1      -1.248  29.084  -1.918  1.00  0.00    -0.342 N 
HETATM   25  C16 UNL     1      -1.655  28.384  -3.077  1.00  0.00     0.271 C 
HETATM   26  O3  UNL     1      -2.031  27.196  -2.981  1.00  0.00    -0.266 OA
ATOM     27  H4  UNL     1      -0.944  30.052  -2.019  1.00  0.00     0.163 HD
BRANCH  25  28
HETATM   28  C17 UNL     1      -1.648  29.008  -4.387  1.00  0.00     0.135 A 
HETATM   29  C18 UNL     1      -1.291  28.709  -5.617  1.00  0.00     0.140 A 
HETATM   30  C19 UNL     1      -1.675  29.923  -6.125  1.00  0.00     0.139 A 
HETATM   31  N6  UNL     1      -0.794  27.951  -6.617  1.00  0.00    -0.214 N 
HETATM   32  N5  UNL     1      -1.412  29.905  -7.445  1.00  0.00    -0.335 N 
HETATM   33  N7  UNL     1      -2.044  30.269  -4.940  1.00  0.00    -0.334 N 
HETATM   34  C20 UNL     1      -0.879  28.707  -7.729  1.00  0.00     0.215 A 
ATOM     35  H5  UNL     1      -1.586  30.662  -8.106  1.00  0.00     0.168 HD
ATOM     36  H7  UNL     1      -2.458  31.114  -4.547  1.00  0.00     0.168 HD
BRANCH  31  37
HETATM   37  O4  UNL     1      -0.304  26.666  -6.503  1.00  0.00    -0.281 OA
ATOM     38  H4  UNL     1      -0.518  25.930  -7.065  1.00  0.00     0.245 HD
ENDBRANCH  31  37
ENDBRANCH  25  28
ENDBRANCH   1  24
TORSDOF 11
ENDMDL
MODEL 2
REMARK VINA RESULT: -9.418501014      1.853      2.210
REMARK  11 active torsions:
REMARK  status: ('A' for Active; 'I' for Inactive)
REMARK    1  A    between atoms: N2_5  and  C4_6 
REMARK    2  A    between atoms: C4_6  and  O1_7 
REMARK    3  A    between atoms: C4_6  and  C5_9 
REMARK    4  A    between atoms: C5_9  and  C6_10 
REMARK    5  A    between atoms: C6_10  and  N3_11 
REMARK       I    between atoms: N3_11  and  C7_13 
REMARK    6  A    between atoms: C7_13  and  C8_15 
REMARK    7  A    between atoms: C8_15  and  C9_16 
REMARK    8  A    between atoms: C8_15  and  N4_23 
REMARK    9  A    between atoms: C9_16  and  C10_17 
REMARK       I    between atoms: N4_23  and  C16_25 
REMARK   10  A    between atoms: C16_25  and  C17_27 
REMARK   11  A    between atoms: N6_33  and  O4_34 
ROOT
HETATM    1  C8  UNL     1      -1.313  28.106  -0.667  1.00  0.00     0.181 C 
ENDROOT
BRANCH   1   2
HETATM    2  C7  UNL     1      -2.452  28.587   0.157  1.00  0.00     0.240 C 
HETATM    3  N3  UNL     1      -2.820  27.897   1.335  1.00  0.00    -0.359 N 
ATOM      4  H3  UNL     1      -2.297  27.067   1.613  1.00  0.00     0.162 HD
HETATM    5  O2  UNL     1      -3.113  29.614  -0.172  1.00  0.00    -0.271 OA
BRANCH   3   6
HETATM    6  C6  UNL     1      -3.926  28.348   2.152  1.00  0.00     0.127 C 
BRANCH   6   7
HETATM    7  C5  UNL     1      -3.513  28.576   3.586  1.00  0.00     0.073 C 
BRANCH   7   8
HETATM    8  C4  UNL     1      -3.183  30.024   3.792  1.00  0.00     0.226 C 
BRANCH   8   9
HETATM    9  N2  UNL     1      -4.383  30.856   3.760  1.00  0.00    -0.325 N 
HETATM   10  C3  UNL     1      -5.428  30.863   4.576  1.00  0.00     0.111 A 
HETATM   11  C2  UNL     1      -6.300  31.832   4.125  1.00  0.00     0.108 A 
HETATM   12  N1  UNL     1      -5.765  32.414   3.019  1.00  0.00    -0.356 N 
HETATM   13  C1  UNL     1      -6.372  33.480   2.245  1.00  0.00     0.156 C 
HETATM   14  C21 UNL     1      -4.590  31.786   2.833  1.00  0.00     0.186 A 
ENDBRANCH   8   9
BRANCH   8  15
HETATM   15  O1  UNL     1      -2.260  30.413   2.830  1.00  0.00    -0.376 OA
ATOM     16  H1  UNL     1      -1.721  29.685   2.543  1.00  0.00     0.212 HD
ENDBRANCH   8  15
ENDBRANCH   7   8
ENDBRANCH   6   7
ENDBRANCH   3   6
ENDBRANCH   1   2
BRANCH   1  17
HETATM   17  C9  UNL     1      -0.049  28.345   0.133  1.00  0.00     0.073 C 
BRANCH  17  18
HETATM   18  C10 UNL     1       0.671  27.109   0.441  1.00  0.00    -0.056 A 
HETATM   19  C11 UNL     1       0.061  25.873   0.460  1.00  0.00     0.007 A 
HETATM   20  C12 UNL     1       0.768  24.721   0.755  1.00  0.00     0.001 A 
HETATM   21  C13 UNL     1       2.095  24.781   1.036  1.00  0.00     0.000 A 
HETATM   22  C14 UNL     1       2.738  26.004   1.026  1.00  0.00     0.001 A 
HETATM   23  C15 UNL     1       2.017  27.163   0.727  1.00  0.00     0.007 A 
ENDBRANCH  17  18
ENDBRANCH   1  17
BRANCH   1  24
HETATM   24  N4  UNL     1      -1.305  28.785  -1.928  1.00  0.00    -0.342 N 
HETATM   25  C16 UNL     1      -1.798  28.214  -3.124  1.00  0.00     0.271 C 
HETATM   26  O3  UNL     1      -2.270  27.057  -3.105  1.00  0.00    -0.266 OA
ATOM     27  H4  UNL     1      -0.924  29.731  -1.965  1.00  0.00     0.163 HD
BRANCH  25  28
HETATM   28  C17 UNL     1      -1.773  28.935  -4.382  1.00  0.00     0.135 A 
HETATM   29  C18 UNL     1      -1.370  28.740  -5.620  1.00  0.00     0.140 A 
HETATM   30  C19 UNL     1      -1.777  29.978  -6.047  1.00  0.00     0.139 A 
HETATM   31  N6  UNL     1      -0.820  28.075  -6.657  1.00  0.00    -0.214 N 
HETATM   32  N5  UNL     1      -1.474  30.067  -7.355  1.00  0.00    -0.335 N 
HETATM   33  N7  UNL     1      -2.192  30.222  -4.852  1.00  0.00    -0.334 N 
HETATM   34  C20 UNL     1      -0.895  28.911  -7.711  1.00  0.00     0.215 A 
ATOM     35  H5  UNL     1      -1.652  30.867  -7.964  1.00  0.00     0.168 HD
ATOM     36  H7  UNL     1      -2.644  31.022  -4.410  1.00  0.00     0.168 HD
BRANCH  31  37
HETATM   37  O4  UNL     1      -0.293  26.800  -6.624  1.00  0.00    -0.281 OA
ATOM     38  H4  UNL     1      -0.498  26.091  -7.221  1.00  0.00     0.245 HD
ENDBRANCH  31  37
ENDBRANCH  25  28
ENDBRANCH   1  24
TORSDOF 11
ENDMDL
MODEL 3
REMARK VINA RESULT: -9.409655981      1.113      1.518
REMARK  11 active torsions:
REMARK  status: ('A' for Active; 'I' for Inactive)
REMARK    1  A    between atoms: N2_5  and  C4_6 
REMARK    2  A    between atoms: C4_6  and  O1_7 
REMARK    3  A    between atoms: C4_6  and  C5_9 
REMARK    4  A    between atoms: C5_9  and  C6_10 
REMARK    5  A    between atoms: C6_10  and  N3_11 
REMARK       I    between atoms: N3_11  and  C7_13 
REMARK    6  A    between atoms: C7_13  and  C8_15 
REMARK    7  A    between atoms: C8_15  and  C9_16 
REMARK    8  A    between atoms: C8_15  and  N4_23 
REMARK    9  A    between atoms: C9_16  and  C10_17 
REMARK       I    between atoms: N4_23  and  C16_25 
REMARK   10  A    between atoms: C16_25  and  C17_27 
REMARK   11  A    between atoms: N6_33  and  O4_34 
ROOT
HETATM    1  C8  UNL     1      -1.300  28.166  -0.688  1.00  0.00     0.181 C 
ENDROOT
BRANCH   1   2
HETATM    2  C7  UNL     1      -2.467  28.661   0.088  1.00  0.00     0.240 C 
HETATM    3  N3  UNL     1      -2.730  28.152   1.380  1.00  0.00    -0.359 N 
ATOM      4  H3  UNL     1      -2.114  27.442   1.774  1.00  0.00     0.162 HD
HETATM    5  O2  UNL     1      -3.243  29.541  -0.384  1.00  0.00    -0.271 OA
BRANCH   3   6
HETATM    6  C6  UNL     1      -3.861  28.621   2.153  1.00  0.00     0.127 C 
BRANCH   6   7
HETATM    7  C5  UNL     1      -3.623  29.997   2.726  1.00  0.00     0.073 C 
BRANCH   7   8
HETATM    8  C4  UNL     1      -4.827  30.858   2.488  1.00  0.00     0.226 C 
BRANCH   8   9
HETATM    9  N2  UNL     1      -5.844  30.650   3.515  1.00  0.00    -0.325 N 
HETATM   10  C3  UNL     1      -5.831  30.986   4.798  1.00  0.00     0.111 A 
HETATM   11  C2  UNL     1      -7.027  30.573   5.347  1.00  0.00     0.108 A 
HETATM   12  N1  UNL     1      -7.767  29.979   4.374  1.00  0.00    -0.356 N 
HETATM   13  C1  UNL     1      -9.091  29.410   4.544  1.00  0.00     0.156 C 
HETATM   14  C21 UNL     1      -7.004  30.050   3.269  1.00  0.00     0.186 A 
ENDBRANCH   8   9
BRANCH   8  15
HETATM   15  O1  UNL     1      -5.317  30.598   1.215  1.00  0.00    -0.376 OA
ATOM     16  H1  UNL     1      -5.177  31.330   0.626  1.00  0.00     0.212 HD
ENDBRANCH   8  15
ENDBRANCH   7   8
ENDBRANCH   6   7
ENDBRANCH   3   6
ENDBRANCH   1   2
BRANCH   1  17
HETATM   17  C9  UNL     1      -0.064  28.424   0.149  1.00  0.00     0.073 C 
BRANCH  17  18
HETATM   18  C10 UNL     1       0.673  27.200   0.465  1.00  0.00    -0.056 A 
HETATM   19  C11 UNL     1       0.080  25.956   0.499  1.00  0.00     0.007 A 
HETATM   20  C12 UNL     1       0.803  24.817   0.802  1.00  0.00     0.001 A 
HETATM   21  C13 UNL     1       2.131  24.897   1.076  1.00  0.00     0.000 A 
HETATM   22  C14 UNL     1       2.757  26.128   1.051  1.00  0.00     0.001 A 
HETATM   23  C15 UNL     1       2.020  27.274   0.744  1.00  0.00     0.007 A 
ENDBRANCH  17  18
ENDBRANCH   1  17
BRANCH   1  24
HETATM   24  N4  UNL     1      -1.252  28.819  -1.962  1.00  0.00    -0.342 N 
HETATM   25  C16 UNL     1      -1.727  28.232  -3.157  1.00  0.00     0.271 C 
HETATM   26  O3  UNL     1      -2.218  27.083  -3.127  1.00  0.00    -0.266 OA
ATOM     27  H4  UNL     1      -0.853  29.757  -2.009  1.00  0.00     0.163 HD
BRANCH  25  28
HETATM   28  C17 UNL     1      -1.659  28.926  -4.429  1.00  0.00     0.135 A 
HETATM   29  C18 UNL     1      -1.269  28.686  -5.662  1.00  0.00     0.140 A 
HETATM   30  C19 UNL     1      -1.604  29.937  -6.113  1.00  0.00     0.139 A 
HETATM   31  N6  UNL     1      -0.758  27.971  -6.686  1.00  0.00    -0.214 N 
HETATM   32  N5  UNL     1      -1.296  29.984  -7.422  1.00  0.00    -0.335 N 
HETATM   33  N7  UNL     1      -2.003  30.227  -4.923  1.00  0.00    -0.334 N 
HETATM   34  C20 UNL     1      -0.786  28.789  -7.756  1.00  0.00     0.215 A 
ATOM     35  H5  UNL     1      -1.428  30.781  -8.046  1.00  0.00     0.168 HD
ATOM     36  H7  UNL     1      -2.408  31.060  -4.497  1.00  0.00     0.168 HD
BRANCH  31  37
HETATM   37  O4  UNL     1      -0.306  26.668  -6.629  1.00  0.00    -0.281 OA
ATOM     38  H4  UNL     1      -0.087  26.115  -7.370  1.00  0.00     0.245 HD
ENDBRANCH  31  37
ENDBRANCH  25  28
ENDBRANCH   1  24
TORSDOF 11
ENDMDL
MODEL 4
REMARK VINA RESULT: -9.335651577      1.360      1.677
REMARK  11 active torsions:
REMARK  status: ('A' for Active; 'I' for Inactive)
REMARK    1  A    between atoms: N2_5  and  C4_6 
REMARK    2  A    between atoms: C4_6  and  O1_7 
REMARK    3  A    between atoms: C4_6  and  C5_9 
REMARK    4  A    between atoms: C5_9  and  C6_10 
REMARK    5  A    between atoms: C6_10  and  N3_11 
REMARK       I    between atoms: N3_11  and  C7_13 
REMARK    6  A    between atoms: C7_13  and  C8_15 
REMARK    7  A    between atoms: C8_15  and  C9_16 
REMARK    8  A    between atoms: C8_15  and  N4_23 
REMARK    9  A    between atoms: C9_16  and  C10_17 
REMARK       I    between atoms: N4_23  and  C16_25 
REMARK   10  A    between atoms: C16_25  and  C17_27 
REMARK   11  A    between atoms: N6_33  and  O4_34 
ROOT
HETATM    1  C8  UNL     1      -1.291  28.366  -0.788  1.00  0.00     0.181 C 
ENDROOT
BRANCH   1   2
HETATM    2  C7  UNL     1      -2.178  29.159   0.103  1.00  0.00     0.240 C 
HETATM    3  N3  UNL     1      -1.834  29.354   1.459  1.00  0.00    -0.359 N 
ATOM      4  H3  UNL     1      -0.973  28.946   1.822  1.00  0.00     0.162 HD
HETATM    5  O2  UNL     1      -3.250  29.672  -0.328  1.00  0.00    -0.271 OA
BRANCH   3   6
HETATM    6  C6  UNL     1      -2.684  30.123   2.343  1.00  0.00     0.127 C 
BRANCH   6   7
HETATM    7  C5  UNL     1      -3.132  29.318   3.539  1.00  0.00     0.073 C 
BRANCH   7   8
HETATM    8  C4  UNL     1      -3.644  30.240   4.604  1.00  0.00     0.226 C 
BRANCH   8   9
HETATM    9  N2  UNL     1      -5.096  30.146   4.741  1.00  0.00    -0.325 N 
HETATM   10  C3  UNL     1      -5.998  31.110   4.857  1.00  0.00     0.111 A 
HETATM   11  C2  UNL     1      -7.236  30.510   4.958  1.00  0.00     0.108 A 
HETATM   12  N1  UNL     1      -7.068  29.163   4.902  1.00  0.00    -0.356 N 
HETATM   13  C1  UNL     1      -8.127  28.173   4.974  1.00  0.00     0.156 C 
HETATM   14  C21 UNL     1      -5.742  28.985   4.768  1.00  0.00     0.186 A 
ENDBRANCH   8   9
BRANCH   8  15
HETATM   15  O1  UNL     1      -3.237  31.535   4.309  1.00  0.00    -0.376 OA
ATOM     16  H1  UNL     1      -3.923  32.169   4.479  1.00  0.00     0.212 HD
ENDBRANCH   8  15
ENDBRANCH   7   8
ENDBRANCH   6   7
ENDBRANCH   3   6
ENDBRANCH   1   2
BRANCH   1  17
HETATM   17  C9  UNL     1       0.070  28.303  -0.124  1.00  0.00     0.073 C 
BRANCH  17  18
HETATM   18  C10 UNL     1       0.473  26.939   0.218  1.00  0.00    -0.056 A 
HETATM   19  C11 UNL     1       1.718  26.629   0.721  1.00  0.00     0.007 A 
HETATM   20  C12 UNL     1       2.070  25.329   1.035  1.00  0.00     0.001 A 
HETATM   21  C13 UNL     1       1.186  24.314   0.852  1.00  0.00     0.000 A 
HETATM   22  C14 UNL     1      -0.071  24.589   0.350  1.00  0.00     0.001 A 
HETATM   23  C15 UNL     1      -0.419  25.905   0.036  1.00  0.00     0.007 A 
ENDBRANCH  17  18
ENDBRANCH   1  17
BRANCH   1  24
HETATM   24  N4  UNL     1      -1.244  28.967  -2.087  1.00  0.00    -0.342 N 
HETATM   25  C16 UNL     1      -1.730  28.336  -3.256  1.00  0.00     0.271 C 
HETATM   26  O3  UNL     1      -2.230  27.193  -3.176  1.00  0.00    -0.266 OA
ATOM     27  H4  UNL     1      -0.839  29.899  -2.174  1.00  0.00     0.163 HD
BRANCH  25  28
HETATM   28  C17 UNL     1      -1.665  28.977  -4.554  1.00  0.00     0.135 A 
HETATM   29  C18 UNL     1      -1.275  28.687  -5.777  1.00  0.00     0.140 A 
HETATM   30  C19 UNL     1      -1.612  29.918  -6.278  1.00  0.00     0.139 A 
HETATM   31  N6  UNL     1      -0.766  27.931  -6.772  1.00  0.00    -0.214 N 
HETATM   32  N5  UNL     1      -1.306  29.913  -7.589  1.00  0.00    -0.335 N 
HETATM   33  N7  UNL     1      -2.010  30.257  -5.101  1.00  0.00    -0.334 N 
HETATM   34  C20 UNL     1      -0.795  28.706  -7.875  1.00  0.00     0.215 A 
ATOM     35  H5  UNL     1      -1.439  30.683  -8.244  1.00  0.00     0.168 HD
ATOM     36  H7  UNL     1      -2.415  31.107  -4.708  1.00  0.00     0.168 HD
BRANCH  31  37
HETATM   37  O4  UNL     1      -0.313  26.632  -6.662  1.00  0.00    -0.281 OA
ATOM     38  H4  UNL     1      -0.634  25.881  -7.148  1.00  0.00     0.245 HD
ENDBRANCH  31  37
ENDBRANCH  25  28
ENDBRANCH   1  24
TORSDOF 11
ENDMDL
MODEL 5
REMARK VINA RESULT: -9.312579690      2.235      4.013
REMARK  11 active torsions:
REMARK  status: ('A' for Active; 'I' for Inactive)
REMARK    1  A    between atoms: N2_5  and  C4_6 
REMARK    2  A    between atoms: C4_6  and  O1_7 
REMARK    3  A    between atoms: C4_6  and  C5_9 
REMARK    4  A    between atoms: C5_9  and  C6_10 
REMARK    5  A    between atoms: C6_10  and  N3_11 
REMARK       I    between atoms: N3_11  and  C7_13 
REMARK    6  A    between atoms: C7_13  and  C8_15 
REMARK    7  A    between atoms: C8_15  and  C9_16 
REMARK    8  A    between atoms: C8_15  and  N4_23 
REMARK    9  A    between atoms: C9_16  and  C10_17 
REMARK       I    between atoms: N4_23  and  C16_25 
REMARK   10  A    between atoms: C16_25  and  C17_27 
REMARK   11  A    between atoms: N6_33  and  O4_34 
ROOT
HETATM    1  C8  UNL     1      -1.436  28.224  -0.640  1.00  0.00     0.181 C 
ENDROOT
BRANCH   1   2
HETATM    2  C7  UNL     1      -2.567  28.814   0.123  1.00  0.00     0.240 C 
HETATM    3  N3  UNL     1      -2.915  28.299   1.392  1.00  0.00    -0.359 N 
ATOM      4  H3  UNL     1      -2.385  27.518   1.778  1.00  0.00     0.162 HD
HETATM    5  O2  UNL     1      -3.236  29.782  -0.340  1.00  0.00    -0.271 OA
BRANCH   3   6
HETATM    6  C6  UNL     1      -4.012  28.859   2.152  1.00  0.00     0.127 C 
BRANCH   6   7
HETATM    7  C5  UNL     1      -3.664  29.023   3.611  1.00  0.00     0.073 C 
BRANCH   7   8
HETATM    8  C4  UNL     1      -2.478  29.932   3.747  1.00  0.00     0.226 C 
BRANCH   8   9
HETATM    9  N2  UNL     1      -1.396  29.291   4.491  1.00  0.00    -0.325 N 
HETATM   10  C3  UNL     1      -1.236  29.155   5.800  1.00  0.00     0.111 A 
HETATM   11  C2  UNL     1      -0.053  28.476   6.005  1.00  0.00     0.108 A 
HETATM   12  N1  UNL     1       0.502  28.202   4.795  1.00  0.00    -0.356 N 
HETATM   13  C1  UNL     1       1.752  27.499   4.576  1.00  0.00     0.156 C 
HETATM   14  C21 UNL     1      -0.355  28.719   3.897  1.00  0.00     0.186 A 
ENDBRANCH   8   9
BRANCH   8  15
HETATM   15  O1  UNL     1      -2.888  31.115   4.348  1.00  0.00    -0.376 OA
ATOM     16  H1  UNL     1      -2.197  31.766   4.355  1.00  0.00     0.212 HD
ENDBRANCH   8  15
ENDBRANCH   7   8
ENDBRANCH   6   7
ENDBRANCH   3   6
ENDBRANCH   1   2
BRANCH   1  17
HETATM   17  C9  UNL     1      -0.184  28.424   0.189  1.00  0.00     0.073 C 
BRANCH  17  18
HETATM   18  C10 UNL     1       0.519  27.170   0.466  1.00  0.00    -0.056 A 
HETATM   19  C11 UNL     1      -0.107  25.943   0.454  1.00  0.00     0.007 A 
HETATM   20  C12 UNL     1       0.585  24.774   0.721  1.00  0.00     0.001 A 
HETATM   21  C13 UNL     1       1.912  24.810   1.005  1.00  0.00     0.000 A 
HETATM   22  C14 UNL     1       2.571  26.024   1.025  1.00  0.00     0.001 A 
HETATM   23  C15 UNL     1       1.866  27.200   0.755  1.00  0.00     0.007 A 
ENDBRANCH  17  18
ENDBRANCH   1  17
BRANCH   1  24
HETATM   24  N4  UNL     1      -1.348  28.839  -1.931  1.00  0.00    -0.342 N 
HETATM   25  C16 UNL     1      -1.890  28.266  -3.105  1.00  0.00     0.271 C 
HETATM   26  O3  UNL     1      -2.481  27.167  -3.039  1.00  0.00    -0.266 OA
ATOM     27  H4  UNL     1      -0.870  29.736  -2.007  1.00  0.00     0.163 HD
BRANCH  25  28
HETATM   28  C17 UNL     1      -1.779  28.920  -4.395  1.00  0.00     0.135 A 
HETATM   29  C18 UNL     1      -1.336  28.645  -5.603  1.00  0.00     0.140 A 
HETATM   30  C19 UNL     1      -1.668  29.876  -6.107  1.00  0.00     0.139 A 
HETATM   31  N6  UNL     1      -0.775  27.905  -6.582  1.00  0.00    -0.214 N 
HETATM   32  N5  UNL     1      -1.308  29.885  -7.404  1.00  0.00    -0.335 N 
HETATM   33  N7  UNL     1      -2.119  30.199  -4.945  1.00  0.00    -0.334 N 
HETATM   34  C20 UNL     1      -0.769  28.688  -7.678  1.00  0.00     0.215 A 
ATOM     35  H5  UNL     1      -1.424  30.660  -8.058  1.00  0.00     0.168 HD
ATOM     36  H7  UNL     1      -2.551  31.040  -4.563  1.00  0.00     0.168 HD
BRANCH  31  37
HETATM   37  O4  UNL     1      -0.310  26.611  -6.463  1.00  0.00    -0.281 OA
ATOM     38  H4  UNL     1       0.501  26.340  -6.049  1.00  0.00     0.245 HD
ENDBRANCH  31  37
ENDBRANCH  25  28
ENDBRANCH   1  24
TORSDOF 11
ENDMDL
