MODEL 1
REMARK VINA RESULT: -8.274663396      0.000      0.000
REMARK  12 active torsions:
REMARK  status: ('A' for Active; 'I' for Inactive)
REMARK    1  A    between atoms: C2_2  and  C3_3 
REMARK    2  A    between atoms: C2_2  and  N2_10 
REMARK    3  A    between atoms: C3_3  and  C4_4 
REMARK    4  A    between atoms: C4_4  and  C5_5 
REMARK    5  A    between atoms: C5_5  and  N1_6 
REMARK       I    between atoms: N2_10  and  C9_12 
REMARK    6  A    between atoms: C9_12  and  C10_14 
REMARK    7  A    between atoms: C10_14  and  C11_15 
REMARK    8  A    between atoms: C11_15  and  N3_16 
REMARK    9  A    between atoms: N3_16  and  C12_17 
REMARK   10  A    between atoms: C12_17  and  C13_18 
REMARK   11  A    between atoms: C14_19  and  C15_20 
REMARK   12  A    between atoms: C20_33  and  N8_34 
ROOT
HETATM    1  N3  UNL     1      -1.507  28.389  -6.409  1.00  0.00     0.081 N 
HETATM    2  N6  UNL     1      -0.281  27.919  -5.973  1.00  0.00     0.072 NA
HETATM    3  N7  UNL     1      -0.550  28.361  -4.695  1.00  0.00    -0.057 NA
HETATM    4  C20 UNL     1      -1.877  28.728  -5.090  1.00  0.00     0.519 C 
ENDROOT
BRANCH   1   5
HETATM    5  C11 UNL     1      -2.239  27.305  -7.033  1.00  0.00     0.276 C 
BRANCH   5   6
HETATM    6  C10 UNL     1      -3.620  27.146  -6.443  1.00  0.00     0.132 C 
BRANCH   6   7
HETATM    7  C9  UNL     1      -4.676  27.432  -7.428  1.00  0.00     0.219 C 
HETATM    8  N2  UNL     1      -5.142  28.753  -7.648  1.00  0.00    -0.354 N 
ATOM      9  H2  UNL     1      -4.736  29.520  -7.112  1.00  0.00     0.163 HD
HETATM   10  O1  UNL     1      -5.200  26.512  -8.111  1.00  0.00    -0.274 OA
BRANCH   8  11
HETATM   11  C2  UNL     1      -6.209  29.048  -8.644  1.00  0.00     0.103 C 
HETATM   12  C1  UNL     1      -7.479  29.238  -7.838  1.00  0.00     0.036 C 
BRANCH  11  13
HETATM   13  C3  UNL     1      -5.780  30.238  -9.379  1.00  0.00    -0.001 C 
BRANCH  13  14
HETATM   14  C4  UNL     1      -6.293  30.671 -10.665  1.00  0.00     0.023 C 
BRANCH  14  15
HETATM   15  C5  UNL     1      -5.478  31.390 -11.638  1.00  0.00     0.201 C 
BRANCH  15  16
HETATM   16  N1  UNL     1      -5.473  31.240 -13.021  1.00  0.00    -0.059 N 
HETATM   17  C6  UNL     1      -6.699  31.257 -13.738  1.00  0.00     0.277 C 
HETATM   18  C7  UNL     1      -4.591  30.180 -13.537  1.00  0.00     0.277 C 
HETATM   19  C8  UNL     1      -4.754  32.475 -13.546  1.00  0.00     0.277 C 
ENDBRANCH  15  16
ENDBRANCH  14  15
ENDBRANCH  13  14
ENDBRANCH  11  13
ENDBRANCH   8  11
ENDBRANCH   6   7
ENDBRANCH   5   6
ENDBRANCH   1   5
BRANCH   1  20
HETATM   20  C12 UNL     1      -1.322  29.491  -7.336  1.00  0.00     0.359 C 
BRANCH  20  21
HETATM   21  C13 UNL     1      -0.313  29.171  -8.346  1.00  0.00    -0.074 C 
HETATM   22  C14 UNL     1       0.548  28.904  -9.174  1.00  0.00    -0.069 C 
BRANCH  22  23
HETATM   23  C15 UNL     1       1.566  28.561 -10.174  1.00  0.00     0.257 C 
HETATM   24  N4  UNL     1       1.686  29.612 -11.156  1.00  0.00    -0.336 N 
HETATM   25  C16 UNL     1       1.350  29.375 -12.510  1.00  0.00     0.241 C 
ATOM     26  H4  UNL     1       2.017  30.534 -10.871  1.00  0.00     0.164 HD
HETATM   27  O2  UNL     1       1.878  30.050 -13.460  1.00  0.00    -0.271 OA
HETATM   28  C17 UNL     1       0.360  28.318 -12.819  1.00  0.00     0.172 C 
HETATM   29  C18 UNL     1      -1.018  28.925 -12.731  1.00  0.00     0.042 C 
HETATM   30  N5  UNL     1       0.506  27.160 -11.968  1.00  0.00    -0.346 N 
HETATM   31  C19 UNL     1       1.204  27.266 -10.758  1.00  0.00     0.253 C 
ATOM     32  H5  UNL     1       0.102  26.266 -12.247  1.00  0.00     0.163 HD
HETATM   33  O3  UNL     1       1.523  26.201 -10.167  1.00  0.00    -0.270 OA
ENDBRANCH  22  23
ENDBRANCH  20  21
ENDBRANCH   1  20
BRANCH   4  34
HETATM   34  N8  UNL     1      -2.200  30.120  -4.838  1.00  0.00    -0.032 N 
ATOM     35  H83 UNL     1      -2.943  30.418  -5.471  1.00  0.00     0.278 HD
ATOM     36  H82 UNL     1      -2.674  30.203  -3.939  1.00  0.00     0.278 HD
ATOM     37  H81 UNL     1      -1.429  30.786  -4.880  1.00  0.00     0.278 HD
ENDBRANCH   4  34
TORSDOF 12
ENDMDL
MODEL 2
REMARK VINA RESULT: -8.198573741      8.806     14.162
REMARK  12 active torsions:
REMARK  status: ('A' for Active; 'I' for Inactive)
REMARK    1  A    between atoms: C2_2  and  C3_3 
REMARK    2  A    between atoms: C2_2  and  N2_10 
REMARK    3  A    between atoms: C3_3  and  C4_4 
REMARK    4  A    between atoms: C4_4  and  C5_5 
REMARK    5  A    between atoms: C5_5  and  N1_6 
REMARK       I    between atoms: N2_10  and  C9_12 
REMARK    6  A    between atoms: C9_12  and  C10_14 
REMARK    7  A    between atoms: C10_14  and  C11_15 
REMARK    8  A    between atoms: C11_15  and  N3_16 
REMARK    9  A    between atoms: N3_16  and  C12_17 
REMARK   10  A    between atoms: C12_17  and  C13_18 
REMARK   11  A    between atoms: C14_19  and  C15_20 
REMARK   12  A    between atoms: C20_33  and  N8_34 
ROOT
HETATM    1  N3  UNL     1      -1.592  28.160  -1.094  1.00  0.00     0.081 N 
HETATM    2  N6  UNL     1      -2.382  27.024  -1.072  1.00  0.00     0.072 NA
HETATM    3  N7  UNL     1      -2.392  26.988  -2.451  1.00  0.00    -0.057 NA
HETATM    4  C20 UNL     1      -1.462  28.076  -2.497  1.00  0.00     0.519 C 
ENDROOT
BRANCH   1   5
HETATM    5  C11 UNL     1      -0.394  27.924  -0.313  1.00  0.00     0.276 C 
BRANCH   5   6
HETATM    6  C10 UNL     1      -0.241  26.467   0.053  1.00  0.00     0.132 C 
BRANCH   6   7
HETATM    7  C9  UNL     1      -0.302  26.256   1.509  1.00  0.00     0.219 C 
HETATM    8  N2  UNL     1       0.835  26.456   2.332  1.00  0.00    -0.354 N 
ATOM      9  H2  UNL     1       1.713  26.752   1.905  1.00  0.00     0.163 HD
HETATM   10  O1  UNL     1      -1.368  25.892   2.073  1.00  0.00    -0.274 OA
BRANCH   8  11
HETATM   11  C2  UNL     1       0.779  26.245   3.805  1.00  0.00     0.103 C 
HETATM   12  C1  UNL     1       2.004  25.419   4.146  1.00  0.00     0.036 C 
BRANCH  11  13
HETATM   13  C3  UNL     1       0.759  27.573   4.418  1.00  0.00    -0.001 C 
BRANCH  13  14
HETATM   14  C4  UNL     1       1.171  28.809   3.778  1.00  0.00     0.023 C 
BRANCH  14  15
HETATM   15  C5  UNL     1       2.400  29.509   4.133  1.00  0.00     0.201 C 
BRANCH  15  16
HETATM   16  N1  UNL     1       3.667  29.335   3.585  1.00  0.00    -0.059 N 
HETATM   17  C6  UNL     1       4.504  28.290   4.059  1.00  0.00     0.277 C 
HETATM   18  C7  UNL     1       4.445  30.569   3.392  1.00  0.00     0.277 C 
HETATM   19  C8  UNL     1       3.416  28.939   2.137  1.00  0.00     0.277 C 
ENDBRANCH  15  16
ENDBRANCH  14  15
ENDBRANCH  13  14
ENDBRANCH  11  13
ENDBRANCH   8  11
ENDBRANCH   6   7
ENDBRANCH   5   6
ENDBRANCH   1   5
BRANCH   1  20
HETATM   20  C12 UNL     1      -2.333  29.296  -0.576  1.00  0.00     0.359 C 
BRANCH  20  21
HETATM   21  C13 UNL     1      -2.405  29.262   0.885  1.00  0.00    -0.074 C 
HETATM   22  C14 UNL     1      -2.464  29.210   2.106  1.00  0.00    -0.069 C 
BRANCH  22  23
HETATM   23  C15 UNL     1      -2.514  29.163   3.573  1.00  0.00     0.257 C 
HETATM   24  N4  UNL     1      -2.844  27.834   4.027  1.00  0.00    -0.336 N 
HETATM   25  C16 UNL     1      -4.051  27.589   4.723  1.00  0.00     0.241 C 
ATOM     26  H4  UNL     1      -2.200  27.063   3.844  1.00  0.00     0.164 HD
HETATM   27  O2  UNL     1      -4.165  26.616   5.546  1.00  0.00    -0.271 OA
HETATM   28  C17 UNL     1      -5.202  28.489   4.484  1.00  0.00     0.172 C 
HETATM   29  C18 UNL     1      -5.957  27.976   3.282  1.00  0.00     0.042 C 
HETATM   30  N5  UNL     1      -4.800  29.869   4.332  1.00  0.00    -0.346 N 
HETATM   31  C19 UNL     1      -3.471  30.179   4.022  1.00  0.00     0.253 C 
ATOM     32  H5  UNL     1      -5.485  30.616   4.451  1.00  0.00     0.163 HD
HETATM   33  O3  UNL     1      -3.103  31.378   4.139  1.00  0.00    -0.270 OA
ENDBRANCH  22  23
ENDBRANCH  20  21
ENDBRANCH   1  20
BRANCH   4  34
HETATM   34  N8  UNL     1      -1.930  29.214  -3.266  1.00  0.00    -0.032 N 
ATOM     35  H83 UNL     1      -1.804  29.028  -4.261  1.00  0.00     0.278 HD
ATOM     36  H82 UNL     1      -2.948  29.267  -3.213  1.00  0.00     0.278 HD
ATOM     37  H81 UNL     1      -1.529  30.123  -3.035  1.00  0.00     0.278 HD
ENDBRANCH   4  34
TORSDOF 12
ENDMDL
MODEL 3
REMARK VINA RESULT: -8.171350829     10.772     13.273
REMARK  12 active torsions:
REMARK  status: ('A' for Active; 'I' for Inactive)
REMARK    1  A    between atoms: C2_2  and  C3_3 
REMARK    2  A    between atoms: C2_2  and  N2_10 
REMARK    3  A    between atoms: C3_3  and  C4_4 
REMARK    4  A    between atoms: C4_4  and  C5_5 
REMARK    5  A    between atoms: C5_5  and  N1_6 
REMARK       I    between atoms: N2_10  and  C9_12 
REMARK    6  A    between atoms: C9_12  and  C10_14 
REMARK    7  A    between atoms: C10_14  and  C11_15 
REMARK    8  A    between atoms: C11_15  and  N3_16 
REMARK    9  A    between atoms: N3_16  and  C12_17 
REMARK   10  A    between atoms: C12_17  and  C13_18 
REMARK   11  A    between atoms: C14_19  and  C15_20 
REMARK   12  A    between atoms: C20_33  and  N8_34 
ROOT
HETATM    1  N3  UNL     1      -1.328  29.205   1.056  1.00  0.00     0.081 N 
HETATM    2  N6  UNL     1      -1.786  29.802   2.218  1.00  0.00     0.072 NA
HETATM    3  N7  UNL     1      -2.997  30.076   1.616  1.00  0.00    -0.057 NA
HETATM    4  C20 UNL     1      -2.596  29.341   0.453  1.00  0.00     0.519 C 
ENDROOT
BRANCH   1   5
HETATM    5  C11 UNL     1      -0.888  27.857   1.353  1.00  0.00     0.276 C 
BRANCH   5   6
HETATM    6  C10 UNL     1      -1.766  26.821   0.691  1.00  0.00     0.132 C 
BRANCH   6   7
HETATM    7  C9  UNL     1      -2.633  26.133   1.662  1.00  0.00     0.219 C 
HETATM    8  N2  UNL     1      -3.305  26.845   2.687  1.00  0.00    -0.354 N 
ATOM      9  H2  UNL     1      -3.184  27.856   2.752  1.00  0.00     0.163 HD
HETATM   10  O1  UNL     1      -2.808  24.886   1.612  1.00  0.00    -0.274 OA
BRANCH   8  11
HETATM   11  C2  UNL     1      -4.184  26.154   3.670  1.00  0.00     0.103 C 
HETATM   12  C1  UNL     1      -3.753  26.662   5.031  1.00  0.00     0.036 C 
BRANCH  11  13
HETATM   13  C3  UNL     1      -5.561  26.490   3.311  1.00  0.00    -0.001 C 
BRANCH  13  14
HETATM   14  C4  UNL     1      -6.295  27.657   3.765  1.00  0.00     0.023 C 
BRANCH  14  15
HETATM   15  C5  UNL     1      -6.416  28.872   2.967  1.00  0.00     0.201 C 
BRANCH  15  16
HETATM   16  N1  UNL     1      -7.263  29.954   3.187  1.00  0.00    -0.059 N 
HETATM   17  C6  UNL     1      -7.030  31.182   2.514  1.00  0.00     0.277 C 
HETATM   18  C7  UNL     1      -7.620  30.199   4.594  1.00  0.00     0.277 C 
HETATM   19  C8  UNL     1      -8.611  29.513   2.635  1.00  0.00     0.277 C 
ENDBRANCH  15  16
ENDBRANCH  14  15
ENDBRANCH  13  14
ENDBRANCH  11  13
ENDBRANCH   8  11
ENDBRANCH   6   7
ENDBRANCH   5   6
ENDBRANCH   1   5
BRANCH   1  20
HETATM   20  C12 UNL     1      -0.247  29.988   0.483  1.00  0.00     0.359 C 
BRANCH  20  21
HETATM   21  C13 UNL     1       0.875  30.107   1.414  1.00  0.00    -0.074 C 
HETATM   22  C14 UNL     1       1.818  30.227   2.184  1.00  0.00    -0.069 C 
BRANCH  22  23
HETATM   23  C15 UNL     1       2.933  30.368   3.129  1.00  0.00     0.257 C 
HETATM   24  N4  UNL     1       3.961  29.394   2.849  1.00  0.00    -0.336 N 
HETATM   25  C16 UNL     1       4.271  28.384   3.789  1.00  0.00     0.241 C 
ATOM     26  H4  UNL     1       4.468  29.435   1.964  1.00  0.00     0.164 HD
HETATM   27  O2  UNL     1       5.430  27.842   3.833  1.00  0.00    -0.271 OA
HETATM   28  C17 UNL     1       3.220  27.952   4.738  1.00  0.00     0.172 C 
HETATM   29  C18 UNL     1       2.396  26.879   4.070  1.00  0.00     0.042 C 
HETATM   30  N5  UNL     1       2.411  29.055   5.204  1.00  0.00    -0.346 N 
HETATM   31  C19 UNL     1       2.389  30.257   4.485  1.00  0.00     0.253 C 
ATOM     32  H5  UNL     1       1.858  28.959   6.056  1.00  0.00     0.163 HD
HETATM   33  O3  UNL     1       1.879  31.266   5.041  1.00  0.00    -0.270 OA
ENDBRANCH  22  23
ENDBRANCH  20  21
ENDBRANCH   1  20
BRANCH   4  34
HETATM   34  N8  UNL     1      -2.657  30.111  -0.776  1.00  0.00    -0.032 N 
ATOM     35  H83 UNL     1      -3.035  31.038  -0.579  1.00  0.00     0.278 HD
ATOM     36  H82 UNL     1      -1.712  30.353  -1.074  1.00  0.00     0.278 HD
ATOM     37  H81 UNL     1      -3.166  29.694  -1.555  1.00  0.00     0.278 HD
ENDBRANCH   4  34
TORSDOF 12
ENDMDL
MODEL 4
REMARK VINA RESULT: -8.156531127     10.693     14.941
REMARK  12 active torsions:
REMARK  status: ('A' for Active; 'I' for Inactive)
REMARK    1  A    between atoms: C2_2  and  C3_3 
REMARK    2  A    between atoms: C2_2  and  N2_10 
REMARK    3  A    between atoms: C3_3  and  C4_4 
REMARK    4  A    between atoms: C4_4  and  C5_5 
REMARK    5  A    between atoms: C5_5  and  N1_6 
REMARK       I    between atoms: N2_10  and  C9_12 
REMARK    6  A    between atoms: C9_12  and  C10_14 
REMARK    7  A    between atoms: C10_14  and  C11_15 
REMARK    8  A    between atoms: C11_15  and  N3_16 
REMARK    9  A    between atoms: N3_16  and  C12_17 
REMARK   10  A    between atoms: C12_17  and  C13_18 
REMARK   11  A    between atoms: C14_19  and  C15_20 
REMARK   12  A    between atoms: C20_33  and  N8_34 
ROOT
HETATM    1  N3  UNL     1      -2.819  29.025   1.384  1.00  0.00     0.081 N 
HETATM    2  N6  UNL     1      -4.070  29.471   0.997  1.00  0.00     0.072 NA
HETATM    3  N7  UNL     1      -3.566  29.868  -0.224  1.00  0.00    -0.057 NA
HETATM    4  C20 UNL     1      -2.298  29.287   0.099  1.00  0.00     0.519 C 
ENDROOT
BRANCH   1   5
HETATM    5  C11 UNL     1      -2.909  27.634   1.779  1.00  0.00     0.276 C 
BRANCH   5   6
HETATM    6  C10 UNL     1      -2.398  26.709   0.701  1.00  0.00     0.132 C 
BRANCH   6   7
HETATM    7  C9  UNL     1      -1.431  25.731   1.227  1.00  0.00     0.219 C 
HETATM    8  N2  UNL     1      -0.100  26.103   1.541  1.00  0.00    -0.354 N 
ATOM      9  H2  UNL     1       0.193  27.070   1.398  1.00  0.00     0.163 HD
HETATM   10  O1  UNL     1      -1.757  24.528   1.419  1.00  0.00    -0.274 OA
BRANCH   8  11
HETATM   11  C2  UNL     1       0.881  25.118   2.074  1.00  0.00     0.103 C 
HETATM   12  C1  UNL     1       2.015  25.086   1.070  1.00  0.00     0.036 C 
BRANCH  11  13
HETATM   13  C3  UNL     1       1.269  25.590   3.404  1.00  0.00    -0.001 C 
BRANCH  13  14
HETATM   14  C4  UNL     1       2.408  26.437   3.704  1.00  0.00     0.023 C 
BRANCH  14  15
HETATM   15  C5  UNL     1       2.291  27.877   3.901  1.00  0.00     0.201 C 
BRANCH  15  16
HETATM   16  N1  UNL     1       3.106  28.877   3.379  1.00  0.00    -0.059 N 
HETATM   17  C6  UNL     1       4.481  28.924   3.734  1.00  0.00     0.277 C 
HETATM   18  C7  UNL     1       2.527  30.231   3.387  1.00  0.00     0.277 C 
HETATM   19  C8  UNL     1       3.149  28.605   1.882  1.00  0.00     0.277 C 
ENDBRANCH  15  16
ENDBRANCH  14  15
ENDBRANCH  13  14
ENDBRANCH  11  13
ENDBRANCH   8  11
ENDBRANCH   6   7
ENDBRANCH   5   6
ENDBRANCH   1   5
BRANCH   1  20
HETATM   20  C12 UNL     1      -2.310  29.841   2.472  1.00  0.00     0.359 C 
BRANCH  20  21
HETATM   21  C13 UNL     1      -3.329  30.051   3.500  1.00  0.00    -0.074 C 
HETATM   22  C14 UNL     1      -4.197  30.230   4.343  1.00  0.00    -0.069 C 
BRANCH  22  23
HETATM   23  C15 UNL     1      -5.234  30.421   5.366  1.00  0.00     0.257 C 
HETATM   24  N4  UNL     1      -5.746  29.148   5.812  1.00  0.00    -0.336 N 
HETATM   25  C16 UNL     1      -7.096  28.792   5.579  1.00  0.00     0.241 C 
ATOM     26  H4  UNL     1      -5.129  28.498   6.300  1.00  0.00     0.164 HD
HETATM   27  O2  UNL     1      -7.712  27.967   6.338  1.00  0.00    -0.271 OA
HETATM   28  C17 UNL     1      -7.798  29.398   4.425  1.00  0.00     0.172 C 
HETATM   29  C18 UNL     1      -7.515  28.553   3.207  1.00  0.00     0.042 C 
HETATM   30  N5  UNL     1      -7.442  30.784   4.228  1.00  0.00    -0.346 N 
HETATM   31  C19 UNL     1      -6.269  31.291   4.799  1.00  0.00     0.253 C 
ATOM     32  H5  UNL     1      -8.045  31.393   3.673  1.00  0.00     0.163 HD
HETATM   33  O3  UNL     1      -6.115  32.541   4.817  1.00  0.00    -0.270 OA
ENDBRANCH  22  23
ENDBRANCH  20  21
ENDBRANCH   1  20
BRANCH   4  34
HETATM   34  N8  UNL     1      -1.189  30.221   0.021  1.00  0.00    -0.032 N 
ATOM     35  H83 UNL     1      -1.516  31.158   0.256  1.00  0.00     0.278 HD
ATOM     36  H82 UNL     1      -0.543  30.049   0.792  1.00  0.00     0.278 HD
ATOM     37  H81 UNL     1      -0.673  30.250  -0.858  1.00  0.00     0.278 HD
ENDBRANCH   4  34
TORSDOF 12
ENDMDL
MODEL 5
REMARK VINA RESULT: -8.112250045     10.676     15.237
REMARK  12 active torsions:
REMARK  status: ('A' for Active; 'I' for Inactive)
REMARK    1  A    between atoms: C2_2  and  C3_3 
REMARK    2  A    between atoms: C2_2  and  N2_10 
REMARK    3  A    between atoms: C3_3  and  C4_4 
REMARK    4  A    between atoms: C4_4  and  C5_5 
REMARK    5  A    between atoms: C5_5  and  N1_6 
REMARK       I    between atoms: N2_10  and  C9_12 
REMARK    6  A    between atoms: C9_12  and  C10_14 
REMARK    7  A    between atoms: C10_14  and  C11_15 
REMARK    8  A    between atoms: C11_15  and  N3_16 
REMARK    9  A    between atoms: N3_16  and  C12_17 
REMARK   10  A    between atoms: C12_17  and  C13_18 
REMARK   11  A    between atoms: C14_19  and  C15_20 
REMARK   12  A    between atoms: C20_33  and  N8_34 
ROOT
HETATM    1  N3  UNL     1      -2.681  28.966   1.340  1.00  0.00     0.081 N 
HETATM    2  N6  UNL     1      -3.896  29.440   0.877  1.00  0.00     0.072 NA
HETATM    3  N7  UNL     1      -3.316  29.794  -0.324  1.00  0.00    -0.057 NA
HETATM    4  C20 UNL     1      -2.085  29.184   0.081  1.00  0.00     0.519 C 
ENDROOT
BRANCH   1   5
HETATM    5  C11 UNL     1      -2.836  27.588   1.760  1.00  0.00     0.276 C 
BRANCH   5   6
HETATM    6  C10 UNL     1      -2.382  26.622   0.692  1.00  0.00     0.132 C 
BRANCH   6   7
HETATM    7  C9  UNL     1      -1.406  25.649   1.209  1.00  0.00     0.219 C 
HETATM    8  N2  UNL     1      -0.074  26.028   1.510  1.00  0.00    -0.354 N 
ATOM      9  H2  UNL     1       0.213  26.997   1.366  1.00  0.00     0.163 HD
HETATM   10  O1  UNL     1      -1.722  24.444   1.402  1.00  0.00    -0.274 OA
BRANCH   8  11
HETATM   11  C2  UNL     1       0.918  25.048   2.034  1.00  0.00     0.103 C 
HETATM   12  C1  UNL     1       2.026  24.997   1.002  1.00  0.00     0.036 C 
BRANCH  11  13
HETATM   13  C3  UNL     1       1.340  25.539   3.346  1.00  0.00    -0.001 C 
BRANCH  13  14
HETATM   14  C4  UNL     1       0.853  26.741   3.998  1.00  0.00     0.023 C 
BRANCH  14  15
HETATM   15  C5  UNL     1       1.703  27.897   4.257  1.00  0.00     0.201 C 
BRANCH  15  16
HETATM   16  N1  UNL     1       2.717  28.014   5.203  1.00  0.00    -0.059 N 
HETATM   17  C6  UNL     1       4.035  27.592   4.883  1.00  0.00     0.277 C 
HETATM   18  C7  UNL     1       2.359  27.588   6.566  1.00  0.00     0.277 C 
HETATM   19  C8  UNL     1       2.881  29.512   5.417  1.00  0.00     0.277 C 
ENDBRANCH  15  16
ENDBRANCH  14  15
ENDBRANCH  13  14
ENDBRANCH  11  13
ENDBRANCH   8  11
ENDBRANCH   6   7
ENDBRANCH   5   6
ENDBRANCH   1   5
BRANCH   1  20
HETATM   20  C12 UNL     1      -2.206  29.792   2.437  1.00  0.00     0.359 C 
BRANCH  20  21
HETATM   21  C13 UNL     1      -3.253  29.999   3.438  1.00  0.00    -0.074 C 
HETATM   22  C14 UNL     1      -4.121  30.153   4.285  1.00  0.00    -0.069 C 
BRANCH  22  23
HETATM   23  C15 UNL     1      -5.154  30.361   5.309  1.00  0.00     0.257 C 
HETATM   24  N4  UNL     1      -5.700  29.097   5.743  1.00  0.00    -0.336 N 
HETATM   25  C16 UNL     1      -7.057  28.779   5.505  1.00  0.00     0.241 C 
ATOM     26  H4  UNL     1      -5.100  28.427   6.225  1.00  0.00     0.164 HD
HETATM   27  O2  UNL     1      -7.696  27.963   6.256  1.00  0.00    -0.271 OA
HETATM   28  C17 UNL     1      -7.743  29.413   4.356  1.00  0.00     0.172 C 
HETATM   29  C18 UNL     1      -7.480  28.573   3.131  1.00  0.00     0.042 C 
HETATM   30  N5  UNL     1      -7.351  30.792   4.172  1.00  0.00    -0.346 N 
HETATM   31  C19 UNL     1      -6.165  31.263   4.749  1.00  0.00     0.253 C 
ATOM     32  H5  UNL     1      -7.937  31.421   3.623  1.00  0.00     0.163 HD
HETATM   33  O3  UNL     1      -5.979  32.508   4.779  1.00  0.00    -0.270 OA
ENDBRANCH  22  23
ENDBRANCH  20  21
ENDBRANCH   1  20
BRANCH   4  34
HETATM   34  N8  UNL     1      -0.945  30.082   0.042  1.00  0.00    -0.032 N 
ATOM     35  H83 UNL     1      -1.111  30.870   0.669  1.00  0.00     0.278 HD
ATOM     36  H82 UNL     1      -0.148  29.641   0.501  1.00  0.00     0.278 HD
ATOM     37  H81 UNL     1      -0.664  30.429  -0.874  1.00  0.00     0.278 HD
ENDBRANCH   4  34
TORSDOF 12
ENDMDL
