MODEL 1
REMARK VINA RESULT: -8.049988644      0.000      0.000
REMARK  5 active torsions:
REMARK  status: ('A' for Active; 'I' for Inactive)
REMARK    1  A    between atoms: C5_7  and  O1_8 
REMARK    2  A    between atoms: O1_8  and  C6_9 
REMARK    3  A    between atoms: C9_19  and  C10_20 
REMARK       I    between atoms: C10_20  and  N5_22 
REMARK    4  A    between atoms: N5_22  and  C11_24 
REMARK    5  A    between atoms: N7_33  and  C18_34 
ROOT
HETATM    1  N1  UNL     1     -12.841   5.989  -6.094  1.00  0.00    -0.197 NA
HETATM    2  C1  UNL     1     -12.301   5.527  -5.163  1.00  0.00     0.069 C 
HETATM    3  C2  UNL     1     -11.630   4.963  -3.988  1.00  0.00     0.156 C 
HETATM    4  C3  UNL     1     -11.671   3.433  -4.093  1.00  0.00     0.192 C 
HETATM    5  F1  UNL     1     -10.787   2.907  -3.189  1.00  0.00    -0.248 F 
HETATM    6  C4  UNL     1     -13.060   3.522  -3.452  1.00  0.00     0.072 C 
HETATM    7  C5  UNL     1     -12.570   4.819  -2.796  1.00  0.00     0.155 C 
ENDROOT
BRANCH   7   8
HETATM    8  O1  UNL     1     -13.552   5.809  -2.691  1.00  0.00    -0.315 OA
BRANCH   8   9
HETATM    9  C6  UNL     1     -13.474   6.714  -1.648  1.00  0.00     0.227 A 
HETATM   10  N2  UNL     1     -12.331   7.020  -1.023  1.00  0.00    -0.306 N 
HETATM   11  C7  UNL     1     -12.322   7.910  -0.013  1.00  0.00     0.133 A 
ATOM     12  H2  UNL     1     -11.461   6.574  -1.314  1.00  0.00     0.171 HD
HETATM   13  N3  UNL     1     -11.250   8.238   0.621  1.00  0.00    -0.383 N 
HETATM   14  C8  UNL     1     -13.492   8.532   0.402  1.00  0.00     0.123 A 
ATOM     15  H32 UNL     1     -10.390   7.781   0.316  1.00  0.00     0.157 HD
ATOM     16  H31 UNL     1     -11.243   8.913   1.386  1.00  0.00     0.157 HD
HETATM   17  N4  UNL     1     -13.780   9.416   1.350  1.00  0.00    -0.332 N 
HETATM   18  C21 UNL     1     -14.660   8.212  -0.248  1.00  0.00     0.144 A 
HETATM   19  C9  UNL     1     -15.123   9.696   1.348  1.00  0.00     0.179 A 
ATOM     20  H4  UNL     1     -13.099   9.828   1.989  1.00  0.00     0.168 HD
HETATM   21  N7  UNL     1     -15.630   8.954   0.366  1.00  0.00    -0.302 N 
HETATM   22  N8  UNL     1     -14.606   7.316  -1.247  1.00  0.00    -0.306 N 
ATOM     23  H8  UNL     1     -15.473   7.080  -1.728  1.00  0.00     0.171 HD
BRANCH  19  24
HETATM   24  C10 UNL     1     -15.765  10.628   2.263  1.00  0.00     0.286 C 
HETATM   25  O2  UNL     1     -15.806  10.328   3.523  1.00  0.00    -0.264 OA
HETATM   26  N5  UNL     1     -16.365  11.841   1.931  1.00  0.00    -0.350 N 
ATOM     27  H5  UNL     1     -16.380  12.138   0.956  1.00  0.00     0.163 HD
BRANCH  26  28
HETATM   28  C11 UNL     1     -16.972  12.697   2.946  1.00  0.00     0.085 C 
HETATM   29  C12 UNL     1     -16.337  14.072   2.883  1.00  0.00     0.029 C 
HETATM   30  C13 UNL     1     -17.282  15.139   3.393  1.00  0.00     0.061 C 
HETATM   31  C14 UNL     1     -18.231  14.611   4.429  1.00  0.00     0.191 C 
HETATM   32  F2  UNL     1     -19.112  15.648   4.733  1.00  0.00    -0.227 F 
HETATM   33  C15 UNL     1     -17.534  14.301   5.688  1.00  0.00     0.103 C 
HETATM   34  C16 UNL     1     -19.053  13.446   3.972  1.00  0.00     0.061 C 
HETATM   35  N6  UNL     1     -16.978  14.051   6.660  1.00  0.00    -0.194 NA
HETATM   36  C17 UNL     1     -18.453  12.891   2.699  1.00  0.00     0.029 C 
ENDBRANCH  26  28
ENDBRANCH  19  24
BRANCH  21  37
HETATM   37  C18 UNL     1     -17.019   8.934  -0.096  1.00  0.00     0.171 A 
HETATM   38  C19 UNL     1     -17.242   8.736  -1.578  1.00  0.00     0.113 A 
HETATM   39  C20 UNL     1     -17.471  10.107  -0.947  1.00  0.00     0.266 A 
HETATM   40  F3  UNL     1     -16.533  11.098  -1.260  1.00  0.00    -0.204 F 
HETATM   41  F4  UNL     1     -18.780  10.519  -0.845  1.00  0.00    -0.204 F 
ENDBRANCH  21  37
ENDBRANCH   8   9
ENDBRANCH   7   8
TORSDOF 5
ENDMDL
MODEL 2
REMARK VINA RESULT: -7.892355052      4.414      7.509
REMARK  5 active torsions:
REMARK  status: ('A' for Active; 'I' for Inactive)
REMARK    1  A    between atoms: C5_7  and  O1_8 
REMARK    2  A    between atoms: O1_8  and  C6_9 
REMARK    3  A    between atoms: C9_19  and  C10_20 
REMARK       I    between atoms: C10_20  and  N5_22 
REMARK    4  A    between atoms: N5_22  and  C11_24 
REMARK    5  A    between atoms: N7_33  and  C18_34 
ROOT
HETATM    1  N1  UNL     1      -7.643  -0.889  -6.851  1.00  0.00    -0.197 NA
HETATM    2  C1  UNL     1      -6.786  -0.306  -6.305  1.00  0.00     0.069 C 
HETATM    3  C2  UNL     1      -5.724   0.436  -5.620  1.00  0.00     0.156 C 
HETATM    4  C3  UNL     1      -4.903  -0.552  -4.782  1.00  0.00     0.192 C 
HETATM    5  F1  UNL     1      -3.737   0.058  -4.401  1.00  0.00    -0.248 F 
HETATM    6  C4  UNL     1      -5.959  -0.355  -3.689  1.00  0.00     0.072 C 
HETATM    7  C5  UNL     1      -6.191   1.034  -4.298  1.00  0.00     0.155 C 
ENDROOT
BRANCH   7   8
HETATM    8  O1  UNL     1      -7.527   1.448  -4.273  1.00  0.00    -0.315 OA
BRANCH   8   9
HETATM    9  C6  UNL     1      -7.905   2.417  -3.361  1.00  0.00     0.227 A 
HETATM   10  N2  UNL     1      -7.237   2.660  -2.227  1.00  0.00    -0.306 N 
HETATM   11  C7  UNL     1      -7.657   3.618  -1.379  1.00  0.00     0.133 A 
ATOM     12  H2  UNL     1      -6.403   2.116  -2.004  1.00  0.00     0.171 HD
HETATM   13  N3  UNL     1      -7.051   3.891  -0.276  1.00  0.00    -0.383 N 
HETATM   14  C8  UNL     1      -8.788   4.374  -1.658  1.00  0.00     0.123 A 
ATOM     15  H32 UNL     1      -6.220   3.335  -0.071  1.00  0.00     0.157 HD
ATOM     16  H31 UNL     1      -7.369   4.617   0.367  1.00  0.00     0.157 HD
HETATM   17  N4  UNL     1      -9.426   5.348  -1.020  1.00  0.00    -0.332 N 
HETATM   18  C21 UNL     1      -9.465   4.117  -2.825  1.00  0.00     0.144 A 
HETATM   19  C9  UNL     1     -10.523   5.750  -1.741  1.00  0.00     0.179 A 
ATOM     20  H4  UNL     1      -9.142   5.741  -0.123  1.00  0.00     0.168 HD
HETATM   21  N7  UNL     1     -10.519   4.988  -2.832  1.00  0.00    -0.302 N 
HETATM   22  N8  UNL     1      -8.999   3.149  -3.631  1.00  0.00    -0.306 N 
ATOM     23  H8  UNL     1      -9.503   2.958  -4.496  1.00  0.00     0.171 HD
BRANCH  19  24
HETATM   24  C10 UNL     1     -11.436   6.802  -1.320  1.00  0.00     0.286 C 
HETATM   25  O2  UNL     1     -11.279   7.991  -1.813  1.00  0.00    -0.264 OA
HETATM   26  N5  UNL     1     -12.491   6.678  -0.418  1.00  0.00    -0.350 N 
ATOM     27  H5  UNL     1     -12.668   5.773   0.018  1.00  0.00     0.163 HD
BRANCH  26  28
HETATM   28  C11 UNL     1     -13.347   7.811  -0.082  1.00  0.00     0.085 C 
HETATM   29  C12 UNL     1     -14.728   7.582  -0.663  1.00  0.00     0.029 C 
HETATM   30  C13 UNL     1     -15.788   8.314   0.133  1.00  0.00     0.061 C 
HETATM   31  C14 UNL     1     -15.257   9.560   0.778  1.00  0.00     0.191 C 
HETATM   32  F2  UNL     1     -16.287  10.077   1.564  1.00  0.00    -0.227 F 
HETATM   33  C15 UNL     1     -14.963  10.600  -0.222  1.00  0.00     0.103 C 
HETATM   34  C16 UNL     1     -14.080   9.334   1.676  1.00  0.00     0.061 C 
HETATM   35  N6  UNL     1     -14.725  11.397  -1.011  1.00  0.00    -0.194 NA
HETATM   36  C17 UNL     1     -13.524   7.951   1.416  1.00  0.00     0.029 C 
ENDBRANCH  26  28
ENDBRANCH  19  24
BRANCH  21  37
HETATM   37  C18 UNL     1     -11.446   5.062  -3.962  1.00  0.00     0.171 A 
HETATM   38  C19 UNL     1     -12.921   5.099  -3.634  1.00  0.00     0.113 A 
HETATM   39  C20 UNL     1     -12.301   3.836  -4.224  1.00  0.00     0.266 A 
HETATM   40  F3  UNL     1     -12.176   2.743  -3.357  1.00  0.00    -0.204 F 
HETATM   41  F4  UNL     1     -12.638   3.543  -5.526  1.00  0.00    -0.204 F 
ENDBRANCH  21  37
ENDBRANCH   8   9
ENDBRANCH   7   8
TORSDOF 5
ENDMDL
MODEL 3
REMARK VINA RESULT: -7.787392515      1.247      1.347
REMARK  5 active torsions:
REMARK  status: ('A' for Active; 'I' for Inactive)
REMARK    1  A    between atoms: C5_7  and  O1_8 
REMARK    2  A    between atoms: O1_8  and  C6_9 
REMARK    3  A    between atoms: C9_19  and  C10_20 
REMARK       I    between atoms: C10_20  and  N5_22 
REMARK    4  A    between atoms: N5_22  and  C11_24 
REMARK    5  A    between atoms: N7_33  and  C18_34 
ROOT
HETATM    1  N1  UNL     1     -13.680   4.611  -4.643  1.00  0.00    -0.197 NA
HETATM    2  C1  UNL     1     -12.633   5.080  -4.403  1.00  0.00     0.069 C 
HETATM    3  C2  UNL     1     -11.331   5.675  -4.089  1.00  0.00     0.156 C 
HETATM    4  C3  UNL     1     -10.234   4.679  -4.484  1.00  0.00     0.192 C 
HETATM    5  F1  UNL     1      -9.030   5.333  -4.498  1.00  0.00    -0.248 F 
HETATM    6  C4  UNL     1     -10.449   4.043  -3.106  1.00  0.00     0.072 C 
HETATM    7  C5  UNL     1     -10.912   5.430  -2.644  1.00  0.00     0.155 C 
ENDROOT
BRANCH   7   8
HETATM    8  O1  UNL     1     -11.961   5.400  -1.719  1.00  0.00    -0.315 OA
BRANCH   8   9
HETATM    9  C6  UNL     1     -12.093   6.451  -0.830  1.00  0.00     0.227 A 
HETATM   10  N2  UNL     1     -11.055   7.027  -0.213  1.00  0.00    -0.306 N 
HETATM   11  C7  UNL     1     -11.250   8.048   0.643  1.00  0.00     0.133 A 
ATOM     12  H2  UNL     1     -10.109   6.691  -0.392  1.00  0.00     0.171 HD
HETATM   13  N3  UNL     1     -10.286   8.636   1.263  1.00  0.00    -0.383 N 
HETATM   14  C8  UNL     1     -12.527   8.527   0.906  1.00  0.00     0.123 A 
ATOM     15  H32 UNL     1      -9.348   8.284   1.070  1.00  0.00     0.157 HD
ATOM     16  H31 UNL     1     -10.434   9.409   1.912  1.00  0.00     0.157 HD
HETATM   17  N4  UNL     1     -13.010   9.483   1.690  1.00  0.00    -0.332 N 
HETATM   18  C21 UNL     1     -13.585   7.929   0.266  1.00  0.00     0.144 A 
HETATM   19  C9  UNL     1     -14.377   9.538   1.587  1.00  0.00     0.179 A 
ATOM     20  H4  UNL     1     -12.445  10.090   2.284  1.00  0.00     0.168 HD
HETATM   21  N7  UNL     1     -14.697   8.586   0.714  1.00  0.00    -0.302 N 
HETATM   22  N8  UNL     1     -13.328   6.915  -0.576  1.00  0.00    -0.306 N 
ATOM     23  H8  UNL     1     -14.115   6.472  -1.050  1.00  0.00     0.171 HD
BRANCH  19  24
HETATM   24  C10 UNL     1     -15.215  10.479   2.315  1.00  0.00     0.286 C 
HETATM   25  O2  UNL     1     -15.396  10.290   3.585  1.00  0.00    -0.264 OA
HETATM   26  N5  UNL     1     -15.868  11.592   1.791  1.00  0.00    -0.350 N 
ATOM     27  H5  UNL     1     -15.779  11.798   0.796  1.00  0.00     0.163 HD
BRANCH  26  28
HETATM   28  C11 UNL     1     -16.677  12.470   2.630  1.00  0.00     0.085 C 
HETATM   29  C12 UNL     1     -16.082  13.864   2.612  1.00  0.00     0.029 C 
HETATM   30  C13 UNL     1     -17.136  14.916   2.884  1.00  0.00     0.061 C 
HETATM   31  C14 UNL     1     -18.245  14.401   3.753  1.00  0.00     0.191 C 
HETATM   32  F2  UNL     1     -19.197  15.417   3.836  1.00  0.00    -0.227 F 
HETATM   33  C15 UNL     1     -17.786  14.177   5.134  1.00  0.00     0.103 C 
HETATM   34  C16 UNL     1     -18.934  13.186   3.215  1.00  0.00     0.061 C 
HETATM   35  N6  UNL     1     -17.412  13.993   6.203  1.00  0.00    -0.194 NA
HETATM   36  C17 UNL     1     -18.092  12.596   2.104  1.00  0.00     0.029 C 
ENDBRANCH  26  28
ENDBRANCH  19  24
BRANCH  21  37
HETATM   37  C18 UNL     1     -16.032   8.272   0.202  1.00  0.00     0.171 A 
HETATM   38  C19 UNL     1     -16.120   7.802  -1.232  1.00  0.00     0.113 A 
HETATM   39  C20 UNL     1     -16.593   9.204  -0.858  1.00  0.00     0.266 A 
HETATM   40  F3  UNL     1     -15.791  10.266  -1.296  1.00  0.00    -0.204 F 
HETATM   41  F4  UNL     1     -17.952   9.416  -0.885  1.00  0.00    -0.204 F 
ENDBRANCH  21  37
ENDBRANCH   8   9
ENDBRANCH   7   8
TORSDOF 5
ENDMDL
MODEL 4
REMARK VINA RESULT: -7.584730979      3.496     10.933
REMARK  5 active torsions:
REMARK  status: ('A' for Active; 'I' for Inactive)
REMARK    1  A    between atoms: C5_7  and  O1_8 
REMARK    2  A    between atoms: O1_8  and  C6_9 
REMARK    3  A    between atoms: C9_19  and  C10_20 
REMARK       I    between atoms: C10_20  and  N5_22 
REMARK    4  A    between atoms: N5_22  and  C11_24 
REMARK    5  A    between atoms: N7_33  and  C18_34 
ROOT
HETATM    1  N1  UNL     1     -18.510  10.842  -0.312  1.00  0.00    -0.197 NA
HETATM    2  C1  UNL     1     -17.825  11.053   0.614  1.00  0.00     0.069 C 
HETATM    3  C2  UNL     1     -16.962  11.302   1.773  1.00  0.00     0.156 C 
HETATM    4  C3  UNL     1     -16.522  12.771   1.744  1.00  0.00     0.192 C 
HETATM    5  F1  UNL     1     -15.992  13.094   2.965  1.00  0.00    -0.248 F 
HETATM    6  C4  UNL     1     -15.397  12.317   0.807  1.00  0.00     0.072 C 
HETATM    7  C5  UNL     1     -15.504  10.951   1.497  1.00  0.00     0.155 C 
ENDROOT
BRANCH   7   8
HETATM    8  O1  UNL     1     -15.307   9.864   0.639  1.00  0.00    -0.315 OA
BRANCH   8   9
HETATM    9  C6  UNL     1     -14.089   9.210   0.665  1.00  0.00     0.227 A 
HETATM   10  N2  UNL     1     -13.258   9.242   1.714  1.00  0.00    -0.306 N 
HETATM   11  C7  UNL     1     -12.085   8.583   1.678  1.00  0.00     0.133 A 
ATOM     12  H2  UNL     1     -13.517   9.769   2.548  1.00  0.00     0.171 HD
HETATM   13  N3  UNL     1     -11.251   8.583   2.659  1.00  0.00    -0.383 N 
HETATM   14  C8  UNL     1     -11.708   7.856   0.556  1.00  0.00     0.123 A 
ATOM     15  H32 UNL     1     -11.528   9.117   3.483  1.00  0.00     0.157 HD
ATOM     16  H31 UNL     1     -10.361   8.084   2.631  1.00  0.00     0.157 HD
HETATM   17  N4  UNL     1     -10.637   7.139   0.239  1.00  0.00    -0.332 N 
HETATM   18  C21 UNL     1     -12.568   7.829  -0.515  1.00  0.00     0.144 A 
HETATM   19  C9  UNL     1     -10.764   6.629  -1.029  1.00  0.00     0.179 A 
ATOM     20  H4  UNL     1      -9.835   6.989   0.851  1.00  0.00     0.168 HD
HETATM   21  N7  UNL     1     -11.946   7.062  -1.460  1.00  0.00    -0.302 N 
HETATM   22  N8  UNL     1     -13.724   8.506  -0.420  1.00  0.00    -0.306 N 
ATOM     23  H8  UNL     1     -14.362   8.485  -1.215  1.00  0.00     0.171 HD
BRANCH  19  24
HETATM   24  C10 UNL     1      -9.763   5.796  -1.678  1.00  0.00     0.286 C 
HETATM   25  O2  UNL     1      -9.396   6.097  -2.885  1.00  0.00    -0.264 OA
HETATM   26  N5  UNL     1      -9.136   4.674  -1.140  1.00  0.00    -0.350 N 
ATOM     27  H5  UNL     1      -9.382   4.371  -0.198  1.00  0.00     0.163 HD
BRANCH  26  28
HETATM   28  C11 UNL     1      -8.136   3.922  -1.891  1.00  0.00     0.085 C 
HETATM   29  C12 UNL     1      -6.754   4.297  -1.395  1.00  0.00     0.029 C 
HETATM   30  C13 UNL     1      -5.764   3.174  -1.622  1.00  0.00     0.061 C 
HETATM   31  C14 UNL     1      -6.117   2.336  -2.816  1.00  0.00     0.191 C 
HETATM   32  F2  UNL     1      -5.205   1.281  -2.850  1.00  0.00    -0.227 F 
HETATM   33  C15 UNL     1      -5.913   3.076  -4.071  1.00  0.00     0.103 C 
HETATM   34  C16 UNL     1      -7.489   1.739  -2.763  1.00  0.00     0.061 C 
HETATM   35  N6  UNL     1      -5.763   3.668  -5.042  1.00  0.00    -0.194 NA
HETATM   36  C17 UNL     1      -8.283   2.430  -1.677  1.00  0.00     0.029 C 
ENDBRANCH  26  28
ENDBRANCH  19  24
BRANCH  21  37
HETATM   37  C18 UNL     1     -12.590   6.742  -2.735  1.00  0.00     0.171 A 
HETATM   38  C19 UNL     1     -14.098   6.655  -2.735  1.00  0.00     0.113 A 
HETATM   39  C20 UNL     1     -13.260   5.385  -2.840  1.00  0.00     0.266 A 
HETATM   40  F3  UNL     1     -13.251   4.553  -1.712  1.00  0.00    -0.204 F 
HETATM   41  F4  UNL     1     -13.263   4.752  -4.062  1.00  0.00    -0.204 F 
ENDBRANCH  21  37
ENDBRANCH   8   9
ENDBRANCH   7   8
TORSDOF 5
ENDMDL
MODEL 5
REMARK VINA RESULT: -7.520640111      4.197     10.568
REMARK  5 active torsions:
REMARK  status: ('A' for Active; 'I' for Inactive)
REMARK    1  A    between atoms: C5_7  and  O1_8 
REMARK    2  A    between atoms: O1_8  and  C6_9 
REMARK    3  A    between atoms: C9_19  and  C10_20 
REMARK       I    between atoms: C10_20  and  N5_22 
REMARK    4  A    between atoms: N5_22  and  C11_24 
REMARK    5  A    between atoms: N7_33  and  C18_34 
ROOT
HETATM    1  N1  UNL     1     -19.007  10.680  -0.137  1.00  0.00    -0.197 NA
HETATM    2  C1  UNL     1     -18.378  10.290  -1.045  1.00  0.00     0.069 C 
HETATM    3  C2  UNL     1     -17.577   9.804  -2.173  1.00  0.00     0.156 C 
HETATM    4  C3  UNL     1     -18.375   8.715  -2.902  1.00  0.00     0.192 C 
HETATM    5  F1  UNL     1     -17.792   8.485  -4.120  1.00  0.00    -0.248 F 
HETATM    6  C4  UNL     1     -17.799   7.738  -1.870  1.00  0.00     0.072 C 
HETATM    7  C5  UNL     1     -16.609   8.700  -1.766  1.00  0.00     0.155 C 
ENDROOT
BRANCH   7   8
HETATM    8  O1  UNL     1     -16.085   8.816  -0.474  1.00  0.00    -0.315 OA
BRANCH   8   9
HETATM    9  C6  UNL     1     -14.787   8.398  -0.243  1.00  0.00     0.227 A 
HETATM   10  N2  UNL     1     -14.132   8.630   0.901  1.00  0.00    -0.306 N 
HETATM   11  C7  UNL     1     -12.868   8.196   1.064  1.00  0.00     0.133 A 
ATOM     12  H2  UNL     1     -14.594   9.139   1.654  1.00  0.00     0.171 HD
HETATM   13  N3  UNL     1     -12.194   8.393   2.143  1.00  0.00    -0.383 N 
HETATM   14  C8  UNL     1     -12.216   7.499   0.055  1.00  0.00     0.123 A 
ATOM     15  H32 UNL     1     -12.673   8.906   2.884  1.00  0.00     0.157 HD
ATOM     16  H31 UNL     1     -11.236   8.065   2.267  1.00  0.00     0.157 HD
HETATM   17  N4  UNL     1     -11.002   6.975  -0.068  1.00  0.00    -0.332 N 
HETATM   18  C21 UNL     1     -12.899   7.265  -1.114  1.00  0.00     0.144 A 
HETATM   19  C9  UNL     1     -10.858   6.393  -1.302  1.00  0.00     0.179 A 
ATOM     20  H4  UNL     1     -10.280   7.003   0.652  1.00  0.00     0.168 HD
HETATM   21  N7  UNL     1     -12.025   6.581  -1.913  1.00  0.00    -0.302 N 
HETATM   22  N8  UNL     1     -14.157   7.723  -1.218  1.00  0.00    -0.306 N 
ATOM     23  H8  UNL     1     -14.662   7.549  -2.087  1.00  0.00     0.171 HD
BRANCH  19  24
HETATM   24  C10 UNL     1      -9.645   5.727  -1.755  1.00  0.00     0.286 C 
HETATM   25  O2  UNL     1      -8.902   6.326  -2.632  1.00  0.00    -0.264 OA
HETATM   26  N5  UNL     1      -9.178   4.480  -1.347  1.00  0.00    -0.350 N 
ATOM     27  H5  UNL     1      -9.717   3.945  -0.666  1.00  0.00     0.163 HD
BRANCH  26  28
HETATM   28  C11 UNL     1      -7.936   3.919  -1.870  1.00  0.00     0.085 C 
HETATM   29  C12 UNL     1      -6.822   4.154  -0.869  1.00  0.00     0.029 C 
HETATM   30  C13 UNL     1      -5.735   3.109  -1.000  1.00  0.00     0.061 C 
HETATM   31  C14 UNL     1      -5.616   2.583  -2.400  1.00  0.00     0.191 C 
HETATM   32  F2  UNL     1      -4.670   1.558  -2.366  1.00  0.00    -0.227 F 
HETATM   33  C15 UNL     1      -5.067   3.598  -3.312  1.00  0.00     0.103 C 
HETATM   34  C16 UNL     1      -6.883   2.002  -2.947  1.00  0.00     0.061 C 
HETATM   35  N6  UNL     1      -4.651   4.403  -4.015  1.00  0.00    -0.194 NA
HETATM   36  C17 UNL     1      -8.037   2.421  -2.062  1.00  0.00     0.029 C 
ENDBRANCH  26  28
ENDBRANCH  19  24
BRANCH  21  37
HETATM   37  C18 UNL     1     -12.417   6.091  -3.235  1.00  0.00     0.171 A 
HETATM   38  C19 UNL     1     -13.884   6.178  -3.588  1.00  0.00     0.113 A 
HETATM   39  C20 UNL     1     -13.254   4.825  -3.273  1.00  0.00     0.266 A 
HETATM   40  F3  UNL     1     -13.622   4.239  -2.055  1.00  0.00    -0.204 F 
HETATM   41  F4  UNL     1     -13.090   3.967  -4.335  1.00  0.00    -0.204 F 
ENDBRANCH  21  37
ENDBRANCH   8   9
ENDBRANCH   7   8
TORSDOF 5
ENDMDL
