MODEL 1
REMARK VINA RESULT: -6.801447457      0.000      0.000
REMARK  7 active torsions:
REMARK  status: ('A' for Active; 'I' for Inactive)
REMARK    1  A    between atoms: C2_2  and  C4_4 
REMARK    2  A    between atoms: C4_4  and  N1_5 
REMARK    3  A    between atoms: C8_9  and  N2_10 
REMARK    4  A    between atoms: N2_10  and  C9_12 
REMARK    5  A    between atoms: C13_18  and  C14_19 
REMARK    6  A    between atoms: C18_29  and  O3_30 
REMARK    7  A    between atoms: C18_29  and  C19_32 
ROOT
HETATM    1  N1  UNL     1      -8.477   3.747  -3.854  1.00  0.00     0.092 N 
HETATM    2  C5  UNL     1      -8.859   3.798  -2.442  1.00  0.00     0.277 C 
HETATM    3  C6  UNL     1      -9.398   5.111  -2.017  1.00  0.00     0.072 C 
HETATM    4  C7  UNL     1     -10.598   5.552  -2.847  1.00  0.00    -0.013 A 
HETATM    5  C8  UNL     1     -11.101   6.797  -2.656  1.00  0.00     0.042 A 
HETATM    6  C16 UNL     1     -12.179   7.134  -3.427  1.00  0.00     0.080 A 
HETATM    7  S1  UNL     1     -12.460   5.756  -4.372  1.00  0.00    -0.100 SA
HETATM    8  C17 UNL     1     -11.200   4.761  -3.773  1.00  0.00     0.036 A 
HETATM    9  C18 UNL     1     -10.915   3.351  -4.208  1.00  0.00     0.216 C 
HETATM   10  C20 UNL     1      -9.517   3.222  -4.664  1.00  0.00     0.325 C 
ENDROOT
BRANCH   5  11
HETATM   11  N2  UNL     1     -10.593   7.758  -1.690  1.00  0.00    -0.383 N 
ATOM     12  H2  UNL     1      -9.625   8.068  -1.784  1.00  0.00     0.160 HD
BRANCH  11  13
HETATM   13  C9  UNL     1     -11.371   8.293  -0.615  1.00  0.00     0.102 C 
HETATM   14  C10 UNL     1     -10.664   8.487   0.682  1.00  0.00     0.034 C 
HETATM   15  C11 UNL     1     -11.596   8.766   1.826  1.00  0.00     0.080 C 
HETATM   16  C12 UNL     1     -13.005   8.948   1.463  1.00  0.00     0.100 A 
HETATM   17  N3  UNL     1     -14.035   9.658   1.985  1.00  0.00    -0.324 N 
HETATM   18  N5  UNL     1     -13.509   8.316   0.394  1.00  0.00    -0.277 N 
HETATM   19  C13 UNL     1     -15.150   9.468   1.253  1.00  0.00     0.200 A 
ATOM     20  H3  UNL     1     -13.975  10.251   2.813  1.00  0.00     0.169 HD
HETATM   21  N4  UNL     1     -14.805   8.627   0.263  1.00  0.00    -0.276 N 
ATOM     22  H4  UNL     1     -15.427   8.283  -0.468  1.00  0.00     0.189 HD
HETATM   23  C15 UNL     1     -12.622   7.468  -0.376  1.00  0.00     0.175 C 
BRANCH  19  24
HETATM   24  C14 UNL     1     -16.464  10.041   1.477  1.00  0.00     0.246 C 
HETATM   25  O1  UNL     1     -16.702  10.701   2.515  1.00  0.00    -0.642 OA
HETATM   26  O2  UNL     1     -17.452   9.856   0.542  1.00  0.00    -0.642 OA
ENDBRANCH  19  24
ENDBRANCH  11  13
ENDBRANCH   5  11
BRANCH   9  27
HETATM   27  O3  UNL     1     -11.388   2.410  -3.329  1.00  0.00    -0.374 OA
ATOM     28  H3  UNL     1     -12.120   1.913  -3.673  1.00  0.00     0.211 HD
ENDBRANCH   9  27
BRANCH   9  29
HETATM   29  C19 UNL     1     -11.793   3.161  -5.473  1.00  0.00     0.425 C 
HETATM   30  F1  UNL     1     -13.121   3.125  -5.108  1.00  0.00    -0.167 F 
HETATM   31  F2  UNL     1     -11.353   1.982  -6.040  1.00  0.00    -0.167 F 
HETATM   32  F3  UNL     1     -11.515   4.185  -6.345  1.00  0.00    -0.167 F 
ENDBRANCH   9  29
BRANCH   1  33
HETATM   33  C4  UNL     1      -7.324   2.888  -3.914  1.00  0.00     0.276 C 
BRANCH  33  34
HETATM   34  C2  UNL     1      -6.835   2.229  -2.703  1.00  0.00     0.006 C 
HETATM   35  C1  UNL     1      -6.715   0.718  -3.091  1.00  0.00     0.011 C 
HETATM   36  C3  UNL     1      -5.454   2.555  -2.202  1.00  0.00     0.011 C 
ENDBRANCH  33  34
ENDBRANCH   1  33
TORSDOF 7
ENDMDL
MODEL 2
REMARK VINA RESULT: -6.708086419      2.795      3.703
REMARK  7 active torsions:
REMARK  status: ('A' for Active; 'I' for Inactive)
REMARK    1  A    between atoms: C2_2  and  C4_4 
REMARK    2  A    between atoms: C4_4  and  N1_5 
REMARK    3  A    between atoms: C8_9  and  N2_10 
REMARK    4  A    between atoms: N2_10  and  C9_12 
REMARK    5  A    between atoms: C13_18  and  C14_19 
REMARK    6  A    between atoms: C18_29  and  O3_30 
REMARK    7  A    between atoms: C18_29  and  C19_32 
ROOT
HETATM    1  N1  UNL     1     -10.613   4.696  -3.411  1.00  0.00     0.092 N 
HETATM    2  C5  UNL     1     -11.854   3.954  -3.181  1.00  0.00     0.277 C 
HETATM    3  C6  UNL     1     -13.027   4.821  -2.923  1.00  0.00     0.072 C 
HETATM    4  C7  UNL     1     -13.278   5.823  -4.042  1.00  0.00    -0.013 A 
HETATM    5  C8  UNL     1     -14.234   6.769  -3.870  1.00  0.00     0.042 A 
HETATM    6  C16 UNL     1     -14.414   7.638  -4.911  1.00  0.00     0.080 A 
HETATM    7  S1  UNL     1     -13.284   7.138  -6.070  1.00  0.00    -0.100 SA
HETATM    8  C17 UNL     1     -12.593   5.822  -5.216  1.00  0.00     0.036 A 
HETATM    9  C18 UNL     1     -11.507   4.918  -5.730  1.00  0.00     0.216 C 
HETATM   10  C20 UNL     1     -10.366   4.896  -4.794  1.00  0.00     0.325 C 
ENDROOT
BRANCH   5  11
HETATM   11  N2  UNL     1     -15.073   6.894  -2.688  1.00  0.00    -0.383 N 
ATOM     12  H2  UNL     1     -16.049   6.608  -2.760  1.00  0.00     0.160 HD
BRANCH  11  13
HETATM   13  C9  UNL     1     -14.608   7.397  -1.432  1.00  0.00     0.102 C 
HETATM   14  C10 UNL     1     -15.647   7.916  -0.500  1.00  0.00     0.034 C 
HETATM   15  C11 UNL     1     -15.073   8.687   0.653  1.00  0.00     0.080 C 
HETATM   16  C12 UNL     1     -13.611   8.675   0.757  1.00  0.00     0.100 A 
HETATM   17  N3  UNL     1     -12.731   8.759   1.785  1.00  0.00    -0.324 N 
HETATM   18  N5  UNL     1     -12.862   8.569  -0.350  1.00  0.00    -0.277 N 
HETATM   19  C13 UNL     1     -11.467   8.704   1.322  1.00  0.00     0.200 A 
ATOM     20  H3  UNL     1     -12.989   8.850   2.767  1.00  0.00     0.169 HD
HETATM   21  N4  UNL     1     -11.566   8.584  -0.013  1.00  0.00    -0.276 N 
ATOM     22  H4  UNL     1     -10.783   8.517  -0.663  1.00  0.00     0.189 HD
HETATM   23  C15 UNL     1     -13.542   8.460  -1.625  1.00  0.00     0.175 C 
BRANCH  19  24
HETATM   24  C14 UNL     1     -10.239   8.764   2.092  1.00  0.00     0.246 C 
HETATM   25  O1  UNL     1     -10.181   8.261   3.238  1.00  0.00    -0.642 OA
HETATM   26  O2  UNL     1      -9.134   9.379   1.557  1.00  0.00    -0.642 OA
ENDBRANCH  19  24
ENDBRANCH  11  13
ENDBRANCH   5  11
BRANCH   9  27
HETATM   27  O3  UNL     1     -11.980   3.714  -6.187  1.00  0.00    -0.374 OA
ATOM     28  H3  UNL     1     -12.929   3.670  -6.210  1.00  0.00     0.211 HD
ENDBRANCH   9  27
BRANCH   9  29
HETATM   29  C19 UNL     1     -10.994   5.632  -7.007  1.00  0.00     0.425 C 
HETATM   30  F1  UNL     1     -12.013   5.708  -7.932  1.00  0.00    -0.167 F 
HETATM   31  F2  UNL     1      -9.925   4.873  -7.438  1.00  0.00    -0.167 F 
HETATM   32  F3  UNL     1     -10.520   6.870  -6.646  1.00  0.00    -0.167 F 
ENDBRANCH   9  29
BRANCH   1  33
HETATM   33  C4  UNL     1      -9.567   3.891  -2.835  1.00  0.00     0.276 C 
BRANCH  33  34
HETATM   34  C2  UNL     1      -8.707   4.445  -1.788  1.00  0.00     0.006 C 
HETATM   35  C1  UNL     1      -7.937   3.211  -1.210  1.00  0.00     0.011 C 
HETATM   36  C3  UNL     1      -7.595   5.380  -2.177  1.00  0.00     0.011 C 
ENDBRANCH  33  34
ENDBRANCH   1  33
TORSDOF 7
ENDMDL
MODEL 3
REMARK VINA RESULT: -6.656387698      1.309      1.635
REMARK  7 active torsions:
REMARK  status: ('A' for Active; 'I' for Inactive)
REMARK    1  A    between atoms: C2_2  and  C4_4 
REMARK    2  A    between atoms: C4_4  and  N1_5 
REMARK    3  A    between atoms: C8_9  and  N2_10 
REMARK    4  A    between atoms: N2_10  and  C9_12 
REMARK    5  A    between atoms: C13_18  and  C14_19 
REMARK    6  A    between atoms: C18_29  and  O3_30 
REMARK    7  A    between atoms: C18_29  and  C19_32 
ROOT
HETATM    1  N1  UNL     1      -7.418   3.503  -2.715  1.00  0.00     0.092 N 
HETATM    2  C5  UNL     1      -8.391   3.545  -1.622  1.00  0.00     0.277 C 
HETATM    3  C6  UNL     1      -8.852   4.912  -1.287  1.00  0.00     0.072 C 
HETATM    4  C7  UNL     1      -9.454   5.641  -2.481  1.00  0.00    -0.013 A 
HETATM    5  C8  UNL     1      -9.788   6.949  -2.348  1.00  0.00     0.042 A 
HETATM    6  C16 UNL     1     -10.326   7.547  -3.454  1.00  0.00     0.080 A 
HETATM    7  S1  UNL     1     -10.355   6.317  -4.619  1.00  0.00    -0.100 SA
HETATM    8  C17 UNL     1      -9.681   5.049  -3.683  1.00  0.00     0.036 A 
HETATM    9  C18 UNL     1      -9.453   3.640  -4.153  1.00  0.00     0.216 C 
HETATM   10  C20 UNL     1      -8.040   3.253  -3.965  1.00  0.00     0.325 C 
ENDROOT
BRANCH   5  11
HETATM   11  N2  UNL     1      -9.635   7.723  -1.127  1.00  0.00    -0.383 N 
ATOM     12  H2  UNL     1      -8.693   7.991  -0.843  1.00  0.00     0.160 HD
BRANCH  11  13
HETATM   13  C9  UNL     1     -10.730   8.131  -0.301  1.00  0.00     0.102 C 
HETATM   14  C10 UNL     1     -10.383   8.641   1.055  1.00  0.00     0.034 C 
HETATM   15  C11 UNL     1     -11.574   8.768   1.960  1.00  0.00     0.080 C 
HETATM   16  C12 UNL     1     -12.876   8.520   1.332  1.00  0.00     0.100 A 
HETATM   17  N3  UNL     1     -14.136   8.970   1.548  1.00  0.00    -0.324 N 
HETATM   18  N5  UNL     1     -12.970   7.669   0.300  1.00  0.00    -0.277 N 
HETATM   19  C13 UNL     1     -14.988   8.409   0.670  1.00  0.00     0.200 A 
ATOM     20  H3  UNL     1     -14.401   9.637   2.273  1.00  0.00     0.169 HD
HETATM   21  N4  UNL     1     -14.245   7.599  -0.104  1.00  0.00    -0.276 N 
ATOM     22  H4  UNL     1     -14.594   7.026  -0.871  1.00  0.00     0.189 HD
HETATM   23  C15 UNL     1     -11.759   7.023  -0.163  1.00  0.00     0.175 C 
BRANCH  19  24
HETATM   24  C14 UNL     1     -16.420   8.620   0.568  1.00  0.00     0.246 C 
HETATM   25  O1  UNL     1     -16.917   9.743   0.816  1.00  0.00    -0.642 OA
HETATM   26  O2  UNL     1     -17.234   7.578   0.195  1.00  0.00    -0.642 OA
ENDBRANCH  19  24
ENDBRANCH  11  13
ENDBRANCH   5  11
BRANCH   9  27
HETATM   27  O3  UNL     1     -10.415   2.764  -3.719  1.00  0.00    -0.374 OA
ATOM     28  H3  UNL     1     -11.189   3.199  -3.380  1.00  0.00     0.211 HD
ENDBRANCH   9  27
BRANCH   9  29
HETATM   29  C19 UNL     1      -9.672   3.712  -5.687  1.00  0.00     0.425 C 
HETATM   30  F1  UNL     1     -10.992   4.008  -5.948  1.00  0.00    -0.167 F 
HETATM   31  F2  UNL     1      -9.287   2.475  -6.163  1.00  0.00    -0.167 F 
HETATM   32  F3  UNL     1      -8.812   4.653  -6.199  1.00  0.00    -0.167 F 
ENDBRANCH   9  29
BRANCH   1  33
HETATM   33  C4  UNL     1      -6.515   2.430  -2.391  1.00  0.00     0.276 C 
BRANCH  33  34
HETATM   34  C2  UNL     1      -6.166   1.433  -3.404  1.00  0.00     0.006 C 
HETATM   35  C1  UNL     1      -4.602   1.448  -3.457  1.00  0.00     0.011 C 
HETATM   36  C3  UNL     1      -6.477  -0.015  -3.139  1.00  0.00     0.011 C 
ENDBRANCH  33  34
ENDBRANCH   1  33
TORSDOF 7
ENDMDL
MODEL 4
REMARK VINA RESULT: -6.643894406      2.775      3.721
REMARK  7 active torsions:
REMARK  status: ('A' for Active; 'I' for Inactive)
REMARK    1  A    between atoms: C2_2  and  C4_4 
REMARK    2  A    between atoms: C4_4  and  N1_5 
REMARK    3  A    between atoms: C8_9  and  N2_10 
REMARK    4  A    between atoms: N2_10  and  C9_12 
REMARK    5  A    between atoms: C13_18  and  C14_19 
REMARK    6  A    between atoms: C18_29  and  O3_30 
REMARK    7  A    between atoms: C18_29  and  C19_32 
ROOT
HETATM    1  N1  UNL     1      -7.564   3.953  -3.643  1.00  0.00     0.092 N 
HETATM    2  C5  UNL     1      -8.338   2.843  -3.085  1.00  0.00     0.277 C 
HETATM    3  C6  UNL     1      -9.757   3.178  -2.824  1.00  0.00     0.072 C 
HETATM    4  C7  UNL     1     -10.482   3.681  -4.065  1.00  0.00    -0.013 A 
HETATM    5  C8  UNL     1     -11.746   4.155  -3.936  1.00  0.00     0.042 A 
HETATM    6  C16 UNL     1     -12.346   4.589  -5.086  1.00  0.00     0.080 A 
HETATM    7  S1  UNL     1     -11.175   4.339  -6.285  1.00  0.00    -0.100 SA
HETATM    8  C17 UNL     1      -9.931   3.680  -5.307  1.00  0.00     0.036 A 
HETATM    9  C18 UNL     1      -8.588   3.214  -5.795  1.00  0.00     0.216 C 
HETATM   10  C20 UNL     1      -7.504   3.896  -5.059  1.00  0.00     0.325 C 
ENDROOT
BRANCH   5  11
HETATM   11  N2  UNL     1     -12.490   4.203  -2.687  1.00  0.00    -0.383 N 
ATOM     12  H2  UNL     1     -12.973   3.358  -2.382  1.00  0.00     0.160 HD
BRANCH  11  13
HETATM   13  C9  UNL     1     -12.585   5.368  -1.861  1.00  0.00     0.102 C 
HETATM   14  C10 UNL     1     -13.789   6.222  -2.056  1.00  0.00     0.034 C 
HETATM   15  C11 UNL     1     -13.680   7.559  -1.382  1.00  0.00     0.080 C 
HETATM   16  C12 UNL     1     -12.497   7.746  -0.535  1.00  0.00     0.100 A 
HETATM   17  N3  UNL     1     -12.229   8.477   0.574  1.00  0.00    -0.324 N 
HETATM   18  N5  UNL     1     -11.356   7.104  -0.827  1.00  0.00    -0.277 N 
HETATM   19  C13 UNL     1     -10.952   8.289   0.959  1.00  0.00     0.200 A 
ATOM     20  H3  UNL     1     -12.899   9.082   1.050  1.00  0.00     0.169 HD
HETATM   21  N4  UNL     1     -10.421   7.429   0.073  1.00  0.00    -0.276 N 
ATOM     22  H4  UNL     1      -9.462   7.081   0.085  1.00  0.00     0.189 HD
HETATM   23  C15 UNL     1     -11.343   6.232  -1.984  1.00  0.00     0.175 C 
BRANCH  19  24
HETATM   24  C14 UNL     1     -10.272   8.889   2.091  1.00  0.00     0.246 C 
HETATM   25  O1  UNL     1      -9.279   9.633   1.915  1.00  0.00    -0.642 OA
HETATM   26  O2  UNL     1     -10.722   8.638   3.363  1.00  0.00    -0.642 OA
ENDBRANCH  19  24
ENDBRANCH  11  13
ENDBRANCH   5  11
BRANCH   9  27
HETATM   27  O3  UNL     1      -8.506   1.852  -5.930  1.00  0.00    -0.374 OA
ATOM     28  H3  UNL     1      -8.185   1.580  -6.782  1.00  0.00     0.211 HD
ENDBRANCH   9  27
BRANCH   9  29
HETATM   29  C19 UNL     1      -8.510   3.743  -7.251  1.00  0.00     0.425 C 
HETATM   30  F1  UNL     1      -8.920   5.058  -7.283  1.00  0.00    -0.167 F 
HETATM   31  F2  UNL     1      -9.324   2.903  -7.982  1.00  0.00    -0.167 F 
HETATM   32  F3  UNL     1      -7.220   3.584  -7.697  1.00  0.00    -0.167 F 
ENDBRANCH   9  29
BRANCH   1  33
HETATM   33  C4  UNL     1      -6.241   3.823  -3.089  1.00  0.00     0.276 C 
BRANCH  33  34
HETATM   34  C2  UNL     1      -6.021   2.996  -1.902  1.00  0.00     0.006 C 
HETATM   35  C1  UNL     1      -4.523   2.552  -1.998  1.00  0.00     0.011 C 
HETATM   36  C3  UNL     1      -6.091   3.638  -0.543  1.00  0.00     0.011 C 
ENDBRANCH  33  34
ENDBRANCH   1  33
TORSDOF 7
ENDMDL
MODEL 5
REMARK VINA RESULT: -6.640304674      4.103      5.768
REMARK  7 active torsions:
REMARK  status: ('A' for Active; 'I' for Inactive)
REMARK    1  A    between atoms: C2_2  and  C4_4 
REMARK    2  A    between atoms: C4_4  and  N1_5 
REMARK    3  A    between atoms: C8_9  and  N2_10 
REMARK    4  A    between atoms: N2_10  and  C9_12 
REMARK    5  A    between atoms: C13_18  and  C14_19 
REMARK    6  A    between atoms: C18_29  and  O3_30 
REMARK    7  A    between atoms: C18_29  and  C19_32 
ROOT
HETATM    1  N1  UNL     1      -7.573   0.335  -6.184  1.00  0.00     0.092 N 
HETATM    2  C5  UNL     1      -7.625   1.712  -6.676  1.00  0.00     0.277 C 
HETATM    3  C6  UNL     1      -8.429   2.620  -5.825  1.00  0.00     0.072 C 
HETATM    4  C7  UNL     1      -7.948   2.653  -4.381  1.00  0.00    -0.013 A 
HETATM    5  C8  UNL     1      -8.680   3.335  -3.464  1.00  0.00     0.042 A 
HETATM    6  C16 UNL     1      -8.195   3.331  -2.185  1.00  0.00     0.080 A 
HETATM    7  S1  UNL     1      -6.778   2.408  -2.281  1.00  0.00    -0.100 SA
HETATM    8  C17 UNL     1      -6.815   2.037  -3.953  1.00  0.00     0.036 A 
HETATM    9  C18 UNL     1      -5.784   1.234  -4.696  1.00  0.00     0.216 C 
HETATM   10  C20 UNL     1      -6.417   0.099  -5.397  1.00  0.00     0.325 C 
ENDROOT
BRANCH   5  11
HETATM   11  N2  UNL     1      -9.900   4.069  -3.758  1.00  0.00    -0.383 N 
ATOM     12  H2  UNL     1     -10.234   4.081  -4.722  1.00  0.00     0.160 HD
BRANCH  11  13
HETATM   13  C9  UNL     1     -10.660   4.776  -2.773  1.00  0.00     0.102 C 
HETATM   14  C10 UNL     1     -12.139   4.599  -2.823  1.00  0.00     0.034 C 
HETATM   15  C11 UNL     1     -12.880   5.584  -1.967  1.00  0.00     0.080 C 
HETATM   16  C12 UNL     1     -12.045   6.443  -1.122  1.00  0.00     0.100 A 
HETATM   17  N3  UNL     1     -12.217   7.053   0.076  1.00  0.00    -0.324 N 
HETATM   18  N5  UNL     1     -10.809   6.777  -1.522  1.00  0.00    -0.277 N 
HETATM   19  C13 UNL     1     -11.112   7.747   0.408  1.00  0.00     0.200 A 
ATOM     20  H3  UNL     1     -13.062   6.995   0.644  1.00  0.00     0.169 HD
HETATM   21  N4  UNL     1     -10.242   7.564  -0.599  1.00  0.00    -0.276 N 
ATOM     22  H4  UNL     1      -9.303   7.960  -0.653  1.00  0.00     0.189 HD
HETATM   23  C15 UNL     1     -10.341   6.260  -2.791  1.00  0.00     0.175 C 
BRANCH  19  24
HETATM   24  C14 UNL     1     -10.891   8.540   1.603  1.00  0.00     0.246 C 
HETATM   25  O1  UNL     1     -11.850   8.849   2.348  1.00  0.00    -0.642 OA
HETATM   26  O2  UNL     1      -9.619   8.952   1.917  1.00  0.00    -0.642 OA
ENDBRANCH  19  24
ENDBRANCH  11  13
ENDBRANCH   5  11
BRANCH   9  27
HETATM   27  O3  UNL     1      -4.904   2.010  -5.406  1.00  0.00    -0.374 OA
ATOM     28  H3  UNL     1      -5.068   1.998  -6.342  1.00  0.00     0.211 HD
ENDBRANCH   9  27
BRANCH   9  29
HETATM   29  C19 UNL     1      -4.914   0.607  -3.574  1.00  0.00     0.425 C 
HETATM   30  F1  UNL     1      -4.341   1.610  -2.824  1.00  0.00    -0.167 F 
HETATM   31  F2  UNL     1      -3.988  -0.175  -4.234  1.00  0.00    -0.167 F 
HETATM   32  F3  UNL     1      -5.714  -0.220  -2.823  1.00  0.00    -0.167 F 
ENDBRANCH   9  29
BRANCH   1  33
HETATM   33  C4  UNL     1      -7.548  -0.498  -7.359  1.00  0.00     0.276 C 
BRANCH  33  34
HETATM   34  C2  UNL     1      -7.560   0.110  -8.690  1.00  0.00     0.006 C 
HETATM   35  C1  UNL     1      -6.291  -0.467  -9.403  1.00  0.00     0.011 C 
HETATM   36  C3  UNL     1      -8.668  -0.244  -9.643  1.00  0.00     0.011 C 
ENDBRANCH  33  34
ENDBRANCH   1  33
TORSDOF 7
ENDMDL
