MODEL 1
REMARK VINA RESULT: -7.159152636      0.000      0.000
REMARK  8 active torsions:
REMARK  status: ('A' for Active; 'I' for Inactive)
REMARK    1  A    between atoms: C4_7  and  C5_8 
REMARK    2  A    between atoms: C5_8  and  O3_10 
REMARK    3  A    between atoms: O3_10  and  C6_11 
REMARK    4  A    between atoms: C6_11  and  N2_12 
REMARK    5  A    between atoms: C7_13  and  O4_14 
REMARK    6  A    between atoms: C8_16  and  N3_17 
REMARK    7  A    between atoms: C10_19  and  C11_20 
REMARK    8  A    between atoms: C14_32  and  C15_33 
ROOT
HETATM    1  N2  UNL     1     -14.524   8.645   0.373  1.00  0.00    -0.231 N 
HETATM    2  C7  UNL     1     -13.594   7.994  -0.316  1.00  0.00     0.186 A 
HETATM    3  C8  UNL     1     -12.289   7.832   0.159  1.00  0.00     0.171 A 
HETATM    4  C12 UNL     1     -11.959   8.370   1.388  1.00  0.00     0.282 A 
HETATM    5  O5  UNL     1     -10.783   8.220   1.792  1.00  0.00    -0.265 OA
HETATM    6  N5  UNL     1     -12.888   9.020   2.072  1.00  0.00    -0.273 N 
ATOM      7  H5  UNL     1     -12.642   9.418   2.979  1.00  0.00     0.173 HD
HETATM    8  C13 UNL     1     -14.155   9.177   1.611  1.00  0.00     0.337 A 
HETATM    9  O6  UNL     1     -14.983   9.794   2.282  1.00  0.00    -0.246 OA
ENDROOT
BRANCH   1  10
HETATM   10  C6  UNL     1     -15.888   8.875   0.067  1.00  0.00     0.251 C 
BRANCH  10  11
HETATM   11  O3  UNL     1     -16.732   7.737   0.180  1.00  0.00    -0.269 OA
BRANCH  11  12
HETATM   12  C5  UNL     1     -17.172   7.018  -0.963  1.00  0.00     0.305 C 
HETATM   13  O2  UNL     1     -16.344   6.312  -1.489  1.00  0.00    -0.259 OA
BRANCH  12  14
HETATM   14  C4  UNL     1     -18.533   7.199  -1.365  1.00  0.00     0.119 A 
HETATM   15  C3  UNL     1     -19.455   6.279  -0.888  1.00  0.00     0.263 A 
HETATM   16  N1  UNL     1     -20.749   6.421  -1.147  1.00  0.00    -0.325 N 
HETATM   17  O1  UNL     1     -19.048   5.305  -0.185  1.00  0.00    -0.267 OA
HETATM   18  C2  UNL     1     -21.167   7.465  -1.879  1.00  0.00     0.031 A 
ATOM     19  H1  UNL     1     -21.421   5.741  -0.793  1.00  0.00     0.169 HD
HETATM   20  C1  UNL     1     -22.606   7.577  -2.209  1.00  0.00     0.070 C 
HETATM   21  C18 UNL     1     -20.279   8.394  -2.367  1.00  0.00     0.068 A 
HETATM   22  C14 UNL     1     -18.900   8.314  -2.141  1.00  0.00     0.011 A 
HETATM   23 CL1  UNL     1     -20.943   9.694  -3.327  1.00  0.00    -0.081 Cl
BRANCH  22  24
HETATM   24  C15 UNL     1     -18.002   9.143  -2.917  1.00  0.00    -0.074 C 
HETATM   25  C16 UNL     1     -17.604   8.831  -4.312  1.00  0.00     0.044 C 
HETATM   26  C17 UNL     1     -17.764  10.572  -2.511  1.00  0.00     0.044 C 
ENDBRANCH  22  24
ENDBRANCH  12  14
ENDBRANCH  11  12
ENDBRANCH  10  11
ENDBRANCH   1  10
BRANCH   2  27
HETATM   27  O4  UNL     1     -13.924   7.446  -1.569  1.00  0.00    -0.344 OA
ATOM     28  H4  UNL     1     -13.403   6.731  -1.915  1.00  0.00     0.219 HD
ENDBRANCH   2  27
BRANCH   3  29
HETATM   29  N3  UNL     1     -11.277   7.104  -0.576  1.00  0.00    -0.277 N 
HETATM   30  C9  UNL     1     -10.456   7.466  -1.718  1.00  0.00     0.213 A 
HETATM   31  C10 UNL     1      -9.936   6.124  -1.506  1.00  0.00     0.129 A 
HETATM   32  N4  UNL     1     -10.685   5.886  -0.534  1.00  0.00    -0.296 N 
ATOM     33  H4  UNL     1     -10.806   5.073   0.070  1.00  0.00     0.187 HD
BRANCH  31  34
HETATM   34  C11 UNL     1      -8.868   5.299  -2.197  1.00  0.00     0.431 C 
HETATM   35  F1  UNL     1      -8.844   5.559  -3.553  1.00  0.00    -0.165 F 
HETATM   36  F2  UNL     1      -7.654   5.652  -1.628  1.00  0.00    -0.165 F 
HETATM   37  F3  UNL     1      -9.078   3.953  -1.978  1.00  0.00    -0.165 F 
ENDBRANCH  31  34
ENDBRANCH   3  29
TORSDOF 8
ENDMDL
MODEL 2
REMARK VINA RESULT: -6.996233813      5.543      7.030
REMARK  8 active torsions:
REMARK  status: ('A' for Active; 'I' for Inactive)
REMARK    1  A    between atoms: C4_7  and  C5_8 
REMARK    2  A    between atoms: C5_8  and  O3_10 
REMARK    3  A    between atoms: O3_10  and  C6_11 
REMARK    4  A    between atoms: C6_11  and  N2_12 
REMARK    5  A    between atoms: C7_13  and  O4_14 
REMARK    6  A    between atoms: C8_16  and  N3_17 
REMARK    7  A    between atoms: C10_19  and  C11_20 
REMARK    8  A    between atoms: C14_32  and  C15_33 
ROOT
HETATM    1  N2  UNL     1     -15.623   9.812   0.506  1.00  0.00    -0.231 N 
HETATM    2  C7  UNL     1     -16.110  10.570   1.482  1.00  0.00     0.186 A 
HETATM    3  C8  UNL     1     -16.150  11.965   1.396  1.00  0.00     0.171 A 
HETATM    4  C12 UNL     1     -15.665  12.573   0.254  1.00  0.00     0.282 A 
HETATM    5  O5  UNL     1     -15.704  13.823   0.199  1.00  0.00    -0.265 OA
HETATM    6  N5  UNL     1     -15.178  11.815  -0.717  1.00  0.00    -0.273 N 
ATOM      7  H5  UNL     1     -14.819  12.266  -1.559  1.00  0.00     0.173 HD
HETATM    8  C13 UNL     1     -15.140  10.461  -0.633  1.00  0.00     0.337 A 
HETATM    9  O6  UNL     1     -14.673   9.799  -1.561  1.00  0.00    -0.246 OA
ENDROOT
BRANCH   1  10
HETATM   10  C6  UNL     1     -15.534   8.402   0.408  1.00  0.00     0.251 C 
BRANCH  10  11
HETATM   11  O3  UNL     1     -16.774   7.729   0.237  1.00  0.00    -0.269 OA
BRANCH  11  12
HETATM   12  C5  UNL     1     -17.125   7.112  -0.992  1.00  0.00     0.305 C 
HETATM   13  O2  UNL     1     -16.217   6.585  -1.593  1.00  0.00    -0.259 OA
BRANCH  12  14
HETATM   14  C4  UNL     1     -18.499   7.174  -1.386  1.00  0.00     0.119 A 
HETATM   15  C3  UNL     1     -19.337   6.185  -0.893  1.00  0.00     0.263 A 
HETATM   16  N1  UNL     1     -20.640   6.215  -1.144  1.00  0.00    -0.325 N 
HETATM   17  O1  UNL     1     -18.846   5.256  -0.184  1.00  0.00    -0.267 OA
HETATM   18  C2  UNL     1     -21.149   7.213  -1.884  1.00  0.00     0.031 A 
ATOM     19  H1  UNL     1     -21.250   5.485  -0.778  1.00  0.00     0.169 HD
HETATM   20  C1  UNL     1     -22.595   7.200  -2.204  1.00  0.00     0.070 C 
HETATM   21  C18 UNL     1     -20.345   8.207  -2.387  1.00  0.00     0.068 A 
HETATM   22  C14 UNL     1     -18.963   8.246  -2.171  1.00  0.00     0.011 A 
HETATM   23 CL1  UNL     1     -21.122   9.437  -3.355  1.00  0.00    -0.081 Cl
BRANCH  22  24
HETATM   24  C15 UNL     1     -18.142   9.139  -2.962  1.00  0.00    -0.074 C 
HETATM   25  C16 UNL     1     -17.706   8.834  -4.346  1.00  0.00     0.044 C 
HETATM   26  C17 UNL     1     -18.047  10.594  -2.590  1.00  0.00     0.044 C 
ENDBRANCH  22  24
ENDBRANCH  12  14
ENDBRANCH  11  12
ENDBRANCH  10  11
ENDBRANCH   1  10
BRANCH   2  27
HETATM   27  O4  UNL     1     -16.604   9.956   2.648  1.00  0.00    -0.344 OA
ATOM     28  H4  UNL     1     -17.541   9.930   2.798  1.00  0.00     0.219 HD
ENDBRANCH   2  27
BRANCH   3  29
HETATM   29  N3  UNL     1     -16.701  12.795   2.446  1.00  0.00    -0.277 N 
HETATM   30  C9  UNL     1     -18.062  13.002   2.909  1.00  0.00     0.213 A 
HETATM   31  C10 UNL     1     -17.386  13.882   3.850  1.00  0.00     0.129 A 
HETATM   32  N4  UNL     1     -16.248  13.657   3.387  1.00  0.00    -0.296 N 
ATOM     33  H4  UNL     1     -15.317  13.998   3.630  1.00  0.00     0.187 HD
BRANCH  31  34
HETATM   34  C11 UNL     1     -17.870  14.756   4.990  1.00  0.00     0.431 C 
HETATM   35  F1  UNL     1     -17.861  14.059   6.183  1.00  0.00    -0.165 F 
HETATM   36  F2  UNL     1     -17.003  15.835   5.069  1.00  0.00    -0.165 F 
HETATM   37  F3  UNL     1     -19.139  15.233   4.732  1.00  0.00    -0.165 F 
ENDBRANCH  31  34
ENDBRANCH   3  29
TORSDOF 8
ENDMDL
MODEL 3
REMARK VINA RESULT: -6.784723585      1.559      1.781
REMARK  8 active torsions:
REMARK  status: ('A' for Active; 'I' for Inactive)
REMARK    1  A    between atoms: C4_7  and  C5_8 
REMARK    2  A    between atoms: C5_8  and  O3_10 
REMARK    3  A    between atoms: O3_10  and  C6_11 
REMARK    4  A    between atoms: C6_11  and  N2_12 
REMARK    5  A    between atoms: C7_13  and  O4_14 
REMARK    6  A    between atoms: C8_16  and  N3_17 
REMARK    7  A    between atoms: C10_19  and  C11_20 
REMARK    8  A    between atoms: C14_32  and  C15_33 
ROOT
HETATM    1  N2  UNL     1     -14.448   7.525  -1.886  1.00  0.00    -0.231 N 
HETATM    2  C7  UNL     1     -13.394   6.720  -1.953  1.00  0.00     0.186 A 
HETATM    3  C8  UNL     1     -12.139   7.090  -1.462  1.00  0.00     0.171 A 
HETATM    4  C12 UNL     1     -11.993   8.339  -0.888  1.00  0.00     0.282 A 
HETATM    5  O5  UNL     1     -10.859   8.655  -0.461  1.00  0.00    -0.265 OA
HETATM    6  N5  UNL     1     -13.045   9.140  -0.824  1.00  0.00    -0.273 N 
ATOM      7  H5  UNL     1     -12.936  10.063  -0.402  1.00  0.00     0.173 HD
HETATM    8  C13 UNL     1     -14.264   8.780  -1.300  1.00  0.00     0.337 A 
HETATM    9  O6  UNL     1     -15.212   9.562  -1.223  1.00  0.00    -0.246 OA
ENDROOT
BRANCH   1  10
HETATM   10  C6  UNL     1     -15.786   7.307  -2.296  1.00  0.00     0.251 C 
BRANCH  10  11
HETATM   11  O3  UNL     1     -16.586   6.570  -1.381  1.00  0.00    -0.269 OA
BRANCH  11  12
HETATM   12  C5  UNL     1     -17.613   7.189  -0.621  1.00  0.00     0.305 C 
HETATM   13  O2  UNL     1     -17.254   7.740   0.395  1.00  0.00    -0.259 OA
BRANCH  12  14
HETATM   14  C4  UNL     1     -18.947   7.099  -1.129  1.00  0.00     0.119 A 
HETATM   15  C3  UNL     1     -19.696   6.001  -0.732  1.00  0.00     0.263 A 
HETATM   16  N1  UNL     1     -20.968   5.884  -1.093  1.00  0.00    -0.325 N 
HETATM   17  O1  UNL     1     -19.154   5.114  -0.005  1.00  0.00    -0.267 OA
HETATM   18  C2  UNL     1     -21.533   6.838  -1.849  1.00  0.00     0.031 A 
ATOM     19  H1  UNL     1     -21.513   5.074  -0.797  1.00  0.00     0.169 HD
HETATM   20  C1  UNL     1     -22.935   6.663  -2.291  1.00  0.00     0.070 C 
HETATM   21  C18 UNL     1     -20.818   7.938  -2.258  1.00  0.00     0.068 A 
HETATM   22  C14 UNL     1     -19.473   8.134  -1.925  1.00  0.00     0.011 A 
HETATM   23 CL1  UNL     1     -21.657   9.098  -3.260  1.00  0.00    -0.081 Cl
BRANCH  22  24
HETATM   24  C15 UNL     1     -18.706   9.145  -2.621  1.00  0.00    -0.074 C 
HETATM   25  C16 UNL     1     -18.366   9.061  -4.063  1.00  0.00     0.044 C 
HETATM   26  C17 UNL     1     -18.580  10.525  -2.036  1.00  0.00     0.044 C 
ENDBRANCH  22  24
ENDBRANCH  12  14
ENDBRANCH  11  12
ENDBRANCH  10  11
ENDBRANCH   1  10
BRANCH   2  27
HETATM   27  O4  UNL     1     -13.536   5.448  -2.537  1.00  0.00    -0.344 OA
ATOM     28  H4  UNL     1     -14.233   4.875  -2.241  1.00  0.00     0.219 HD
ENDBRANCH   2  27
BRANCH   3  29
HETATM   29  N3  UNL     1     -10.992   6.209  -1.511  1.00  0.00    -0.277 N 
HETATM   30  C9  UNL     1     -10.152   5.766  -2.610  1.00  0.00     0.213 A 
HETATM   31  C10 UNL     1      -9.473   5.062  -1.533  1.00  0.00     0.129 A 
HETATM   32  N4  UNL     1     -10.246   5.481  -0.645  1.00  0.00    -0.296 N 
ATOM     33  H4  UNL     1     -10.296   5.331   0.363  1.00  0.00     0.187 HD
BRANCH  31  34
HETATM   34  C11 UNL     1      -8.260   4.153  -1.485  1.00  0.00     0.431 C 
HETATM   35  F1  UNL     1      -8.291   3.234  -2.515  1.00  0.00    -0.165 F 
HETATM   36  F2  UNL     1      -7.143   4.964  -1.611  1.00  0.00    -0.165 F 
HETATM   37  F3  UNL     1      -8.192   3.500  -0.271  1.00  0.00    -0.165 F 
ENDBRANCH  31  34
ENDBRANCH   3  29
TORSDOF 8
ENDMDL
MODEL 4
REMARK VINA RESULT: -6.779489165      3.139      4.469
REMARK  8 active torsions:
REMARK  status: ('A' for Active; 'I' for Inactive)
REMARK    1  A    between atoms: C4_7  and  C5_8 
REMARK    2  A    between atoms: C5_8  and  O3_10 
REMARK    3  A    between atoms: O3_10  and  C6_11 
REMARK    4  A    between atoms: C6_11  and  N2_12 
REMARK    5  A    between atoms: C7_13  and  O4_14 
REMARK    6  A    between atoms: C8_16  and  N3_17 
REMARK    7  A    between atoms: C10_19  and  C11_20 
REMARK    8  A    between atoms: C14_32  and  C15_33 
ROOT
HETATM    1  N2  UNL     1     -11.228   8.177   0.266  1.00  0.00    -0.231 N 
HETATM    2  C7  UNL     1     -11.646   7.282  -0.622  1.00  0.00     0.186 A 
HETATM    3  C8  UNL     1     -10.804   6.758  -1.607  1.00  0.00     0.171 A 
HETATM    4  C12 UNL     1      -9.491   7.188  -1.657  1.00  0.00     0.282 A 
HETATM    5  O5  UNL     1      -8.756   6.712  -2.551  1.00  0.00    -0.265 OA
HETATM    6  N5  UNL     1      -9.078   8.082  -0.771  1.00  0.00    -0.273 N 
ATOM      7  H5  UNL     1      -8.110   8.400  -0.809  1.00  0.00     0.173 HD
HETATM    8  C13 UNL     1      -9.896   8.590   0.186  1.00  0.00     0.337 A 
HETATM    9  O6  UNL     1      -9.466   9.424   0.984  1.00  0.00    -0.246 OA
ENDROOT
BRANCH   1  10
HETATM   10  C6  UNL     1     -11.923   8.785   1.340  1.00  0.00     0.251 C 
BRANCH  10  11
HETATM   11  O3  UNL     1     -13.148   9.412   0.988  1.00  0.00    -0.269 OA
BRANCH  11  12
HETATM   12  C5  UNL     1     -14.403   8.814   1.275  1.00  0.00     0.305 C 
HETATM   13  O2  UNL     1     -14.360   7.684   1.704  1.00  0.00    -0.259 OA
BRANCH  12  14
HETATM   14  C4  UNL     1     -15.573   9.601   1.032  1.00  0.00     0.119 A 
HETATM   15  C3  UNL     1     -15.984  10.444   2.054  1.00  0.00     0.263 A 
HETATM   16  N1  UNL     1     -17.012  11.266   1.881  1.00  0.00    -0.325 N 
HETATM   17  O1  UNL     1     -15.356  10.432   3.156  1.00  0.00    -0.267 OA
HETATM   18  C2  UNL     1     -17.659  11.280   0.705  1.00  0.00     0.031 A 
ATOM     19  H1  UNL     1     -17.308  11.883   2.637  1.00  0.00     0.169 HD
HETATM   20  C1  UNL     1     -18.838  12.161   0.548  1.00  0.00     0.070 C 
HETATM   21  C18 UNL     1     -17.276  10.457  -0.327  1.00  0.00     0.068 A 
HETATM   22  C14 UNL     1     -16.207   9.560  -0.224  1.00  0.00     0.011 A 
HETATM   23 CL1  UNL     1     -18.212  10.550  -1.800  1.00  0.00    -0.081 Cl
BRANCH  22  24
HETATM   24  C15 UNL     1     -16.044   8.527  -1.225  1.00  0.00    -0.074 C 
HETATM   25  C16 UNL     1     -16.914   7.329  -1.309  1.00  0.00     0.044 C 
HETATM   26  C17 UNL     1     -15.269   8.818  -2.482  1.00  0.00     0.044 C 
ENDBRANCH  22  24
ENDBRANCH  12  14
ENDBRANCH  11  12
ENDBRANCH  10  11
ENDBRANCH   1  10
BRANCH   2  27
HETATM   27  O4  UNL     1     -12.981   6.841  -0.578  1.00  0.00    -0.344 OA
ATOM     28  H4  UNL     1     -13.391   6.519  -1.373  1.00  0.00     0.219 HD
ENDBRANCH   2  27
BRANCH   3  29
HETATM   29  N3  UNL     1     -11.247   5.765  -2.563  1.00  0.00    -0.277 N 
HETATM   30  C9  UNL     1     -12.064   5.864  -3.759  1.00  0.00     0.213 A 
HETATM   31  C10 UNL     1     -11.792   4.436  -3.812  1.00  0.00     0.129 A 
HETATM   32  N4  UNL     1     -11.106   4.433  -2.767  1.00  0.00    -0.296 N 
ATOM     33  H4  UNL     1     -10.619   3.697  -2.255  1.00  0.00     0.187 HD
BRANCH  31  34
HETATM   34  C11 UNL     1     -12.181   3.336  -4.779  1.00  0.00     0.431 C 
HETATM   35  F1  UNL     1     -11.592   2.137  -4.426  1.00  0.00    -0.165 F 
HETATM   36  F2  UNL     1     -13.561   3.216  -4.722  1.00  0.00    -0.165 F 
HETATM   37  F3  UNL     1     -11.826   3.675  -6.069  1.00  0.00    -0.165 F 
ENDBRANCH  31  34
ENDBRANCH   3  29
TORSDOF 8
ENDMDL
MODEL 5
REMARK VINA RESULT: -6.721401078      1.620      2.133
REMARK  8 active torsions:
REMARK  status: ('A' for Active; 'I' for Inactive)
REMARK    1  A    between atoms: C4_7  and  C5_8 
REMARK    2  A    between atoms: C5_8  and  O3_10 
REMARK    3  A    between atoms: O3_10  and  C6_11 
REMARK    4  A    between atoms: C6_11  and  N2_12 
REMARK    5  A    between atoms: C7_13  and  O4_14 
REMARK    6  A    between atoms: C8_16  and  N3_17 
REMARK    7  A    between atoms: C10_19  and  C11_20 
REMARK    8  A    between atoms: C14_32  and  C15_33 
ROOT
HETATM    1  N2  UNL     1     -16.085   9.459   0.006  1.00  0.00    -0.231 N 
HETATM    2  C7  UNL     1     -15.006   8.879  -0.506  1.00  0.00     0.186 A 
HETATM    3  C8  UNL     1     -13.857   8.637   0.253  1.00  0.00     0.171 A 
HETATM    4  C12 UNL     1     -13.847   9.016   1.582  1.00  0.00     0.282 A 
HETATM    5  O5  UNL     1     -12.806   8.796   2.242  1.00  0.00    -0.265 OA
HETATM    6  N5  UNL     1     -14.924   9.596   2.089  1.00  0.00    -0.273 N 
ATOM      7  H5  UNL     1     -14.915   9.877   3.069  1.00  0.00     0.173 HD
HETATM    8  C13 UNL     1     -16.039   9.831   1.352  1.00  0.00     0.337 A 
HETATM    9  O6  UNL     1     -17.014  10.378   1.868  1.00  0.00    -0.246 OA
ENDROOT
BRANCH   1  10
HETATM   10  C6  UNL     1     -17.333   9.750  -0.597  1.00  0.00     0.251 C 
BRANCH  10  11
HETATM   11  O3  UNL     1     -18.277   8.688  -0.573  1.00  0.00    -0.269 OA
BRANCH  11  12
HETATM   12  C5  UNL     1     -18.578   7.930  -1.736  1.00  0.00     0.305 C 
HETATM   13  O2  UNL     1     -17.635   7.657  -2.443  1.00  0.00    -0.259 OA
BRANCH  12  14
HETATM   14  C4  UNL     1     -19.947   7.571  -1.946  1.00  0.00     0.119 A 
HETATM   15  C3  UNL     1     -20.404   6.438  -1.291  1.00  0.00     0.263 A 
HETATM   16  N1  UNL     1     -21.681   6.080  -1.367  1.00  0.00    -0.325 N 
HETATM   17  O1  UNL     1     -19.590   5.751  -0.602  1.00  0.00    -0.267 OA
HETATM   18  C2  UNL     1     -22.535   6.825  -2.087  1.00  0.00     0.031 A 
ATOM     19  H1  UNL     1     -22.010   5.246  -0.883  1.00  0.00     0.169 HD
HETATM   20  C1  UNL     1     -23.941   6.381  -2.210  1.00  0.00     0.070 C 
HETATM   21  C18 UNL     1     -22.112   7.953  -2.749  1.00  0.00     0.068 A 
HETATM   22  C14 UNL     1     -20.784   8.395  -2.721  1.00  0.00     0.011 A 
HETATM   23 CL1  UNL     1     -23.313   8.824  -3.672  1.00  0.00    -0.081 Cl
BRANCH  22  24
HETATM   24  C15 UNL     1     -20.349   9.404  -3.663  1.00  0.00    -0.074 C 
HETATM   25  C16 UNL     1     -20.088  10.815  -3.283  1.00  0.00     0.044 C 
HETATM   26  C17 UNL     1     -19.730   8.992  -4.971  1.00  0.00     0.044 C 
ENDBRANCH  22  24
ENDBRANCH  12  14
ENDBRANCH  11  12
ENDBRANCH  10  11
ENDBRANCH   1  10
BRANCH   2  27
HETATM   27  O4  UNL     1     -15.009   8.492  -1.859  1.00  0.00    -0.344 OA
ATOM     28  H4  UNL     1     -14.495   7.740  -2.129  1.00  0.00     0.219 HD
ENDBRANCH   2  27
BRANCH   3  29
HETATM   29  N3  UNL     1     -12.686   7.984  -0.293  1.00  0.00    -0.277 N 
HETATM   30  C9  UNL     1     -12.447   6.617  -0.724  1.00  0.00     0.213 A 
HETATM   31  C10 UNL     1     -11.133   7.164  -1.029  1.00  0.00     0.129 A 
HETATM   32  N4  UNL     1     -11.416   8.314  -0.629  1.00  0.00    -0.296 N 
ATOM     33  H4  UNL     1     -10.885   9.184  -0.577  1.00  0.00     0.187 HD
BRANCH  31  34
HETATM   34  C11 UNL     1      -9.871   6.572  -1.624  1.00  0.00     0.431 C 
HETATM   35  F1  UNL     1      -9.701   5.263  -1.218  1.00  0.00    -0.165 F 
HETATM   36  F2  UNL     1     -10.012   6.623  -3.002  1.00  0.00    -0.165 F 
HETATM   37  F3  UNL     1      -8.769   7.323  -1.269  1.00  0.00    -0.165 F 
ENDBRANCH  31  34
ENDBRANCH   3  29
TORSDOF 8
ENDMDL
