MODEL 1
REMARK VINA RESULT: -7.070736652      0.000      0.000
REMARK  9 active torsions:
REMARK  status: ('A' for Active; 'I' for Inactive)
REMARK    1  A    between atoms: C3_3  and  C4_4 
REMARK    2  A    between atoms: C4_4  and  O1_5 
REMARK    3  A    between atoms: C4_4  and  N1_7 
REMARK    4  A    between atoms: N1_7  and  C5_9 
REMARK    5  A    between atoms: C8_15  and  N4_16 
REMARK    6  A    between atoms: C11_19  and  C12_20 
REMARK    7  A    between atoms: C11_19  and  C13_22 
REMARK    8  A    between atoms: C16_33  and  C17_34 
REMARK    9  A    between atoms: C21_38  and  C22_39 
ROOT
HETATM    1  C4  UNL     1     -16.697   8.563   0.228  1.00  0.00     0.155 C 
ENDROOT
BRANCH   1   2
HETATM    2  C3  UNL     1     -15.416   8.087  -0.180  1.00  0.00     0.066 A 
HETATM    3  C2  UNL     1     -15.079   7.432  -1.311  1.00  0.00    -0.013 A 
HETATM    4  C1  UNL     1     -16.027   7.446  -2.457  1.00  0.00     0.052 C 
HETATM    5  C23 UNL     1     -13.779   6.976  -1.574  1.00  0.00     0.095 A 
HETATM    6  N7  UNL     1     -12.807   7.214  -0.665  1.00  0.00    -0.194 N 
HETATM    7  C21 UNL     1     -13.203   6.248  -2.600  1.00  0.00     0.061 A 
HETATM    8  N6  UNL     1     -13.096   7.865   0.454  1.00  0.00    -0.265 N 
HETATM    9  N8  UNL     1     -11.691   6.704  -1.069  1.00  0.00    -0.282 N 
HETATM   10  C15 UNL     1     -14.313   8.285   0.710  1.00  0.00     0.147 A 
ATOM     11  H6  UNL     1     -12.355   8.044   1.132  1.00  0.00     0.190 HD
HETATM   12  N5  UNL     1     -14.537   8.955   1.937  1.00  0.00    -0.080 NA
HETATM   13  C16 UNL     1     -11.848   6.077  -2.278  1.00  0.00     0.049 A 
ATOM     14  H8  UNL     1     -10.811   6.761  -0.557  1.00  0.00     0.189 HD
BRANCH  13  15
HETATM   15  C17 UNL     1     -10.790   5.409  -3.029  1.00  0.00    -0.006 C 
HETATM   16  C18 UNL     1     -10.930   3.960  -3.334  1.00  0.00     0.021 C 
HETATM   17  C19 UNL     1     -10.278   6.205  -4.223  1.00  0.00     0.021 C 
HETATM   18  C20 UNL     1      -9.535   5.427  -2.079  1.00  0.00     0.021 C 
ENDBRANCH  13  15
BRANCH   7  19
HETATM   19  C22 UNL     1     -13.858   5.650  -3.738  1.00  0.00     0.391 C 
HETATM   20  F4  UNL     1     -13.243   5.799  -4.969  1.00  0.00    -0.209 F 
HETATM   21  F5  UNL     1     -13.900   4.209  -3.586  1.00  0.00    -0.209 F 
ENDBRANCH   7  19
ENDBRANCH   1   2
BRANCH   1  22
HETATM   22  O1  UNL     1     -17.472   7.725   0.877  1.00  0.00    -0.345 OA
ATOM     23  H1  UNL     1     -18.399   7.740   0.671  1.00  0.00     0.219 HD
ENDBRANCH   1  22
BRANCH   1  24
HETATM   24  N1  UNL     1     -17.282   9.787   0.046  1.00  0.00    -0.332 N 
ATOM     25  H1  UNL     1     -18.302   9.837   0.049  1.00  0.00     0.168 HD
BRANCH  24  26
HETATM   26  C5  UNL     1     -16.534  11.029  -0.153  1.00  0.00     0.097 A 
HETATM   27  C6  UNL     1     -15.926  11.387  -1.324  1.00  0.00     0.140 A 
HETATM   28  N2  UNL     1     -15.415  12.650  -1.146  1.00  0.00    -0.306 N 
HETATM   29  N3  UNL     1     -15.681  13.062   0.056  1.00  0.00    -0.280 N 
ATOM     30  H2  UNL     1     -14.904  13.182  -1.851  1.00  0.00     0.186 HD
HETATM   31  C7  UNL     1     -15.350  14.312   0.706  1.00  0.00     0.179 C 
HETATM   32  C8  UNL     1     -16.386  12.072   0.723  1.00  0.00     0.148 A 
BRANCH  32  33
HETATM   33  N4  UNL     1     -16.774  12.154   2.069  1.00  0.00    -0.363 N 
HETATM   34  C9  UNL     1     -16.083  11.903   3.286  1.00  0.00     0.125 C 
HETATM   35  C10 UNL     1     -16.705  12.856   4.306  1.00  0.00     0.039 C 
HETATM   36  C11 UNL     1     -17.878  13.453   3.600  1.00  0.00     0.062 C 
HETATM   37  C14 UNL     1     -18.175  12.537   2.472  1.00  0.00     0.142 C 
BRANCH  36  38
HETATM   38  C12 UNL     1     -19.069  13.598   4.547  1.00  0.00     0.239 C 
HETATM   39  F1  UNL     1     -18.630  13.647   5.861  1.00  0.00    -0.254 F 
ENDBRANCH  36  38
BRANCH  36  40
HETATM   40  C13 UNL     1     -17.518  14.821   3.030  1.00  0.00     0.365 C 
HETATM   41  F2  UNL     1     -17.121  15.650   4.046  1.00  0.00    -0.213 F 
HETATM   42  F3  UNL     1     -18.526  15.323   2.270  1.00  0.00    -0.213 F 
ENDBRANCH  36  40
ENDBRANCH  32  33
ENDBRANCH  24  26
ENDBRANCH   1  24
TORSDOF 9
ENDMDL
MODEL 2
REMARK VINA RESULT: -6.879973857      1.372      1.739
REMARK  9 active torsions:
REMARK  status: ('A' for Active; 'I' for Inactive)
REMARK    1  A    between atoms: C3_3  and  C4_4 
REMARK    2  A    between atoms: C4_4  and  O1_5 
REMARK    3  A    between atoms: C4_4  and  N1_7 
REMARK    4  A    between atoms: N1_7  and  C5_9 
REMARK    5  A    between atoms: C8_15  and  N4_16 
REMARK    6  A    between atoms: C11_19  and  C12_20 
REMARK    7  A    between atoms: C11_19  and  C13_22 
REMARK    8  A    between atoms: C16_33  and  C17_34 
REMARK    9  A    between atoms: C21_38  and  C22_39 
ROOT
HETATM    1  C4  UNL     1     -16.011   8.666   0.799  1.00  0.00     0.155 C 
ENDROOT
BRANCH   1   2
HETATM    2  C3  UNL     1     -14.780   8.159   0.287  1.00  0.00     0.066 A 
HETATM    3  C2  UNL     1     -14.555   7.483  -0.858  1.00  0.00    -0.013 A 
HETATM    4  C1  UNL     1     -15.600   7.501  -1.917  1.00  0.00     0.052 C 
HETATM    5  C23 UNL     1     -13.293   6.996  -1.227  1.00  0.00     0.095 A 
HETATM    6  N7  UNL     1     -12.240   7.226  -0.410  1.00  0.00    -0.194 N 
HETATM    7  C21 UNL     1     -12.823   6.244  -2.289  1.00  0.00     0.061 A 
HETATM    8  N6  UNL     1     -12.419   7.898   0.720  1.00  0.00    -0.265 N 
HETATM    9  N8  UNL     1     -11.175   6.689  -0.902  1.00  0.00    -0.282 N 
HETATM   10  C15 UNL     1     -13.600   8.346   1.075  1.00  0.00     0.147 A 
ATOM     11  H6  UNL     1     -11.618   8.070   1.328  1.00  0.00     0.190 HD
HETATM   12  N5  UNL     1     -13.703   9.036   2.307  1.00  0.00    -0.080 NA
HETATM   13  C16 UNL     1     -11.449   6.050  -2.084  1.00  0.00     0.049 A 
ATOM     14  H8  UNL     1     -10.252   6.734  -0.469  1.00  0.00     0.189 HD
BRANCH  13  15
HETATM   15  C17 UNL     1     -10.473   5.350  -2.914  1.00  0.00    -0.006 C 
HETATM   16  C18 UNL     1     -10.701   3.916  -3.237  1.00  0.00     0.021 C 
HETATM   17  C19 UNL     1     -10.002   6.147  -4.123  1.00  0.00     0.021 C 
HETATM   18  C20 UNL     1      -9.161   5.289  -2.047  1.00  0.00     0.021 C 
ENDBRANCH  13  15
BRANCH   7  19
HETATM   19  C22 UNL     1     -13.587   5.645  -3.357  1.00  0.00     0.391 C 
HETATM   20  F4  UNL     1     -13.056   5.726  -4.633  1.00  0.00    -0.209 F 
HETATM   21  F5  UNL     1     -13.685   4.213  -3.153  1.00  0.00    -0.209 F 
ENDBRANCH   7  19
ENDBRANCH   1   2
BRANCH   1  22
HETATM   22  O1  UNL     1     -17.008   7.821   0.917  1.00  0.00    -0.345 OA
ATOM     23  H1  UNL     1     -17.863   8.181   1.123  1.00  0.00     0.219 HD
ENDBRANCH   1  22
BRANCH   1  24
HETATM   24  N1  UNL     1     -16.346   9.934   1.195  1.00  0.00    -0.332 N 
ATOM     25  H1  UNL     1     -15.824  10.349   1.967  1.00  0.00     0.168 HD
BRANCH  24  26
HETATM   26  C5  UNL     1     -17.408  10.729   0.577  1.00  0.00     0.097 A 
HETATM   27  C6  UNL     1     -18.175  10.310  -0.475  1.00  0.00     0.140 A 
HETATM   28  N2  UNL     1     -19.116  11.285  -0.704  1.00  0.00    -0.306 N 
HETATM   29  N3  UNL     1     -18.954  12.254   0.145  1.00  0.00    -0.280 N 
ATOM     30  H2  UNL     1     -19.831  11.253  -1.430  1.00  0.00     0.186 HD
HETATM   31  C7  UNL     1     -19.690  13.491   0.297  1.00  0.00     0.179 C 
HETATM   32  C8  UNL     1     -17.886  11.949   0.975  1.00  0.00     0.148 A 
BRANCH  32  33
HETATM   33  N4  UNL     1     -17.388  12.810   1.964  1.00  0.00    -0.363 N 
HETATM   34  C9  UNL     1     -16.664  14.032   1.900  1.00  0.00     0.125 C 
HETATM   35  C10 UNL     1     -17.089  14.818   3.140  1.00  0.00     0.039 C 
HETATM   36  C11 UNL     1     -17.902  13.852   3.939  1.00  0.00     0.062 C 
HETATM   37  C14 UNL     1     -17.537  12.507   3.432  1.00  0.00     0.142 C 
BRANCH  36  38
HETATM   38  C12 UNL     1     -17.611  14.000   5.433  1.00  0.00     0.239 C 
HETATM   39  F1  UNL     1     -16.608  13.121   5.812  1.00  0.00    -0.254 F 
ENDBRANCH  36  38
BRANCH  36  40
HETATM   40  C13 UNL     1     -19.389  14.076   3.691  1.00  0.00     0.365 C 
HETATM   41  F2  UNL     1     -19.853  15.052   4.533  1.00  0.00    -0.213 F 
HETATM   42  F3  UNL     1     -20.085  12.910   3.762  1.00  0.00    -0.213 F 
ENDBRANCH  36  40
ENDBRANCH  32  33
ENDBRANCH  24  26
ENDBRANCH   1  24
TORSDOF 9
ENDMDL
MODEL 3
REMARK VINA RESULT: -6.860946786      1.178      1.523
REMARK  9 active torsions:
REMARK  status: ('A' for Active; 'I' for Inactive)
REMARK    1  A    between atoms: C3_3  and  C4_4 
REMARK    2  A    between atoms: C4_4  and  O1_5 
REMARK    3  A    between atoms: C4_4  and  N1_7 
REMARK    4  A    between atoms: N1_7  and  C5_9 
REMARK    5  A    between atoms: C8_15  and  N4_16 
REMARK    6  A    between atoms: C11_19  and  C12_20 
REMARK    7  A    between atoms: C11_19  and  C13_22 
REMARK    8  A    between atoms: C16_33  and  C17_34 
REMARK    9  A    between atoms: C21_38  and  C22_39 
ROOT
HETATM    1  C4  UNL     1     -16.008   8.762   0.707  1.00  0.00     0.155 C 
ENDROOT
BRANCH   1   2
HETATM    2  C3  UNL     1     -14.783   8.212   0.225  1.00  0.00     0.066 A 
HETATM    3  C2  UNL     1     -14.550   7.544  -0.923  1.00  0.00    -0.013 A 
HETATM    4  C1  UNL     1     -15.561   7.618  -2.013  1.00  0.00     0.052 C 
HETATM    5  C23 UNL     1     -13.298   7.012  -1.262  1.00  0.00     0.095 A 
HETATM    6  N7  UNL     1     -12.262   7.189  -0.411  1.00  0.00    -0.194 N 
HETATM    7  C21 UNL     1     -12.826   6.256  -2.320  1.00  0.00     0.061 A 
HETATM    8  N6  UNL     1     -12.448   7.852   0.724  1.00  0.00    -0.265 N 
HETATM    9  N8  UNL     1     -11.204   6.616  -0.878  1.00  0.00    -0.282 N 
HETATM   10  C15 UNL     1     -13.621   8.342   1.050  1.00  0.00     0.147 A 
ATOM     11  H6  UNL     1     -11.660   7.984   1.358  1.00  0.00     0.190 HD
HETATM   12  N5  UNL     1     -13.734   9.018   2.289  1.00  0.00    -0.080 NA
HETATM   13  C16 UNL     1     -11.467   6.005  -2.077  1.00  0.00     0.049 A 
ATOM     14  H8  UNL     1     -10.294   6.618  -0.417  1.00  0.00     0.189 HD
BRANCH  13  15
HETATM   15  C17 UNL     1     -10.495   5.278  -2.887  1.00  0.00    -0.006 C 
HETATM   16  C18 UNL     1     -10.765   3.856  -3.230  1.00  0.00     0.021 C 
HETATM   17  C19 UNL     1      -9.963   6.069  -4.076  1.00  0.00     0.021 C 
HETATM   18  C20 UNL     1      -9.209   5.162  -1.987  1.00  0.00     0.021 C 
ENDBRANCH  13  15
BRANCH   7  19
HETATM   19  C22 UNL     1     -13.579   5.703  -3.419  1.00  0.00     0.391 C 
HETATM   20  F4  UNL     1     -13.008   5.781  -4.677  1.00  0.00    -0.209 F 
HETATM   21  F5  UNL     1     -13.738   4.273  -3.241  1.00  0.00    -0.209 F 
ENDBRANCH   7  19
ENDBRANCH   1   2
BRANCH   1  22
HETATM   22  O1  UNL     1     -17.014   7.935   0.874  1.00  0.00    -0.345 OA
ATOM     23  H1  UNL     1     -17.816   8.124   0.402  1.00  0.00     0.219 HD
ENDBRANCH   1  22
BRANCH   1  24
HETATM   24  N1  UNL     1     -16.329  10.053   1.029  1.00  0.00    -0.332 N 
ATOM     25  H1  UNL     1     -16.585  10.257   1.996  1.00  0.00     0.168 HD
BRANCH  24  26
HETATM   26  C5  UNL     1     -16.327  11.159   0.071  1.00  0.00     0.097 A 
HETATM   27  C6  UNL     1     -15.720  11.120  -1.154  1.00  0.00     0.140 A 
HETATM   28  N2  UNL     1     -16.019  12.300  -1.792  1.00  0.00    -0.306 N 
HETATM   29  N3  UNL     1     -16.764  13.034  -1.024  1.00  0.00    -0.280 N 
ATOM     30  H2  UNL     1     -15.703  12.559  -2.727  1.00  0.00     0.186 HD
HETATM   31  C7  UNL     1     -17.325  14.349  -1.251  1.00  0.00     0.179 C 
HETATM   32  C8  UNL     1     -16.986  12.356   0.166  1.00  0.00     0.148 A 
BRANCH  32  33
HETATM   33  N4  UNL     1     -17.693  12.889   1.254  1.00  0.00    -0.363 N 
HETATM   34  C9  UNL     1     -18.996  12.644   1.766  1.00  0.00     0.125 C 
HETATM   35  C10 UNL     1     -18.889  12.889   3.272  1.00  0.00     0.039 C 
HETATM   36  C11 UNL     1     -17.526  13.467   3.465  1.00  0.00     0.062 C 
HETATM   37  C14 UNL     1     -17.110  13.967   2.131  1.00  0.00     0.142 C 
BRANCH  36  38
HETATM   38  C12 UNL     1     -17.550  14.582   4.511  1.00  0.00     0.239 C 
HETATM   39  F1  UNL     1     -18.565  14.355   5.427  1.00  0.00    -0.254 F 
ENDBRANCH  36  38
BRANCH  36  40
HETATM   40  C13 UNL     1     -16.545  12.386   3.903  1.00  0.00     0.365 C 
HETATM   41  F2  UNL     1     -16.292  12.512   5.244  1.00  0.00    -0.213 F 
HETATM   42  F3  UNL     1     -15.429  12.384   3.128  1.00  0.00    -0.213 F 
ENDBRANCH  36  40
ENDBRANCH  32  33
ENDBRANCH  24  26
ENDBRANCH   1  24
TORSDOF 9
ENDMDL
MODEL 4
REMARK VINA RESULT: -6.837652498      3.490      5.084
REMARK  9 active torsions:
REMARK  status: ('A' for Active; 'I' for Inactive)
REMARK    1  A    between atoms: C3_3  and  C4_4 
REMARK    2  A    between atoms: C4_4  and  O1_5 
REMARK    3  A    between atoms: C4_4  and  N1_7 
REMARK    4  A    between atoms: N1_7  and  C5_9 
REMARK    5  A    between atoms: C8_15  and  N4_16 
REMARK    6  A    between atoms: C11_19  and  C12_20 
REMARK    7  A    between atoms: C11_19  and  C13_22 
REMARK    8  A    between atoms: C16_33  and  C17_34 
REMARK    9  A    between atoms: C21_38  and  C22_39 
ROOT
HETATM    1  C4  UNL     1     -16.592   8.609  -0.309  1.00  0.00     0.155 C 
ENDROOT
BRANCH   1   2
HETATM    2  C3  UNL     1     -15.313   8.044  -0.593  1.00  0.00     0.066 A 
HETATM    3  C2  UNL     1     -14.905   7.389  -1.699  1.00  0.00    -0.013 A 
HETATM    4  C1  UNL     1     -15.720   7.499  -2.939  1.00  0.00     0.052 C 
HETATM    5  C23 UNL     1     -13.623   6.839  -1.836  1.00  0.00     0.095 A 
HETATM    6  N7  UNL     1     -12.739   6.982  -0.822  1.00  0.00    -0.194 N 
HETATM    7  C21 UNL     1     -12.995   6.090  -2.815  1.00  0.00     0.061 A 
HETATM    8  N6  UNL     1     -13.099   7.631   0.278  1.00  0.00    -0.265 N 
HETATM    9  N8  UNL     1     -11.628   6.397  -1.119  1.00  0.00    -0.282 N 
HETATM   10  C15 UNL     1     -14.301   8.139   0.415  1.00  0.00     0.147 A 
ATOM     11  H6  UNL     1     -12.424   7.738   1.036  1.00  0.00     0.190 HD
HETATM   12  N5  UNL     1     -14.606   8.798   1.630  1.00  0.00    -0.080 NA
HETATM   13  C16 UNL     1     -11.699   5.809  -2.356  1.00  0.00     0.049 A 
ATOM     14  H8  UNL     1     -10.806   6.374  -0.515  1.00  0.00     0.189 HD
BRANCH  13  15
HETATM   15  C17 UNL     1     -10.619   5.076  -3.009  1.00  0.00    -0.006 C 
HETATM   16  C18 UNL     1     -10.824   3.642  -3.347  1.00  0.00     0.021 C 
HETATM   17  C19 UNL     1      -9.939   5.844  -4.135  1.00  0.00     0.021 C 
HETATM   18  C20 UNL     1      -9.465   5.002  -1.940  1.00  0.00     0.021 C 
ENDBRANCH  13  15
BRANCH   7  19
HETATM   19  C22 UNL     1     -13.566   5.568  -4.033  1.00  0.00     0.391 C 
HETATM   20  F4  UNL     1     -12.782   5.630  -5.173  1.00  0.00    -0.209 F 
HETATM   21  F5  UNL     1     -13.803   4.145  -3.899  1.00  0.00    -0.209 F 
ENDBRANCH   7  19
ENDBRANCH   1   2
BRANCH   1  22
HETATM   22  O1  UNL     1     -17.304   8.044   0.638  1.00  0.00    -0.345 OA
ATOM     23  H1  UNL     1     -18.079   8.505   0.934  1.00  0.00     0.219 HD
ENDBRANCH   1  22
BRANCH   1  24
HETATM   24  N1  UNL     1     -17.232   9.675  -0.883  1.00  0.00    -0.332 N 
ATOM     25  H1  UNL     1     -17.011   9.903  -1.853  1.00  0.00     0.168 HD
BRANCH  24  26
HETATM   26  C5  UNL     1     -18.215  10.508  -0.188  1.00  0.00     0.097 A 
HETATM   27  C6  UNL     1     -17.923  11.340   0.857  1.00  0.00     0.140 A 
HETATM   28  N2  UNL     1     -19.077  12.016   1.171  1.00  0.00    -0.306 N 
HETATM   29  N3  UNL     1     -20.033  11.638   0.378  1.00  0.00    -0.280 N 
ATOM     30  H2  UNL     1     -19.169  12.709   1.914  1.00  0.00     0.186 HD
HETATM   31  C7  UNL     1     -21.417  12.058   0.322  1.00  0.00     0.179 C 
HETATM   32  C8  UNL     1     -19.537  10.684  -0.498  1.00  0.00     0.148 A 
BRANCH  32  33
HETATM   33  N4  UNL     1     -20.318  10.008  -1.447  1.00  0.00    -0.363 N 
HETATM   34  C9  UNL     1     -20.326  10.017  -2.868  1.00  0.00     0.125 C 
HETATM   35  C10 UNL     1     -20.783   8.617  -3.277  1.00  0.00     0.039 C 
HETATM   36  C11 UNL     1     -21.202   7.967  -1.999  1.00  0.00     0.062 C 
HETATM   37  C14 UNL     1     -21.432   9.077  -1.043  1.00  0.00     0.142 C 
BRANCH  36  38
HETATM   38  C12 UNL     1     -22.457   7.119  -2.204  1.00  0.00     0.239 C 
HETATM   39  F1  UNL     1     -22.756   7.028  -3.555  1.00  0.00    -0.254 F 
ENDBRANCH  36  38
BRANCH  36  40
HETATM   40  C13 UNL     1     -20.082   7.087  -1.457  1.00  0.00     0.365 C 
HETATM   41  F2  UNL     1     -18.969   7.224  -2.245  1.00  0.00    -0.213 F 
HETATM   42  F3  UNL     1     -20.492   5.801  -1.301  1.00  0.00    -0.213 F 
ENDBRANCH  36  40
ENDBRANCH  32  33
ENDBRANCH  24  26
ENDBRANCH   1  24
TORSDOF 9
ENDMDL
MODEL 5
REMARK VINA RESULT: -6.735946769      5.914      8.291
REMARK  9 active torsions:
REMARK  status: ('A' for Active; 'I' for Inactive)
REMARK    1  A    between atoms: C3_3  and  C4_4 
REMARK    2  A    between atoms: C4_4  and  O1_5 
REMARK    3  A    between atoms: C4_4  and  N1_7 
REMARK    4  A    between atoms: N1_7  and  C5_9 
REMARK    5  A    between atoms: C8_15  and  N4_16 
REMARK    6  A    between atoms: C11_19  and  C12_20 
REMARK    7  A    between atoms: C11_19  and  C13_22 
REMARK    8  A    between atoms: C16_33  and  C17_34 
REMARK    9  A    between atoms: C21_38  and  C22_39 
ROOT
HETATM    1  C4  UNL     1     -18.329   8.275  -2.018  1.00  0.00     0.155 C 
ENDROOT
BRANCH   1   2
HETATM    2  C3  UNL     1     -19.650   7.738  -2.035  1.00  0.00     0.066 A 
HETATM    3  C2  UNL     1     -20.698   8.095  -2.806  1.00  0.00    -0.013 A 
HETATM    4  C1  UNL     1     -20.447   8.918  -4.020  1.00  0.00     0.052 C 
HETATM    5  C23 UNL     1     -21.968   7.513  -2.692  1.00  0.00     0.095 A 
HETATM    6  N7  UNL     1     -22.158   6.532  -1.780  1.00  0.00    -0.194 N 
HETATM    7  C21 UNL     1     -23.189   7.736  -3.304  1.00  0.00     0.061 A 
HETATM    8  N6  UNL     1     -21.148   6.144  -1.011  1.00  0.00    -0.265 N 
HETATM    9  N8  UNL     1     -23.386   6.136  -1.806  1.00  0.00    -0.282 N 
HETATM   10  C15 UNL     1     -19.960   6.694  -1.107  1.00  0.00     0.147 A 
ATOM     11  H6  UNL     1     -21.299   5.401  -0.330  1.00  0.00     0.190 HD
HETATM   12  N5  UNL     1     -18.946   6.232  -0.234  1.00  0.00    -0.080 NA
HETATM   13  C16 UNL     1     -24.107   6.839  -2.737  1.00  0.00     0.049 A 
ATOM     14  H8  UNL     1     -23.769   5.399  -1.215  1.00  0.00     0.189 HD
BRANCH  13  15
HETATM   15  C17 UNL     1     -25.521   6.639  -3.039  1.00  0.00    -0.006 C 
HETATM   16  C18 UNL     1     -26.448   7.799  -2.942  1.00  0.00     0.021 C 
HETATM   17  C19 UNL     1     -25.777   5.797  -4.282  1.00  0.00     0.021 C 
HETATM   18  C20 UNL     1     -26.057   5.692  -1.903  1.00  0.00     0.021 C 
ENDBRANCH  13  15
BRANCH   7  19
HETATM   19  C22 UNL     1     -23.527   8.766  -4.256  1.00  0.00     0.391 C 
HETATM   20  F4  UNL     1     -24.345   8.404  -5.312  1.00  0.00    -0.209 F 
HETATM   21  F5  UNL     1     -24.303   9.805  -3.607  1.00  0.00    -0.209 F 
ENDBRANCH   7  19
ENDBRANCH   1   2
BRANCH   1  22
HETATM   22  O1  UNL     1     -17.359   7.500  -2.447  1.00  0.00    -0.345 OA
ATOM     23  H1  UNL     1     -16.524   7.557  -1.997  1.00  0.00     0.219 HD
ENDBRANCH   1  22
BRANCH   1  24
HETATM   24  N1  UNL     1     -17.880   9.501  -1.608  1.00  0.00    -0.332 N 
ATOM     25  H1  UNL     1     -17.825  10.248  -2.301  1.00  0.00     0.168 HD
BRANCH  24  26
HETATM   26  C5  UNL     1     -17.474   9.806  -0.235  1.00  0.00     0.097 A 
HETATM   27  C6  UNL     1     -16.659   9.012   0.525  1.00  0.00     0.140 A 
HETATM   28  N2  UNL     1     -16.435   9.676   1.707  1.00  0.00    -0.306 N 
HETATM   29  N3  UNL     1     -17.065  10.811   1.695  1.00  0.00    -0.280 N 
ATOM     30  H2  UNL     1     -15.862   9.330   2.476  1.00  0.00     0.186 HD
HETATM   31  C7  UNL     1     -17.137  11.846   2.704  1.00  0.00     0.179 C 
HETATM   32  C8  UNL     1     -17.738  10.938   0.489  1.00  0.00     0.148 A 
BRANCH  32  33
HETATM   33  N4  UNL     1     -18.579  12.013   0.168  1.00  0.00    -0.363 N 
HETATM   34  C9  UNL     1     -18.409  13.151  -0.667  1.00  0.00     0.125 C 
HETATM   35  C10 UNL     1     -19.806  13.474  -1.198  1.00  0.00     0.039 C 
HETATM   36  C11 UNL     1     -20.719  12.574  -0.432  1.00  0.00     0.062 C 
HETATM   37  C14 UNL     1     -19.954  12.156   0.769  1.00  0.00     0.142 C 
BRANCH  36  38
HETATM   38  C12 UNL     1     -22.013  13.298  -0.061  1.00  0.00     0.239 C 
HETATM   39  F1  UNL     1     -22.732  12.550   0.857  1.00  0.00    -0.254 F 
ENDBRANCH  36  38
BRANCH  36  40
HETATM   40  C13 UNL     1     -21.052  11.331  -1.249  1.00  0.00     0.365 C 
HETATM   41  F2  UNL     1     -22.126  11.590  -2.060  1.00  0.00    -0.213 F 
HETATM   42  F3  UNL     1     -21.211  10.241  -0.454  1.00  0.00    -0.213 F 
ENDBRANCH  36  40
ENDBRANCH  32  33
ENDBRANCH  24  26
ENDBRANCH   1  24
TORSDOF 9
ENDMDL
