MODEL 1
REMARK VINA RESULT: -7.867487742      0.000      0.000
REMARK  9 active torsions:
REMARK  status: ('A' for Active; 'I' for Inactive)
REMARK    1  A    between atoms: C2_2  and  N1_3 
REMARK    2  A    between atoms: C2_2  and  C20_37 
REMARK    3  A    between atoms: C5_8  and  N3_9 
REMARK    4  A    between atoms: N3_9  and  C6_11 
REMARK    5  A    between atoms: N4_14  and  C9_15 
REMARK    6  A    between atoms: C9_15  and  O1_16 
REMARK    7  A    between atoms: C9_15  and  C10_18 
REMARK    8  A    between atoms: C12_21  and  C13_22 
REMARK    9  A    between atoms: C16_29  and  C17_30 
ROOT
HETATM    1  N1  UNL     1     -15.643   7.952  -0.567  1.00  0.00    -0.291 N 
HETATM    2  C3  UNL     1     -15.088   7.208  -1.617  1.00  0.00     0.190 A 
HETATM    3  N2  UNL     1     -13.810   7.085  -1.489  1.00  0.00    -0.347 N 
ATOM      4  H2  UNL     1     -13.199   6.583  -2.134  1.00  0.00     0.167 HD
HETATM    5  C4  UNL     1     -13.410   7.713  -0.388  1.00  0.00     0.106 A 
HETATM    6  C5  UNL     1     -12.125   7.859   0.153  1.00  0.00     0.076 A 
HETATM    7  C16 UNL     1     -12.036   8.601   1.345  1.00  0.00     0.073 A 
HETATM    8  C18 UNL     1     -13.204   9.101   1.853  1.00  0.00     0.108 A 
HETATM    9  N7  UNL     1     -14.424   8.940   1.303  1.00  0.00    -0.349 N 
ATOM     10  H7  UNL     1     -15.245   9.347   1.749  1.00  0.00     0.167 HD
HETATM   11  C19 UNL     1     -14.553   8.237   0.160  1.00  0.00     0.142 A 
ENDROOT
BRANCH   6  12
HETATM   12  N3  UNL     1     -11.085   7.396  -0.326  1.00  0.00    -0.381 N 
ATOM     13  H3  UNL     1     -10.486   7.071   0.433  1.00  0.00     0.160 HD
BRANCH  12  14
HETATM   14  C6  UNL     1     -10.439   7.162  -1.548  1.00  0.00     0.112 C 
HETATM   15  C7  UNL     1      -9.097   7.762  -1.715  1.00  0.00     0.057 C 
HETATM   16  C8  UNL     1      -8.232   6.736  -2.401  1.00  0.00     0.278 C 
HETATM   17  N4  UNL     1      -8.992   5.502  -2.487  1.00  0.00     0.125 N 
HETATM   18  C15 UNL     1     -10.195   5.663  -1.775  1.00  0.00     0.301 C 
BRANCH  17  19
HETATM   19  C9  UNL     1      -8.106   4.484  -2.025  1.00  0.00     0.408 C 
BRANCH  19  20
HETATM   20  O1  UNL     1      -8.562   3.902  -0.859  1.00  0.00    -0.363 OA
ATOM     21  H1  UNL     1      -7.863   3.463  -0.390  1.00  0.00     0.212 HD
ENDBRANCH  19  20
BRANCH  19  22
HETATM   22  C10 UNL     1      -7.688   3.460  -3.060  1.00  0.00     0.075 A 
HETATM   23  C11 UNL     1      -7.821   3.687  -4.399  1.00  0.00     0.081 A 
HETATM   24  S1  UNL     1      -7.248   2.210  -5.076  1.00  0.00    -0.080 SA
HETATM   25  C12 UNL     1      -6.877   1.401  -3.614  1.00  0.00     0.123 A 
HETATM   26  N5  UNL     1      -7.203   2.285  -2.712  1.00  0.00    -0.348 N 
ATOM     27  H5  UNL     1      -7.081   2.063  -1.723  1.00  0.00     0.166 HD
BRANCH  25  28
HETATM   28  C13 UNL     1      -6.317   0.005  -3.453  1.00  0.00     0.288 C 
HETATM   29  C14 UNL     1      -5.963  -0.604  -4.758  1.00  0.00     0.098 C 
HETATM   30  F1  UNL     1      -5.188   0.160  -2.662  1.00  0.00    -0.199 F 
HETATM   31  F2  UNL     1      -7.254  -0.728  -2.738  1.00  0.00    -0.199 F 
ENDBRANCH  25  28
ENDBRANCH  19  22
ENDBRANCH  17  19
ENDBRANCH  12  14
ENDBRANCH   6  12
BRANCH   7  32
HETATM   32  C17 UNL     1     -10.780   8.857   2.043  1.00  0.00     0.268 C 
HETATM   33  N6  UNL     1      -9.672   9.450   1.319  1.00  0.00    -0.057 NA
HETATM   34  O2  UNL     1     -10.666   8.575   3.235  1.00  0.00    -0.271 OA
ENDBRANCH   7  32
BRANCH   1  35
HETATM   35  C2  UNL     1     -17.026   8.227  -0.509  1.00  0.00     0.099 C 
HETATM   36  C1  UNL     1     -17.852   7.183  -1.296  1.00  0.00     0.073 C 
BRANCH  35  37
HETATM   37  C20 UNL     1     -17.626   9.552  -0.564  1.00  0.00     0.428 C 
HETATM   38  F3  UNL     1     -18.973   9.608  -0.881  1.00  0.00    -0.165 F 
HETATM   39  F4  UNL     1     -17.621  10.139   0.751  1.00  0.00    -0.165 F 
HETATM   40  F5  UNL     1     -16.910  10.509  -1.289  1.00  0.00    -0.165 F 
ENDBRANCH  35  37
ENDBRANCH   1  35
TORSDOF 9
ENDMDL
MODEL 2
REMARK VINA RESULT: -7.464938429      1.453      1.750
REMARK  9 active torsions:
REMARK  status: ('A' for Active; 'I' for Inactive)
REMARK    1  A    between atoms: C2_2  and  N1_3 
REMARK    2  A    between atoms: C2_2  and  C20_37 
REMARK    3  A    between atoms: C5_8  and  N3_9 
REMARK    4  A    between atoms: N3_9  and  C6_11 
REMARK    5  A    between atoms: N4_14  and  C9_15 
REMARK    6  A    between atoms: C9_15  and  O1_16 
REMARK    7  A    between atoms: C9_15  and  C10_18 
REMARK    8  A    between atoms: C12_21  and  C13_22 
REMARK    9  A    between atoms: C16_29  and  C17_30 
ROOT
HETATM    1  N1  UNL     1     -15.060   7.664  -1.647  1.00  0.00    -0.291 N 
HETATM    2  C3  UNL     1     -14.338   6.918  -2.588  1.00  0.00     0.190 A 
HETATM    3  N2  UNL     1     -13.089   6.836  -2.273  1.00  0.00    -0.347 N 
ATOM      4  H2  UNL     1     -12.378   6.341  -2.812  1.00  0.00     0.167 HD
HETATM    5  C4  UNL     1     -12.872   7.496  -1.140  1.00  0.00     0.106 A 
HETATM    6  C5  UNL     1     -11.684   7.690  -0.422  1.00  0.00     0.076 A 
HETATM    7  C16 UNL     1     -11.790   8.456   0.754  1.00  0.00     0.073 A 
HETATM    8  C18 UNL     1     -13.033   8.930   1.075  1.00  0.00     0.108 A 
HETATM    9  N7  UNL     1     -14.155   8.722   0.357  1.00  0.00    -0.349 N 
ATOM     10  H7  UNL     1     -15.043   9.113   0.671  1.00  0.00     0.167 HD
HETATM   11  C19 UNL     1     -14.096   7.995  -0.776  1.00  0.00     0.142 A 
ENDROOT
BRANCH   6  12
HETATM   12  N3  UNL     1     -10.573   7.251  -0.734  1.00  0.00    -0.381 N 
ATOM     13  H3  UNL     1      -9.923   7.416   0.035  1.00  0.00     0.160 HD
BRANCH  12  14
HETATM   14  C6  UNL     1      -9.892   6.605  -1.776  1.00  0.00     0.112 C 
HETATM   15  C7  UNL     1      -8.514   7.065  -2.053  1.00  0.00     0.057 C 
HETATM   16  C8  UNL     1      -7.679   5.839  -2.320  1.00  0.00     0.278 C 
HETATM   17  N4  UNL     1      -8.502   4.675  -2.042  1.00  0.00     0.125 N 
HETATM   18  C15 UNL     1      -9.722   5.106  -1.489  1.00  0.00     0.301 C 
BRANCH  17  19
HETATM   19  C9  UNL     1      -7.692   3.830  -1.226  1.00  0.00     0.408 C 
BRANCH  19  20
HETATM   20  O1  UNL     1      -8.450   3.129  -0.309  1.00  0.00    -0.363 OA
ATOM     21  H1  UNL     1      -8.582   2.228  -0.579  1.00  0.00     0.212 HD
ENDBRANCH  19  20
BRANCH  19  22
HETATM   22  C10 UNL     1      -6.713   2.944  -1.968  1.00  0.00     0.075 A 
HETATM   23  C11 UNL     1      -5.362   3.110  -1.860  1.00  0.00     0.081 A 
HETATM   24  S1  UNL     1      -4.762   1.894  -2.924  1.00  0.00    -0.080 SA
HETATM   25  C12 UNL     1      -6.266   1.256  -3.435  1.00  0.00     0.123 A 
HETATM   26  N5  UNL     1      -7.122   1.990  -2.779  1.00  0.00    -0.348 N 
ATOM     27  H5  UNL     1      -8.122   1.822  -2.896  1.00  0.00     0.166 HD
BRANCH  25  28
HETATM   28  C13 UNL     1      -6.500   0.126  -4.413  1.00  0.00     0.288 C 
HETATM   29  C14 UNL     1      -5.226  -0.426  -4.938  1.00  0.00     0.098 C 
HETATM   30  F1  UNL     1      -7.189  -0.837  -3.689  1.00  0.00    -0.199 F 
HETATM   31  F2  UNL     1      -7.340   0.613  -5.403  1.00  0.00    -0.199 F 
ENDBRANCH  25  28
ENDBRANCH  19  22
ENDBRANCH  17  19
ENDBRANCH  12  14
ENDBRANCH   6  12
BRANCH   7  32
HETATM   32  C17 UNL     1     -10.656   8.763   1.621  1.00  0.00     0.268 C 
HETATM   33  N6  UNL     1      -9.523   9.489   1.080  1.00  0.00    -0.057 NA
HETATM   34  O2  UNL     1     -10.666   8.411   2.799  1.00  0.00    -0.271 OA
ENDBRANCH   7  32
BRANCH   1  35
HETATM   35  C2  UNL     1     -16.444   7.898  -1.796  1.00  0.00     0.099 C 
HETATM   36  C1  UNL     1     -16.724   9.245  -2.504  1.00  0.00     0.073 C 
BRANCH  35  37
HETATM   37  C20 UNL     1     -17.466   7.577  -0.812  1.00  0.00     0.428 C 
HETATM   38  F3  UNL     1     -17.139   7.801   0.516  1.00  0.00    -0.165 F 
HETATM   39  F4  UNL     1     -18.591   8.461  -0.977  1.00  0.00    -0.165 F 
HETATM   40  F5  UNL     1     -18.079   6.330  -0.963  1.00  0.00    -0.165 F 
ENDBRANCH  35  37
ENDBRANCH   1  35
TORSDOF 9
ENDMDL
MODEL 3
REMARK VINA RESULT: -7.252945927      2.745      3.869
REMARK  9 active torsions:
REMARK  status: ('A' for Active; 'I' for Inactive)
REMARK    1  A    between atoms: C2_2  and  N1_3 
REMARK    2  A    between atoms: C2_2  and  C20_37 
REMARK    3  A    between atoms: C5_8  and  N3_9 
REMARK    4  A    between atoms: N3_9  and  C6_11 
REMARK    5  A    between atoms: N4_14  and  C9_15 
REMARK    6  A    between atoms: C9_15  and  O1_16 
REMARK    7  A    between atoms: C9_15  and  C10_18 
REMARK    8  A    between atoms: C12_21  and  C13_22 
REMARK    9  A    between atoms: C16_29  and  C17_30 
ROOT
HETATM    1  N1  UNL     1     -16.317   9.822   0.878  1.00  0.00    -0.291 N 
HETATM    2  C3  UNL     1     -16.928   9.335  -0.285  1.00  0.00     0.190 A 
HETATM    3  N2  UNL     1     -16.112   8.623  -0.989  1.00  0.00    -0.347 N 
ATOM      4  H2  UNL     1     -16.341   8.168  -1.872  1.00  0.00     0.167 HD
HETATM    5  C4  UNL     1     -14.929   8.576  -0.385  1.00  0.00     0.106 A 
HETATM    6  C5  UNL     1     -13.743   7.937  -0.772  1.00  0.00     0.076 A 
HETATM    7  C16 UNL     1     -12.647   8.088   0.097  1.00  0.00     0.073 A 
HETATM    8  C18 UNL     1     -12.848   8.837   1.224  1.00  0.00     0.108 A 
HETATM    9  N7  UNL     1     -14.006   9.438   1.564  1.00  0.00    -0.349 N 
ATOM     10  H7  UNL     1     -14.069   9.979   2.426  1.00  0.00     0.167 HD
HETATM   11  C19 UNL     1     -15.080   9.319   0.758  1.00  0.00     0.142 A 
ENDROOT
BRANCH   6  12
HETATM   12  N3  UNL     1     -13.587   7.265  -1.797  1.00  0.00    -0.381 N 
ATOM     13  H3  UNL     1     -12.753   7.592  -2.284  1.00  0.00     0.160 HD
BRANCH  12  14
HETATM   14  C6  UNL     1     -14.156   6.210  -2.523  1.00  0.00     0.112 C 
HETATM   15  C7  UNL     1     -14.298   6.410  -3.982  1.00  0.00     0.057 C 
HETATM   16  C8  UNL     1     -13.919   5.113  -4.650  1.00  0.00     0.278 C 
HETATM   17  N4  UNL     1     -13.405   4.222  -3.625  1.00  0.00     0.125 N 
HETATM   18  C15 UNL     1     -13.309   4.933  -2.415  1.00  0.00     0.301 C 
BRANCH  17  19
HETATM   19  C9  UNL     1     -12.189   3.700  -4.159  1.00  0.00     0.408 C 
BRANCH  19  20
HETATM   20  O1  UNL     1     -12.176   3.753  -5.539  1.00  0.00    -0.363 OA
ATOM     21  H1  UNL     1     -11.718   3.010  -5.914  1.00  0.00     0.212 HD
ENDBRANCH  19  20
BRANCH  19  22
HETATM   22  C10 UNL     1     -10.916   4.244  -3.545  1.00  0.00     0.075 A 
HETATM   23  C11 UNL     1     -10.502   5.528  -3.755  1.00  0.00     0.081 A 
HETATM   24  S1  UNL     1      -9.018   5.576  -2.881  1.00  0.00    -0.080 SA
HETATM   25  C12 UNL     1      -9.021   3.964  -2.306  1.00  0.00     0.123 A 
HETATM   26  N5  UNL     1     -10.131   3.490  -2.802  1.00  0.00    -0.348 N 
ATOM     27  H5  UNL     1     -10.394   2.522  -2.612  1.00  0.00     0.166 HD
BRANCH  25  28
HETATM   28  C13 UNL     1      -7.974   3.293  -1.446  1.00  0.00     0.288 C 
HETATM   29  C14 UNL     1      -6.628   3.882  -1.650  1.00  0.00     0.098 C 
HETATM   30  F1  UNL     1      -8.402   3.490  -0.141  1.00  0.00    -0.199 F 
HETATM   31  F2  UNL     1      -8.029   1.935  -1.723  1.00  0.00    -0.199 F 
ENDBRANCH  25  28
ENDBRANCH  19  22
ENDBRANCH  17  19
ENDBRANCH  12  14
ENDBRANCH   6  12
BRANCH   7  32
HETATM   32  C17 UNL     1     -11.335   7.497  -0.150  1.00  0.00     0.268 C 
HETATM   33  N6  UNL     1     -10.192   8.366  -0.359  1.00  0.00    -0.057 NA
HETATM   34  O2  UNL     1     -11.203   6.275  -0.177  1.00  0.00    -0.271 OA
ENDBRANCH   7  32
BRANCH   1  35
HETATM   35  C2  UNL     1     -17.016  10.640   1.791  1.00  0.00     0.099 C 
HETATM   36  C1  UNL     1     -18.148  11.435   1.098  1.00  0.00     0.073 C 
BRANCH  35  37
HETATM   37  C20 UNL     1     -16.416  11.386   2.887  1.00  0.00     0.428 C 
HETATM   38  F3  UNL     1     -15.527  12.390   2.539  1.00  0.00    -0.165 F 
HETATM   39  F4  UNL     1     -17.435  12.139   3.573  1.00  0.00    -0.165 F 
HETATM   40  F5  UNL     1     -15.902  10.615   3.933  1.00  0.00    -0.165 F 
ENDBRANCH  35  37
ENDBRANCH   1  35
TORSDOF 9
ENDMDL
MODEL 4
REMARK VINA RESULT: -7.240587290      3.975      5.920
REMARK  9 active torsions:
REMARK  status: ('A' for Active; 'I' for Inactive)
REMARK    1  A    between atoms: C2_2  and  N1_3 
REMARK    2  A    between atoms: C2_2  and  C20_37 
REMARK    3  A    between atoms: C5_8  and  N3_9 
REMARK    4  A    between atoms: N3_9  and  C6_11 
REMARK    5  A    between atoms: N4_14  and  C9_15 
REMARK    6  A    between atoms: C9_15  and  O1_16 
REMARK    7  A    between atoms: C9_15  and  C10_18 
REMARK    8  A    between atoms: C12_21  and  C13_22 
REMARK    9  A    between atoms: C16_29  and  C17_30 
ROOT
HETATM    1  N1  UNL     1     -17.434  13.047   2.879  1.00  0.00    -0.291 N 
HETATM    2  C3  UNL     1     -16.165  12.798   3.418  1.00  0.00     0.190 A 
HETATM    3  N2  UNL     1     -15.606  11.774   2.865  1.00  0.00    -0.347 N 
ATOM      4  H2  UNL     1     -14.682  11.411   3.098  1.00  0.00     0.167 HD
HETATM    5  C4  UNL     1     -16.420  11.266   1.945  1.00  0.00     0.106 A 
HETATM    6  C5  UNL     1     -16.251  10.159   1.102  1.00  0.00     0.076 A 
HETATM    7  C16 UNL     1     -17.320   9.874   0.233  1.00  0.00     0.073 A 
HETATM    8  C18 UNL     1     -18.409  10.700   0.298  1.00  0.00     0.108 A 
HETATM    9  N7  UNL     1     -18.535  11.758   1.123  1.00  0.00    -0.349 N 
ATOM     10  H7  UNL     1     -19.384  12.323   1.106  1.00  0.00     0.167 HD
HETATM   11  C19 UNL     1     -17.535  12.064   1.973  1.00  0.00     0.142 A 
ENDROOT
BRANCH   6  12
HETATM   12  N3  UNL     1     -15.256   9.428   1.063  1.00  0.00    -0.381 N 
ATOM     13  H3  UNL     1     -15.514   8.499   1.396  1.00  0.00     0.160 HD
BRANCH  12  14
HETATM   14  C6  UNL     1     -13.896   9.428   0.722  1.00  0.00     0.112 C 
HETATM   15  C7  UNL     1     -12.965   8.838   1.708  1.00  0.00     0.057 C 
HETATM   16  C8  UNL     1     -11.953   8.029   0.937  1.00  0.00     0.278 C 
HETATM   17  N4  UNL     1     -12.373   8.003  -0.453  1.00  0.00     0.125 N 
HETATM   18  C15 UNL     1     -13.638   8.612  -0.553  1.00  0.00     0.301 C 
BRANCH  17  19
HETATM   19  C9  UNL     1     -12.289   6.634  -0.843  1.00  0.00     0.408 C 
BRANCH  19  20
HETATM   20  O1  UNL     1     -13.425   6.225  -1.515  1.00  0.00    -0.363 OA
ATOM     21  H1  UNL     1     -13.644   5.322  -1.316  1.00  0.00     0.212 HD
ENDBRANCH  19  20
BRANCH  19  22
HETATM   22  C10 UNL     1     -11.016   6.232  -1.559  1.00  0.00     0.075 A 
HETATM   23  C11 UNL     1     -10.649   6.790  -2.750  1.00  0.00     0.081 A 
HETATM   24  S1  UNL     1      -9.189   5.948  -3.108  1.00  0.00    -0.080 SA
HETATM   25  C12 UNL     1      -9.141   4.944  -1.723  1.00  0.00     0.123 A 
HETATM   26  N5  UNL     1     -10.218   5.300  -1.078  1.00  0.00    -0.348 N 
ATOM     27  H5  UNL     1     -10.444   4.852  -0.190  1.00  0.00     0.166 HD
BRANCH  25  28
HETATM   28  C13 UNL     1      -8.096   3.907  -1.374  1.00  0.00     0.288 C 
HETATM   29  C14 UNL     1      -8.113   2.763  -2.318  1.00  0.00     0.098 C 
HETATM   30  F1  UNL     1      -6.885   4.582  -1.445  1.00  0.00    -0.199 F 
HETATM   31  F2  UNL     1      -8.314   3.538  -0.055  1.00  0.00    -0.199 F 
ENDBRANCH  25  28
ENDBRANCH  19  22
ENDBRANCH  17  19
ENDBRANCH  12  14
ENDBRANCH   6  12
BRANCH   7  32
HETATM   32  C17 UNL     1     -17.318   8.758  -0.708  1.00  0.00     0.268 C 
HETATM   33  N6  UNL     1     -17.741   7.446  -0.257  1.00  0.00    -0.057 NA
HETATM   34  O2  UNL     1     -16.964   8.932  -1.873  1.00  0.00    -0.271 OA
ENDBRANCH   7  32
BRANCH   1  35
HETATM   35  C2  UNL     1     -18.237  14.110   3.345  1.00  0.00     0.099 C 
HETATM   36  C1  UNL     1     -17.419  15.411   3.524  1.00  0.00     0.073 C 
BRANCH  35  37
HETATM   37  C20 UNL     1     -19.301  13.995   4.331  1.00  0.00     0.428 C 
HETATM   38  F3  UNL     1     -20.144  15.087   4.463  1.00  0.00    -0.165 F 
HETATM   39  F4  UNL     1     -20.228  12.972   3.922  1.00  0.00    -0.165 F 
HETATM   40  F5  UNL     1     -18.913  13.520   5.586  1.00  0.00    -0.165 F 
ENDBRANCH  35  37
ENDBRANCH   1  35
TORSDOF 9
ENDMDL
MODEL 5
REMARK VINA RESULT: -7.188034615      3.752     10.499
REMARK  9 active torsions:
REMARK  status: ('A' for Active; 'I' for Inactive)
REMARK    1  A    between atoms: C2_2  and  N1_3 
REMARK    2  A    between atoms: C2_2  and  C20_37 
REMARK    3  A    between atoms: C5_8  and  N3_9 
REMARK    4  A    between atoms: N3_9  and  C6_11 
REMARK    5  A    between atoms: N4_14  and  C9_15 
REMARK    6  A    between atoms: C9_15  and  O1_16 
REMARK    7  A    between atoms: C9_15  and  C10_18 
REMARK    8  A    between atoms: C12_21  and  C13_22 
REMARK    9  A    between atoms: C16_29  and  C17_30 
ROOT
HETATM    1  N1  UNL     1      -9.093   4.193  -3.351  1.00  0.00    -0.291 N 
HETATM    2  C3  UNL     1     -10.406   3.710  -3.290  1.00  0.00     0.190 A 
HETATM    3  N2  UNL     1     -11.200   4.558  -2.727  1.00  0.00    -0.347 N 
ATOM      4  H2  UNL     1     -12.199   4.419  -2.577  1.00  0.00     0.167 HD
HETATM    5  C4  UNL     1     -10.515   5.641  -2.374  1.00  0.00     0.106 A 
HETATM    6  C5  UNL     1     -10.944   6.811  -1.731  1.00  0.00     0.076 A 
HETATM    7  C16 UNL     1      -9.954   7.781  -1.488  1.00  0.00     0.073 A 
HETATM    8  C18 UNL     1      -8.683   7.487  -1.900  1.00  0.00     0.108 A 
HETATM    9  N7  UNL     1      -8.308   6.348  -2.517  1.00  0.00    -0.349 N 
ATOM     10  H7  UNL     1      -7.336   6.211  -2.792  1.00  0.00     0.167 HD
HETATM   11  C19 UNL     1      -9.225   5.393  -2.767  1.00  0.00     0.142 A 
ENDROOT
BRANCH   6  12
HETATM   12  N3  UNL     1     -12.099   7.052  -1.369  1.00  0.00    -0.381 N 
ATOM     13  H3  UNL     1     -12.204   6.781  -0.391  1.00  0.00     0.160 HD
BRANCH  12  14
HETATM   14  C6  UNL     1     -13.318   7.569  -1.832  1.00  0.00     0.112 C 
HETATM   15  C7  UNL     1     -14.397   6.591  -2.091  1.00  0.00     0.057 C 
HETATM   16  C8  UNL     1     -15.679   7.196  -1.579  1.00  0.00     0.278 C 
HETATM   17  N4  UNL     1     -15.342   8.426  -0.884  1.00  0.00     0.125 N 
HETATM   18  C15 UNL     1     -13.941   8.533  -0.812  1.00  0.00     0.301 C 
BRANCH  17  19
HETATM   19  C9  UNL     1     -16.044   8.359   0.356  1.00  0.00     0.408 C 
BRANCH  19  20
HETATM   20  O1  UNL     1     -15.275   7.779   1.346  1.00  0.00    -0.363 OA
ATOM     21  H1  UNL     1     -15.302   8.283   2.151  1.00  0.00     0.212 HD
ENDBRANCH  19  20
BRANCH  19  22
HETATM   22  C10 UNL     1     -16.699   9.647   0.809  1.00  0.00     0.075 A 
HETATM   23  C11 UNL     1     -17.694  10.245   0.091  1.00  0.00     0.081 A 
HETATM   24  S1  UNL     1     -18.017  11.656   1.025  1.00  0.00    -0.080 SA
HETATM   25  C12 UNL     1     -16.867  11.394   2.267  1.00  0.00     0.123 A 
HETATM   26  N5  UNL     1     -16.315  10.269   1.906  1.00  0.00    -0.348 N 
ATOM     27  H5  UNL     1     -15.575   9.865   2.482  1.00  0.00     0.166 HD
BRANCH  25  28
HETATM   28  C13 UNL     1     -16.589  12.277   3.462  1.00  0.00     0.288 C 
HETATM   29  C14 UNL     1     -17.786  13.050   3.872  1.00  0.00     0.098 C 
HETATM   30  F1  UNL     1     -16.200  11.405   4.469  1.00  0.00    -0.199 F 
HETATM   31  F2  UNL     1     -15.503  13.076   3.133  1.00  0.00    -0.199 F 
ENDBRANCH  25  28
ENDBRANCH  19  22
ENDBRANCH  17  19
ENDBRANCH  12  14
ENDBRANCH   6  12
BRANCH   7  32
HETATM   32  C17 UNL     1     -10.220   9.055  -0.826  1.00  0.00     0.268 C 
HETATM   33  N6  UNL     1      -9.861   9.220   0.570  1.00  0.00    -0.057 NA
HETATM   34  O2  UNL     1     -10.740   9.979  -1.450  1.00  0.00    -0.271 OA
ENDBRANCH   7  32
BRANCH   1  35
HETATM   35  C2  UNL     1      -8.050   3.425  -3.912  1.00  0.00     0.099 C 
HETATM   36  C1  UNL     1      -8.345   3.042  -5.381  1.00  0.00     0.073 C 
BRANCH  35  37
HETATM   37  C20 UNL     1      -7.297   2.390  -3.219  1.00  0.00     0.428 C 
HETATM   38  F3  UNL     1      -6.058   2.756  -2.717  1.00  0.00    -0.165 F 
HETATM   39  F4  UNL     1      -7.989   2.016  -2.012  1.00  0.00    -0.165 F 
HETATM   40  F5  UNL     1      -7.217   1.159  -3.876  1.00  0.00    -0.165 F 
ENDBRANCH  35  37
ENDBRANCH   1  35
TORSDOF 9
ENDMDL
