MODEL 1
REMARK VINA RESULT: -7.106018100      0.000      0.000
REMARK  10 active torsions:
REMARK  status: ('A' for Active; 'I' for Inactive)
REMARK    1  A    between atoms: C2_2  and  C3_3 
REMARK    2  A    between atoms: C3_3  and  C4_4 
REMARK    3  A    between atoms: C4_4  and  C5_5 
REMARK    4  A    between atoms: C5_5  and  C6_6 
REMARK    5  A    between atoms: C6_6  and  N1_7 
REMARK    6  A    between atoms: N1_7  and  C7_8 
REMARK    7  A    between atoms: C7_8  and  C8_9 
REMARK    8  A    between atoms: C8_9  and  O1_10 
REMARK    9  A    between atoms: O1_10  and  C9_11 
REMARK   10  A    between atoms: C9_11  and  C10_12 
ROOT
HETATM    1  N1  UNL     1     -19.846 -40.559 -23.982  1.00  0.00    -0.064 N 
HETATM    2  C13 UNL     1     -19.995 -40.687 -25.409  1.00  0.00     0.242 C 
HETATM    3  C14 UNL     1     -21.312 -40.046 -25.772  1.00  0.00     0.018 A 
HETATM    4  C15 UNL     1     -21.419 -38.576 -25.864  1.00  0.00     0.013 A 
HETATM    5  C16 UNL     1     -21.760 -39.297 -24.581  1.00  0.00     0.018 A 
HETATM    6  C17 UNL     1     -20.617 -39.380 -23.603  1.00  0.00     0.242 C 
ENDROOT
BRANCH   1   7
HETATM    7  C6  UNL     1     -20.456 -41.747 -23.416  1.00  0.00     0.237 C 
BRANCH   7   8
HETATM    8  C5  UNL     1     -20.510 -41.774 -21.925  1.00  0.00     0.028 C 
BRANCH   8   9
HETATM    9  C4  UNL     1     -20.284 -43.168 -21.376  1.00  0.00     0.002 C 
BRANCH   9  10
HETATM   10  C3  UNL     1     -19.849 -44.131 -22.438  1.00  0.00    -0.000 C 
BRANCH  10  11
HETATM   11  C2  UNL     1     -18.686 -44.999 -22.021  1.00  0.00    -0.005 C 
HETATM   12  C1  UNL     1     -18.260 -45.807 -23.232  1.00  0.00     0.005 C 
ENDBRANCH  10  11
ENDBRANCH   9  10
ENDBRANCH   8   9
ENDBRANCH   7   8
ENDBRANCH   1   7
BRANCH   1  13
HETATM   13  C7  UNL     1     -18.516 -40.380 -23.529  1.00  0.00     0.263 C 
BRANCH  13  14
HETATM   14  C8  UNL     1     -17.782 -39.168 -24.005  1.00  0.00     0.195 C 
BRANCH  14  15
HETATM   15  O1  UNL     1     -16.689 -38.819 -23.217  1.00  0.00    -0.389 OA
BRANCH  15  16
HETATM   16  C9  UNL     1     -15.679 -39.744 -23.468  1.00  0.00     0.172 C 
BRANCH  16  17
HETATM   17  C10 UNL     1     -14.330 -39.068 -23.230  1.00  0.00     0.009 A 
HETATM   18  C11 UNL     1     -13.093 -39.880 -23.509  1.00  0.00     0.007 A 
HETATM   19  C12 UNL     1     -13.467 -39.598 -22.117  1.00  0.00     0.007 A 
ENDBRANCH  16  17
ENDBRANCH  15  16
ENDBRANCH  14  15
ENDBRANCH  13  14
ENDBRANCH   1  13
TORSDOF 10
ENDMDL
MODEL 2
REMARK VINA RESULT: -7.086789574      1.413      2.446
REMARK  10 active torsions:
REMARK  status: ('A' for Active; 'I' for Inactive)
REMARK    1  A    between atoms: C2_2  and  C3_3 
REMARK    2  A    between atoms: C3_3  and  C4_4 
REMARK    3  A    between atoms: C4_4  and  C5_5 
REMARK    4  A    between atoms: C5_5  and  C6_6 
REMARK    5  A    between atoms: C6_6  and  N1_7 
REMARK    6  A    between atoms: N1_7  and  C7_8 
REMARK    7  A    between atoms: C7_8  and  C8_9 
REMARK    8  A    between atoms: C8_9  and  O1_10 
REMARK    9  A    between atoms: O1_10  and  C9_11 
REMARK   10  A    between atoms: C9_11  and  C10_12 
ROOT
HETATM    1  N1  UNL     1     -19.891 -40.383 -24.060  1.00  0.00    -0.064 N 
HETATM    2  C13 UNL     1     -20.111 -39.885 -25.394  1.00  0.00     0.242 C 
HETATM    3  C14 UNL     1     -21.499 -39.291 -25.416  1.00  0.00     0.018 A 
HETATM    4  C15 UNL     1     -21.739 -37.950 -24.845  1.00  0.00     0.013 A 
HETATM    5  C16 UNL     1     -21.939 -39.193 -24.011  1.00  0.00     0.018 A 
HETATM    6  C17 UNL     1     -20.738 -39.578 -23.187  1.00  0.00     0.242 C 
ENDROOT
BRANCH   1   7
HETATM    7  C6  UNL     1     -20.360 -41.755 -24.072  1.00  0.00     0.237 C 
BRANCH   7   8
HETATM    8  C5  UNL     1     -20.370 -42.426 -22.738  1.00  0.00     0.028 C 
BRANCH   8   9
HETATM    9  C4  UNL     1     -21.555 -43.357 -22.583  1.00  0.00     0.002 C 
BRANCH   9  10
HETATM   10  C3  UNL     1     -22.596 -42.799 -21.661  1.00  0.00    -0.000 C 
BRANCH  10  11
HETATM   11  C2  UNL     1     -23.684 -42.034 -22.376  1.00  0.00    -0.005 C 
HETATM   12  C1  UNL     1     -24.128 -40.906 -21.464  1.00  0.00     0.005 C 
ENDBRANCH  10  11
ENDBRANCH   9  10
ENDBRANCH   8   9
ENDBRANCH   7   8
ENDBRANCH   1   7
BRANCH   1  13
HETATM   13  C7  UNL     1     -18.557 -40.284 -23.593  1.00  0.00     0.263 C 
BRANCH  13  14
HETATM   14  C8  UNL     1     -17.733 -39.142 -24.095  1.00  0.00     0.195 C 
BRANCH  14  15
HETATM   15  O1  UNL     1     -16.693 -38.775 -23.246  1.00  0.00    -0.389 OA
BRANCH  15  16
HETATM   16  C9  UNL     1     -15.692 -39.734 -23.372  1.00  0.00     0.172 C 
BRANCH  16  17
HETATM   17  C10 UNL     1     -14.339 -39.053 -23.181  1.00  0.00     0.009 A 
HETATM   18  C11 UNL     1     -13.109 -39.854 -23.521  1.00  0.00     0.007 A 
HETATM   19  C12 UNL     1     -13.427 -39.592 -22.111  1.00  0.00     0.007 A 
ENDBRANCH  16  17
ENDBRANCH  15  16
ENDBRANCH  14  15
ENDBRANCH  13  14
ENDBRANCH   1  13
TORSDOF 10
ENDMDL
MODEL 3
REMARK VINA RESULT: -7.083722361      0.809      1.124
REMARK  10 active torsions:
REMARK  status: ('A' for Active; 'I' for Inactive)
REMARK    1  A    between atoms: C2_2  and  C3_3 
REMARK    2  A    between atoms: C3_3  and  C4_4 
REMARK    3  A    between atoms: C4_4  and  C5_5 
REMARK    4  A    between atoms: C5_5  and  C6_6 
REMARK    5  A    between atoms: C6_6  and  N1_7 
REMARK    6  A    between atoms: N1_7  and  C7_8 
REMARK    7  A    between atoms: C7_8  and  C8_9 
REMARK    8  A    between atoms: C8_9  and  O1_10 
REMARK    9  A    between atoms: O1_10  and  C9_11 
REMARK   10  A    between atoms: C9_11  and  C10_12 
ROOT
HETATM    1  N1  UNL     1     -19.760 -39.416 -24.207  1.00  0.00    -0.064 N 
HETATM    2  C13 UNL     1     -20.012 -40.062 -25.470  1.00  0.00     0.242 C 
HETATM    3  C14 UNL     1     -21.208 -39.374 -26.083  1.00  0.00     0.018 A 
HETATM    4  C15 UNL     1     -21.047 -38.067 -26.751  1.00  0.00     0.013 A 
HETATM    5  C16 UNL     1     -21.441 -38.148 -25.295  1.00  0.00     0.018 A 
HETATM    6  C17 UNL     1     -20.278 -38.059 -24.341  1.00  0.00     0.242 C 
ENDROOT
BRANCH   1   7
HETATM    7  C6  UNL     1     -20.545 -40.147 -23.230  1.00  0.00     0.237 C 
BRANCH   7   8
HETATM    8  C5  UNL     1     -19.948 -41.444 -22.793  1.00  0.00     0.028 C 
BRANCH   8   9
HETATM    9  C4  UNL     1     -20.639 -41.997 -21.562  1.00  0.00     0.002 C 
BRANCH   9  10
HETATM   10  C3  UNL     1     -20.276 -43.428 -21.305  1.00  0.00    -0.000 C 
BRANCH  10  11
HETATM   11  C2  UNL     1     -19.855 -44.174 -22.548  1.00  0.00    -0.005 C 
HETATM   12  C1  UNL     1     -18.671 -45.047 -22.180  1.00  0.00     0.005 C 
ENDBRANCH  10  11
ENDBRANCH   9  10
ENDBRANCH   8   9
ENDBRANCH   7   8
ENDBRANCH   1   7
BRANCH   1  13
HETATM   13  C7  UNL     1     -18.397 -39.333 -23.834  1.00  0.00     0.263 C 
BRANCH  13  14
HETATM   14  C8  UNL     1     -17.375 -39.513 -24.911  1.00  0.00     0.195 C 
BRANCH  14  15
HETATM   15  O1  UNL     1     -16.148 -38.916 -24.637  1.00  0.00    -0.389 OA
BRANCH  15  16
HETATM   16  C9  UNL     1     -15.646 -39.504 -23.478  1.00  0.00     0.172 C 
BRANCH  16  17
HETATM   17  C10 UNL     1     -14.234 -38.974 -23.236  1.00  0.00     0.009 A 
HETATM   18  C11 UNL     1     -13.088 -39.899 -23.547  1.00  0.00     0.007 A 
HETATM   19  C12 UNL     1     -13.421 -39.618 -22.145  1.00  0.00     0.007 A 
ENDBRANCH  16  17
ENDBRANCH  15  16
ENDBRANCH  14  15
ENDBRANCH  13  14
ENDBRANCH   1  13
TORSDOF 10
ENDMDL
MODEL 4
REMARK VINA RESULT: -7.070931681      1.048      1.757
REMARK  10 active torsions:
REMARK  status: ('A' for Active; 'I' for Inactive)
REMARK    1  A    between atoms: C2_2  and  C3_3 
REMARK    2  A    between atoms: C3_3  and  C4_4 
REMARK    3  A    between atoms: C4_4  and  C5_5 
REMARK    4  A    between atoms: C5_5  and  C6_6 
REMARK    5  A    between atoms: C6_6  and  N1_7 
REMARK    6  A    between atoms: N1_7  and  C7_8 
REMARK    7  A    between atoms: C7_8  and  C8_9 
REMARK    8  A    between atoms: C8_9  and  O1_10 
REMARK    9  A    between atoms: O1_10  and  C9_11 
REMARK   10  A    between atoms: C9_11  and  C10_12 
ROOT
HETATM    1  N1  UNL     1     -20.110 -40.252 -23.972  1.00  0.00    -0.064 N 
HETATM    2  C13 UNL     1     -20.407 -39.272 -24.986  1.00  0.00     0.242 C 
HETATM    3  C14 UNL     1     -21.818 -38.798 -24.737  1.00  0.00     0.018 A 
HETATM    4  C15 UNL     1     -22.092 -37.817 -23.667  1.00  0.00     0.013 A 
HETATM    5  C16 UNL     1     -22.204 -39.300 -23.403  1.00  0.00     0.018 A 
HETATM    6  C17 UNL     1     -20.954 -39.917 -22.831  1.00  0.00     0.242 C 
ENDROOT
BRANCH   1   7
HETATM    7  C6  UNL     1     -20.520 -41.527 -24.529  1.00  0.00     0.237 C 
BRANCH   7   8
HETATM    8  C5  UNL     1     -19.607 -42.668 -24.220  1.00  0.00     0.028 C 
BRANCH   8   9
HETATM    9  C4  UNL     1     -20.312 -43.761 -23.442  1.00  0.00     0.002 C 
BRANCH   9  10
HETATM   10  C3  UNL     1     -19.745 -43.931 -22.066  1.00  0.00    -0.000 C 
BRANCH  10  11
HETATM   11  C2  UNL     1     -20.538 -43.215 -20.998  1.00  0.00    -0.005 C 
HETATM   12  C1  UNL     1     -21.985 -43.178 -21.447  1.00  0.00     0.005 C 
ENDBRANCH  10  11
ENDBRANCH   9  10
ENDBRANCH   8   9
ENDBRANCH   7   8
ENDBRANCH   1   7
BRANCH   1  13
HETATM   13  C7  UNL     1     -18.764 -40.275 -23.533  1.00  0.00     0.263 C 
BRANCH  13  14
HETATM   14  C8  UNL     1     -17.838 -39.241 -24.090  1.00  0.00     0.195 C 
BRANCH  14  15
HETATM   15  O1  UNL     1     -16.819 -38.863 -23.221  1.00  0.00    -0.389 OA
BRANCH  15  16
HETATM   16  C9  UNL     1     -15.766 -39.757 -23.398  1.00  0.00     0.172 C 
BRANCH  16  17
HETATM   17  C10 UNL     1     -14.454 -39.021 -23.134  1.00  0.00     0.009 A 
HETATM   18  C11 UNL     1     -13.181 -39.708 -23.552  1.00  0.00     0.007 A 
HETATM   19  C12 UNL     1     -13.508 -39.614 -22.123  1.00  0.00     0.007 A 
ENDBRANCH  16  17
ENDBRANCH  15  16
ENDBRANCH  14  15
ENDBRANCH  13  14
ENDBRANCH   1  13
TORSDOF 10
ENDMDL
MODEL 5
REMARK VINA RESULT: -7.006652250      2.214      2.803
REMARK  10 active torsions:
REMARK  status: ('A' for Active; 'I' for Inactive)
REMARK    1  A    between atoms: C2_2  and  C3_3 
REMARK    2  A    between atoms: C3_3  and  C4_4 
REMARK    3  A    between atoms: C4_4  and  C5_5 
REMARK    4  A    between atoms: C5_5  and  C6_6 
REMARK    5  A    between atoms: C6_6  and  N1_7 
REMARK    6  A    between atoms: N1_7  and  C7_8 
REMARK    7  A    between atoms: C7_8  and  C8_9 
REMARK    8  A    between atoms: C8_9  and  O1_10 
REMARK    9  A    between atoms: O1_10  and  C9_11 
REMARK   10  A    between atoms: C9_11  and  C10_12 
ROOT
HETATM    1  N1  UNL     1     -19.771 -39.408 -24.437  1.00  0.00    -0.064 N 
HETATM    2  C13 UNL     1     -19.888 -39.784 -25.824  1.00  0.00     0.242 C 
HETATM    3  C14 UNL     1     -21.038 -38.990 -26.396  1.00  0.00     0.018 A 
HETATM    4  C15 UNL     1     -20.846 -37.573 -26.767  1.00  0.00     0.013 A 
HETATM    5  C16 UNL     1     -21.372 -37.952 -25.402  1.00  0.00     0.018 A 
HETATM    6  C17 UNL     1     -20.306 -38.054 -24.343  1.00  0.00     0.242 C 
ENDROOT
BRANCH   1   7
HETATM    7  C6  UNL     1     -20.626 -40.326 -23.709  1.00  0.00     0.237 C 
BRANCH   7   8
HETATM    8  C5  UNL     1     -20.265 -40.512 -22.273  1.00  0.00     0.028 C 
BRANCH   8   9
HETATM    9  C4  UNL     1     -21.382 -40.072 -21.348  1.00  0.00     0.002 C 
BRANCH   9  10
HETATM   10  C3  UNL     1     -22.657 -39.806 -22.087  1.00  0.00    -0.000 C 
BRANCH  10  11
HETATM   11  C2  UNL     1     -23.822 -40.627 -21.590  1.00  0.00    -0.005 C 
HETATM   12  C1  UNL     1     -23.770 -41.970 -22.291  1.00  0.00     0.005 C 
ENDBRANCH  10  11
ENDBRANCH   9  10
ENDBRANCH   8   9
ENDBRANCH   7   8
ENDBRANCH   1   7
BRANCH   1  13
HETATM   13  C7  UNL     1     -18.450 -39.397 -23.926  1.00  0.00     0.263 C 
BRANCH  13  14
HETATM   14  C8  UNL     1     -17.342 -39.736 -24.871  1.00  0.00     0.195 C 
BRANCH  14  15
HETATM   15  O1  UNL     1     -16.156 -39.050 -24.626  1.00  0.00    -0.389 OA
BRANCH  15  16
HETATM   16  C9  UNL     1     -15.721 -39.407 -23.352  1.00  0.00     0.172 C 
BRANCH  16  17
HETATM   17  C10 UNL     1     -14.285 -38.920 -23.175  1.00  0.00     0.009 A 
HETATM   18  C11 UNL     1     -13.182 -39.869 -23.560  1.00  0.00     0.007 A 
HETATM   19  C12 UNL     1     -13.435 -39.605 -22.137  1.00  0.00     0.007 A 
ENDBRANCH  16  17
ENDBRANCH  15  16
ENDBRANCH  14  15
ENDBRANCH  13  14
ENDBRANCH   1  13
TORSDOF 10
ENDMDL
