MODEL 1
REMARK VINA RESULT: -6.978547926      0.000      0.000
REMARK  12 active torsions:
REMARK  status: ('A' for Active; 'I' for Inactive)
REMARK    1  A    between atoms: N1_1  and  N2_4 
REMARK    2  A    between atoms: N2_4  and  C1_5 
REMARK    3  A    between atoms: C1_5  and  C2_6 
REMARK    4  A    between atoms: C2_6  and  C3_7 
REMARK    5  A    between atoms: C3_7  and  C4_8 
REMARK    6  A    between atoms: C4_8  and  C5_9 
REMARK    7  A    between atoms: C6_10  and  C7_11 
REMARK    8  A    between atoms: C7_11  and  C8_12 
REMARK    9  A    between atoms: C8_12  and  C9_13 
REMARK   10  A    between atoms: C9_13  and  C10_14 
REMARK   11  A    between atoms: C10_14  and  C11_15 
REMARK   12  A    between atoms: C11_15  and  N3_16 
ROOT
HETATM    1  C7  UNL     1     -22.392 -38.258 -23.144  1.00  0.00     0.027 C 
ENDROOT
BRANCH   1   2
HETATM    2  C6  UNL     1     -21.773 -38.078 -24.479  1.00  0.00    -0.031 C 
HETATM    3  C5  UNL     1     -21.667 -36.862 -25.002  1.00  0.00    -0.031 C 
BRANCH   3   4
HETATM    4  C4  UNL     1     -21.049 -36.647 -26.345  1.00  0.00     0.027 C 
BRANCH   4   5
HETATM    5  C3  UNL     1     -20.864 -38.010 -26.974  1.00  0.00     0.010 C 
BRANCH   5   6
HETATM    6  C2  UNL     1     -21.461 -38.068 -28.363  1.00  0.00     0.062 C 
BRANCH   6   7
HETATM    7  C1  UNL     1     -20.669 -39.015 -29.186  1.00  0.00     0.181 C 
BRANCH   7   8
HETATM    8  N2  UNL     1     -20.977 -40.205 -29.355  1.00  0.00    -0.350 NA
BRANCH   8   9
HETATM    9  N1  UNL     1     -21.296 -41.382 -29.138  1.00  0.00    -0.281 N 
ATOM     10  H12 UNL     1     -20.465 -41.606 -28.590  1.00  0.00     0.191 HD
ATOM     11  H11 UNL     1     -21.809 -42.264 -29.132  1.00  0.00     0.191 HD
ENDBRANCH   8   9
ENDBRANCH   7   8
ENDBRANCH   6   7
ENDBRANCH   5   6
ENDBRANCH   4   5
ENDBRANCH   3   4
ENDBRANCH   1   2
BRANCH   1  12
HETATM   12  C8  UNL     1     -22.379 -39.690 -22.692  1.00  0.00     0.004 C 
BRANCH  12  13
HETATM   13  C9  UNL     1     -23.533 -40.024 -21.786  1.00  0.00     0.002 C 
BRANCH  13  14
HETATM   14  C10 UNL     1     -23.606 -41.478 -21.473  1.00  0.00     0.020 C 
BRANCH  14  15
HETATM   15  C11 UNL     1     -23.330 -42.372 -22.636  1.00  0.00     0.128 C 
BRANCH  15  16
HETATM   16  N3  UNL     1     -22.042 -43.010 -22.471  1.00  0.00    -0.366 N 
HETATM   17  C12 UNL     1     -21.458 -43.024 -21.250  1.00  0.00     0.090 A 
HETATM   18  C13 UNL     1     -20.228 -43.621 -21.045  1.00  0.00     0.017 A 
HETATM   19  C14 UNL     1     -19.606 -44.205 -22.113  1.00  0.00     0.003 A 
HETATM   20  C15 UNL     1     -20.199 -44.192 -23.358  1.00  0.00     0.017 A 
HETATM   21  C16 UNL     1     -21.429 -43.587 -23.529  1.00  0.00     0.090 A 
ENDBRANCH  15  16
ENDBRANCH  14  15
ENDBRANCH  13  14
ENDBRANCH  12  13
ENDBRANCH   1  12
TORSDOF 12
ENDMDL
MODEL 2
REMARK VINA RESULT: -6.900372201      2.417      5.911
REMARK  12 active torsions:
REMARK  status: ('A' for Active; 'I' for Inactive)
REMARK    1  A    between atoms: N1_1  and  N2_4 
REMARK    2  A    between atoms: N2_4  and  C1_5 
REMARK    3  A    between atoms: C1_5  and  C2_6 
REMARK    4  A    between atoms: C2_6  and  C3_7 
REMARK    5  A    between atoms: C3_7  and  C4_8 
REMARK    6  A    between atoms: C4_8  and  C5_9 
REMARK    7  A    between atoms: C6_10  and  C7_11 
REMARK    8  A    between atoms: C7_11  and  C8_12 
REMARK    9  A    between atoms: C8_12  and  C9_13 
REMARK   10  A    between atoms: C9_13  and  C10_14 
REMARK   11  A    between atoms: C10_14  and  C11_15 
REMARK   12  A    between atoms: C11_15  and  N3_16 
ROOT
HETATM    1  C7  UNL     1     -22.256 -39.084 -24.086  1.00  0.00     0.027 C 
ENDROOT
BRANCH   1   2
HETATM    2  C6  UNL     1     -21.720 -40.154 -23.211  1.00  0.00    -0.031 C 
HETATM    3  C5  UNL     1     -21.039 -39.836 -22.116  1.00  0.00    -0.031 C 
BRANCH   3   4
HETATM    4  C4  UNL     1     -20.486 -40.891 -21.214  1.00  0.00     0.027 C 
BRANCH   4   5
HETATM    5  C3  UNL     1     -20.405 -42.169 -22.020  1.00  0.00     0.010 C 
BRANCH   5   6
HETATM    6  C2  UNL     1     -21.021 -43.334 -21.277  1.00  0.00     0.062 C 
BRANCH   6   7
HETATM    7  C1  UNL     1     -22.499 -43.239 -21.379  1.00  0.00     0.181 C 
BRANCH   7   8
HETATM    8  N2  UNL     1     -23.131 -43.437 -22.428  1.00  0.00    -0.350 NA
BRANCH   8   9
HETATM    9  N1  UNL     1     -23.457 -43.858 -23.546  1.00  0.00    -0.281 N 
ATOM     10  H12 UNL     1     -22.831 -44.664 -23.529  1.00  0.00     0.191 HD
ATOM     11  H11 UNL     1     -23.913 -43.950 -24.454  1.00  0.00     0.191 HD
ENDBRANCH   8   9
ENDBRANCH   7   8
ENDBRANCH   6   7
ENDBRANCH   5   6
ENDBRANCH   4   5
ENDBRANCH   3   4
ENDBRANCH   1   2
BRANCH   1  12
HETATM   12  C8  UNL     1     -22.068 -37.714 -23.502  1.00  0.00     0.004 C 
BRANCH  12  13
HETATM   13  C9  UNL     1     -21.613 -36.705 -24.521  1.00  0.00     0.002 C 
BRANCH  13  14
HETATM   14  C10 UNL     1     -21.188 -37.340 -25.799  1.00  0.00     0.020 C 
BRANCH  14  15
HETATM   15  C11 UNL     1     -19.711 -37.355 -26.017  1.00  0.00     0.128 C 
BRANCH  15  16
HETATM   16  N3  UNL     1     -19.155 -38.599 -25.530  1.00  0.00    -0.366 N 
HETATM   17  C12 UNL     1     -18.347 -38.585 -24.444  1.00  0.00     0.090 A 
HETATM   18  C13 UNL     1     -17.792 -39.749 -23.944  1.00  0.00     0.017 A 
HETATM   19  C14 UNL     1     -18.079 -40.927 -24.574  1.00  0.00     0.003 A 
HETATM   20  C15 UNL     1     -18.901 -40.942 -25.681  1.00  0.00     0.017 A 
HETATM   21  C16 UNL     1     -19.440 -39.762 -26.156  1.00  0.00     0.090 A 
ENDBRANCH  15  16
ENDBRANCH  14  15
ENDBRANCH  13  14
ENDBRANCH  12  13
ENDBRANCH   1  12
TORSDOF 12
ENDMDL
MODEL 3
REMARK VINA RESULT: -6.839726163      4.313      4.911
REMARK  12 active torsions:
REMARK  status: ('A' for Active; 'I' for Inactive)
REMARK    1  A    between atoms: N1_1  and  N2_4 
REMARK    2  A    between atoms: N2_4  and  C1_5 
REMARK    3  A    between atoms: C1_5  and  C2_6 
REMARK    4  A    between atoms: C2_6  and  C3_7 
REMARK    5  A    between atoms: C3_7  and  C4_8 
REMARK    6  A    between atoms: C4_8  and  C5_9 
REMARK    7  A    between atoms: C6_10  and  C7_11 
REMARK    8  A    between atoms: C7_11  and  C8_12 
REMARK    9  A    between atoms: C8_12  and  C9_13 
REMARK   10  A    between atoms: C9_13  and  C10_14 
REMARK   11  A    between atoms: C10_14  and  C11_15 
REMARK   12  A    between atoms: C11_15  and  N3_16 
ROOT
HETATM    1  C7  UNL     1     -21.863 -40.171 -23.337  1.00  0.00     0.027 C 
ENDROOT
BRANCH   1   2
HETATM    2  C6  UNL     1     -22.060 -38.744 -23.689  1.00  0.00    -0.031 C 
HETATM    3  C5  UNL     1     -21.390 -38.213 -24.705  1.00  0.00    -0.031 C 
BRANCH   3   4
HETATM    4  C4  UNL     1     -21.566 -36.778 -25.083  1.00  0.00     0.027 C 
BRANCH   4   5
HETATM    5  C3  UNL     1     -21.144 -36.644 -26.530  1.00  0.00     0.010 C 
BRANCH   5   6
HETATM    6  C2  UNL     1     -20.808 -37.989 -27.138  1.00  0.00     0.062 C 
BRANCH   6   7
HETATM    7  C1  UNL     1     -21.485 -38.101 -28.455  1.00  0.00     0.181 C 
BRANCH   7   8
HETATM    8  N2  UNL     1     -21.502 -37.192 -29.300  1.00  0.00    -0.350 NA
BRANCH   8   9
HETATM    9  N1  UNL     1     -21.294 -36.536 -30.329  1.00  0.00    -0.281 N 
ATOM     10  H12 UNL     1     -20.349 -36.889 -30.477  1.00  0.00     0.191 HD
ATOM     11  H11 UNL     1     -21.418 -35.898 -31.116  1.00  0.00     0.191 HD
ENDBRANCH   8   9
ENDBRANCH   7   8
ENDBRANCH   6   7
ENDBRANCH   5   6
ENDBRANCH   4   5
ENDBRANCH   3   4
ENDBRANCH   1   2
BRANCH   1  12
HETATM   12  C8  UNL     1     -20.684 -40.780 -24.040  1.00  0.00     0.004 C 
BRANCH  12  13
HETATM   13  C9  UNL     1     -19.508 -40.991 -23.125  1.00  0.00     0.002 C 
BRANCH  13  14
HETATM   14  C10 UNL     1     -18.206 -40.876 -23.839  1.00  0.00     0.020 C 
BRANCH  14  15
HETATM   15  C11 UNL     1     -17.487 -39.589 -23.603  1.00  0.00     0.128 C 
BRANCH  15  16
HETATM   16  N3  UNL     1     -16.078 -39.842 -23.397  1.00  0.00    -0.366 N 
HETATM   17  C12 UNL     1     -15.328 -38.931 -22.735  1.00  0.00     0.090 A 
HETATM   18  C13 UNL     1     -13.977 -39.130 -22.516  1.00  0.00     0.017 A 
HETATM   19  C14 UNL     1     -13.408 -40.280 -22.986  1.00  0.00     0.003 A 
HETATM   20  C15 UNL     1     -14.171 -41.210 -23.661  1.00  0.00     0.017 A 
HETATM   21  C16 UNL     1     -15.517 -40.980 -23.864  1.00  0.00     0.090 A 
ENDBRANCH  15  16
ENDBRANCH  14  15
ENDBRANCH  13  14
ENDBRANCH  12  13
ENDBRANCH   1  12
TORSDOF 12
ENDMDL
MODEL 4
REMARK VINA RESULT: -6.827961585      4.617      5.447
REMARK  12 active torsions:
REMARK  status: ('A' for Active; 'I' for Inactive)
REMARK    1  A    between atoms: N1_1  and  N2_4 
REMARK    2  A    between atoms: N2_4  and  C1_5 
REMARK    3  A    between atoms: C1_5  and  C2_6 
REMARK    4  A    between atoms: C2_6  and  C3_7 
REMARK    5  A    between atoms: C3_7  and  C4_8 
REMARK    6  A    between atoms: C4_8  and  C5_9 
REMARK    7  A    between atoms: C6_10  and  C7_11 
REMARK    8  A    between atoms: C7_11  and  C8_12 
REMARK    9  A    between atoms: C8_12  and  C9_13 
REMARK   10  A    between atoms: C9_13  and  C10_14 
REMARK   11  A    between atoms: C10_14  and  C11_15 
REMARK   12  A    between atoms: C11_15  and  N3_16 
ROOT
HETATM    1  C7  UNL     1     -21.004 -41.274 -22.157  1.00  0.00     0.027 C 
ENDROOT
BRANCH   1   2
HETATM    2  C6  UNL     1     -21.039 -39.858 -22.597  1.00  0.00    -0.031 C 
HETATM    3  C5  UNL     1     -22.125 -39.375 -23.189  1.00  0.00    -0.031 C 
BRANCH   3   4
HETATM    4  C4  UNL     1     -22.192 -37.954 -23.645  1.00  0.00     0.027 C 
BRANCH   4   5
HETATM    5  C3  UNL     1     -21.088 -37.760 -24.662  1.00  0.00     0.010 C 
BRANCH   5   6
HETATM    6  C2  UNL     1     -21.353 -38.548 -25.926  1.00  0.00     0.062 C 
BRANCH   6   7
HETATM    7  C1  UNL     1     -20.910 -37.744 -27.093  1.00  0.00     0.181 C 
BRANCH   7   8
HETATM    8  N2  UNL     1     -20.885 -36.504 -27.105  1.00  0.00    -0.350 NA
BRANCH   8   9
HETATM    9  N1  UNL     1     -20.481 -35.333 -27.111  1.00  0.00    -0.281 N 
ATOM     10  H12 UNL     1     -19.643 -35.525 -27.660  1.00  0.00     0.191 HD
ATOM     11  H11 UNL     1     -20.414 -34.329 -26.948  1.00  0.00     0.191 HD
ENDBRANCH   8   9
ENDBRANCH   7   8
ENDBRANCH   6   7
ENDBRANCH   5   6
ENDBRANCH   4   5
ENDBRANCH   3   4
ENDBRANCH   1   2
BRANCH   1  12
HETATM   12  C8  UNL     1     -19.887 -42.048 -22.795  1.00  0.00     0.004 C 
BRANCH  12  13
HETATM   13  C9  UNL     1     -19.303 -41.347 -23.992  1.00  0.00     0.002 C 
BRANCH  13  14
HETATM   14  C10 UNL     1     -17.816 -41.281 -23.941  1.00  0.00     0.020 C 
BRANCH  14  15
HETATM   15  C11 UNL     1     -17.268 -39.906 -23.746  1.00  0.00     0.128 C 
BRANCH  15  16
HETATM   16  N3  UNL     1     -15.844 -39.974 -23.499  1.00  0.00    -0.366 N 
HETATM   17  C12 UNL     1     -15.259 -39.039 -22.716  1.00  0.00     0.090 A 
HETATM   18  C13 UNL     1     -13.902 -39.064 -22.454  1.00  0.00     0.017 A 
HETATM   19  C14 UNL     1     -13.153 -40.064 -23.006  1.00  0.00     0.003 A 
HETATM   20  C15 UNL     1     -13.747 -41.018 -23.806  1.00  0.00     0.017 A 
HETATM   21  C16 UNL     1     -15.106 -40.965 -24.049  1.00  0.00     0.090 A 
ENDBRANCH  15  16
ENDBRANCH  14  15
ENDBRANCH  13  14
ENDBRANCH  12  13
ENDBRANCH   1  12
TORSDOF 12
ENDMDL
MODEL 5
REMARK VINA RESULT: -6.827806535      2.144      3.134
REMARK  12 active torsions:
REMARK  status: ('A' for Active; 'I' for Inactive)
REMARK    1  A    between atoms: N1_1  and  N2_4 
REMARK    2  A    between atoms: N2_4  and  C1_5 
REMARK    3  A    between atoms: C1_5  and  C2_6 
REMARK    4  A    between atoms: C2_6  and  C3_7 
REMARK    5  A    between atoms: C3_7  and  C4_8 
REMARK    6  A    between atoms: C4_8  and  C5_9 
REMARK    7  A    between atoms: C6_10  and  C7_11 
REMARK    8  A    between atoms: C7_11  and  C8_12 
REMARK    9  A    between atoms: C8_12  and  C9_13 
REMARK   10  A    between atoms: C9_13  and  C10_14 
REMARK   11  A    between atoms: C10_14  and  C11_15 
REMARK   12  A    between atoms: C11_15  and  N3_16 
ROOT
HETATM    1  C7  UNL     1     -22.677 -40.039 -22.483  1.00  0.00     0.027 C 
ENDROOT
BRANCH   1   2
HETATM    2  C6  UNL     1     -22.163 -39.146 -23.550  1.00  0.00    -0.031 C 
HETATM    3  C5  UNL     1     -22.203 -37.828 -23.388  1.00  0.00    -0.031 C 
BRANCH   3   4
HETATM    4  C4  UNL     1     -21.694 -36.903 -24.444  1.00  0.00     0.027 C 
BRANCH   4   5
HETATM    5  C3  UNL     1     -21.333 -37.751 -25.644  1.00  0.00     0.010 C 
BRANCH   5   6
HETATM    6  C2  UNL     1     -21.042 -36.897 -26.860  1.00  0.00     0.062 C 
BRANCH   6   7
HETATM    7  C1  UNL     1     -21.331 -37.690 -28.082  1.00  0.00     0.181 C 
BRANCH   7   8
HETATM    8  N2  UNL     1     -21.510 -37.187 -29.202  1.00  0.00    -0.350 NA
BRANCH   8   9
HETATM    9  N1  UNL     1     -21.310 -36.629 -30.288  1.00  0.00    -0.281 N 
ATOM     10  H12 UNL     1     -21.533 -35.691 -29.955  1.00  0.00     0.191 HD
ATOM     11  H11 UNL     1     -21.079 -36.466 -31.269  1.00  0.00     0.191 HD
ENDBRANCH   8   9
ENDBRANCH   7   8
ENDBRANCH   6   7
ENDBRANCH   5   6
ENDBRANCH   4   5
ENDBRANCH   3   4
ENDBRANCH   1   2
BRANCH   1  12
HETATM   12  C8  UNL     1     -21.835 -39.997 -21.241  1.00  0.00     0.004 C 
BRANCH  12  13
HETATM   13  C9  UNL     1     -20.530 -40.729 -21.398  1.00  0.00     0.002 C 
BRANCH  13  14
HETATM   14  C10 UNL     1     -20.722 -42.184 -21.647  1.00  0.00     0.020 C 
BRANCH  14  15
HETATM   15  C11 UNL     1     -19.823 -42.752 -22.695  1.00  0.00     0.128 C 
BRANCH  15  16
HETATM   16  N3  UNL     1     -20.273 -42.337 -24.006  1.00  0.00    -0.366 N 
HETATM   17  C12 UNL     1     -21.476 -42.759 -24.461  1.00  0.00     0.090 A 
HETATM   18  C13 UNL     1     -21.946 -42.389 -25.708  1.00  0.00     0.017 A 
HETATM   19  C14 UNL     1     -21.163 -41.579 -26.481  1.00  0.00     0.003 A 
HETATM   20  C15 UNL     1     -19.937 -41.149 -26.020  1.00  0.00     0.017 A 
HETATM   21  C16 UNL     1     -19.496 -41.537 -24.770  1.00  0.00     0.090 A 
ENDBRANCH  15  16
ENDBRANCH  14  15
ENDBRANCH  13  14
ENDBRANCH  12  13
ENDBRANCH   1  12
TORSDOF 12
ENDMDL
