MODEL 1
REMARK VINA RESULT: -6.746669010      0.000      0.000
REMARK  12 active torsions:
REMARK  status: ('A' for Active; 'I' for Inactive)
REMARK    1  A    between atoms: C2_2  and  C3_3 
REMARK    2  A    between atoms: C3_3  and  C4_4 
REMARK    3  A    between atoms: C4_4  and  N1_5 
REMARK    4  A    between atoms: C6_7  and  C7_8 
REMARK    5  A    between atoms: C7_8  and  C8_9 
REMARK    6  A    between atoms: C9_10  and  C10_11 
REMARK    7  A    between atoms: C11_12  and  C12_13 
REMARK    8  A    between atoms: C12_13  and  C13_14 
REMARK    9  A    between atoms: C13_14  and  C14_15 
REMARK   10  A    between atoms: C14_15  and  C15_16 
REMARK   11  A    between atoms: C15_16  and  N2_17 
REMARK   12  A    between atoms: N2_17  and  N3_18 
ROOT
HETATM    1  C8  UNL     1     -20.404 -40.778 -21.945  1.00  0.00    -0.022 C 
HETATM    2  C9  UNL     1     -21.393 -40.025 -21.528  1.00  0.00    -0.004 C 
ENDROOT
BRANCH   2   3
HETATM    3  C10 UNL     1     -22.424 -39.496 -22.365  1.00  0.00    -0.004 C 
HETATM    4  C11 UNL     1     -22.542 -38.497 -23.145  1.00  0.00    -0.027 C 
BRANCH   4   5
HETATM    5  C12 UNL     1     -21.674 -37.424 -23.541  1.00  0.00     0.027 C 
BRANCH   5   6
HETATM    6  C13 UNL     1     -20.646 -37.759 -24.547  1.00  0.00     0.010 C 
BRANCH   6   7
HETATM    7  C14 UNL     1     -21.285 -38.399 -25.792  1.00  0.00     0.062 C 
BRANCH   7   8
HETATM    8  C15 UNL     1     -20.927 -37.607 -26.994  1.00  0.00     0.181 C 
BRANCH   8   9
HETATM    9  N2  UNL     1     -20.801 -36.380 -26.973  1.00  0.00    -0.350 NA
BRANCH   9  10
HETATM   10  N3  UNL     1     -20.620 -35.164 -26.981  1.00  0.00    -0.281 N 
ATOM     11  H32 UNL     1     -19.900 -35.623 -27.538  1.00  0.00     0.191 HD
ATOM     12  H31 UNL     1     -20.512 -34.149 -26.957  1.00  0.00     0.191 HD
ENDBRANCH   9  10
ENDBRANCH   8   9
ENDBRANCH   7   8
ENDBRANCH   6   7
ENDBRANCH   5   6
ENDBRANCH   4   5
ENDBRANCH   2   3
BRANCH   1  13
HETATM   13  C7  UNL     1     -20.177 -41.204 -23.302  1.00  0.00     0.068 C 
BRANCH  13  14
HETATM   14  C6  UNL     1     -18.703 -41.014 -23.591  1.00  0.00    -0.024 A 
HETATM   15  C5  UNL     1     -17.769 -39.908 -23.503  1.00  0.00     0.099 A 
HETATM   16  N1  UNL     1     -16.792 -40.630 -23.930  1.00  0.00    -0.365 N 
HETATM   17  C16 UNL     1     -17.684 -41.728 -24.024  1.00  0.00     0.099 A 
BRANCH  16  18
HETATM   18  C4  UNL     1     -15.368 -40.392 -24.195  1.00  0.00     0.128 C 
BRANCH  18  19
HETATM   19  C3  UNL     1     -14.602 -41.026 -23.041  1.00  0.00     0.020 C 
BRANCH  19  20
HETATM   20  C2  UNL     1     -13.500 -40.031 -22.685  1.00  0.00    -0.003 C 
HETATM   21  C1  UNL     1     -13.975 -38.611 -22.875  1.00  0.00     0.005 C 
ENDBRANCH  19  20
ENDBRANCH  18  19
ENDBRANCH  16  18
ENDBRANCH  13  14
ENDBRANCH   1  13
TORSDOF 12
ENDMDL
MODEL 2
REMARK VINA RESULT: -6.509496295      1.223      1.553
REMARK  12 active torsions:
REMARK  status: ('A' for Active; 'I' for Inactive)
REMARK    1  A    between atoms: C2_2  and  C3_3 
REMARK    2  A    between atoms: C3_3  and  C4_4 
REMARK    3  A    between atoms: C4_4  and  N1_5 
REMARK    4  A    between atoms: C6_7  and  C7_8 
REMARK    5  A    between atoms: C7_8  and  C8_9 
REMARK    6  A    between atoms: C9_10  and  C10_11 
REMARK    7  A    between atoms: C11_12  and  C12_13 
REMARK    8  A    between atoms: C12_13  and  C13_14 
REMARK    9  A    between atoms: C13_14  and  C14_15 
REMARK   10  A    between atoms: C14_15  and  C15_16 
REMARK   11  A    between atoms: C15_16  and  N2_17 
REMARK   12  A    between atoms: N2_17  and  N3_18 
ROOT
HETATM    1  C8  UNL     1     -20.858 -40.986 -24.580  1.00  0.00    -0.022 C 
HETATM    2  C9  UNL     1     -21.773 -40.066 -24.768  1.00  0.00    -0.004 C 
ENDROOT
BRANCH   2   3
HETATM    3  C10 UNL     1     -22.230 -39.155 -23.766  1.00  0.00    -0.004 C 
HETATM    4  C11 UNL     1     -21.996 -37.940 -23.463  1.00  0.00    -0.027 C 
BRANCH   4   5
HETATM    5  C12 UNL     1     -21.145 -36.917 -24.002  1.00  0.00     0.027 C 
BRANCH   5   6
HETATM    6  C13 UNL     1     -21.617 -36.268 -25.242  1.00  0.00     0.010 C 
BRANCH   6   7
HETATM    7  C14 UNL     1     -20.646 -36.536 -26.405  1.00  0.00     0.062 C 
BRANCH   7   8
HETATM    8  C15 UNL     1     -21.274 -37.477 -27.365  1.00  0.00     0.181 C 
BRANCH   8   9
HETATM    9  N2  UNL     1     -21.373 -37.236 -28.571  1.00  0.00    -0.350 NA
BRANCH   9  10
HETATM   10  N3  UNL     1     -21.411 -37.012 -29.780  1.00  0.00    -0.281 N 
ATOM     11  H32 UNL     1     -21.166 -36.158 -29.279  1.00  0.00     0.191 HD
ATOM     12  H31 UNL     1     -21.455 -36.877 -30.790  1.00  0.00     0.191 HD
ENDBRANCH   9  10
ENDBRANCH   8   9
ENDBRANCH   7   8
ENDBRANCH   6   7
ENDBRANCH   5   6
ENDBRANCH   4   5
ENDBRANCH   2   3
BRANCH   1  13
HETATM   13  C7  UNL     1     -20.155 -41.243 -23.349  1.00  0.00     0.068 C 
BRANCH  13  14
HETATM   14  C6  UNL     1     -18.679 -41.057 -23.629  1.00  0.00    -0.024 A 
HETATM   15  C5  UNL     1     -17.743 -39.953 -23.539  1.00  0.00     0.099 A 
HETATM   16  N1  UNL     1     -16.765 -40.678 -23.957  1.00  0.00    -0.365 N 
HETATM   17  C16 UNL     1     -17.658 -41.774 -24.054  1.00  0.00     0.099 A 
BRANCH  16  18
HETATM   18  C4  UNL     1     -15.338 -40.443 -24.213  1.00  0.00     0.128 C 
BRANCH  18  19
HETATM   19  C3  UNL     1     -14.592 -40.934 -22.979  1.00  0.00     0.020 C 
BRANCH  19  20
HETATM   20  C2  UNL     1     -13.952 -39.691 -22.366  1.00  0.00    -0.003 C 
HETATM   21  C1  UNL     1     -13.791 -38.603 -23.399  1.00  0.00     0.005 C 
ENDBRANCH  19  20
ENDBRANCH  18  19
ENDBRANCH  16  18
ENDBRANCH  13  14
ENDBRANCH   1  13
TORSDOF 12
ENDMDL
MODEL 3
REMARK VINA RESULT: -6.509262369      2.631      4.318
REMARK  12 active torsions:
REMARK  status: ('A' for Active; 'I' for Inactive)
REMARK    1  A    between atoms: C2_2  and  C3_3 
REMARK    2  A    between atoms: C3_3  and  C4_4 
REMARK    3  A    between atoms: C4_4  and  N1_5 
REMARK    4  A    between atoms: C6_7  and  C7_8 
REMARK    5  A    between atoms: C7_8  and  C8_9 
REMARK    6  A    between atoms: C9_10  and  C10_11 
REMARK    7  A    between atoms: C11_12  and  C12_13 
REMARK    8  A    between atoms: C12_13  and  C13_14 
REMARK    9  A    between atoms: C13_14  and  C14_15 
REMARK   10  A    between atoms: C14_15  and  C15_16 
REMARK   11  A    between atoms: C15_16  and  N2_17 
REMARK   12  A    between atoms: N2_17  and  N3_18 
ROOT
HETATM    1  C8  UNL     1     -21.279 -38.104 -24.471  1.00  0.00    -0.022 C 
HETATM    2  C9  UNL     1     -22.123 -38.011 -23.472  1.00  0.00    -0.004 C 
ENDROOT
BRANCH   2   3
HETATM    3  C10 UNL     1     -22.714 -39.124 -22.799  1.00  0.00    -0.004 C 
HETATM    4  C11 UNL     1     -22.317 -40.003 -21.967  1.00  0.00    -0.027 C 
BRANCH   4   5
HETATM    5  C12 UNL     1     -21.067 -40.279 -21.318  1.00  0.00     0.027 C 
BRANCH   5   6
HETATM    6  C13 UNL     1     -20.315 -41.445 -21.826  1.00  0.00     0.010 C 
BRANCH   6   7
HETATM    7  C14 UNL     1     -21.041 -42.757 -21.481  1.00  0.00     0.062 C 
BRANCH   7   8
HETATM    8  C15 UNL     1     -21.377 -43.478 -22.733  1.00  0.00     0.181 C 
BRANCH   8   9
HETATM    9  N2  UNL     1     -22.536 -43.621 -23.133  1.00  0.00    -0.350 NA
BRANCH   9  10
HETATM   10  N3  UNL     1     -23.684 -43.825 -23.521  1.00  0.00    -0.281 N 
ATOM     11  H32 UNL     1     -23.181 -44.710 -23.453  1.00  0.00     0.191 HD
ATOM     12  H31 UNL     1     -24.646 -43.942 -23.841  1.00  0.00     0.191 HD
ENDBRANCH   9  10
ENDBRANCH   8   9
ENDBRANCH   7   8
ENDBRANCH   6   7
ENDBRANCH   5   6
ENDBRANCH   4   5
ENDBRANCH   2   3
BRANCH   1  13
HETATM   13  C7  UNL     1     -20.801 -39.326 -25.065  1.00  0.00     0.068 C 
BRANCH  13  14
HETATM   14  C6  UNL     1     -19.305 -39.382 -24.833  1.00  0.00    -0.024 A 
HETATM   15  C5  UNL     1     -18.325 -40.438 -24.670  1.00  0.00     0.099 A 
HETATM   16  N1  UNL     1     -17.363 -39.595 -24.527  1.00  0.00    -0.365 N 
HETATM   17  C16 UNL     1     -18.299 -38.543 -24.684  1.00  0.00     0.099 A 
BRANCH  16  18
HETATM   18  C4  UNL     1     -15.916 -39.705 -24.301  1.00  0.00     0.128 C 
BRANCH  18  19
HETATM   19  C3  UNL     1     -15.664 -39.223 -22.878  1.00  0.00     0.020 C 
BRANCH  19  20
HETATM   20  C2  UNL     1     -14.203 -38.782 -22.848  1.00  0.00    -0.003 C 
HETATM   21  C1  UNL     1     -13.282 -39.974 -22.759  1.00  0.00     0.005 C 
ENDBRANCH  19  20
ENDBRANCH  18  19
ENDBRANCH  16  18
ENDBRANCH  13  14
ENDBRANCH   1  13
TORSDOF 12
ENDMDL
MODEL 4
REMARK VINA RESULT: -6.388151168      2.658      4.097
REMARK  12 active torsions:
REMARK  status: ('A' for Active; 'I' for Inactive)
REMARK    1  A    between atoms: C2_2  and  C3_3 
REMARK    2  A    between atoms: C3_3  and  C4_4 
REMARK    3  A    between atoms: C4_4  and  N1_5 
REMARK    4  A    between atoms: C6_7  and  C7_8 
REMARK    5  A    between atoms: C7_8  and  C8_9 
REMARK    6  A    between atoms: C9_10  and  C10_11 
REMARK    7  A    between atoms: C11_12  and  C12_13 
REMARK    8  A    between atoms: C12_13  and  C13_14 
REMARK    9  A    between atoms: C13_14  and  C14_15 
REMARK   10  A    between atoms: C14_15  and  C15_16 
REMARK   11  A    between atoms: C15_16  and  N2_17 
REMARK   12  A    between atoms: N2_17  and  N3_18 
ROOT
HETATM    1  C8  UNL     1     -20.881 -40.932 -24.801  1.00  0.00    -0.022 C 
HETATM    2  C9  UNL     1     -21.541 -39.815 -24.991  1.00  0.00    -0.004 C 
ENDROOT
BRANCH   2   3
HETATM    3  C10 UNL     1     -21.708 -38.791 -24.009  1.00  0.00    -0.004 C 
HETATM    4  C11 UNL     1     -22.403 -38.645 -22.951  1.00  0.00    -0.027 C 
BRANCH   4   5
HETATM    5  C12 UNL     1     -23.354 -39.464 -22.254  1.00  0.00     0.027 C 
BRANCH   5   6
HETATM    6  C13 UNL     1     -22.795 -40.413 -21.270  1.00  0.00     0.010 C 
BRANCH   6   7
HETATM    7  C14 UNL     1     -23.678 -41.669 -21.156  1.00  0.00     0.062 C 
BRANCH   7   8
HETATM    8  C15 UNL     1     -22.949 -42.836 -21.708  1.00  0.00     0.181 C 
BRANCH   8   9
HETATM    9  N2  UNL     1     -23.217 -43.337 -22.803  1.00  0.00    -0.350 NA
BRANCH   9  10
HETATM   10  N3  UNL     1     -23.482 -43.892 -23.867  1.00  0.00    -0.281 N 
ATOM     11  H32 UNL     1     -22.546 -43.489 -23.913  1.00  0.00     0.191 HD
ATOM     12  H31 UNL     1     -23.748 -44.366 -24.731  1.00  0.00     0.191 HD
ENDBRANCH   9  10
ENDBRANCH   8   9
ENDBRANCH   7   8
ENDBRANCH   6   7
ENDBRANCH   5   6
ENDBRANCH   4   5
ENDBRANCH   2   3
BRANCH   1  13
HETATM   13  C7  UNL     1     -20.213 -41.326 -23.587  1.00  0.00     0.068 C 
BRANCH  13  14
HETATM   14  C6  UNL     1     -18.732 -41.082 -23.791  1.00  0.00    -0.024 A 
HETATM   15  C5  UNL     1     -17.834 -39.961 -23.591  1.00  0.00     0.099 A 
HETATM   16  N1  UNL     1     -16.819 -40.632 -24.012  1.00  0.00    -0.365 N 
HETATM   17  C16 UNL     1     -17.674 -41.743 -24.217  1.00  0.00     0.099 A 
BRANCH  16  18
HETATM   18  C4  UNL     1     -15.390 -40.342 -24.192  1.00  0.00     0.128 C 
BRANCH  18  19
HETATM   19  C3  UNL     1     -14.674 -40.942 -22.989  1.00  0.00     0.020 C 
BRANCH  19  20
HETATM   20  C2  UNL     1     -13.796 -39.824 -22.435  1.00  0.00    -0.003 C 
HETATM   21  C1  UNL     1     -13.833 -38.614 -23.337  1.00  0.00     0.005 C 
ENDBRANCH  19  20
ENDBRANCH  18  19
ENDBRANCH  16  18
ENDBRANCH  13  14
ENDBRANCH   1  13
TORSDOF 12
ENDMDL
MODEL 5
REMARK VINA RESULT: -6.303677218      1.098      1.510
REMARK  12 active torsions:
REMARK  status: ('A' for Active; 'I' for Inactive)
REMARK    1  A    between atoms: C2_2  and  C3_3 
REMARK    2  A    between atoms: C3_3  and  C4_4 
REMARK    3  A    between atoms: C4_4  and  N1_5 
REMARK    4  A    between atoms: C6_7  and  C7_8 
REMARK    5  A    between atoms: C7_8  and  C8_9 
REMARK    6  A    between atoms: C9_10  and  C10_11 
REMARK    7  A    between atoms: C11_12  and  C12_13 
REMARK    8  A    between atoms: C12_13  and  C13_14 
REMARK    9  A    between atoms: C13_14  and  C14_15 
REMARK   10  A    between atoms: C14_15  and  C15_16 
REMARK   11  A    between atoms: C15_16  and  N2_17 
REMARK   12  A    between atoms: N2_17  and  N3_18 
ROOT
HETATM    1  C8  UNL     1     -20.358 -42.180 -22.177  1.00  0.00    -0.022 C 
HETATM    2  C9  UNL     1     -21.463 -41.630 -21.736  1.00  0.00    -0.004 C 
ENDROOT
BRANCH   2   3
HETATM    3  C10 UNL     1     -22.458 -41.025 -22.564  1.00  0.00    -0.004 C 
HETATM    4  C11 UNL     1     -22.555 -39.946 -23.234  1.00  0.00    -0.027 C 
BRANCH   4   5
HETATM    5  C12 UNL     1     -21.689 -38.823 -23.460  1.00  0.00     0.027 C 
BRANCH   5   6
HETATM    6  C13 UNL     1     -21.585 -38.356 -24.858  1.00  0.00     0.010 C 
BRANCH   6   7
HETATM    7  C14 UNL     1     -21.581 -36.819 -24.923  1.00  0.00     0.062 C 
BRANCH   7   8
HETATM    8  C15 UNL     1     -20.845 -36.378 -26.133  1.00  0.00     0.181 C 
BRANCH   8   9
HETATM    9  N2  UNL     1     -21.094 -36.809 -27.262  1.00  0.00    -0.350 NA
BRANCH   9  10
HETATM   10  N3  UNL     1     -21.330 -37.182 -28.409  1.00  0.00    -0.281 N 
ATOM     11  H32 UNL     1     -21.853 -36.330 -28.209  1.00  0.00     0.191 HD
ATOM     12  H31 UNL     1     -21.493 -37.531 -29.354  1.00  0.00     0.191 HD
ENDBRANCH   9  10
ENDBRANCH   8   9
ENDBRANCH   7   8
ENDBRANCH   6   7
ENDBRANCH   5   6
ENDBRANCH   4   5
ENDBRANCH   2   3
BRANCH   1  13
HETATM   13  C7  UNL     1     -19.950 -42.276 -23.555  1.00  0.00     0.068 C 
BRANCH  13  14
HETATM   14  C6  UNL     1     -18.724 -41.403 -23.721  1.00  0.00    -0.024 A 
HETATM   15  C5  UNL     1     -17.355 -41.617 -24.147  1.00  0.00     0.099 A 
HETATM   16  N1  UNL     1     -17.052 -40.377 -23.977  1.00  0.00    -0.365 N 
HETATM   17  C16 UNL     1     -18.384 -40.140 -23.557  1.00  0.00     0.099 A 
BRANCH  16  18
HETATM   18  C4  UNL     1     -15.834 -39.576 -24.155  1.00  0.00     0.128 C 
BRANCH  18  19
HETATM   19  C3  UNL     1     -15.437 -39.084 -22.769  1.00  0.00     0.020 C 
BRANCH  19  20
HETATM   20  C2  UNL     1     -13.950 -38.752 -22.864  1.00  0.00    -0.003 C 
HETATM   21  C1  UNL     1     -13.110 -39.998 -22.714  1.00  0.00     0.005 C 
ENDBRANCH  19  20
ENDBRANCH  18  19
ENDBRANCH  16  18
ENDBRANCH  13  14
ENDBRANCH   1  13
TORSDOF 12
ENDMDL
