MODEL 1
REMARK VINA RESULT: -7.889262790      0.000      0.000
REMARK  6 active torsions:
REMARK  status: ('A' for Active; 'I' for Inactive)
REMARK    1  A    between atoms: C9_9  and  C10_10 
REMARK    2  A    between atoms: C10_10  and  C11_11 
REMARK    3  A    between atoms: C12_12  and  C13_13 
REMARK    4  A    between atoms: C13_13  and  C14_18 
REMARK    5  A    between atoms: N1_14  and  O1_16 
REMARK    6  A    between atoms: C14_18  and  O2_21 
ROOT
HETATM    1  C1  UNL     1      -7.429  -0.206   9.258  1.00  0.00     0.015 C 
HETATM    2  C2  UNL     1      -7.361  -1.460   8.911  1.00  0.00    -0.084 C 
HETATM    3  C3  UNL     1      -8.448  -2.256   8.304  1.00  0.00     0.039 C 
HETATM    4  C4  UNL     1      -8.220  -3.679   8.790  1.00  0.00     0.006 C 
HETATM    5  C5  UNL     1      -9.354  -3.918   9.768  1.00  0.00     0.033 C 
HETATM    6  C6  UNL     1      -9.231  -2.948  10.908  1.00  0.00    -0.019 C 
HETATM    7  C7  UNL     1      -8.010  -2.981  11.487  1.00  0.00    -0.062 C 
HETATM    8  C8  UNL     1      -7.705  -2.087  12.631  1.00  0.00     0.048 C 
HETATM    9  C9  UNL     1      -7.070  -3.956  10.882  1.00  0.00    -0.061 C 
HETATM   10  C17 UNL     1      -6.847  -3.684   9.469  1.00  0.00    -0.004 C 
HETATM   11  C18 UNL     1      -5.934  -4.757   8.849  1.00  0.00     0.019 C 
HETATM   12  C19 UNL     1      -4.607  -4.235   8.445  1.00  0.00    -0.017 C 
HETATM   13  C20 UNL     1      -3.624  -5.413   8.529  1.00  0.00     0.010 C 
HETATM   14  C21 UNL     1      -4.005  -3.126   9.216  1.00  0.00     0.005 C 
HETATM   15  C22 UNL     1      -4.979  -1.998   9.570  1.00  0.00     0.010 C 
HETATM   16  C23 UNL     1      -6.281  -2.411   8.992  1.00  0.00     0.027 C 
ENDROOT
BRANCH   9  17
HETATM   17  C10 UNL     1      -5.937  -4.349  11.761  1.00  0.00     0.062 C 
BRANCH  17  18
HETATM   18  C11 UNL     1      -6.354  -5.607  12.466  1.00  0.00    -0.020 C 
HETATM   19  C12 UNL     1      -7.162  -6.480  11.897  1.00  0.00     0.026 C 
BRANCH  19  20
HETATM   20  C13 UNL     1      -7.591  -7.710  12.545  1.00  0.00     0.065 C 
HETATM   21  N1  UNL     1      -6.720  -8.635  12.758  1.00  0.00    -0.270 N 
ATOM     22  H1  UNL     1      -5.764  -8.448  12.456  1.00  0.00     0.194 HD
BRANCH  21  23
HETATM   23  O1  UNL     1      -6.958  -9.836  13.348  1.00  0.00    -0.290 OA
ATOM     24  H1  UNL     1      -7.460 -10.551  12.975  1.00  0.00     0.244 HD
ENDBRANCH  21  23
BRANCH  20  25
HETATM   25  C14 UNL     1      -8.987  -7.945  12.968  1.00  0.00     0.094 C 
HETATM   26  C15 UNL     1      -9.738  -8.800  11.972  1.00  0.00     0.052 C 
HETATM   27  C16 UNL     1      -9.674  -6.577  12.946  1.00  0.00     0.052 C 
BRANCH  25  28
HETATM   28  O2  UNL     1      -9.113  -8.469  14.227  1.00  0.00    -0.384 OA
ATOM     29  H2  UNL     1      -9.996  -8.443  14.574  1.00  0.00     0.211 HD
ENDBRANCH  25  28
ENDBRANCH  20  25
ENDBRANCH  19  20
ENDBRANCH  17  18
ENDBRANCH   9  17
TORSDOF 6
ENDMDL
MODEL 2
REMARK VINA RESULT: -7.687110926      1.096      1.407
REMARK  6 active torsions:
REMARK  status: ('A' for Active; 'I' for Inactive)
REMARK    1  A    between atoms: C9_9  and  C10_10 
REMARK    2  A    between atoms: C10_10  and  C11_11 
REMARK    3  A    between atoms: C12_12  and  C13_13 
REMARK    4  A    between atoms: C13_13  and  C14_18 
REMARK    5  A    between atoms: N1_14  and  O1_16 
REMARK    6  A    between atoms: C14_18  and  O2_21 
ROOT
HETATM    1  C1  UNL     1      -7.014  -0.191  10.002  1.00  0.00     0.015 C 
HETATM    2  C2  UNL     1      -7.025  -1.325   9.360  1.00  0.00    -0.084 C 
HETATM    3  C3  UNL     1      -8.100  -1.811   8.470  1.00  0.00     0.039 C 
HETATM    4  C4  UNL     1      -8.073  -3.326   8.604  1.00  0.00     0.006 C 
HETATM    5  C5  UNL     1      -9.338  -3.648   9.376  1.00  0.00     0.033 C 
HETATM    6  C6  UNL     1      -9.264  -3.001  10.729  1.00  0.00    -0.019 C 
HETATM    7  C7  UNL     1      -8.134  -3.322  11.397  1.00  0.00    -0.062 C 
HETATM    8  C8  UNL     1      -7.888  -2.773  12.753  1.00  0.00     0.048 C 
HETATM    9  C9  UNL     1      -7.224  -4.235  10.661  1.00  0.00    -0.061 C 
HETATM   10  C17 UNL     1      -6.802  -3.664   9.390  1.00  0.00    -0.004 C 
HETATM   11  C18 UNL     1      -5.928  -4.663   8.612  1.00  0.00     0.019 C 
HETATM   12  C19 UNL     1      -4.516  -4.229   8.482  1.00  0.00    -0.017 C 
HETATM   13  C20 UNL     1      -3.670  -5.506   8.362  1.00  0.00     0.010 C 
HETATM   14  C21 UNL     1      -3.911  -3.419   9.561  1.00  0.00     0.005 C 
HETATM   15  C22 UNL     1      -4.807  -2.297  10.091  1.00  0.00     0.010 C 
HETATM   16  C23 UNL     1      -6.060  -2.394   9.304  1.00  0.00     0.027 C 
ENDROOT
BRANCH   9  17
HETATM   17  C10 UNL     1      -6.253  -4.963  11.518  1.00  0.00     0.062 C 
BRANCH  17  18
HETATM   18  C11 UNL     1      -6.642  -6.413  11.475  1.00  0.00    -0.020 C 
HETATM   19  C12 UNL     1      -7.381  -6.957  12.422  1.00  0.00     0.026 C 
BRANCH  19  20
HETATM   20  C13 UNL     1      -7.779  -8.356  12.419  1.00  0.00     0.065 C 
HETATM   21  N1  UNL     1      -8.207  -8.876  11.321  1.00  0.00    -0.270 N 
ATOM     22  H1  UNL     1      -8.243  -8.267  10.504  1.00  0.00     0.194 HD
BRANCH  21  23
HETATM   23  O1  UNL     1      -8.616 -10.161  11.152  1.00  0.00    -0.290 OA
ATOM     24  H1  UNL     1      -9.386 -10.557  11.543  1.00  0.00     0.244 HD
ENDBRANCH  21  23
BRANCH  20  25
HETATM   25  C14 UNL     1      -7.715  -9.207  13.625  1.00  0.00     0.094 C 
HETATM   26  C15 UNL     1      -9.064  -9.333  14.296  1.00  0.00     0.052 C 
HETATM   27  C16 UNL     1      -6.819  -8.466  14.622  1.00  0.00     0.052 C 
BRANCH  25  28
HETATM   28  O2  UNL     1      -7.180 -10.450  13.408  1.00  0.00    -0.384 OA
ATOM     29  H2  UNL     1      -7.653 -10.973  12.773  1.00  0.00     0.211 HD
ENDBRANCH  25  28
ENDBRANCH  20  25
ENDBRANCH  19  20
ENDBRANCH  17  18
ENDBRANCH   9  17
TORSDOF 6
ENDMDL
MODEL 3
REMARK VINA RESULT: -7.612308873      0.865      1.484
REMARK  6 active torsions:
REMARK  status: ('A' for Active; 'I' for Inactive)
REMARK    1  A    between atoms: C9_9  and  C10_10 
REMARK    2  A    between atoms: C10_10  and  C11_11 
REMARK    3  A    between atoms: C12_12  and  C13_13 
REMARK    4  A    between atoms: C13_13  and  C14_18 
REMARK    5  A    between atoms: N1_14  and  O1_16 
REMARK    6  A    between atoms: C14_18  and  O2_21 
ROOT
HETATM    1  C1  UNL     1      -7.267  -0.291   9.402  1.00  0.00     0.015 C 
HETATM    2  C2  UNL     1      -7.226  -1.528   8.996  1.00  0.00    -0.084 C 
HETATM    3  C3  UNL     1      -8.308  -2.250   8.294  1.00  0.00     0.039 C 
HETATM    4  C4  UNL     1      -8.157  -3.703   8.718  1.00  0.00     0.006 C 
HETATM    5  C5  UNL     1      -9.350  -3.947   9.624  1.00  0.00     0.033 C 
HETATM    6  C6  UNL     1      -9.252  -3.039  10.816  1.00  0.00    -0.019 C 
HETATM    7  C7  UNL     1      -8.065  -3.147  11.455  1.00  0.00    -0.062 C 
HETATM    8  C8  UNL     1      -7.789  -2.323  12.657  1.00  0.00     0.048 C 
HETATM    9  C9  UNL     1      -7.130  -4.127  10.850  1.00  0.00    -0.061 C 
HETATM   10  C17 UNL     1      -6.823  -3.795   9.466  1.00  0.00    -0.004 C 
HETATM   11  C18 UNL     1      -5.918  -4.871   8.839  1.00  0.00     0.019 C 
HETATM   12  C19 UNL     1      -4.553  -4.381   8.531  1.00  0.00    -0.017 C 
HETATM   13  C20 UNL     1      -3.619  -5.599   8.604  1.00  0.00     0.010 C 
HETATM   14  C21 UNL     1      -3.954  -3.336   9.387  1.00  0.00     0.005 C 
HETATM   15  C22 UNL     1      -4.903  -2.190   9.748  1.00  0.00     0.010 C 
HETATM   16  C23 UNL     1      -6.187  -2.523   9.084  1.00  0.00     0.027 C 
ENDROOT
BRANCH   9  17
HETATM   17  C10 UNL     1      -6.060  -4.606  11.764  1.00  0.00     0.062 C 
BRANCH  17  18
HETATM   18  C11 UNL     1      -6.626  -5.778  12.513  1.00  0.00    -0.020 C 
HETATM   19  C12 UNL     1      -7.113  -6.829  11.882  1.00  0.00     0.026 C 
BRANCH  19  20
HETATM   20  C13 UNL     1      -7.670  -7.984  12.569  1.00  0.00     0.065 C 
HETATM   21  N1  UNL     1      -8.626  -7.802  13.413  1.00  0.00    -0.270 N 
ATOM     22  H1  UNL     1      -8.942  -6.843  13.554  1.00  0.00     0.194 HD
BRANCH  21  23
HETATM   23  O1  UNL     1      -9.251  -8.770  14.133  1.00  0.00    -0.290 OA
ATOM     24  H1  UNL     1      -9.825  -8.630  14.877  1.00  0.00     0.244 HD
ENDBRANCH  21  23
BRANCH  20  25
HETATM   25  C14 UNL     1      -7.185  -9.361  12.340  1.00  0.00     0.094 C 
HETATM   26  C15 UNL     1      -5.930  -9.380  11.497  1.00  0.00     0.052 C 
HETATM   27  C16 UNL     1      -8.262 -10.057  11.503  1.00  0.00     0.052 C 
BRANCH  25  28
HETATM   28  O2  UNL     1      -6.994 -10.088  13.485  1.00  0.00    -0.384 OA
ATOM     29  H2  UNL     1      -6.109 -10.415  13.596  1.00  0.00     0.211 HD
ENDBRANCH  25  28
ENDBRANCH  20  25
ENDBRANCH  19  20
ENDBRANCH  17  18
ENDBRANCH   9  17
TORSDOF 6
ENDMDL
MODEL 4
REMARK VINA RESULT: -7.406558482      1.755      2.477
REMARK  6 active torsions:
REMARK  status: ('A' for Active; 'I' for Inactive)
REMARK    1  A    between atoms: C9_9  and  C10_10 
REMARK    2  A    between atoms: C10_10  and  C11_11 
REMARK    3  A    between atoms: C12_12  and  C13_13 
REMARK    4  A    between atoms: C13_13  and  C14_18 
REMARK    5  A    between atoms: N1_14  and  O1_16 
REMARK    6  A    between atoms: C14_18  and  O2_21 
ROOT
HETATM    1  C1  UNL     1      -7.075  -0.182   9.595  1.00  0.00     0.015 C 
HETATM    2  C2  UNL     1      -7.084  -1.377   9.077  1.00  0.00    -0.084 C 
HETATM    3  C3  UNL     1      -8.200  -1.992   8.328  1.00  0.00     0.039 C 
HETATM    4  C4  UNL     1      -8.098  -3.483   8.615  1.00  0.00     0.006 C 
HETATM    5  C5  UNL     1      -9.289  -3.765   9.511  1.00  0.00     0.033 C 
HETATM    6  C6  UNL     1      -9.144  -2.975  10.780  1.00  0.00    -0.019 C 
HETATM    7  C7  UNL     1      -7.956  -3.184  11.389  1.00  0.00    -0.062 C 
HETATM    8  C8  UNL     1      -7.636  -2.485  12.658  1.00  0.00     0.048 C 
HETATM    9  C9  UNL     1      -7.065  -4.138  10.684  1.00  0.00    -0.061 C 
HETATM   10  C17 UNL     1      -6.760  -3.691   9.332  1.00  0.00    -0.004 C 
HETATM   11  C18 UNL     1      -5.903  -4.736   8.597  1.00  0.00     0.019 C 
HETATM   12  C19 UNL     1      -4.524  -4.270   8.314  1.00  0.00    -0.017 C 
HETATM   13  C20 UNL     1      -3.636  -5.522   8.263  1.00  0.00     0.010 C 
HETATM   14  C21 UNL     1      -3.877  -3.330   9.254  1.00  0.00     0.005 C 
HETATM   15  C22 UNL     1      -4.779  -2.189   9.732  1.00  0.00     0.010 C 
HETATM   16  C23 UNL     1      -6.082  -2.413   9.058  1.00  0.00     0.027 C 
ENDROOT
BRANCH   9  17
HETATM   17  C10 UNL     1      -6.004  -4.737  11.535  1.00  0.00     0.062 C 
BRANCH  17  18
HETATM   18  C11 UNL     1      -6.298  -6.206  11.621  1.00  0.00    -0.020 C 
HETATM   19  C12 UNL     1      -5.361  -7.110  11.407  1.00  0.00     0.026 C 
BRANCH  19  20
HETATM   20  C13 UNL     1      -5.602  -8.543  11.479  1.00  0.00     0.065 C 
HETATM   21  N1  UNL     1      -6.813  -8.973  11.377  1.00  0.00    -0.270 N 
ATOM     22  H1  UNL     1      -7.543  -8.273  11.250  1.00  0.00     0.194 HD
BRANCH  21  23
HETATM   23  O1  UNL     1      -7.204 -10.273  11.424  1.00  0.00    -0.290 OA
ATOM     24  H1  UNL     1      -6.753 -10.976  11.877  1.00  0.00     0.244 HD
ENDBRANCH  21  23
BRANCH  20  25
HETATM   25  C14 UNL     1      -4.517  -9.528  11.665  1.00  0.00     0.094 C 
HETATM   26  C15 UNL     1      -3.198  -8.857  11.975  1.00  0.00     0.052 C 
HETATM   27  C16 UNL     1      -4.329 -10.215  10.309  1.00  0.00     0.052 C 
BRANCH  25  28
HETATM   28  O2  UNL     1      -4.787 -10.491  12.601  1.00  0.00    -0.384 OA
ATOM     29  H2  UNL     1      -5.566 -11.003  12.420  1.00  0.00     0.211 HD
ENDBRANCH  25  28
ENDBRANCH  20  25
ENDBRANCH  19  20
ENDBRANCH  17  18
ENDBRANCH   9  17
TORSDOF 6
ENDMDL
MODEL 5
REMARK VINA RESULT: -7.297104667      1.252      1.323
REMARK  6 active torsions:
REMARK  status: ('A' for Active; 'I' for Inactive)
REMARK    1  A    between atoms: C9_9  and  C10_10 
REMARK    2  A    between atoms: C10_10  and  C11_11 
REMARK    3  A    between atoms: C12_12  and  C13_13 
REMARK    4  A    between atoms: C13_13  and  C14_18 
REMARK    5  A    between atoms: N1_14  and  O1_16 
REMARK    6  A    between atoms: C14_18  and  O2_21 
ROOT
HETATM    1  C1  UNL     1      -7.474  -1.012  10.789  1.00  0.00     0.015 C 
HETATM    2  C2  UNL     1      -7.398  -2.116  10.101  1.00  0.00    -0.084 C 
HETATM    3  C3  UNL     1      -8.525  -2.817   9.453  1.00  0.00     0.039 C 
HETATM    4  C4  UNL     1      -8.149  -4.291   9.487  1.00  0.00     0.006 C 
HETATM    5  C5  UNL     1      -9.101  -4.888  10.507  1.00  0.00     0.033 C 
HETATM    6  C6  UNL     1      -8.849  -4.250  11.843  1.00  0.00    -0.019 C 
HETATM    7  C7  UNL     1      -7.552  -4.323  12.216  1.00  0.00    -0.062 C 
HETATM    8  C8  UNL     1      -7.116  -3.744  13.510  1.00  0.00     0.048 C 
HETATM    9  C9  UNL     1      -6.670  -5.010  11.240  1.00  0.00    -0.061 C 
HETATM   10  C17 UNL     1      -6.688  -4.350   9.942  1.00  0.00    -0.004 C 
HETATM   11  C18 UNL     1      -5.831  -5.129   8.928  1.00  0.00     0.019 C 
HETATM   12  C19 UNL     1      -4.613  -4.397   8.506  1.00  0.00    -0.017 C 
HETATM   13  C20 UNL     1      -3.569  -5.457   8.122  1.00  0.00     0.010 C 
HETATM   14  C21 UNL     1      -3.955  -3.483   9.465  1.00  0.00     0.005 C 
HETATM   15  C22 UNL     1      -4.916  -2.587  10.250  1.00  0.00     0.010 C 
HETATM   16  C23 UNL     1      -6.271  -2.949   9.764  1.00  0.00     0.027 C 
ENDROOT
BRANCH   9  17
HETATM   17  C10 UNL     1      -5.394  -5.516  11.810  1.00  0.00     0.062 C 
BRANCH  17  18
HETATM   18  C11 UNL     1      -5.662  -6.910  12.297  1.00  0.00    -0.020 C 
HETATM   19  C12 UNL     1      -6.749  -7.567  11.942  1.00  0.00     0.026 C 
BRANCH  19  20
HETATM   20  C13 UNL     1      -7.048  -8.918  12.390  1.00  0.00     0.065 C 
HETATM   21  N1  UNL     1      -6.071  -9.695  12.710  1.00  0.00    -0.270 N 
ATOM     22  H1  UNL     1      -5.130  -9.312  12.628  1.00  0.00     0.194 HD
BRANCH  21  23
HETATM   23  O1  UNL     1      -6.181 -10.978  13.144  1.00  0.00    -0.290 OA
ATOM     24  H1  UNL     1      -5.570 -11.683  12.963  1.00  0.00     0.244 HD
ENDBRANCH  21  23
BRANCH  20  25
HETATM   25  C14 UNL     1      -8.427  -9.439  12.494  1.00  0.00     0.094 C 
HETATM   26  C15 UNL     1      -8.794 -10.295  11.304  1.00  0.00     0.052 C 
HETATM   27  C16 UNL     1      -9.348  -8.217  12.433  1.00  0.00     0.052 C 
BRANCH  25  28
HETATM   28  O2  UNL     1      -8.686 -10.115  13.658  1.00  0.00    -0.384 OA
ATOM     29  H2  UNL     1      -8.899 -11.032  13.537  1.00  0.00     0.211 HD
ENDBRANCH  25  28
ENDBRANCH  20  25
ENDBRANCH  19  20
ENDBRANCH  17  18
ENDBRANCH   9  17
TORSDOF 6
ENDMDL
