MODEL 1
REMARK VINA RESULT: -7.733332392      0.000      0.000
REMARK  6 active torsions:
REMARK  status: ('A' for Active; 'I' for Inactive)
REMARK    1  A    between atoms: C4_4  and  C5_5 
REMARK    2  A    between atoms: C5_5  and  C6_6 
REMARK    3  A    between atoms: C6_6  and  C7_7 
REMARK    4  A    between atoms: C21_23  and  C22_24 
REMARK    5  A    between atoms: C22_24  and  C23_25 
REMARK    6  A    between atoms: C23_25  and  O3_26 
ROOT
HETATM    1  C7  UNL     1      -8.282  -5.481  12.301  1.00  0.00    -0.024 C 
HETATM    2  C8  UNL     1      -8.477  -5.269  13.820  1.00  0.00     0.017 C 
HETATM    3  C9  UNL     1      -6.954  -6.212  12.296  1.00  0.00    -0.009 C 
HETATM    4  C10 UNL     1      -5.940  -5.811  13.293  1.00  0.00     0.011 C 
HETATM    5  C11 UNL     1      -6.424  -6.613  10.950  1.00  0.00     0.006 C 
HETATM    6  C12 UNL     1      -5.134  -5.982  10.573  1.00  0.00     0.016 C 
HETATM    7  C13 UNL     1      -5.109  -4.852   9.641  1.00  0.00     0.000 C 
HETATM    8  C14 UNL     1      -3.931  -5.007   8.650  1.00  0.00     0.022 C 
HETATM    9  C15 UNL     1      -6.351  -4.507   8.912  1.00  0.00    -0.019 C 
HETATM   10  C16 UNL     1      -7.649  -4.335   9.082  1.00  0.00    -0.028 C 
HETATM   11  C17 UNL     1      -8.733  -4.367  10.084  1.00  0.00     0.047 C 
HETATM   12  C18 UNL     1      -8.326  -4.207  11.533  1.00  0.00     0.055 C 
HETATM   13  C19 UNL     1      -9.408  -3.252  12.103  1.00  0.00     0.027 C 
HETATM   14  C20 UNL     1      -7.084  -3.394  11.655  1.00  0.00     0.268 C 
HETATM   15  O1  UNL     1      -7.129  -2.645  12.709  1.00  0.00    -0.264 OA
HETATM   16  O2  UNL     1      -5.874  -3.136  11.046  1.00  0.00    -0.314 OA
HETATM   17  C21 UNL     1      -4.728  -3.569  10.408  1.00  0.00     0.145 C 
ENDROOT
BRANCH   1  18
HETATM   18  C6  UNL     1      -9.303  -6.515  11.946  1.00  0.00     0.014 C 
BRANCH  18  19
HETATM   19  C5  UNL     1      -9.535  -7.677  12.800  1.00  0.00     0.028 C 
BRANCH  19  20
HETATM   20  C4  UNL     1      -9.497  -8.979  12.023  1.00  0.00    -0.025 C 
HETATM   21  C2  UNL     1      -9.400 -10.160  12.626  1.00  0.00    -0.091 C 
HETATM   22  C1  UNL     1      -9.364 -11.416  11.870  1.00  0.00     0.042 C 
HETATM   23  C3  UNL     1      -9.322 -10.247  14.131  1.00  0.00     0.042 C 
ENDBRANCH  19  20
ENDBRANCH  18  19
ENDBRANCH   1  18
BRANCH  17  24
HETATM   24  C22 UNL     1      -4.298  -2.496   9.426  1.00  0.00     0.059 C 
BRANCH  24  25
HETATM   25  C23 UNL     1      -4.872  -1.171   9.940  1.00  0.00     0.166 C 
BRANCH  25  26
HETATM   26  O3  UNL     1      -6.069  -0.895   9.255  1.00  0.00    -0.401 OA
ATOM     27  H3  UNL     1      -6.767  -0.779   9.888  1.00  0.00     0.209 HD
ENDBRANCH  25  26
ENDBRANCH  24  25
ENDBRANCH  17  24
TORSDOF 6
ENDMDL
MODEL 2
REMARK VINA RESULT: -7.472552833      2.278      6.372
REMARK  6 active torsions:
REMARK  status: ('A' for Active; 'I' for Inactive)
REMARK    1  A    between atoms: C4_4  and  C5_5 
REMARK    2  A    between atoms: C5_5  and  C6_6 
REMARK    3  A    between atoms: C6_6  and  C7_7 
REMARK    4  A    between atoms: C21_23  and  C22_24 
REMARK    5  A    between atoms: C22_24  and  C23_25 
REMARK    6  A    between atoms: C23_25  and  O3_26 
ROOT
HETATM    1  C7  UNL     1      -7.661  -4.951  11.736  1.00  0.00    -0.024 C 
HETATM    2  C8  UNL     1      -7.703  -3.446  12.085  1.00  0.00     0.017 C 
HETATM    3  C9  UNL     1      -9.053  -5.369  12.166  1.00  0.00    -0.009 C 
HETATM    4  C10 UNL     1      -9.624  -4.734  13.371  1.00  0.00     0.011 C 
HETATM    5  C11 UNL     1      -9.404  -6.814  11.961  1.00  0.00     0.006 C 
HETATM    6  C12 UNL     1      -9.691  -7.570  13.206  1.00  0.00     0.016 C 
HETATM    7  C13 UNL     1      -8.679  -8.460  13.781  1.00  0.00     0.000 C 
HETATM    8  C14 UNL     1      -9.342  -9.768  14.276  1.00  0.00     0.022 C 
HETATM    9  C15 UNL     1      -7.470  -8.767  12.983  1.00  0.00    -0.019 C 
HETATM   10  C16 UNL     1      -6.544  -8.203  12.231  1.00  0.00    -0.028 C 
HETATM   11  C17 UNL     1      -6.081  -6.916  11.677  1.00  0.00     0.047 C 
HETATM   12  C18 UNL     1      -6.534  -5.663  12.396  1.00  0.00     0.055 C 
HETATM   13  C19 UNL     1      -5.256  -4.783  12.417  1.00  0.00     0.027 C 
HETATM   14  C20 UNL     1      -6.764  -5.929  13.844  1.00  0.00     0.268 C 
HETATM   15  O1  UNL     1      -6.408  -4.910  14.558  1.00  0.00    -0.264 OA
HETATM   16  O2  UNL     1      -7.225  -6.882  14.727  1.00  0.00    -0.314 OA
HETATM   17  C21 UNL     1      -8.146  -7.844  15.091  1.00  0.00     0.145 C 
ENDROOT
BRANCH   1  18
HETATM   18  C6  UNL     1      -7.687  -4.975  10.240  1.00  0.00     0.014 C 
BRANCH  18  19
HETATM   19  C5  UNL     1      -6.902  -4.029   9.452  1.00  0.00     0.028 C 
BRANCH  19  20
HETATM   20  C4  UNL     1      -5.844  -4.718   8.611  1.00  0.00    -0.025 C 
HETATM   21  C2  UNL     1      -4.584  -4.293   8.572  1.00  0.00    -0.091 C 
HETATM   22  C1  UNL     1      -3.565  -4.963   7.758  1.00  0.00     0.042 C 
HETATM   23  C3  UNL     1      -4.158  -3.089   9.375  1.00  0.00     0.042 C 
ENDBRANCH  19  20
ENDBRANCH  18  19
ENDBRANCH   1  18
BRANCH  17  24
HETATM   24  C22 UNL     1      -7.427  -8.908  15.899  1.00  0.00     0.059 C 
BRANCH  24  25
HETATM   25  C23 UNL     1      -6.802  -8.199  17.106  1.00  0.00     0.166 C 
BRANCH  25  26
HETATM   26  O3  UNL     1      -7.636  -7.132  17.490  1.00  0.00    -0.401 OA
ATOM     27  H3  UNL     1      -7.409  -6.364  16.979  1.00  0.00     0.209 HD
ENDBRANCH  25  26
ENDBRANCH  24  25
ENDBRANCH  17  24
TORSDOF 6
ENDMDL
MODEL 3
REMARK VINA RESULT: -7.410570582      1.790      2.883
REMARK  6 active torsions:
REMARK  status: ('A' for Active; 'I' for Inactive)
REMARK    1  A    between atoms: C4_4  and  C5_5 
REMARK    2  A    between atoms: C5_5  and  C6_6 
REMARK    3  A    between atoms: C6_6  and  C7_7 
REMARK    4  A    between atoms: C21_23  and  C22_24 
REMARK    5  A    between atoms: C22_24  and  C23_25 
REMARK    6  A    between atoms: C23_25  and  O3_26 
ROOT
HETATM    1  C7  UNL     1      -8.017  -6.158  13.001  1.00  0.00    -0.024 C 
HETATM    2  C8  UNL     1      -6.778  -6.883  13.576  1.00  0.00     0.017 C 
HETATM    3  C9  UNL     1      -7.718  -6.245  11.517  1.00  0.00    -0.009 C 
HETATM    4  C10 UNL     1      -6.312  -6.118  11.085  1.00  0.00     0.011 C 
HETATM    5  C11 UNL     1      -8.740  -5.640  10.600  1.00  0.00     0.006 C 
HETATM    6  C12 UNL     1      -8.252  -4.498   9.786  1.00  0.00     0.016 C 
HETATM    7  C13 UNL     1      -8.579  -3.123  10.171  1.00  0.00     0.000 C 
HETATM    8  C14 UNL     1      -8.936  -2.291   8.916  1.00  0.00     0.022 C 
HETATM    9  C15 UNL     1      -9.584  -2.905  11.235  1.00  0.00    -0.019 C 
HETATM   10  C16 UNL     1      -9.945  -3.324  12.435  1.00  0.00    -0.028 C 
HETATM   11  C17 UNL     1      -9.608  -4.271  13.516  1.00  0.00     0.047 C 
HETATM   12  C18 UNL     1      -8.185  -4.786  13.551  1.00  0.00     0.055 C 
HETATM   13  C19 UNL     1      -7.829  -4.744  15.061  1.00  0.00     0.027 C 
HETATM   14  C20 UNL     1      -7.240  -3.791  12.972  1.00  0.00     0.268 C 
HETATM   15  O1  UNL     1      -6.115  -3.802  13.611  1.00  0.00    -0.264 OA
HETATM   16  O2  UNL     1      -7.115  -2.839  11.983  1.00  0.00    -0.314 OA
HETATM   17  C21 UNL     1      -7.302  -2.421  10.680  1.00  0.00     0.145 C 
ENDROOT
BRANCH   1  18
HETATM   18  C6  UNL     1      -9.140  -7.119  13.235  1.00  0.00     0.014 C 
BRANCH  18  19
HETATM   19  C5  UNL     1      -8.923  -8.383  13.935  1.00  0.00     0.028 C 
BRANCH  19  20
HETATM   20  C4  UNL     1      -9.580  -9.552  13.225  1.00  0.00    -0.025 C 
HETATM   21  C2  UNL     1      -8.897 -10.369  12.428  1.00  0.00    -0.091 C 
HETATM   22  C1  UNL     1      -9.536 -11.497  11.745  1.00  0.00     0.042 C 
HETATM   23  C3  UNL     1      -7.421 -10.156  12.198  1.00  0.00     0.042 C 
ENDBRANCH  19  20
ENDBRANCH  18  19
ENDBRANCH   1  18
BRANCH  17  24
HETATM   24  C22 UNL     1      -7.516  -0.919  10.689  1.00  0.00     0.059 C 
BRANCH  24  25
HETATM   25  C23 UNL     1      -6.884  -0.391  11.982  1.00  0.00     0.166 C 
BRANCH  25  26
HETATM   26  O3  UNL     1      -7.886  -0.271  12.963  1.00  0.00    -0.401 OA
ATOM     27  H3  UNL     1      -7.848   0.601  13.338  1.00  0.00     0.209 HD
ENDBRANCH  25  26
ENDBRANCH  24  25
ENDBRANCH  17  24
TORSDOF 6
ENDMDL
MODEL 4
REMARK VINA RESULT: -7.270363929      2.551      6.885
REMARK  6 active torsions:
REMARK  status: ('A' for Active; 'I' for Inactive)
REMARK    1  A    between atoms: C4_4  and  C5_5 
REMARK    2  A    between atoms: C5_5  and  C6_6 
REMARK    3  A    between atoms: C6_6  and  C7_7 
REMARK    4  A    between atoms: C21_23  and  C22_24 
REMARK    5  A    between atoms: C22_24  and  C23_25 
REMARK    6  A    between atoms: C23_25  and  O3_26 
ROOT
HETATM    1  C7  UNL     1      -7.323  -2.917  10.451  1.00  0.00    -0.024 C 
HETATM    2  C8  UNL     1      -6.742  -3.024   9.022  1.00  0.00     0.017 C 
HETATM    3  C9  UNL     1      -6.285  -3.706  11.226  1.00  0.00    -0.009 C 
HETATM    4  C10 UNL     1      -5.689  -4.891  10.576  1.00  0.00     0.011 C 
HETATM    5  C11 UNL     1      -6.507  -3.817  12.707  1.00  0.00     0.006 C 
HETATM    6  C12 UNL     1      -6.723  -5.198  13.205  1.00  0.00     0.016 C 
HETATM    7  C13 UNL     1      -8.074  -5.669  13.517  1.00  0.00     0.000 C 
HETATM    8  C14 UNL     1      -8.059  -6.500  14.822  1.00  0.00     0.022 C 
HETATM    9  C15 UNL     1      -9.179  -4.683  13.549  1.00  0.00    -0.019 C 
HETATM   10  C16 UNL     1      -9.690  -3.664  12.882  1.00  0.00    -0.028 C 
HETATM   11  C17 UNL     1      -9.523  -2.824  11.680  1.00  0.00     0.047 C 
HETATM   12  C18 UNL     1      -8.721  -3.417  10.541  1.00  0.00     0.055 C 
HETATM   13  C19 UNL     1      -9.537  -3.014   9.284  1.00  0.00     0.027 C 
HETATM   14  C20 UNL     1      -8.825  -4.903  10.529  1.00  0.00     0.268 C 
HETATM   15  O1  UNL     1      -8.848  -5.350   9.314  1.00  0.00    -0.264 OA
HETATM   16  O2  UNL     1      -8.908  -6.007  11.350  1.00  0.00    -0.314 OA
HETATM   17  C21 UNL     1      -8.504  -6.713  12.466  1.00  0.00     0.145 C 
ENDROOT
BRANCH   1  18
HETATM   18  C6  UNL     1      -7.094  -1.488  10.829  1.00  0.00     0.014 C 
BRANCH  18  19
HETATM   19  C5  UNL     1      -6.375  -0.575   9.944  1.00  0.00     0.028 C 
BRANCH  19  20
HETATM   20  C4  UNL     1      -6.990   0.811   9.925  1.00  0.00    -0.025 C 
HETATM   21  C2  UNL     1      -7.850   1.190   8.983  1.00  0.00    -0.091 C 
HETATM   22  C1  UNL     1      -8.442   2.532   8.969  1.00  0.00     0.042 C 
HETATM   23  C3  UNL     1      -8.249   0.237   7.883  1.00  0.00     0.042 C 
ENDBRANCH  19  20
ENDBRANCH  18  19
ENDBRANCH   1  18
BRANCH  17  24
HETATM   24  C22 UNL     1      -9.692  -7.501  12.985  1.00  0.00     0.059 C 
BRANCH  24  25
HETATM   25  C23 UNL     1      -9.652  -8.868  12.293  1.00  0.00     0.166 C 
BRANCH  25  26
HETATM   26  O3  UNL     1      -8.706  -8.825  11.252  1.00  0.00    -0.401 OA
ATOM     27  H3  UNL     1      -9.016  -9.362  10.532  1.00  0.00     0.209 HD
ENDBRANCH  25  26
ENDBRANCH  24  25
ENDBRANCH  17  24
TORSDOF 6
ENDMDL
MODEL 5
REMARK VINA RESULT: -7.269497682      3.145      6.902
REMARK  6 active torsions:
REMARK  status: ('A' for Active; 'I' for Inactive)
REMARK    1  A    between atoms: C4_4  and  C5_5 
REMARK    2  A    between atoms: C5_5  and  C6_6 
REMARK    3  A    between atoms: C6_6  and  C7_7 
REMARK    4  A    between atoms: C21_23  and  C22_24 
REMARK    5  A    between atoms: C22_24  and  C23_25 
REMARK    6  A    between atoms: C23_25  and  O3_26 
ROOT
HETATM    1  C7  UNL     1      -7.912  -2.724   9.092  1.00  0.00    -0.024 C 
HETATM    2  C8  UNL     1      -7.174  -3.493   7.972  1.00  0.00     0.017 C 
HETATM    3  C9  UNL     1      -6.857  -1.699   9.459  1.00  0.00    -0.009 C 
HETATM    4  C10 UNL     1      -5.442  -2.122   9.430  1.00  0.00     0.011 C 
HETATM    5  C11 UNL     1      -7.226  -0.727  10.541  1.00  0.00     0.006 C 
HETATM    6  C12 UNL     1      -6.388  -0.806  11.764  1.00  0.00     0.016 C 
HETATM    7  C13 UNL     1      -6.887  -1.489  12.960  1.00  0.00     0.000 C 
HETATM    8  C14 UNL     1      -6.517  -0.681  14.226  1.00  0.00     0.022 C 
HETATM    9  C15 UNL     1      -8.311  -1.890  13.004  1.00  0.00    -0.019 C 
HETATM   10  C16 UNL     1      -9.258  -2.462  12.284  1.00  0.00    -0.028 C 
HETATM   11  C17 UNL     1      -9.550  -3.080  10.976  1.00  0.00     0.047 C 
HETATM   12  C18 UNL     1      -8.367  -3.612  10.195  1.00  0.00     0.055 C 
HETATM   13  C19 UNL     1      -8.887  -4.966   9.641  1.00  0.00     0.027 C 
HETATM   14  C20 UNL     1      -7.271  -4.040  11.108  1.00  0.00     0.268 C 
HETATM   15  O1  UNL     1      -6.672  -5.088  10.644  1.00  0.00    -0.264 OA
HETATM   16  O2  UNL     1      -6.641  -3.725  12.294  1.00  0.00    -0.314 OA
HETATM   17  C21 UNL     1      -6.098  -2.800  13.162  1.00  0.00     0.145 C 
ENDROOT
BRANCH   1  18
HETATM   18  C6  UNL     1      -8.972  -1.957   8.366  1.00  0.00     0.014 C 
BRANCH  18  19
HETATM   19  C5  UNL     1      -8.630  -0.970   7.345  1.00  0.00     0.028 C 
BRANCH  19  20
HETATM   20  C4  UNL     1      -9.254   0.384   7.621  1.00  0.00    -0.025 C 
HETATM   21  C2  UNL     1      -8.524   1.490   7.732  1.00  0.00    -0.091 C 
HETATM   22  C1  UNL     1      -9.132   2.797   7.999  1.00  0.00     0.042 C 
HETATM   23  C3  UNL     1      -7.023   1.434   7.585  1.00  0.00     0.042 C 
ENDBRANCH  19  20
ENDBRANCH  18  19
ENDBRANCH   1  18
BRANCH  17  24
HETATM   24  C22 UNL     1      -6.299  -3.302  14.579  1.00  0.00     0.059 C 
BRANCH  24  25
HETATM   25  C23 UNL     1      -6.507  -4.818  14.484  1.00  0.00     0.166 C 
BRANCH  25  26
HETATM   26  O3  UNL     1      -7.885  -5.095  14.543  1.00  0.00    -0.401 OA
ATOM     27  H3  UNL     1      -8.010  -5.968  14.896  1.00  0.00     0.209 HD
ENDBRANCH  25  26
ENDBRANCH  24  25
ENDBRANCH  17  24
TORSDOF 6
ENDMDL
