MODEL 1
REMARK VINA RESULT: -7.594439089      0.000      0.000
REMARK  8 active torsions:
REMARK  status: ('A' for Active; 'I' for Inactive)
REMARK       I    between atoms: N1_3  and  C3_4 
REMARK    1  A    between atoms: C3_4  and  O2_6 
REMARK    2  A    between atoms: O2_6  and  C4_7 
REMARK    3  A    between atoms: C8_11  and  C9_12 
REMARK    4  A    between atoms: C9_12  and  C10_13 
REMARK    5  A    between atoms: C14_17  and  O3_18 
REMARK    6  A    between atoms: C14_17  and  C15_20 
REMARK    7  A    between atoms: C15_20  and  C16_21 
REMARK    8  A    between atoms: C17_22  and  C18_23 
ROOT
HETATM    1  C1  UNL     1      -5.789  -7.693  11.916  1.00  0.00     0.041 C 
HETATM    2  C2  UNL     1      -6.481  -6.634  12.183  1.00  0.00     0.042 C 
HETATM    3  N1  UNL     1      -7.042  -5.613  11.303  1.00  0.00    -0.290 N 
HETATM    4  C3  UNL     1      -6.500  -5.363  10.027  1.00  0.00     0.368 C 
HETATM    5  O1  UNL     1      -6.935  -4.574   9.181  1.00  0.00    -0.238 OA
HETATM    6  C8  UNL     1      -8.149  -5.017  11.980  1.00  0.00     0.098 C 
HETATM    7  C13 UNL     1      -8.310  -5.821  13.294  1.00  0.00     0.070 C 
HETATM    8  C14 UNL     1      -6.907  -6.242  13.553  1.00  0.00     0.104 C 
ENDROOT
BRANCH   8   9
HETATM    9  O3  UNL     1      -6.104  -5.252  14.045  1.00  0.00    -0.383 OA
ATOM     10  H3  UNL     1      -6.550  -4.413  14.022  1.00  0.00     0.211 HD
ENDBRANCH   8   9
BRANCH   8  11
HETATM   11  C15 UNL     1      -6.799  -7.428  14.513  1.00  0.00     0.071 C 
BRANCH  11  12
HETATM   12  C16 UNL     1      -8.157  -7.815  14.850  1.00  0.00    -0.027 C 
HETATM   13  C17 UNL     1      -8.931  -8.718  14.383  1.00  0.00    -0.026 C 
BRANCH  13  14
HETATM   14  C18 UNL     1      -8.764  -9.699  13.350  1.00  0.00     0.008 C 
HETATM   15  C19 UNL     1      -9.405 -11.049  13.728  1.00  0.00     0.008 C 
HETATM   16  C20 UNL     1      -9.214 -11.854  12.476  1.00  0.00     0.001 C 
HETATM   17  C21 UNL     1      -9.027 -10.864  11.351  1.00  0.00     0.001 C 
HETATM   18  C22 UNL     1      -9.349  -9.499  12.001  1.00  0.00     0.008 C 
ENDBRANCH  13  14
ENDBRANCH  11  12
ENDBRANCH   8  11
BRANCH   6  19
HETATM   19  C9  UNL     1      -8.149  -3.610  12.373  1.00  0.00     0.029 C 
BRANCH  19  20
HETATM   20  C10 UNL     1      -9.034  -2.596  11.789  1.00  0.00    -0.021 C 
HETATM   21  C11 UNL     1      -9.472  -2.860  10.358  1.00  0.00     0.009 C 
HETATM   22  C12 UNL     1     -10.366  -2.690  12.593  1.00  0.00     0.009 C 
ENDBRANCH  19  20
ENDBRANCH   6  19
BRANCH   4  23
HETATM   23  O2  UNL     1      -5.348  -6.038   9.606  1.00  0.00    -0.294 OA
BRANCH  23  24
HETATM   24  C4  UNL     1      -4.112  -5.406   9.380  1.00  0.00     0.061 C 
HETATM   25  C5  UNL     1      -3.030  -6.365   9.847  1.00  0.00     0.046 C 
HETATM   26  C6  UNL     1      -3.866  -5.089   7.925  1.00  0.00     0.046 C 
HETATM   27  C7  UNL     1      -3.944  -4.134  10.174  1.00  0.00     0.046 C 
ENDBRANCH  23  24
ENDBRANCH   4  23
TORSDOF 8
ENDMDL
MODEL 2
REMARK VINA RESULT: -7.500647593      1.352      1.686
REMARK  8 active torsions:
REMARK  status: ('A' for Active; 'I' for Inactive)
REMARK       I    between atoms: N1_3  and  C3_4 
REMARK    1  A    between atoms: C3_4  and  O2_6 
REMARK    2  A    between atoms: O2_6  and  C4_7 
REMARK    3  A    between atoms: C8_11  and  C9_12 
REMARK    4  A    between atoms: C9_12  and  C10_13 
REMARK    5  A    between atoms: C14_17  and  O3_18 
REMARK    6  A    between atoms: C14_17  and  C15_20 
REMARK    7  A    between atoms: C15_20  and  C16_21 
REMARK    8  A    between atoms: C17_22  and  C18_23 
ROOT
HETATM    1  C1  UNL     1      -6.767  -6.735  11.437  1.00  0.00     0.041 C 
HETATM    2  C2  UNL     1      -7.342  -5.578  11.490  1.00  0.00     0.042 C 
HETATM    3  N1  UNL     1      -7.542  -4.564  10.459  1.00  0.00    -0.290 N 
HETATM    4  C3  UNL     1      -6.700  -4.485   9.332  1.00  0.00     0.368 C 
HETATM    5  O1  UNL     1      -6.818  -3.713   8.374  1.00  0.00    -0.238 OA
HETATM    6  C8  UNL     1      -8.673  -3.779  10.835  1.00  0.00     0.098 C 
HETATM    7  C13 UNL     1      -9.236  -4.452  12.111  1.00  0.00     0.070 C 
HETATM    8  C14 UNL     1      -8.000  -5.030  12.705  1.00  0.00     0.104 C 
ENDROOT
BRANCH   8   9
HETATM    9  O3  UNL     1      -7.193  -4.117  13.324  1.00  0.00    -0.383 OA
ATOM     10  H3  UNL     1      -6.904  -4.440  14.169  1.00  0.00     0.211 HD
ENDBRANCH   8   9
BRANCH   8  11
HETATM   11  C15 UNL     1      -8.279  -6.142  13.718  1.00  0.00     0.071 C 
BRANCH  11  12
HETATM   12  C16 UNL     1      -9.606  -6.650  13.421  1.00  0.00    -0.027 C 
HETATM   13  C17 UNL     1     -10.024  -7.810  13.084  1.00  0.00    -0.026 C 
BRANCH  13  14
HETATM   14  C18 UNL     1      -9.351  -9.058  12.868  1.00  0.00     0.008 C 
HETATM   15  C19 UNL     1      -9.762 -10.122  13.905  1.00  0.00     0.008 C 
HETATM   16  C20 UNL     1      -9.042 -11.343  13.411  1.00  0.00     0.001 C 
HETATM   17  C21 UNL     1      -8.755 -11.112  11.947  1.00  0.00     0.001 C 
HETATM   18  C22 UNL     1      -9.545  -9.826  11.612  1.00  0.00     0.008 C 
ENDBRANCH  13  14
ENDBRANCH  11  12
ENDBRANCH   8  11
BRANCH   6  19
HETATM   19  C9  UNL     1      -8.558  -2.357  11.153  1.00  0.00     0.029 C 
BRANCH  19  20
HETATM   20  C10 UNL     1      -7.289  -1.621  11.160  1.00  0.00    -0.021 C 
HETATM   21  C11 UNL     1      -7.101  -0.637  10.018  1.00  0.00     0.009 C 
HETATM   22  C12 UNL     1      -7.346  -0.701  12.418  1.00  0.00     0.009 C 
ENDBRANCH  19  20
ENDBRANCH   6  19
BRANCH   4  23
HETATM   23  O2  UNL     1      -5.592  -5.334   9.218  1.00  0.00    -0.294 OA
BRANCH  23  24
HETATM   24  C4  UNL     1      -4.264  -4.878   9.152  1.00  0.00     0.061 C 
HETATM   25  C5  UNL     1      -3.410  -5.886   9.902  1.00  0.00     0.046 C 
HETATM   26  C6  UNL     1      -3.742  -4.776   7.739  1.00  0.00     0.046 C 
HETATM   27  C7  UNL     1      -4.061  -3.543   9.826  1.00  0.00     0.046 C 
ENDBRANCH  23  24
ENDBRANCH   4  23
TORSDOF 8
ENDMDL
MODEL 3
REMARK VINA RESULT: -7.490569454      3.437      8.547
REMARK  8 active torsions:
REMARK  status: ('A' for Active; 'I' for Inactive)
REMARK       I    between atoms: N1_3  and  C3_4 
REMARK    1  A    between atoms: C3_4  and  O2_6 
REMARK    2  A    between atoms: O2_6  and  C4_7 
REMARK    3  A    between atoms: C8_11  and  C9_12 
REMARK    4  A    between atoms: C9_12  and  C10_13 
REMARK    5  A    between atoms: C14_17  and  O3_18 
REMARK    6  A    between atoms: C14_17  and  C15_20 
REMARK    7  A    between atoms: C15_20  and  C16_21 
REMARK    8  A    between atoms: C17_22  and  C18_23 
ROOT
HETATM    1  C1  UNL     1      -9.489  -3.209  10.024  1.00  0.00     0.041 C 
HETATM    2  C2  UNL     1      -8.222  -3.343   9.804  1.00  0.00     0.042 C 
HETATM    3  N1  UNL     1      -7.339  -4.492   9.978  1.00  0.00    -0.290 N 
HETATM    4  C3  UNL     1      -7.646  -5.525  10.885  1.00  0.00     0.368 C 
HETATM    5  O1  UNL     1      -7.007  -6.568  11.062  1.00  0.00    -0.238 OA
HETATM    6  C8  UNL     1      -6.229  -4.325   9.095  1.00  0.00     0.098 C 
HETATM    7  C13 UNL     1      -6.545  -3.051   8.273  1.00  0.00     0.070 C 
HETATM    8  C14 UNL     1      -7.357  -2.270   9.245  1.00  0.00     0.104 C 
ENDROOT
BRANCH   8   9
HETATM    9  O3  UNL     1      -6.628  -1.671  10.234  1.00  0.00    -0.383 OA
ATOM     10  H3  UNL     1      -7.173  -1.485  10.989  1.00  0.00     0.211 HD
ENDBRANCH   8   9
BRANCH   8  11
HETATM   11  C15 UNL     1      -8.204  -1.180   8.586  1.00  0.00     0.071 C 
BRANCH  11  12
HETATM   12  C16 UNL     1      -7.276  -0.210   8.033  1.00  0.00    -0.027 C 
HETATM   13  C17 UNL     1      -7.184   1.058   8.162  1.00  0.00    -0.026 C 
BRANCH  13  14
HETATM   14  C18 UNL     1      -7.955   2.016   8.900  1.00  0.00     0.008 C 
HETATM   15  C19 UNL     1      -7.062   2.945   9.746  1.00  0.00     0.008 C 
HETATM   16  C20 UNL     1      -8.059   3.913  10.315  1.00  0.00     0.001 C 
HETATM   17  C21 UNL     1      -9.265   3.873   9.407  1.00  0.00     0.001 C 
HETATM   18  C22 UNL     1      -8.797   3.021   8.205  1.00  0.00     0.008 C 
ENDBRANCH  13  14
ENDBRANCH  11  12
ENDBRANCH   8  11
BRANCH   6  19
HETATM   19  C9  UNL     1      -4.866  -4.152   9.591  1.00  0.00     0.029 C 
BRANCH  19  20
HETATM   20  C10 UNL     1      -3.749  -5.036   9.242  1.00  0.00    -0.021 C 
HETATM   21  C11 UNL     1      -3.932  -6.497   9.620  1.00  0.00     0.009 C 
HETATM   22  C12 UNL     1      -3.714  -5.073   7.684  1.00  0.00     0.009 C 
ENDBRANCH  19  20
ENDBRANCH   6  19
BRANCH   4  23
HETATM   23  O2  UNL     1      -8.776  -5.428  11.708  1.00  0.00    -0.294 OA
BRANCH  23  24
HETATM   24  C4  UNL     1      -8.718  -5.121  13.079  1.00  0.00     0.061 C 
HETATM   25  C5  UNL     1     -10.035  -4.457  13.442  1.00  0.00     0.046 C 
HETATM   26  C6  UNL     1      -8.548  -6.340  13.952  1.00  0.00     0.046 C 
HETATM   27  C7  UNL     1      -7.623  -4.140  13.421  1.00  0.00     0.046 C 
ENDBRANCH  23  24
ENDBRANCH   4  23
TORSDOF 8
ENDMDL
MODEL 4
REMARK VINA RESULT: -7.452273096      1.784      4.353
REMARK  8 active torsions:
REMARK  status: ('A' for Active; 'I' for Inactive)
REMARK       I    between atoms: N1_3  and  C3_4 
REMARK    1  A    between atoms: C3_4  and  O2_6 
REMARK    2  A    between atoms: O2_6  and  C4_7 
REMARK    3  A    between atoms: C8_11  and  C9_12 
REMARK    4  A    between atoms: C9_12  and  C10_13 
REMARK    5  A    between atoms: C14_17  and  O3_18 
REMARK    6  A    between atoms: C14_17  and  C15_20 
REMARK    7  A    between atoms: C15_20  and  C16_21 
REMARK    8  A    between atoms: C17_22  and  C18_23 
ROOT
HETATM    1  C1  UNL     1      -9.328  -3.304  11.664  1.00  0.00     0.041 C 
HETATM    2  C2  UNL     1      -8.304  -4.036  11.370  1.00  0.00     0.042 C 
HETATM    3  N1  UNL     1      -7.019  -3.685  10.774  1.00  0.00    -0.290 N 
HETATM    4  C3  UNL     1      -6.870  -2.538   9.970  1.00  0.00     0.368 C 
HETATM    5  O1  UNL     1      -5.821  -2.114   9.473  1.00  0.00    -0.238 OA
HETATM    6  C8  UNL     1      -6.069  -4.673  11.174  1.00  0.00     0.098 C 
HETATM    7  C13 UNL     1      -6.827  -5.597  12.159  1.00  0.00     0.070 C 
HETATM    8  C14 UNL     1      -8.219  -5.496  11.642  1.00  0.00     0.104 C 
ENDROOT
BRANCH   8   9
HETATM    9  O3  UNL     1      -8.451  -6.216  10.504  1.00  0.00    -0.383 OA
ATOM     10  H3  UNL     1      -8.137  -7.107  10.599  1.00  0.00     0.211 HD
ENDBRANCH   8   9
BRANCH   8  11
HETATM   11  C15 UNL     1      -9.275  -5.918  12.665  1.00  0.00     0.071 C 
BRANCH  11  12
HETATM   12  C16 UNL     1      -8.582  -6.677  13.690  1.00  0.00    -0.027 C 
HETATM   13  C17 UNL     1      -8.480  -7.932  13.905  1.00  0.00    -0.026 C 
BRANCH  13  14
HETATM   14  C18 UNL     1      -9.005  -9.078  13.221  1.00  0.00     0.008 C 
HETATM   15  C19 UNL     1      -8.169  -9.442  11.978  1.00  0.00     0.008 C 
HETATM   16  C20 UNL     1      -8.823 -10.711  11.514  1.00  0.00     0.001 C 
HETATM   17  C21 UNL     1      -9.548 -11.284  12.709  1.00  0.00     0.001 C 
HETATM   18  C22 UNL     1      -9.075 -10.403  13.888  1.00  0.00     0.008 C 
ENDBRANCH  13  14
ENDBRANCH  11  12
ENDBRANCH   8  11
BRANCH   6  19
HETATM   19  C9  UNL     1      -5.425  -5.562  10.210  1.00  0.00     0.029 C 
BRANCH  19  20
HETATM   20  C10 UNL     1      -4.114  -5.301   9.605  1.00  0.00    -0.021 C 
HETATM   21  C11 UNL     1      -3.169  -6.490   9.563  1.00  0.00     0.009 C 
HETATM   22  C12 UNL     1      -4.397  -5.016   8.099  1.00  0.00     0.009 C 
ENDBRANCH  19  20
ENDBRANCH   6  19
BRANCH   4  23
HETATM   23  O2  UNL     1      -7.983  -1.748   9.654  1.00  0.00    -0.294 OA
BRANCH  23  24
HETATM   24  C4  UNL     1      -8.612  -1.753   8.397  1.00  0.00     0.061 C 
HETATM   25  C5  UNL     1      -8.506  -0.344   7.841  1.00  0.00     0.046 C 
HETATM   26  C6  UNL     1      -7.963  -2.697   7.414  1.00  0.00     0.046 C 
HETATM   27  C7  UNL     1     -10.082  -2.087   8.471  1.00  0.00     0.046 C 
ENDBRANCH  23  24
ENDBRANCH   4  23
TORSDOF 8
ENDMDL
MODEL 5
REMARK VINA RESULT: -7.271391369      1.999      4.362
REMARK  8 active torsions:
REMARK  status: ('A' for Active; 'I' for Inactive)
REMARK       I    between atoms: N1_3  and  C3_4 
REMARK    1  A    between atoms: C3_4  and  O2_6 
REMARK    2  A    between atoms: O2_6  and  C4_7 
REMARK    3  A    between atoms: C8_11  and  C9_12 
REMARK    4  A    between atoms: C9_12  and  C10_13 
REMARK    5  A    between atoms: C14_17  and  O3_18 
REMARK    6  A    between atoms: C14_17  and  C15_20 
REMARK    7  A    between atoms: C15_20  and  C16_21 
REMARK    8  A    between atoms: C17_22  and  C18_23 
ROOT
HETATM    1  C1  UNL     1      -7.380  -4.012  13.631  1.00  0.00     0.041 C 
HETATM    2  C2  UNL     1      -6.905  -4.524  12.543  1.00  0.00     0.042 C 
HETATM    3  N1  UNL     1      -5.763  -4.131  11.722  1.00  0.00    -0.290 N 
HETATM    4  C3  UNL     1      -5.270  -2.812  11.731  1.00  0.00     0.368 C 
HETATM    5  O1  UNL     1      -4.276  -2.390  11.130  1.00  0.00    -0.238 OA
HETATM    6  C8  UNL     1      -5.324  -5.286  11.006  1.00  0.00     0.098 C 
HETATM    7  C13 UNL     1      -6.198  -6.452  11.531  1.00  0.00     0.070 C 
HETATM    8  C14 UNL     1      -7.455  -5.739  11.885  1.00  0.00     0.104 C 
ENDROOT
BRANCH   8   9
HETATM    9  O3  UNL     1      -8.231  -5.400  10.813  1.00  0.00    -0.383 OA
ATOM     10  H3  UNL     1      -8.551  -4.509  10.895  1.00  0.00     0.211 HD
ENDBRANCH   8   9
BRANCH   8  11
HETATM   11  C15 UNL     1      -8.343  -6.523  12.853  1.00  0.00     0.071 C 
BRANCH  11  12
HETATM   12  C16 UNL     1      -9.426  -7.080  12.065  1.00  0.00    -0.027 C 
HETATM   13  C17 UNL     1      -9.783  -8.284  11.828  1.00  0.00    -0.026 C 
BRANCH  13  14
HETATM   14  C18 UNL     1      -9.257  -9.551  12.246  1.00  0.00     0.008 C 
HETATM   15  C19 UNL     1      -9.754  -9.947  13.651  1.00  0.00     0.008 C 
HETATM   16  C20 UNL     1      -9.185 -11.326  13.814  1.00  0.00     0.001 C 
HETATM   17  C21 UNL     1      -8.914 -11.848  12.423  1.00  0.00     0.001 C 
HETATM   18  C22 UNL     1      -9.567 -10.795  11.498  1.00  0.00     0.008 C 
ENDBRANCH  13  14
ENDBRANCH  11  12
ENDBRANCH   8  11
BRANCH   6  19
HETATM   19  C9  UNL     1      -5.390  -5.364   9.549  1.00  0.00     0.029 C 
BRANCH  19  20
HETATM   20  C10 UNL     1      -4.259  -5.750   8.698  1.00  0.00    -0.021 C 
HETATM   21  C11 UNL     1      -3.722  -4.656   7.792  1.00  0.00     0.009 C 
HETATM   22  C12 UNL     1      -3.073  -6.020   9.673  1.00  0.00     0.009 C 
ENDBRANCH  19  20
ENDBRANCH   6  19
BRANCH   4  23
HETATM   23  O2  UNL     1      -5.924  -1.819  12.473  1.00  0.00    -0.294 OA
BRANCH  23  24
HETATM   24  C4  UNL     1      -6.738  -0.827  11.900  1.00  0.00     0.061 C 
HETATM   25  C5  UNL     1      -7.759  -0.427  12.951  1.00  0.00     0.046 C 
HETATM   26  C6  UNL     1      -5.970   0.408  11.495  1.00  0.00     0.046 C 
HETATM   27  C7  UNL     1      -7.511  -1.315  10.699  1.00  0.00     0.046 C 
ENDBRANCH  23  24
ENDBRANCH   4  23
TORSDOF 8
ENDMDL
