MODEL 1
REMARK VINA RESULT: -7.556476589      0.000      0.000
REMARK  7 active torsions:
REMARK  status: ('A' for Active; 'I' for Inactive)
REMARK    1  A    between atoms: C5_5  and  O1_6 
REMARK    2  A    between atoms: C13_15  and  C15_17 
REMARK    3  A    between atoms: C15_17  and  C16_18 
REMARK    4  A    between atoms: C16_18  and  C17_19 
REMARK    5  A    between atoms: C17_19  and  C18_20 
REMARK    6  A    between atoms: C18_20  and  C19_21 
REMARK    7  A    between atoms: C19_21  and  C20_22 
ROOT
HETATM    1  C1  UNL     1      -4.114  -5.502   8.910  1.00  0.00     0.044 C 
HETATM    2  C2  UNL     1      -4.755  -4.262   9.456  1.00  0.00    -0.074 C 
HETATM    3  C3  UNL     1      -4.081  -3.152   9.246  1.00  0.00    -0.017 C 
HETATM    4  C4  UNL     1      -4.722  -1.899   9.794  1.00  0.00     0.092 C 
HETATM    5  C5  UNL     1      -5.318  -2.316  11.093  1.00  0.00     0.051 C 
HETATM    6  C6  UNL     1      -6.469  -3.266  11.020  1.00  0.00    -0.026 C 
HETATM    7  C7  UNL     1      -6.063  -4.401  10.154  1.00  0.00     0.006 C 
HETATM    8  C8  UNL     1      -5.862  -5.695  10.979  1.00  0.00     0.025 C 
HETATM    9  C9  UNL     1      -6.996  -4.789   9.043  1.00  0.00     0.019 C 
HETATM   10  C10 UNL     1      -8.429  -4.469   9.251  1.00  0.00     0.007 C 
HETATM   11  C11 UNL     1      -8.500  -3.001   9.627  1.00  0.00    -0.002 C 
HETATM   12  C12 UNL     1      -9.858  -2.546   9.351  1.00  0.00     0.011 C 
HETATM   13  C13 UNL     1      -7.840  -2.695  10.908  1.00  0.00     0.004 C 
HETATM   14  C14 UNL     1      -7.779  -1.138  10.976  1.00  0.00     0.025 C 
ENDROOT
BRANCH  13  15
HETATM   15  C15 UNL     1      -8.752  -2.951  12.084  1.00  0.00    -0.013 C 
BRANCH  15  16
HETATM   16  C16 UNL     1      -8.562  -4.044  12.966  1.00  0.00    -0.007 C 
BRANCH  16  17
HETATM   17  C17 UNL     1      -9.303  -5.116  13.085  1.00  0.00    -0.026 C 
BRANCH  17  18
HETATM   18  C18 UNL     1      -8.897  -6.529  13.016  1.00  0.00     0.035 C 
BRANCH  18  19
HETATM   19  C19 UNL     1      -9.319  -7.171  11.692  1.00  0.00     0.088 C 
BRANCH  19  20
HETATM   20  C20 UNL     1      -8.909  -8.620  11.760  1.00  0.00     0.124 A 
HETATM   21  N1  UNL     1      -7.658  -9.079  11.587  1.00  0.00    -0.348 N 
HETATM   22  C21 UNL     1      -7.679 -10.402  11.718  1.00  0.00     0.122 A 
ATOM     23  H1  UNL     1      -6.833  -8.511  11.389  1.00  0.00     0.167 HD
HETATM   24  C22 UNL     1      -8.996 -10.769  11.981  1.00  0.00     0.066 A 
HETATM   25  C23 UNL     1      -9.504 -12.149  12.202  1.00  0.00     0.078 C 
HETATM   26  O2  UNL     1      -9.672  -9.649  11.992  1.00  0.00    -0.301 OA
ENDBRANCH  19  20
ENDBRANCH  18  19
ENDBRANCH  17  18
ENDBRANCH  16  17
ENDBRANCH  15  16
ENDBRANCH  13  15
BRANCH   5  27
HETATM   27  O1  UNL     1      -5.413  -1.308  12.033  1.00  0.00    -0.364 OA
ATOM     28  H1  UNL     1      -6.199  -1.335  12.566  1.00  0.00     0.217 HD
ENDBRANCH   5  27
TORSDOF 7
ENDMDL
MODEL 2
REMARK VINA RESULT: -7.473912109      1.846      3.519
REMARK  7 active torsions:
REMARK  status: ('A' for Active; 'I' for Inactive)
REMARK    1  A    between atoms: C5_5  and  O1_6 
REMARK    2  A    between atoms: C13_15  and  C15_17 
REMARK    3  A    between atoms: C15_17  and  C16_18 
REMARK    4  A    between atoms: C16_18  and  C17_19 
REMARK    5  A    between atoms: C17_19  and  C18_20 
REMARK    6  A    between atoms: C18_20  and  C19_21 
REMARK    7  A    between atoms: C19_21  and  C20_22 
ROOT
HETATM    1  C1  UNL     1      -6.742   0.885  11.559  1.00  0.00     0.044 C 
HETATM    2  C2  UNL     1      -7.089   0.084  10.340  1.00  0.00    -0.074 C 
HETATM    3  C3  UNL     1      -7.214   0.786   9.234  1.00  0.00    -0.017 C 
HETATM    4  C4  UNL     1      -7.564  -0.015   8.002  1.00  0.00     0.092 C 
HETATM    5  C5  UNL     1      -8.522  -1.050   8.483  1.00  0.00     0.051 C 
HETATM    6  C6  UNL     1      -7.969  -2.089   9.402  1.00  0.00    -0.026 C 
HETATM    7  C7  UNL     1      -7.245  -1.389  10.492  1.00  0.00     0.006 C 
HETATM    8  C8  UNL     1      -8.003  -1.504  11.837  1.00  0.00     0.025 C 
HETATM    9  C9  UNL     1      -5.846  -1.843  10.794  1.00  0.00     0.019 C 
HETATM   10  C10 UNL     1      -5.530  -3.252  10.457  1.00  0.00     0.007 C 
HETATM   11  C11 UNL     1      -5.943  -3.461   9.012  1.00  0.00    -0.002 C 
HETATM   12  C12 UNL     1      -5.215  -4.621   8.513  1.00  0.00     0.011 C 
HETATM   13  C13 UNL     1      -7.395  -3.323   8.796  1.00  0.00     0.004 C 
HETATM   14  C14 UNL     1      -7.578  -3.295   7.248  1.00  0.00     0.025 C 
ENDROOT
BRANCH  13  15
HETATM   15  C15 UNL     1      -8.132  -4.604   9.102  1.00  0.00    -0.013 C 
BRANCH  15  16
HETATM   16  C16 UNL     1      -8.987  -4.737  10.225  1.00  0.00    -0.007 C 
BRANCH  16  17
HETATM   17  C17 UNL     1      -8.654  -5.036  11.455  1.00  0.00    -0.026 C 
BRANCH  17  18
HETATM   18  C18 UNL     1      -8.296  -6.347  12.020  1.00  0.00     0.035 C 
BRANCH  18  19
HETATM   19  C19 UNL     1      -9.529  -7.236  12.205  1.00  0.00     0.088 C 
BRANCH  19  20
HETATM   20  C20 UNL     1      -9.071  -8.660  12.023  1.00  0.00     0.124 A 
HETATM   21  N1  UNL     1      -7.887  -9.032  11.507  1.00  0.00    -0.348 N 
HETATM   22  C21 UNL     1      -7.835 -10.361  11.503  1.00  0.00     0.122 A 
ATOM     23  H1  UNL     1      -7.154  -8.404  11.175  1.00  0.00     0.167 HD
HETATM   24  C22 UNL     1      -9.034 -10.822  12.037  1.00  0.00     0.066 A 
HETATM   25  C23 UNL     1      -9.430 -12.242  12.232  1.00  0.00     0.078 C 
HETATM   26  O2  UNL     1      -9.721  -9.747  12.326  1.00  0.00    -0.301 OA
ENDBRANCH  19  20
ENDBRANCH  18  19
ENDBRANCH  17  18
ENDBRANCH  16  17
ENDBRANCH  15  16
ENDBRANCH  13  15
BRANCH   5  27
HETATM   27  O1  UNL     1      -9.422  -1.487   7.530  1.00  0.00    -0.364 OA
ATOM     28  H1  UNL     1     -10.301  -1.140   7.627  1.00  0.00     0.217 HD
ENDBRANCH   5  27
TORSDOF 7
ENDMDL
MODEL 3
REMARK VINA RESULT: -7.413476340      3.960      7.879
REMARK  7 active torsions:
REMARK  status: ('A' for Active; 'I' for Inactive)
REMARK    1  A    between atoms: C5_5  and  O1_6 
REMARK    2  A    between atoms: C13_15  and  C15_17 
REMARK    3  A    between atoms: C15_17  and  C16_18 
REMARK    4  A    between atoms: C16_18  and  C17_19 
REMARK    5  A    between atoms: C17_19  and  C18_20 
REMARK    6  A    between atoms: C18_20  and  C19_21 
REMARK    7  A    between atoms: C19_21  and  C20_22 
ROOT
HETATM    1  C1  UNL     1      -3.362  -6.295   9.735  1.00  0.00     0.044 C 
HETATM    2  C2  UNL     1      -4.705  -5.668   9.957  1.00  0.00    -0.074 C 
HETATM    3  C3  UNL     1      -5.446  -6.257  10.871  1.00  0.00    -0.017 C 
HETATM    4  C4  UNL     1      -6.801  -5.630  11.100  1.00  0.00     0.092 C 
HETATM    5  C5  UNL     1      -7.263  -5.221   9.744  1.00  0.00     0.051 C 
HETATM    6  C6  UNL     1      -6.498  -4.117   9.089  1.00  0.00    -0.026 C 
HETATM    7  C7  UNL     1      -5.057  -4.466   9.153  1.00  0.00     0.006 C 
HETATM    8  C8  UNL     1      -4.504  -4.831   7.754  1.00  0.00     0.025 C 
HETATM    9  C9  UNL     1      -4.117  -3.422   9.682  1.00  0.00     0.019 C 
HETATM   10  C10 UNL     1      -4.550  -2.012   9.523  1.00  0.00     0.007 C 
HETATM   11  C11 UNL     1      -5.954  -1.917  10.090  1.00  0.00    -0.002 C 
HETATM   12  C12 UNL     1      -6.204  -0.516  10.405  1.00  0.00     0.011 C 
HETATM   13  C13 UNL     1      -6.940  -2.717   9.341  1.00  0.00     0.004 C 
HETATM   14  C14 UNL     1      -8.226  -2.710  10.222  1.00  0.00     0.025 C 
ENDROOT
BRANCH  13  15
HETATM   15  C15 UNL     1      -7.468  -1.972   8.139  1.00  0.00    -0.013 C 
BRANCH  15  16
HETATM   16  C16 UNL     1      -8.833  -1.608   8.013  1.00  0.00    -0.007 C 
BRANCH  16  17
HETATM   17  C17 UNL     1      -9.323  -0.452   7.644  1.00  0.00    -0.026 C 
BRANCH  17  18
HETATM   18  C18 UNL     1      -8.612   0.809   7.380  1.00  0.00     0.035 C 
BRANCH  18  19
HETATM   19  C19 UNL     1      -9.454   2.023   7.781  1.00  0.00     0.088 C 
BRANCH  19  20
HETATM   20  C20 UNL     1      -8.656   2.788   8.805  1.00  0.00     0.124 A 
HETATM   21  N1  UNL     1      -9.098   3.858   9.489  1.00  0.00    -0.348 N 
HETATM   22  C21 UNL     1      -8.123   4.265  10.298  1.00  0.00     0.122 A 
ATOM     23  H1  UNL     1     -10.020   4.284   9.403  1.00  0.00     0.167 HD
HETATM   24  C22 UNL     1      -7.041   3.411  10.102  1.00  0.00     0.066 A 
HETATM   25  C23 UNL     1      -5.724   3.477  10.789  1.00  0.00     0.078 C 
HETATM   26  O2  UNL     1      -7.435   2.554   9.195  1.00  0.00    -0.301 OA
ENDBRANCH  19  20
ENDBRANCH  18  19
ENDBRANCH  17  18
ENDBRANCH  16  17
ENDBRANCH  15  16
ENDBRANCH  13  15
BRANCH   5  27
HETATM   27  O1  UNL     1      -8.635  -5.196   9.587  1.00  0.00    -0.364 OA
ATOM     28  H1  UNL     1      -8.938  -5.424   8.716  1.00  0.00     0.217 HD
ENDBRANCH   5  27
TORSDOF 7
ENDMDL
MODEL 4
REMARK VINA RESULT: -7.382210241      1.589      2.925
REMARK  7 active torsions:
REMARK  status: ('A' for Active; 'I' for Inactive)
REMARK    1  A    between atoms: C5_5  and  O1_6 
REMARK    2  A    between atoms: C13_15  and  C15_17 
REMARK    3  A    between atoms: C15_17  and  C16_18 
REMARK    4  A    between atoms: C16_18  and  C17_19 
REMARK    5  A    between atoms: C17_19  and  C18_20 
REMARK    6  A    between atoms: C18_20  and  C19_21 
REMARK    7  A    between atoms: C19_21  and  C20_22 
ROOT
HETATM    1  C1  UNL     1      -8.187  -2.378   7.412  1.00  0.00     0.044 C 
HETATM    2  C2  UNL     1      -7.496  -3.135   8.506  1.00  0.00    -0.074 C 
HETATM    3  C3  UNL     1      -6.471  -3.861   8.114  1.00  0.00    -0.017 C 
HETATM    4  C4  UNL     1      -5.771  -4.627   9.211  1.00  0.00     0.092 C 
HETATM    5  C5  UNL     1      -6.866  -5.091  10.108  1.00  0.00     0.051 C 
HETATM    6  C6  UNL     1      -7.596  -4.030  10.865  1.00  0.00    -0.026 C 
HETATM    7  C7  UNL     1      -8.016  -2.989   9.893  1.00  0.00     0.006 C 
HETATM    8  C8  UNL     1      -9.548  -3.007   9.676  1.00  0.00     0.025 C 
HETATM    9  C9  UNL     1      -7.687  -1.562  10.226  1.00  0.00     0.019 C 
HETATM   10  C10 UNL     1      -7.548  -1.243  11.667  1.00  0.00     0.007 C 
HETATM   11  C11 UNL     1      -6.572  -2.249  12.248  1.00  0.00    -0.002 C 
HETATM   12  C12 UNL     1      -6.042  -1.680  13.482  1.00  0.00     0.011 C 
HETATM   13  C13 UNL     1      -7.068  -3.636  12.200  1.00  0.00     0.004 C 
HETATM   14  C14 UNL     1      -5.841  -4.522  12.574  1.00  0.00     0.025 C 
ENDROOT
BRANCH  13  15
HETATM   15  C15 UNL     1      -7.960  -3.953  13.376  1.00  0.00    -0.013 C 
BRANCH  15  16
HETATM   16  C16 UNL     1      -9.333  -4.270  13.221  1.00  0.00    -0.007 C 
BRANCH  16  17
HETATM   17  C17 UNL     1      -9.922  -5.417  13.447  1.00  0.00    -0.026 C 
BRANCH  17  18
HETATM   18  C18 UNL     1      -9.382  -6.776  13.293  1.00  0.00     0.035 C 
BRANCH  18  19
HETATM   19  C19 UNL     1      -9.564  -7.295  11.863  1.00  0.00     0.088 C 
BRANCH  19  20
HETATM   20  C20 UNL     1      -9.059  -8.714  11.847  1.00  0.00     0.124 A 
HETATM   21  N1  UNL     1      -7.804  -9.086  11.542  1.00  0.00    -0.348 N 
HETATM   22  C21 UNL     1      -7.729 -10.411  11.633  1.00  0.00     0.122 A 
ATOM     23  H1  UNL     1      -7.040  -8.460  11.285  1.00  0.00     0.167 HD
HETATM   24  C22 UNL     1      -8.988 -10.870  12.009  1.00  0.00     0.066 A 
HETATM   25  C23 UNL     1      -9.385 -12.285  12.234  1.00  0.00     0.078 C 
HETATM   26  O2  UNL     1      -9.729  -9.798  12.119  1.00  0.00    -0.301 OA
ENDBRANCH  19  20
ENDBRANCH  18  19
ENDBRANCH  17  18
ENDBRANCH  16  17
ENDBRANCH  15  16
ENDBRANCH  13  15
BRANCH   5  27
HETATM   27  O1  UNL     1      -6.592  -6.258  10.794  1.00  0.00    -0.364 OA
ATOM     28  H1  UNL     1      -6.530  -7.033  10.247  1.00  0.00     0.217 HD
ENDBRANCH   5  27
TORSDOF 7
ENDMDL
MODEL 5
REMARK VINA RESULT: -7.374694951      3.473      7.078
REMARK  7 active torsions:
REMARK  status: ('A' for Active; 'I' for Inactive)
REMARK    1  A    between atoms: C5_5  and  O1_6 
REMARK    2  A    between atoms: C13_15  and  C15_17 
REMARK    3  A    between atoms: C15_17  and  C16_18 
REMARK    4  A    between atoms: C16_18  and  C17_19 
REMARK    5  A    between atoms: C17_19  and  C18_20 
REMARK    6  A    between atoms: C18_20  and  C19_21 
REMARK    7  A    between atoms: C19_21  and  C20_22 
ROOT
HETATM    1  C1  UNL     1      -3.326  -5.490   7.809  1.00  0.00     0.044 C 
HETATM    2  C2  UNL     1      -4.171  -5.560   9.044  1.00  0.00    -0.074 C 
HETATM    3  C3  UNL     1      -3.898  -6.568   9.845  1.00  0.00    -0.017 C 
HETATM    4  C4  UNL     1      -4.747  -6.644  11.092  1.00  0.00     0.092 C 
HETATM    5  C5  UNL     1      -6.109  -6.236  10.648  1.00  0.00     0.051 C 
HETATM    6  C6  UNL     1      -6.271  -4.811  10.230  1.00  0.00    -0.026 C 
HETATM    7  C7  UNL     1      -5.202  -4.505   9.247  1.00  0.00     0.006 C 
HETATM    8  C8  UNL     1      -5.782  -4.331   7.821  1.00  0.00     0.025 C 
HETATM    9  C9  UNL     1      -4.378  -3.272   9.484  1.00  0.00     0.019 C 
HETATM   10  C10 UNL     1      -5.033  -2.188  10.254  1.00  0.00     0.007 C 
HETATM   11  C11 UNL     1      -5.575  -2.817  11.525  1.00  0.00    -0.002 C 
HETATM   12  C12 UNL     1      -5.763  -1.746  12.496  1.00  0.00     0.011 C 
HETATM   13  C13 UNL     1      -6.632  -3.813  11.276  1.00  0.00     0.004 C 
HETATM   14  C14 UNL     1      -6.853  -4.526  12.644  1.00  0.00     0.025 C 
ENDROOT
BRANCH  13  15
HETATM   15  C15 UNL     1      -7.987  -3.166  11.121  1.00  0.00    -0.013 C 
BRANCH  15  16
HETATM   16  C16 UNL     1      -8.804  -3.382   9.982  1.00  0.00    -0.007 C 
BRANCH  16  17
HETATM   17  C17 UNL     1      -9.259  -2.490   9.141  1.00  0.00    -0.026 C 
BRANCH  17  18
HETATM   18  C18 UNL     1      -8.628  -1.974   7.915  1.00  0.00     0.035 C 
BRANCH  18  19
HETATM   19  C19 UNL     1      -7.542  -0.942   8.233  1.00  0.00     0.088 C 
BRANCH  19  20
HETATM   20  C20 UNL     1      -8.200   0.413   8.182  1.00  0.00     0.124 A 
HETATM   21  N1  UNL     1      -9.273   0.724   7.433  1.00  0.00    -0.348 N 
HETATM   22  C21 UNL     1      -9.568   2.004   7.645  1.00  0.00     0.122 A 
ATOM     23  H1  UNL     1      -9.773   0.090   6.811  1.00  0.00     0.167 HD
HETATM   24  C22 UNL     1      -8.641   2.496   8.559  1.00  0.00     0.066 A 
HETATM   25  C23 UNL     1      -8.576   3.881   9.097  1.00  0.00     0.078 C 
HETATM   26  O2  UNL     1      -7.856   1.486   8.834  1.00  0.00    -0.301 OA
ENDBRANCH  19  20
ENDBRANCH  18  19
ENDBRANCH  17  18
ENDBRANCH  16  17
ENDBRANCH  15  16
ENDBRANCH  13  15
BRANCH   5  27
HETATM   27  O1  UNL     1      -7.142  -6.781  11.387  1.00  0.00    -0.364 OA
ATOM     28  H1  UNL     1      -7.989  -6.764  10.956  1.00  0.00     0.217 HD
ENDBRANCH   5  27
TORSDOF 7
ENDMDL
