MODEL 1
REMARK VINA RESULT: -8.957020177      0.000      0.000
REMARK  9 active torsions:
REMARK  status: ('A' for Active; 'I' for Inactive)
REMARK    1  A    between atoms: N1_1  and  C1_5 
REMARK    2  A    between atoms: C1_5  and  O1_6 
REMARK    3  A    between atoms: C1_5  and  C2_8 
REMARK       I    between atoms: C2_8  and  N2_10 
REMARK    4  A    between atoms: N2_10  and  C3_12 
REMARK    5  A    between atoms: C3_12  and  N3_13 
REMARK    6  A    between atoms: C3_12  and  C4_17 
REMARK    7  A    between atoms: C4_17  and  O3_18 
REMARK    8  A    between atoms: C4_17  and  N4_20 
REMARK    9  A    between atoms: N7_30  and  O5_32 
ROOT
HETATM    1  N4  UNL     1     131.319  10.401  73.019  1.00  0.00    -0.305 N 
HETATM    2  C5  UNL     1     131.993  10.546  74.206  1.00  0.00     0.186 A 
HETATM    3  N5  UNL     1     132.789  11.626  74.179  1.00  0.00    -0.346 N 
ATOM      4  H5  UNL     1     133.388  11.943  74.941  1.00  0.00     0.167 HD
HETATM    5  C6  UNL     1     132.667  12.213  73.000  1.00  0.00     0.135 A 
HETATM    6  C7  UNL     1     133.322  13.365  72.567  1.00  0.00     0.289 C 
HETATM    7  O4  UNL     1     134.331  13.691  73.238  1.00  0.00    -0.265 OA
HETATM    8  N6  UNL     1     132.984  14.151  71.514  1.00  0.00    -0.152 N 
ATOM      9  H6  UNL     1     133.585  14.956  71.339  1.00  0.00     0.187 HD
HETATM   10  C8  UNL     1     131.939  13.986  70.670  1.00  0.00     0.707 C 
HETATM   11  N7  UNL     1     131.559  15.053  70.063  1.00  0.00    -0.098 N 
ATOM     12  H7  UNL     1     130.777  15.021  69.410  1.00  0.00     0.213 HD
HETATM   13  N8  UNL     1     131.244  12.874  70.379  1.00  0.00    -0.152 N 
ATOM     14  H8  UNL     1     130.604  12.938  69.587  1.00  0.00     0.187 HD
HETATM   15  C9  UNL     1     131.291  11.682  71.009  1.00  0.00     0.289 C 
HETATM   16  O6  UNL     1     130.887  10.670  70.419  1.00  0.00    -0.265 OA
HETATM   17  C10 UNL     1     131.755  11.451  72.283  1.00  0.00     0.139 A 
ENDROOT
BRANCH   1  18
HETATM   18  C4  UNL     1     130.395   9.353  72.748  1.00  0.00     0.276 C 
BRANCH  18  19
HETATM   19  C3  UNL     1     130.252   8.291  73.805  1.00  0.00     0.333 C 
BRANCH  19  20
HETATM   20  N2  UNL     1     130.742   6.993  73.428  1.00  0.00    -0.326 N 
HETATM   21  C2  UNL     1     129.983   6.156  72.584  1.00  0.00     0.275 C 
HETATM   22  O2  UNL     1     128.874   6.566  72.167  1.00  0.00    -0.269 OA
ATOM     23  H2  UNL     1     131.646   6.674  73.775  1.00  0.00     0.164 HD
BRANCH  21  24
HETATM   24  C1  UNL     1     130.444   4.809  72.169  1.00  0.00     0.409 C 
BRANCH  24  25
HETATM   25  N1  UNL     1     131.275   4.909  70.975  1.00  0.00    -0.044 N 
ATOM     26  H13 UNL     1     132.201   4.499  71.094  1.00  0.00     0.278 HD
ATOM     27  H12 UNL     1     130.962   4.303  70.216  1.00  0.00     0.278 HD
ATOM     28  H11 UNL     1     131.302   5.895  70.716  1.00  0.00     0.278 HD
ENDBRANCH  24  25
BRANCH  24  29
HETATM   29  O1  UNL     1     129.387   3.970  71.853  1.00  0.00    -0.363 OA
ATOM     30  H1  UNL     1     128.688   4.167  72.465  1.00  0.00     0.212 HD
ENDBRANCH  24  29
ENDBRANCH  21  24
ENDBRANCH  19  20
BRANCH  19  31
HETATM   31  N3  UNL     1     128.946   8.218  74.431  1.00  0.00    -0.054 N 
ATOM     32  H33 UNL     1     128.210   8.520  73.791  1.00  0.00     0.277 HD
ATOM     33  H32 UNL     1     128.653   7.250  74.566  1.00  0.00     0.277 HD
ATOM     34  H31 UNL     1     128.912   8.740  75.306  1.00  0.00     0.277 HD
ENDBRANCH  19  31
ENDBRANCH  18  19
BRANCH  18  35
HETATM   35  O3  UNL     1     129.130  10.057  72.843  1.00  0.00    -0.372 OA
ATOM     36  H3  UNL     1     128.560   9.523  72.302  1.00  0.00     0.212 HD
ENDBRANCH  18  35
ENDBRANCH   1  18
BRANCH  11  37
HETATM   37  O5  UNL     1     132.210  16.233  70.300  1.00  0.00    -0.276 OA
ATOM     38  H5  UNL     1     132.355  16.841  69.585  1.00  0.00     0.245 HD
ENDBRANCH  11  37
TORSDOF 9
ENDMDL
MODEL 2
REMARK VINA RESULT: -8.924618800      2.526      4.174
REMARK  9 active torsions:
REMARK  status: ('A' for Active; 'I' for Inactive)
REMARK    1  A    between atoms: N1_1  and  C1_5 
REMARK    2  A    between atoms: C1_5  and  O1_6 
REMARK    3  A    between atoms: C1_5  and  C2_8 
REMARK       I    between atoms: C2_8  and  N2_10 
REMARK    4  A    between atoms: N2_10  and  C3_12 
REMARK    5  A    between atoms: C3_12  and  N3_13 
REMARK    6  A    between atoms: C3_12  and  C4_17 
REMARK    7  A    between atoms: C4_17  and  O3_18 
REMARK    8  A    between atoms: C4_17  and  N4_20 
REMARK    9  A    between atoms: N7_30  and  O5_32 
ROOT
HETATM    1  N4  UNL     1     132.480  11.771  70.863  1.00  0.00    -0.305 N 
HETATM    2  C5  UNL     1     131.524  12.211  69.983  1.00  0.00     0.186 A 
HETATM    3  N5  UNL     1     131.572  13.546  69.847  1.00  0.00    -0.346 N 
ATOM      4  H5  UNL     1     130.964  14.106  69.250  1.00  0.00     0.167 HD
HETATM    5  C6  UNL     1     132.540  14.014  70.618  1.00  0.00     0.135 A 
HETATM    6  C7  UNL     1     132.919  15.348  70.767  1.00  0.00     0.289 C 
HETATM    7  O4  UNL     1     132.078  16.191  70.373  1.00  0.00    -0.265 OA
HETATM    8  N6  UNL     1     134.084  15.813  71.285  1.00  0.00    -0.152 N 
ATOM      9  H6  UNL     1     134.189  16.827  71.322  1.00  0.00     0.187 HD
HETATM   10  C8  UNL     1     135.121  15.084  71.757  1.00  0.00     0.707 C 
HETATM   11  N7  UNL     1     136.252  15.693  71.767  1.00  0.00    -0.098 N 
ATOM     12  H7  UNL     1     137.088  15.218  72.106  1.00  0.00     0.213 HD
HETATM   13  N8  UNL     1     135.138  13.820  72.213  1.00  0.00    -0.152 N 
ATOM     14  H8  UNL     1     135.994  13.522  72.681  1.00  0.00     0.187 HD
HETATM   15  C9  UNL     1     134.158  12.898  72.126  1.00  0.00     0.289 C 
HETATM   16  O6  UNL     1     134.172  11.927  72.896  1.00  0.00    -0.265 OA
HETATM   17  C10 UNL     1     133.101  12.911  71.245  1.00  0.00     0.139 A 
ENDROOT
BRANCH   1  18
HETATM   18  C4  UNL     1     132.680  10.404  71.205  1.00  0.00     0.276 C 
BRANCH  18  19
HETATM   19  C3  UNL     1     131.487   9.663  71.748  1.00  0.00     0.333 C 
BRANCH  19  20
HETATM   20  N2  UNL     1     131.477   9.495  73.176  1.00  0.00    -0.326 N 
HETATM   21  C2  UNL     1     130.265   9.527  73.894  1.00  0.00     0.275 C 
HETATM   22  O2  UNL     1     129.195   9.703  73.265  1.00  0.00    -0.269 OA
ATOM     23  H2  UNL     1     132.356   9.352  73.674  1.00  0.00     0.164 HD
BRANCH  21  24
HETATM   24  C1  UNL     1     130.203   9.361  75.367  1.00  0.00     0.409 C 
BRANCH  24  25
HETATM   25  N1  UNL     1     130.474  10.632  76.027  1.00  0.00    -0.044 N 
ATOM     26  H13 UNL     1     130.715  11.379  75.377  1.00  0.00     0.278 HD
ATOM     27  H12 UNL     1     129.640  11.067  76.420  1.00  0.00     0.278 HD
ATOM     28  H11 UNL     1     131.200  10.455  76.722  1.00  0.00     0.278 HD
ENDBRANCH  24  25
BRANCH  24  29
HETATM   29  O1  UNL     1     131.148   8.459  75.830  1.00  0.00    -0.363 OA
ATOM     30  H1  UNL     1     130.694   7.638  75.979  1.00  0.00     0.212 HD
ENDBRANCH  24  29
ENDBRANCH  21  24
ENDBRANCH  19  20
BRANCH  19  31
HETATM   31  N3  UNL     1     131.159   8.432  71.054  1.00  0.00    -0.054 N 
ATOM     32  H33 UNL     1     131.738   8.309  70.223  1.00  0.00     0.277 HD
ATOM     33  H32 UNL     1     131.465   7.615  71.584  1.00  0.00     0.277 HD
ATOM     34  H31 UNL     1     130.167   8.375  70.826  1.00  0.00     0.277 HD
ENDBRANCH  19  31
ENDBRANCH  18  19
BRANCH  18  35
HETATM   35  O3  UNL     1     132.848   9.803  69.895  1.00  0.00    -0.372 OA
ATOM     36  H3  UNL     1     133.784   9.648  69.862  1.00  0.00     0.212 HD
ENDBRANCH  18  35
ENDBRANCH   1  18
BRANCH  11  37
HETATM   37  O5  UNL     1     136.328  16.984  71.320  1.00  0.00    -0.276 OA
ATOM     38  H5  UNL     1     135.893  17.675  71.805  1.00  0.00     0.245 HD
ENDBRANCH  11  37
TORSDOF 9
ENDMDL
MODEL 3
REMARK VINA RESULT: -8.877270313      1.839      7.085
REMARK  9 active torsions:
REMARK  status: ('A' for Active; 'I' for Inactive)
REMARK    1  A    between atoms: N1_1  and  C1_5 
REMARK    2  A    between atoms: C1_5  and  O1_6 
REMARK    3  A    between atoms: C1_5  and  C2_8 
REMARK       I    between atoms: C2_8  and  N2_10 
REMARK    4  A    between atoms: N2_10  and  C3_12 
REMARK    5  A    between atoms: C3_12  and  N3_13 
REMARK    6  A    between atoms: C3_12  and  C4_17 
REMARK    7  A    between atoms: C4_17  and  O3_18 
REMARK    8  A    between atoms: C4_17  and  N4_20 
REMARK    9  A    between atoms: N7_30  and  O5_32 
ROOT
HETATM    1  N4  UNL     1     131.570   9.857  73.275  1.00  0.00    -0.305 N 
HETATM    2  C5  UNL     1     130.414  10.421  73.754  1.00  0.00     0.186 A 
HETATM    3  N5  UNL     1     129.344   9.682  73.420  1.00  0.00    -0.346 N 
ATOM      4  H5  UNL     1     128.376   9.893  73.662  1.00  0.00     0.167 HD
HETATM    5  C6  UNL     1     129.754   8.634  72.726  1.00  0.00     0.135 A 
HETATM    6  C7  UNL     1     128.958   7.621  72.191  1.00  0.00     0.289 C 
HETATM    7  O4  UNL     1     127.736   7.891  72.104  1.00  0.00    -0.265 OA
HETATM    8  N6  UNL     1     129.367   6.400  71.765  1.00  0.00    -0.152 N 
ATOM      9  H6  UNL     1     128.643   5.784  71.396  1.00  0.00     0.187 HD
HETATM   10  C8  UNL     1     130.627   5.906  71.776  1.00  0.00     0.707 C 
HETATM   11  N7  UNL     1     130.706   4.624  71.761  1.00  0.00    -0.098 N 
ATOM     12  H7  UNL     1     131.618   4.166  71.768  1.00  0.00     0.213 HD
HETATM   13  N8  UNL     1     131.800   6.561  71.803  1.00  0.00    -0.152 N 
ATOM     14  H8  UNL     1     132.633   5.997  71.634  1.00  0.00     0.187 HD
HETATM   15  C9  UNL     1     132.007   7.875  72.027  1.00  0.00     0.289 C 
HETATM   16  O6  UNL     1     133.074   8.389  71.662  1.00  0.00    -0.265 OA
HETATM   17  C10 UNL     1     131.134   8.745  72.638  1.00  0.00     0.139 A 
ENDROOT
BRANCH   1  18
HETATM   18  C4  UNL     1     132.868  10.406  73.476  1.00  0.00     0.276 C 
BRANCH  18  19
HETATM   19  C3  UNL     1     133.330  11.428  72.472  1.00  0.00     0.333 C 
BRANCH  19  20
HETATM   20  N2  UNL     1     132.313  11.892  71.568  1.00  0.00    -0.326 N 
HETATM   21  C2  UNL     1     132.471  13.107  70.871  1.00  0.00     0.275 C 
HETATM   22  O2  UNL     1     133.516  13.776  71.052  1.00  0.00    -0.269 OA
ATOM     23  H2  UNL     1     131.469  11.336  71.429  1.00  0.00     0.164 HD
BRANCH  21  24
HETATM   24  C1  UNL     1     131.450  13.628  69.929  1.00  0.00     0.409 C 
BRANCH  24  25
HETATM   25  N1  UNL     1     131.580  12.969  68.634  1.00  0.00    -0.044 N 
ATOM     26  H13 UNL     1     132.045  13.547  67.934  1.00  0.00     0.278 HD
ATOM     27  H12 UNL     1     132.253  12.203  68.638  1.00  0.00     0.278 HD
ATOM     28  H11 UNL     1     130.642  12.679  68.356  1.00  0.00     0.278 HD
ENDBRANCH  24  25
BRANCH  24  29
HETATM   29  O1  UNL     1     131.594  14.987  69.703  1.00  0.00    -0.363 OA
ATOM     30  H1  UNL     1     130.956  15.225  69.040  1.00  0.00     0.212 HD
ENDBRANCH  24  29
ENDBRANCH  21  24
ENDBRANCH  19  20
BRANCH  19  31
HETATM   31  N3  UNL     1     134.562  11.099  71.780  1.00  0.00    -0.054 N 
ATOM     32  H33 UNL     1     135.129  10.447  72.324  1.00  0.00     0.277 HD
ATOM     33  H32 UNL     1     134.384  10.515  70.963  1.00  0.00     0.277 HD
ATOM     34  H31 UNL     1     135.094  11.932  71.531  1.00  0.00     0.277 HD
ENDBRANCH  19  31
ENDBRANCH  18  19
BRANCH  18  35
HETATM   35  O3  UNL     1     132.656  11.212  74.663  1.00  0.00    -0.372 OA
ATOM     36  H3  UNL     1     131.841  11.657  74.463  1.00  0.00     0.212 HD
ENDBRANCH  18  35
ENDBRANCH   1  18
BRANCH  11  37
HETATM   37  O5  UNL     1     129.561   3.876  71.734  1.00  0.00    -0.276 OA
ATOM     38  H5  UNL     1     129.456   3.203  71.072  1.00  0.00     0.245 HD
ENDBRANCH  11  37
TORSDOF 9
ENDMDL
MODEL 4
REMARK VINA RESULT: -8.876420888      2.508      3.997
REMARK  9 active torsions:
REMARK  status: ('A' for Active; 'I' for Inactive)
REMARK    1  A    between atoms: N1_1  and  C1_5 
REMARK    2  A    between atoms: C1_5  and  O1_6 
REMARK    3  A    between atoms: C1_5  and  C2_8 
REMARK       I    between atoms: C2_8  and  N2_10 
REMARK    4  A    between atoms: N2_10  and  C3_12 
REMARK    5  A    between atoms: C3_12  and  N3_13 
REMARK    6  A    between atoms: C3_12  and  C4_17 
REMARK    7  A    between atoms: C4_17  and  O3_18 
REMARK    8  A    between atoms: C4_17  and  N4_20 
REMARK    9  A    between atoms: N7_30  and  O5_32 
ROOT
HETATM    1  N4  UNL     1     132.419  11.930  70.568  1.00  0.00    -0.305 N 
HETATM    2  C5  UNL     1     131.453  12.473  69.760  1.00  0.00     0.186 A 
HETATM    3  N5  UNL     1     131.531  13.814  69.750  1.00  0.00    -0.346 N 
ATOM      4  H5  UNL     1     130.922  14.441  69.226  1.00  0.00     0.167 HD
HETATM    5  C6  UNL     1     132.529  14.185  70.535  1.00  0.00     0.135 A 
HETATM    6  C7  UNL     1     132.945  15.489  70.799  1.00  0.00     0.289 C 
HETATM    7  O4  UNL     1     132.115  16.385  70.509  1.00  0.00    -0.265 OA
HETATM    8  N6  UNL     1     134.133  15.877  71.326  1.00  0.00    -0.152 N 
ATOM      9  H6  UNL     1     134.265  16.880  71.456  1.00  0.00     0.187 HD
HETATM   10  C8  UNL     1     135.163  15.083  71.699  1.00  0.00     0.707 C 
HETATM   11  N7  UNL     1     136.309  15.663  71.736  1.00  0.00    -0.098 N 
ATOM     12  H7  UNL     1     137.142  15.139  72.005  1.00  0.00     0.213 HD
HETATM   13  N8  UNL     1     135.161  13.781  72.033  1.00  0.00    -0.152 N 
ATOM     14  H8  UNL     1     136.020  13.421  72.447  1.00  0.00     0.187 HD
HETATM   15  C9  UNL     1     134.156  12.893  71.886  1.00  0.00     0.289 C 
HETATM   16  O6  UNL     1     134.165  11.854  72.560  1.00  0.00    -0.265 OA
HETATM   17  C10 UNL     1     133.078  13.014  71.040  1.00  0.00     0.139 A 
ENDROOT
BRANCH   1  18
HETATM   18  C4  UNL     1     132.594  10.532  70.774  1.00  0.00     0.276 C 
BRANCH  18  19
HETATM   19  C3  UNL     1     131.369   9.670  70.625  1.00  0.00     0.333 C 
BRANCH  19  20
HETATM   20  N2  UNL     1     130.958   8.990  71.824  1.00  0.00    -0.326 N 
HETATM   21  C2  UNL     1     129.592   8.887  72.159  1.00  0.00     0.275 C 
HETATM   22  O2  UNL     1     128.742   9.399  71.393  1.00  0.00    -0.269 OA
ATOM     23  H2  UNL     1     131.661   8.578  72.437  1.00  0.00     0.164 HD
BRANCH  21  24
HETATM   24  C1  UNL     1     129.120   8.197  73.384  1.00  0.00     0.409 C 
BRANCH  24  25
HETATM   25  N1  UNL     1     128.096   7.216  73.044  1.00  0.00    -0.044 N 
ATOM     26  H13 UNL     1     127.427   7.056  73.797  1.00  0.00     0.278 HD
ATOM     27  H12 UNL     1     127.430   7.554  72.349  1.00  0.00     0.278 HD
ATOM     28  H11 UNL     1     128.584   6.368  72.754  1.00  0.00     0.278 HD
ENDBRANCH  24  25
BRANCH  24  29
HETATM   29  O1  UNL     1     128.547   9.076  74.290  1.00  0.00    -0.363 OA
ATOM     30  H1  UNL     1     127.757   9.413  73.884  1.00  0.00     0.212 HD
ENDBRANCH  24  29
ENDBRANCH  21  24
ENDBRANCH  19  20
BRANCH  19  31
HETATM   31  N3  UNL     1     131.373   8.788  69.474  1.00  0.00    -0.054 N 
ATOM     32  H33 UNL     1     132.218   8.911  68.916  1.00  0.00     0.277 HD
ATOM     33  H32 UNL     1     131.505   7.816  69.753  1.00  0.00     0.277 HD
ATOM     34  H31 UNL     1     130.534   8.899  68.905  1.00  0.00     0.277 HD
ENDBRANCH  19  31
ENDBRANCH  18  19
BRANCH  18  35
HETATM   35  O3  UNL     1     133.373  10.167  69.607  1.00  0.00    -0.372 OA
ATOM     36  H3  UNL     1     134.233  10.509  69.821  1.00  0.00     0.212 HD
ENDBRANCH  18  35
ENDBRANCH   1  18
BRANCH  11  37
HETATM   37  O5  UNL     1     136.406  16.988  71.411  1.00  0.00    -0.276 OA
ATOM     38  H5  UNL     1     136.661  17.237  70.530  1.00  0.00     0.245 HD
ENDBRANCH  11  37
TORSDOF 9
ENDMDL
MODEL 5
REMARK VINA RESULT: -8.819717926      2.031      3.583
REMARK  9 active torsions:
REMARK  status: ('A' for Active; 'I' for Inactive)
REMARK    1  A    between atoms: N1_1  and  C1_5 
REMARK    2  A    between atoms: C1_5  and  O1_6 
REMARK    3  A    between atoms: C1_5  and  C2_8 
REMARK       I    between atoms: C2_8  and  N2_10 
REMARK    4  A    between atoms: N2_10  and  C3_12 
REMARK    5  A    between atoms: C3_12  and  N3_13 
REMARK    6  A    between atoms: C3_12  and  C4_17 
REMARK    7  A    between atoms: C4_17  and  O3_18 
REMARK    8  A    between atoms: C4_17  and  N4_20 
REMARK    9  A    between atoms: N7_30  and  O5_32 
ROOT
HETATM    1  N4  UNL     1     132.549  11.782  70.882  1.00  0.00    -0.305 N 
HETATM    2  C5  UNL     1     131.572  12.206  70.016  1.00  0.00     0.186 A 
HETATM    3  N5  UNL     1     131.597  13.541  69.879  1.00  0.00    -0.346 N 
ATOM      4  H5  UNL     1     130.971  14.091  69.290  1.00  0.00     0.167 HD
HETATM    5  C6  UNL     1     132.568  14.026  70.634  1.00  0.00     0.135 A 
HETATM    6  C7  UNL     1     132.928  15.365  70.776  1.00  0.00     0.289 C 
HETATM    7  O4  UNL     1     132.067  16.195  70.394  1.00  0.00    -0.265 OA
HETATM    8  N6  UNL     1     134.092  15.850  71.276  1.00  0.00    -0.152 N 
ATOM      9  H6  UNL     1     134.182  16.866  71.311  1.00  0.00     0.187 HD
HETATM   10  C8  UNL     1     135.148  15.138  71.734  1.00  0.00     0.707 C 
HETATM   11  N7  UNL     1     136.269  15.766  71.726  1.00  0.00    -0.098 N 
ATOM     12  H7  UNL     1     137.118  15.305  72.053  1.00  0.00     0.213 HD
HETATM   13  N8  UNL     1     135.193  13.875  72.190  1.00  0.00    -0.152 N 
ATOM     14  H8  UNL     1     136.060  13.592  72.645  1.00  0.00     0.187 HD
HETATM   15  C9  UNL     1     134.226  12.937  72.119  1.00  0.00     0.289 C 
HETATM   16  O6  UNL     1     134.268  11.967  72.888  1.00  0.00    -0.265 OA
HETATM   17  C10 UNL     1     133.156  12.933  71.254  1.00  0.00     0.139 A 
ENDROOT
BRANCH   1  18
HETATM   18  C4  UNL     1     132.776  10.419  71.222  1.00  0.00     0.276 C 
BRANCH  18  19
HETATM   19  C3  UNL     1     131.898   9.837  72.297  1.00  0.00     0.333 C 
BRANCH  19  20
HETATM   20  N2  UNL     1     130.752   9.114  71.817  1.00  0.00    -0.326 N 
HETATM   21  C2  UNL     1     130.032   8.258  72.675  1.00  0.00     0.275 C 
HETATM   22  O2  UNL     1     130.409   8.138  73.865  1.00  0.00    -0.269 OA
ATOM     23  H2  UNL     1     130.456   9.222  70.847  1.00  0.00     0.164 HD
BRANCH  21  24
HETATM   24  C1  UNL     1     128.844   7.490  72.227  1.00  0.00     0.409 C 
BRANCH  24  25
HETATM   25  N1  UNL     1     129.261   6.236  71.610  1.00  0.00    -0.044 N 
ATOM     26  H13 UNL     1     129.080   6.202  70.608  1.00  0.00     0.278 HD
ATOM     27  H12 UNL     1     130.274   6.128  71.562  1.00  0.00     0.278 HD
ATOM     28  H11 UNL     1     128.801   5.486  72.127  1.00  0.00     0.278 HD
ENDBRANCH  24  25
BRANCH  24  29
HETATM   29  O1  UNL     1     128.107   8.178  71.277  1.00  0.00    -0.363 OA
ATOM     30  H1  UNL     1     127.465   7.568  70.932  1.00  0.00     0.212 HD
ENDBRANCH  24  29
ENDBRANCH  21  24
ENDBRANCH  19  20
BRANCH  19  31
HETATM   31  N3  UNL     1     131.554  10.748  73.372  1.00  0.00    -0.054 N 
ATOM     32  H33 UNL     1     131.462  10.255  74.261  1.00  0.00     0.277 HD
ATOM     33  H32 UNL     1     132.338  11.357  73.607  1.00  0.00     0.277 HD
ATOM     34  H31 UNL     1     130.716  11.289  73.160  1.00  0.00     0.277 HD
ENDBRANCH  19  31
ENDBRANCH  18  19
BRANCH  18  35
HETATM   35  O3  UNL     1     132.296   9.744  70.031  1.00  0.00    -0.372 OA
ATOM     36  H3  UNL     1     132.263   8.837  70.312  1.00  0.00     0.212 HD
ENDBRANCH  18  35
ENDBRANCH   1  18
BRANCH  11  37
HETATM   37  O5  UNL     1     136.317  17.057  71.277  1.00  0.00    -0.276 OA
ATOM     38  H5  UNL     1     136.603  17.235  70.388  1.00  0.00     0.245 HD
ENDBRANCH  11  37
TORSDOF 9
ENDMDL
