MODEL 1
REMARK VINA RESULT: -7.994281357      0.000      0.000
REMARK  8 active torsions:
REMARK  status: ('A' for Active; 'I' for Inactive)
REMARK    1  A    between atoms: C1_2  and  C2_4 
REMARK    2  A    between atoms: C3_5  and  O3_6 
REMARK    3  A    between atoms: O3_6  and  S1_7 
REMARK    4  A    between atoms: C5_12  and  O7_13 
REMARK    5  A    between atoms: C5_12  and  C6_15 
REMARK    6  A    between atoms: C7_18  and  O10_19 
REMARK    7  A    between atoms: C8_21  and  O11_22 
REMARK    8  A    between atoms: C8_21  and  O12_24 
ROOT
HETATM    1  C2  UNL     1     131.511   9.507  73.446  1.00  0.00     0.141 C 
HETATM    2  C3  UNL     1     131.640   8.349  74.069  1.00  0.00     0.106 C 
HETATM    3  C4  UNL     1     130.803   7.159  73.977  1.00  0.00     0.121 C 
HETATM    4  C5  UNL     1     130.300   6.866  72.570  1.00  0.00     0.184 C 
HETATM    5  C7  UNL     1     129.261   7.873  72.135  1.00  0.00     0.248 C 
HETATM    6  C8  UNL     1     129.837   9.113  71.549  1.00  0.00     0.275 C 
HETATM    7  N1  UNL     1     130.530   9.944  72.506  1.00  0.00    -0.326 N 
ATOM      8  H1  UNL     1     130.295  10.936  72.511  1.00  0.00     0.165 HD
ENDROOT
BRANCH   2   9
HETATM    9  O3  UNL     1     132.728   8.290  74.919  1.00  0.00    -0.216 OA
BRANCH   9  10
HETATM   10  S1  UNL     1     134.143   7.416  74.650  1.00  0.00     0.256 S 
HETATM   11  O4  UNL     1     135.372   8.274  74.579  1.00  0.00    -0.572 OA
HETATM   12  O5  UNL     1     134.023   6.749  73.286  1.00  0.00    -0.572 OA
HETATM   13  O6  UNL     1     134.324   6.190  75.785  1.00  0.00    -0.572 OA
ENDBRANCH   9  10
ENDBRANCH   2   9
BRANCH   1  14
HETATM   14  C1  UNL     1     132.515  10.544  73.738  1.00  0.00     0.229 C 
HETATM   15  O1  UNL     1     133.587  10.651  73.102  1.00  0.00    -0.643 OA
HETATM   16  O2  UNL     1     132.290  11.455  74.753  1.00  0.00    -0.643 OA
ENDBRANCH   1  14
BRANCH   4  17
HETATM   17  O7  UNL     1     131.334   6.763  71.669  1.00  0.00    -0.376 OA
ATOM     18  H7  UNL     1     131.366   5.904  71.265  1.00  0.00     0.211 HD
ENDBRANCH   4  17
BRANCH   4  19
HETATM   19  C6  UNL     1     129.618   5.551  72.664  1.00  0.00     0.212 C 
HETATM   20  O8  UNL     1     128.495   5.418  73.213  1.00  0.00    -0.646 OA
HETATM   21  O9  UNL     1     130.207   4.422  72.141  1.00  0.00    -0.646 OA
ENDBRANCH   4  19
BRANCH   6  22
HETATM   22  O11 UNL     1     130.632   8.859  70.422  1.00  0.00    -0.347 OA
ATOM     23  H11 UNL     1     130.236   9.170  69.617  1.00  0.00     0.215 HD
ENDBRANCH   6  22
BRANCH   6  24
HETATM   24  O12 UNL     1     128.743   9.862  71.050  1.00  0.00    -0.347 OA
ATOM     25  H12 UNL     1     128.490   9.450  70.232  1.00  0.00     0.215 HD
ENDBRANCH   6  24
BRANCH   5  26
HETATM   26  O10 UNL     1     128.518   8.213  73.251  1.00  0.00    -0.384 OA
ATOM     27  H10 UNL     1     128.007   7.450  73.497  1.00  0.00     0.210 HD
ENDBRANCH   5  26
TORSDOF 8
ENDMDL
MODEL 2
REMARK VINA RESULT: -7.991383851      1.969      4.032
REMARK  8 active torsions:
REMARK  status: ('A' for Active; 'I' for Inactive)
REMARK    1  A    between atoms: C1_2  and  C2_4 
REMARK    2  A    between atoms: C3_5  and  O3_6 
REMARK    3  A    between atoms: O3_6  and  S1_7 
REMARK    4  A    between atoms: C5_12  and  O7_13 
REMARK    5  A    between atoms: C5_12  and  C6_15 
REMARK    6  A    between atoms: C7_18  and  O10_19 
REMARK    7  A    between atoms: C8_21  and  O11_22 
REMARK    8  A    between atoms: C8_21  and  O12_24 
ROOT
HETATM    1  C2  UNL     1     131.509   6.364  73.208  1.00  0.00     0.141 C 
HETATM    2  C3  UNL     1     131.980   7.364  72.484  1.00  0.00     0.106 C 
HETATM    3  C4  UNL     1     131.252   8.338  71.680  1.00  0.00     0.121 C 
HETATM    4  C5  UNL     1     129.948   8.807  72.312  1.00  0.00     0.184 C 
HETATM    5  C7  UNL     1     128.903   7.716  72.295  1.00  0.00     0.248 C 
HETATM    6  C8  UNL     1     128.994   6.782  73.450  1.00  0.00     0.275 C 
HETATM    7  N1  UNL     1     130.165   5.935  73.424  1.00  0.00    -0.326 N 
ATOM      8  H1  UNL     1     130.017   4.938  73.576  1.00  0.00     0.165 HD
ENDROOT
BRANCH   2   9
HETATM    9  O3  UNL     1     133.357   7.474  72.513  1.00  0.00    -0.216 OA
BRANCH   9  10
HETATM   10  S1  UNL     1     134.231   8.738  73.204  1.00  0.00     0.256 S 
HETATM   11  O4  UNL     1     135.458   8.285  73.941  1.00  0.00    -0.572 OA
HETATM   12  O5  UNL     1     133.341   9.400  74.248  1.00  0.00    -0.572 OA
HETATM   13  O6  UNL     1     134.609   9.911  72.061  1.00  0.00    -0.572 OA
ENDBRANCH   9  10
ENDBRANCH   2   9
BRANCH   1  14
HETATM   14  C1  UNL     1     132.490   5.529  73.923  1.00  0.00     0.229 C 
HETATM   15  O1  UNL     1     132.901   5.797  75.073  1.00  0.00    -0.643 OA
HETATM   16  O2  UNL     1     132.996   4.392  73.320  1.00  0.00    -0.643 OA
ENDBRANCH   1  14
BRANCH   4  17
HETATM   17  O7  UNL     1     130.146   9.318  73.574  1.00  0.00    -0.376 OA
ATOM     18  H7  UNL     1     129.762  10.182  73.669  1.00  0.00     0.211 HD
ENDBRANCH   4  17
BRANCH   4  19
HETATM   19  C6  UNL     1     129.454   9.894  71.430  1.00  0.00     0.212 C 
HETATM   20  O8  UNL     1     128.427   9.762  70.717  1.00  0.00    -0.646 OA
HETATM   21  O9  UNL     1     130.119  11.098  71.369  1.00  0.00    -0.646 OA
ENDBRANCH   4  19
BRANCH   6  22
HETATM   22  O11 UNL     1     128.860   7.433  74.684  1.00  0.00    -0.347 OA
ATOM     23  H11 UNL     1     129.007   6.853  75.422  1.00  0.00     0.215 HD
ENDBRANCH   6  22
BRANCH   6  24
HETATM   24  O12 UNL     1     127.859   5.938  73.368  1.00  0.00    -0.347 OA
ATOM     25  H12 UNL     1     128.058   5.173  73.894  1.00  0.00     0.215 HD
ENDBRANCH   6  24
BRANCH   5  26
HETATM   26  O10 UNL     1     129.072   6.995  71.126  1.00  0.00    -0.384 OA
ATOM     27  H10 UNL     1     128.286   7.110  70.604  1.00  0.00     0.210 HD
ENDBRANCH   5  26
TORSDOF 8
ENDMDL
MODEL 3
REMARK VINA RESULT: -7.971529797      1.818      4.371
REMARK  8 active torsions:
REMARK  status: ('A' for Active; 'I' for Inactive)
REMARK    1  A    between atoms: C1_2  and  C2_4 
REMARK    2  A    between atoms: C3_5  and  O3_6 
REMARK    3  A    between atoms: O3_6  and  S1_7 
REMARK    4  A    between atoms: C5_12  and  O7_13 
REMARK    5  A    between atoms: C5_12  and  C6_15 
REMARK    6  A    between atoms: C7_18  and  O10_19 
REMARK    7  A    between atoms: C8_21  and  O11_22 
REMARK    8  A    between atoms: C8_21  and  O12_24 
ROOT
HETATM    1  C2  UNL     1     130.036   6.806  72.108  1.00  0.00     0.141 C 
HETATM    2  C3  UNL     1     131.357   6.765  72.078  1.00  0.00     0.106 C 
HETATM    3  C4  UNL     1     132.293   7.731  71.518  1.00  0.00     0.121 C 
HETATM    4  C5  UNL     1     131.887   9.182  71.737  1.00  0.00     0.184 C 
HETATM    5  C7  UNL     1     130.690   9.554  70.894  1.00  0.00     0.248 C 
HETATM    6  C8  UNL     1     129.385   9.212  71.523  1.00  0.00     0.275 C 
HETATM    7  N1  UNL     1     129.133   7.793  71.609  1.00  0.00    -0.326 N 
ATOM      8  H1  UNL     1     128.224   7.465  71.283  1.00  0.00     0.165 HD
ENDROOT
BRANCH   2   9
HETATM    9  O3  UNL     1     131.893   5.636  72.668  1.00  0.00    -0.216 OA
BRANCH   9  10
HETATM   10  S1  UNL     1     132.548   5.551  74.218  1.00  0.00     0.256 S 
HETATM   11  O4  UNL     1     133.922   4.948  74.256  1.00  0.00    -0.572 OA
HETATM   12  O5  UNL     1     131.666   4.623  75.043  1.00  0.00    -0.572 OA
HETATM   13  O6  UNL     1     132.524   7.054  74.971  1.00  0.00    -0.572 OA
ENDBRANCH   9  10
ENDBRANCH   2   9
BRANCH   1  14
HETATM   14  C1  UNL     1     129.341   5.675  72.746  1.00  0.00     0.229 C 
HETATM   15  O1  UNL     1     128.756   5.770  73.848  1.00  0.00    -0.643 OA
HETATM   16  O2  UNL     1     129.316   4.441  72.122  1.00  0.00    -0.643 OA
ENDBRANCH   1  14
BRANCH   4  17
HETATM   17  O7  UNL     1     131.692   9.461  73.070  1.00  0.00    -0.376 OA
ATOM     18  H7  UNL     1     132.451   9.882  73.457  1.00  0.00     0.211 HD
ENDBRANCH   4  17
BRANCH   4  19
HETATM   19  C6  UNL     1     133.032   9.988  71.245  1.00  0.00     0.212 C 
HETATM   20  O8  UNL     1     132.963  10.677  70.195  1.00  0.00    -0.646 OA
HETATM   21  O9  UNL     1     134.222  10.004  71.937  1.00  0.00    -0.646 OA
ENDBRANCH   4  19
BRANCH   6  22
HETATM   22  O11 UNL     1     129.201   9.841  72.762  1.00  0.00    -0.347 OA
ATOM     23  H11 UNL     1     128.309   9.773  73.079  1.00  0.00     0.215 HD
ENDBRANCH   6  22
BRANCH   6  24
HETATM   24  O12 UNL     1     128.385   9.771  70.689  1.00  0.00    -0.347 OA
ATOM     25  H12 UNL     1     128.106  10.575  71.111  1.00  0.00     0.215 HD
ENDBRANCH   6  24
BRANCH   5  26
HETATM   26  O10 UNL     1     130.797   8.872  69.695  1.00  0.00    -0.384 OA
ATOM     27  H10 UNL     1     130.897   9.519  69.006  1.00  0.00     0.210 HD
ENDBRANCH   5  26
TORSDOF 8
ENDMDL
MODEL 4
REMARK VINA RESULT: -7.971481252      1.725      4.478
REMARK  8 active torsions:
REMARK  status: ('A' for Active; 'I' for Inactive)
REMARK    1  A    between atoms: C1_2  and  C2_4 
REMARK    2  A    between atoms: C3_5  and  O3_6 
REMARK    3  A    between atoms: O3_6  and  S1_7 
REMARK    4  A    between atoms: C5_12  and  O7_13 
REMARK    5  A    between atoms: C5_12  and  C6_15 
REMARK    6  A    between atoms: C7_18  and  O10_19 
REMARK    7  A    between atoms: C8_21  and  O11_22 
REMARK    8  A    between atoms: C8_21  and  O12_24 
ROOT
HETATM    1  C2  UNL     1     130.004   6.919  73.239  1.00  0.00     0.141 C 
HETATM    2  C3  UNL     1     131.219   6.879  73.757  1.00  0.00     0.106 C 
HETATM    3  C4  UNL     1     132.265   7.894  73.725  1.00  0.00     0.121 C 
HETATM    4  C5  UNL     1     131.748   9.317  73.885  1.00  0.00     0.184 C 
HETATM    5  C7  UNL     1     130.993   9.771  72.657  1.00  0.00     0.248 C 
HETATM    6  C8  UNL     1     129.560   9.372  72.654  1.00  0.00     0.275 C 
HETATM    7  N1  UNL     1     129.350   7.951  72.501  1.00  0.00    -0.326 N 
ATOM      8  H1  UNL     1     128.671   7.657  71.799  1.00  0.00     0.165 HD
ENDROOT
BRANCH   2   9
HETATM    9  O3  UNL     1     131.508   5.698  74.413  1.00  0.00    -0.216 OA
BRANCH   9  10
HETATM   10  S1  UNL     1     132.577   4.510  73.881  1.00  0.00     0.256 S 
HETATM   11  O4  UNL     1     133.986   4.715  74.357  1.00  0.00    -0.572 OA
HETATM   12  O5  UNL     1     132.637   4.588  72.362  1.00  0.00    -0.572 OA
HETATM   13  O6  UNL     1     132.022   2.973  74.276  1.00  0.00    -0.572 OA
ENDBRANCH   9  10
ENDBRANCH   2   9
BRANCH   1  14
HETATM   14  C1  UNL     1     129.152   5.732  73.427  1.00  0.00     0.229 C 
HETATM   15  O1  UNL     1     128.392   5.589  74.410  1.00  0.00    -0.643 OA
HETATM   16  O2  UNL     1     129.172   4.715  72.491  1.00  0.00    -0.643 OA
ENDBRANCH   1  14
BRANCH   4  17
HETATM   17  O7  UNL     1     131.008   9.466  75.035  1.00  0.00    -0.376 OA
ATOM     18  H7  UNL     1     131.340   8.922  75.740  1.00  0.00     0.211 HD
ENDBRANCH   4  17
BRANCH   4  19
HETATM   19  C6  UNL     1     132.962  10.166  73.987  1.00  0.00     0.212 C 
HETATM   20  O8  UNL     1     134.077   9.794  73.540  1.00  0.00    -0.646 OA
HETATM   21  O9  UNL     1     132.898  11.404  74.583  1.00  0.00    -0.646 OA
ENDBRANCH   4  19
BRANCH   6  22
HETATM   22  O11 UNL     1     128.855   9.877  73.756  1.00  0.00    -0.347 OA
ATOM     23  H11 UNL     1     129.062  10.786  73.938  1.00  0.00     0.215 HD
ENDBRANCH   6  22
BRANCH   6  24
HETATM   24  O12 UNL     1     128.973  10.011  71.534  1.00  0.00    -0.347 OA
ATOM     25  H12 UNL     1     128.041  10.055  71.712  1.00  0.00     0.215 HD
ENDBRANCH   6  24
BRANCH   5  26
HETATM   26  O10 UNL     1     131.613   9.210  71.556  1.00  0.00    -0.384 OA
ATOM     27  H10 UNL     1     130.999   9.249  70.831  1.00  0.00     0.210 HD
ENDBRANCH   5  26
TORSDOF 8
ENDMDL
MODEL 5
REMARK VINA RESULT: -7.962988633      2.172      4.592
REMARK  8 active torsions:
REMARK  status: ('A' for Active; 'I' for Inactive)
REMARK    1  A    between atoms: C1_2  and  C2_4 
REMARK    2  A    between atoms: C3_5  and  O3_6 
REMARK    3  A    between atoms: O3_6  and  S1_7 
REMARK    4  A    between atoms: C5_12  and  O7_13 
REMARK    5  A    between atoms: C5_12  and  C6_15 
REMARK    6  A    between atoms: C7_18  and  O10_19 
REMARK    7  A    between atoms: C8_21  and  O11_22 
REMARK    8  A    between atoms: C8_21  and  O12_24 
ROOT
HETATM    1  C2  UNL     1     130.286   7.485  74.993  1.00  0.00     0.141 C 
HETATM    2  C3  UNL     1     129.760   7.176  73.820  1.00  0.00     0.106 C 
HETATM    3  C4  UNL     1     129.348   8.061  72.738  1.00  0.00     0.121 C 
HETATM    4  C5  UNL     1     130.279   9.246  72.522  1.00  0.00     0.184 C 
HETATM    5  C7  UNL     1     130.169  10.247  73.648  1.00  0.00     0.248 C 
HETATM    6  C8  UNL     1     131.030   9.929  74.818  1.00  0.00     0.275 C 
HETATM    7  N1  UNL     1     130.609   8.758  75.552  1.00  0.00    -0.326 N 
ATOM      8  H1  UNL     1     130.534   8.850  76.565  1.00  0.00     0.165 HD
ENDROOT
BRANCH   2   9
HETATM    9  O3  UNL     1     129.589   5.819  73.625  1.00  0.00    -0.216 OA
BRANCH   9  10
HETATM   10  S1  UNL     1     130.375   4.883  72.466  1.00  0.00     0.256 S 
HETATM   11  O4  UNL     1     129.509   3.810  71.874  1.00  0.00    -0.572 OA
HETATM   12  O5  UNL     1     131.521   4.157  73.156  1.00  0.00    -0.572 OA
HETATM   13  O6  UNL     1     131.052   5.846  71.265  1.00  0.00    -0.572 OA
ENDBRANCH   9  10
ENDBRANCH   2   9
BRANCH   1  14
HETATM   14  C1  UNL     1     130.606   6.371  75.902  1.00  0.00     0.229 C 
HETATM   15  O1  UNL     1     129.775   5.884  76.700  1.00  0.00    -0.643 OA
HETATM   16  O2  UNL     1     131.873   5.818  75.894  1.00  0.00    -0.643 OA
ENDBRANCH   1  14
BRANCH   4  17
HETATM   17  O7  UNL     1     131.577   8.844  72.309  1.00  0.00    -0.376 OA
ATOM     18  H7  UNL     1     131.646   7.899  72.236  1.00  0.00     0.211 HD
ENDBRANCH   4  17
BRANCH   4  19
HETATM   19  C6  UNL     1     129.782   9.917  71.294  1.00  0.00     0.212 C 
HETATM   20  O8  UNL     1     130.528  10.624  70.570  1.00  0.00    -0.646 OA
HETATM   21  O9  UNL     1     128.468   9.780  70.909  1.00  0.00    -0.646 OA
ENDBRANCH   4  19
BRANCH   6  22
HETATM   22  O11 UNL     1     132.390   9.862  74.487  1.00  0.00    -0.347 OA
ATOM     23  H11 UNL     1     132.890   9.330  75.093  1.00  0.00     0.215 HD
ENDBRANCH   6  22
BRANCH   6  24
HETATM   24  O12 UNL     1     130.933  11.037  75.696  1.00  0.00    -0.347 OA
ATOM     25  H12 UNL     1     130.296  10.797  76.358  1.00  0.00     0.215 HD
ENDBRANCH   6  24
BRANCH   5  26
HETATM   26  O10 UNL     1     128.848  10.266  74.060  1.00  0.00    -0.384 OA
ATOM     27  H10 UNL     1     128.776  10.907  74.758  1.00  0.00     0.210 HD
ENDBRANCH   5  26
TORSDOF 8
ENDMDL
