MODEL 1
REMARK VINA RESULT: -8.561927952      0.000      0.000
REMARK  9 active torsions:
REMARK  status: ('A' for Active; 'I' for Inactive)
REMARK    1  A    between atoms: N1_1  and  C1_5 
REMARK    2  A    between atoms: C1_5  and  N2_6 
REMARK    3  A    between atoms: C1_5  and  C2_10 
REMARK    4  A    between atoms: C6_18  and  O3_19 
REMARK    5  A    between atoms: C6_18  and  N4_21 
REMARK    6  A    between atoms: N4_21  and  C7_23 
REMARK    7  A    between atoms: C9_25  and  O4_26 
REMARK    8  A    between atoms: C9_25  and  O5_28 
REMARK    9  A    between atoms: C10_31  and  C11_32 
ROOT
HETATM    1  C2  UNL     1     131.596  10.833  71.677  1.00  0.00     0.143 A 
HETATM    2  N3  UNL     1     132.656  11.505  71.950  1.00  0.00    -0.306 N 
ATOM      3  H3  UNL     1     133.244  11.824  71.180  1.00  0.00     0.170 HD
HETATM    4  C3  UNL     1     133.044  11.824  73.282  1.00  0.00     0.299 A 
HETATM    5  O1  UNL     1     134.067  12.476  73.578  1.00  0.00    -0.264 OA
HETATM    6  C4  UNL     1     132.177  11.348  74.352  1.00  0.00     0.270 A 
HETATM    7  O2  UNL     1     132.477  11.604  75.565  1.00  0.00    -0.280 OA
HETATM    8  C5  UNL     1     130.971  10.583  74.063  1.00  0.00     0.141 A 
HETATM    9  C6  UNL     1     130.183  10.150  75.012  1.00  0.00     0.172 C 
HETATM   10  N5  UNL     1     130.705  10.338  72.669  1.00  0.00    -0.336 N 
ATOM     11  H5  UNL     1     129.878   9.809  72.393  1.00  0.00     0.167 HD
ENDROOT
BRANCH   9  12
HETATM   12  O3  UNL     1     130.510  10.429  76.328  1.00  0.00    -0.344 OA
ATOM     13  H3  UNL     1     129.846  10.806  76.895  1.00  0.00     0.219 HD
ENDBRANCH   9  12
BRANCH   9  14
HETATM   14  N4  UNL     1     129.009   9.405  74.718  1.00  0.00    -0.336 N 
ATOM     15  H4  UNL     1     128.168   9.909  74.437  1.00  0.00     0.168 HD
BRANCH  14  16
HETATM   16  C7  UNL     1     128.956   7.987  74.799  1.00  0.00     0.055 C 
HETATM   17  C8  UNL     1     128.360   7.202  75.680  1.00  0.00     0.101 C 
HETATM   18  C9  UNL     1     128.595   5.775  75.336  1.00  0.00     0.302 C 
HETATM   19  O6  UNL     1     129.562   5.811  74.340  1.00  0.00    -0.307 OA
HETATM   20  C10 UNL     1     129.613   7.081  73.832  1.00  0.00     0.278 C 
BRANCH  18  21
HETATM   21  O4  UNL     1     127.460   5.114  74.942  1.00  0.00    -0.340 OA
ATOM     22  H4  UNL     1     126.867   5.650  74.430  1.00  0.00     0.216 HD
ENDBRANCH  18  21
BRANCH  18  23
HETATM   23  O5  UNL     1     129.174   5.176  76.451  1.00  0.00    -0.340 OA
ATOM     24  H5  UNL     1     128.953   4.253  76.417  1.00  0.00     0.216 HD
ENDBRANCH  18  23
BRANCH  20  25
HETATM   25  C11 UNL     1     128.962   7.105  72.505  1.00  0.00     0.209 C 
HETATM   26  O7  UNL     1     128.839   6.065  71.789  1.00  0.00    -0.646 OA
HETATM   27  O8  UNL     1     128.467   8.301  72.023  1.00  0.00    -0.646 OA
ENDBRANCH  20  25
ENDBRANCH  14  16
ENDBRANCH   9  14
BRANCH   1  28
HETATM   28  C1  UNL     1     131.284  10.558  70.261  1.00  0.00     0.444 C 
BRANCH  28  29
HETATM   29  N1  UNL     1     129.952  10.031  70.090  1.00  0.00    -0.043 N 
ATOM     30  H13 UNL     1     129.853   9.517  69.214  1.00  0.00     0.277 HD
ATOM     31  H12 UNL     1     129.758   9.264  70.734  1.00  0.00     0.277 HD
ATOM     32  H11 UNL     1     129.266  10.781  70.173  1.00  0.00     0.277 HD
ENDBRANCH  28  29
BRANCH  28  33
HETATM   33  N2  UNL     1     131.447  11.759  69.468  1.00  0.00    -0.043 N 
ATOM     34  H23 UNL     1     131.031  11.664  68.542  1.00  0.00     0.277 HD
ATOM     35  H22 UNL     1     130.870  12.526  69.813  1.00  0.00     0.277 HD
ATOM     36  H21 UNL     1     132.434  12.013  69.420  1.00  0.00     0.277 HD
ENDBRANCH  28  33
ENDBRANCH   1  28
TORSDOF 9
ENDMDL
MODEL 2
REMARK VINA RESULT: -8.536370025      2.284      3.779
REMARK  9 active torsions:
REMARK  status: ('A' for Active; 'I' for Inactive)
REMARK    1  A    between atoms: N1_1  and  C1_5 
REMARK    2  A    between atoms: C1_5  and  N2_6 
REMARK    3  A    between atoms: C1_5  and  C2_10 
REMARK    4  A    between atoms: C6_18  and  O3_19 
REMARK    5  A    between atoms: C6_18  and  N4_21 
REMARK    6  A    between atoms: N4_21  and  C7_23 
REMARK    7  A    between atoms: C9_25  and  O4_26 
REMARK    8  A    between atoms: C9_25  and  O5_28 
REMARK    9  A    between atoms: C10_31  and  C11_32 
ROOT
HETATM    1  C2  UNL     1     132.441   9.170  72.103  1.00  0.00     0.143 A 
HETATM    2  N3  UNL     1     132.376  10.289  71.477  1.00  0.00    -0.306 N 
ATOM      3  H3  UNL     1     133.218  10.860  71.406  1.00  0.00     0.170 HD
HETATM    4  C3  UNL     1     131.177  10.767  70.876  1.00  0.00     0.299 A 
HETATM    5  O1  UNL     1     131.082  11.849  70.261  1.00  0.00    -0.264 OA
HETATM    6  C4  UNL     1     129.996   9.922  71.001  1.00  0.00     0.270 A 
HETATM    7  O2  UNL     1     128.894  10.302  70.482  1.00  0.00    -0.280 OA
HETATM    8  C5  UNL     1     130.049   8.650  71.708  1.00  0.00     0.141 A 
HETATM    9  C6  UNL     1     128.998   7.881  71.828  1.00  0.00     0.172 C 
HETATM   10  N5  UNL     1     131.330   8.296  72.264  1.00  0.00    -0.336 N 
ATOM     11  H5  UNL     1     131.440   7.419  72.772  1.00  0.00     0.167 HD
ENDROOT
BRANCH   9  12
HETATM   12  O3  UNL     1     127.803   8.293  71.265  1.00  0.00    -0.344 OA
ATOM     13  H3  UNL     1     127.014   8.263  71.793  1.00  0.00     0.219 HD
ENDBRANCH   9  12
BRANCH   9  14
HETATM   14  N4  UNL     1     129.063   6.641  72.521  1.00  0.00    -0.336 N 
ATOM     15  H4  UNL     1     129.466   5.835  72.043  1.00  0.00     0.168 HD
BRANCH  14  16
HETATM   16  C7  UNL     1     128.590   6.477  73.851  1.00  0.00     0.055 C 
HETATM   17  C8  UNL     1     127.935   5.472  74.407  1.00  0.00     0.101 C 
HETATM   18  C9  UNL     1     127.659   5.770  75.837  1.00  0.00     0.302 C 
HETATM   19  O6  UNL     1     127.991   7.110  75.984  1.00  0.00    -0.307 OA
HETATM   20  C10 UNL     1     128.765   7.484  74.919  1.00  0.00     0.278 C 
BRANCH  18  21
HETATM   21  O4  UNL     1     128.344   4.961  76.707  1.00  0.00    -0.340 OA
ATOM     22  H4  UNL     1     127.886   4.811  77.525  1.00  0.00     0.216 HD
ENDBRANCH  18  21
BRANCH  18  23
HETATM   23  O5  UNL     1     126.283   5.664  76.018  1.00  0.00    -0.340 OA
ATOM     24  H5  UNL     1     126.127   4.866  76.508  1.00  0.00     0.216 HD
ENDBRANCH  18  23
BRANCH  20  25
HETATM   25  C11 UNL     1     130.173   7.604  75.354  1.00  0.00     0.209 C 
HETATM   26  O7  UNL     1     130.553   8.473  76.198  1.00  0.00    -0.646 OA
HETATM   27  O8  UNL     1     131.113   6.741  74.825  1.00  0.00    -0.646 OA
ENDBRANCH  20  25
ENDBRANCH  14  16
ENDBRANCH   9  14
BRANCH   1  28
HETATM   28  C1  UNL     1     133.734   8.768  72.689  1.00  0.00     0.444 C 
BRANCH  28  29
HETATM   29  N1  UNL     1     134.764   9.752  72.460  1.00  0.00    -0.043 N 
ATOM     30  H13 UNL     1     135.388   9.847  73.261  1.00  0.00     0.277 HD
ATOM     31  H12 UNL     1     135.450   9.435  71.775  1.00  0.00     0.277 HD
ATOM     32  H11 UNL     1     134.344  10.643  72.195  1.00  0.00     0.277 HD
ENDBRANCH  28  29
BRANCH  28  33
HETATM   33  N2  UNL     1     133.588   8.525  74.109  1.00  0.00    -0.043 N 
ATOM     34  H23 UNL     1     134.080   7.682  74.405  1.00  0.00     0.277 HD
ATOM     35  H22 UNL     1     134.105   9.204  74.668  1.00  0.00     0.277 HD
ATOM     36  H21 UNL     1     132.599   8.498  74.359  1.00  0.00     0.277 HD
ENDBRANCH  28  33
ENDBRANCH   1  28
TORSDOF 9
ENDMDL
MODEL 3
REMARK VINA RESULT: -8.487115022      2.509      3.214
REMARK  9 active torsions:
REMARK  status: ('A' for Active; 'I' for Inactive)
REMARK    1  A    between atoms: N1_1  and  C1_5 
REMARK    2  A    between atoms: C1_5  and  N2_6 
REMARK    3  A    between atoms: C1_5  and  C2_10 
REMARK    4  A    between atoms: C6_18  and  O3_19 
REMARK    5  A    between atoms: C6_18  and  N4_21 
REMARK    6  A    between atoms: N4_21  and  C7_23 
REMARK    7  A    between atoms: C9_25  and  O4_26 
REMARK    8  A    between atoms: C9_25  and  O5_28 
REMARK    9  A    between atoms: C10_31  and  C11_32 
ROOT
HETATM    1  C2  UNL     1     132.223  12.267  70.842  1.00  0.00     0.143 A 
HETATM    2  N3  UNL     1     133.126  12.868  71.531  1.00  0.00    -0.306 N 
ATOM      3  H3  UNL     1     133.188  13.884  71.475  1.00  0.00     0.170 HD
HETATM    4  C3  UNL     1     134.045  12.174  72.368  1.00  0.00     0.299 A 
HETATM    5  O1  UNL     1     134.932  12.729  73.049  1.00  0.00    -0.264 OA
HETATM    6  C4  UNL     1     133.923  10.723  72.418  1.00  0.00     0.270 A 
HETATM    7  O2  UNL     1     134.721  10.050  73.151  1.00  0.00    -0.280 OA
HETATM    8  C5  UNL     1     132.906  10.023  71.644  1.00  0.00     0.141 A 
HETATM    9  C6  UNL     1     132.785   8.722  71.679  1.00  0.00     0.172 C 
HETATM   10  N5  UNL     1     132.047  10.856  70.843  1.00  0.00    -0.336 N 
ATOM     11  H5  UNL     1     131.313  10.434  70.275  1.00  0.00     0.167 HD
ENDROOT
BRANCH   9  12
HETATM   12  O3  UNL     1     133.650   7.992  72.475  1.00  0.00    -0.344 OA
ATOM     13  H3  UNL     1     134.586   8.073  72.328  1.00  0.00     0.219 HD
ENDBRANCH   9  12
BRANCH   9  14
HETATM   14  N4  UNL     1     131.788   8.050  70.919  1.00  0.00    -0.336 N 
ATOM     15  H4  UNL     1     131.763   8.195  69.910  1.00  0.00     0.168 HD
BRANCH  14  16
HETATM   16  C7  UNL     1     130.825   7.185  71.506  1.00  0.00     0.055 C 
HETATM   17  C8  UNL     1     130.971   5.997  72.067  1.00  0.00     0.101 C 
HETATM   18  C9  UNL     1     129.657   5.487  72.537  1.00  0.00     0.302 C 
HETATM   19  O6  UNL     1     128.728   6.361  71.989  1.00  0.00    -0.307 OA
HETATM   20  C10 UNL     1     129.382   7.496  71.593  1.00  0.00     0.278 C 
BRANCH  18  21
HETATM   21  O4  UNL     1     129.559   5.405  73.903  1.00  0.00    -0.340 OA
ATOM     22  H4  UNL     1     130.198   5.938  74.361  1.00  0.00     0.216 HD
ENDBRANCH  18  21
BRANCH  18  23
HETATM   23  O5  UNL     1     129.461   4.246  71.936  1.00  0.00    -0.340 OA
ATOM     24  H5  UNL     1     129.753   4.324  71.036  1.00  0.00     0.216 HD
ENDBRANCH  18  23
BRANCH  20  25
HETATM   25  C11 UNL     1     129.098   8.586  72.550  1.00  0.00     0.209 C 
HETATM   26  O7  UNL     1     128.589   8.371  73.694  1.00  0.00    -0.646 OA
HETATM   27  O8  UNL     1     129.395   9.886  72.193  1.00  0.00    -0.646 OA
ENDBRANCH  20  25
ENDBRANCH  14  16
ENDBRANCH   9  14
BRANCH   1  28
HETATM   28  C1  UNL     1     131.321  13.082  70.006  1.00  0.00     0.444 C 
BRANCH  28  29
HETATM   29  N1  UNL     1     131.394  14.486  70.334  1.00  0.00    -0.043 N 
ATOM     30  H13 UNL     1     130.762  15.046  69.762  1.00  0.00     0.277 HD
ATOM     31  H12 UNL     1     130.987  14.687  71.247  1.00  0.00     0.277 HD
ATOM     32  H11 UNL     1     132.359  14.809  70.267  1.00  0.00     0.277 HD
ENDBRANCH  28  29
BRANCH  28  33
HETATM   33  N2  UNL     1     131.621  12.885  68.603  1.00  0.00    -0.043 N 
ATOM     34  H23 UNL     1     131.711  11.897  68.366  1.00  0.00     0.277 HD
ATOM     35  H22 UNL     1     130.825  13.109  68.006  1.00  0.00     0.277 HD
ATOM     36  H21 UNL     1     132.454  13.416  68.347  1.00  0.00     0.277 HD
ENDBRANCH  28  33
ENDBRANCH   1  28
TORSDOF 9
ENDMDL
MODEL 4
REMARK VINA RESULT: -8.362154397      4.043      6.034
REMARK  9 active torsions:
REMARK  status: ('A' for Active; 'I' for Inactive)
REMARK    1  A    between atoms: N1_1  and  C1_5 
REMARK    2  A    between atoms: C1_5  and  N2_6 
REMARK    3  A    between atoms: C1_5  and  C2_10 
REMARK    4  A    between atoms: C6_18  and  O3_19 
REMARK    5  A    between atoms: C6_18  and  N4_21 
REMARK    6  A    between atoms: N4_21  and  C7_23 
REMARK    7  A    between atoms: C9_25  and  O4_26 
REMARK    8  A    between atoms: C9_25  and  O5_28 
REMARK    9  A    between atoms: C10_31  and  C11_32 
ROOT
HETATM    1  C2  UNL     1     130.771   7.490  71.079  1.00  0.00     0.143 A 
HETATM    2  N3  UNL     1     129.504   7.531  71.287  1.00  0.00    -0.306 N 
ATOM      3  H3  UNL     1     128.919   8.054  70.636  1.00  0.00     0.170 HD
HETATM    4  C3  UNL     1     128.883   6.878  72.389  1.00  0.00     0.299 A 
HETATM    5  O1  UNL     1     127.656   6.899  72.617  1.00  0.00    -0.264 OA
HETATM    6  C4  UNL     1     129.756   6.143  73.296  1.00  0.00     0.270 A 
HETATM    7  O2  UNL     1     129.252   5.540  74.301  1.00  0.00    -0.280 OA
HETATM    8  C5  UNL     1     131.195   6.085  73.077  1.00  0.00     0.141 A 
HETATM    9  C6  UNL     1     131.990   5.430  73.882  1.00  0.00     0.172 C 
HETATM   10  N5  UNL     1     131.681   6.793  71.922  1.00  0.00    -0.336 N 
ATOM     11  H5  UNL     1     132.678   6.795  71.707  1.00  0.00     0.167 HD
ENDROOT
BRANCH   9  12
HETATM   12  O3  UNL     1     131.444   4.775  74.972  1.00  0.00    -0.344 OA
ATOM     13  H3  UNL     1     131.938   4.743  75.782  1.00  0.00     0.219 HD
ENDBRANCH   9  12
BRANCH   9  14
HETATM   14  N4  UNL     1     133.393   5.380  73.658  1.00  0.00    -0.336 N 
ATOM     15  H4  UNL     1     133.738   4.903  72.825  1.00  0.00     0.168 HD
BRANCH  14  16
HETATM   16  C7  UNL     1     134.336   5.967  74.545  1.00  0.00     0.055 C 
HETATM   17  C8  UNL     1     135.304   5.412  75.254  1.00  0.00     0.101 C 
HETATM   18  C9  UNL     1     136.026   6.450  76.035  1.00  0.00     0.302 C 
HETATM   19  O6  UNL     1     135.247   7.591  75.903  1.00  0.00    -0.307 OA
HETATM   20  C10 UNL     1     134.394   7.413  74.847  1.00  0.00     0.278 C 
BRANCH  18  21
HETATM   21  O4  UNL     1     137.318   6.646  75.621  1.00  0.00    -0.340 OA
ATOM     22  H4  UNL     1     137.508   7.546  75.386  1.00  0.00     0.216 HD
ENDBRANCH  18  21
BRANCH  18  23
HETATM   23  O5  UNL     1     135.972   6.065  77.372  1.00  0.00    -0.340 OA
ATOM     24  H5  UNL     1     136.853   6.137  77.718  1.00  0.00     0.216 HD
ENDBRANCH  18  23
BRANCH  20  25
HETATM   25  C11 UNL     1     134.868   8.210  73.695  1.00  0.00     0.209 C 
HETATM   26  O7  UNL     1     136.029   8.722  73.654  1.00  0.00    -0.646 OA
HETATM   27  O8  UNL     1     134.021   8.407  72.623  1.00  0.00    -0.646 OA
ENDBRANCH  20  25
ENDBRANCH  14  16
ENDBRANCH   9  14
BRANCH   1  28
HETATM   28  C1  UNL     1     131.313   8.201  69.906  1.00  0.00     0.444 C 
BRANCH  28  29
HETATM   29  N1  UNL     1     131.186   7.428  68.694  1.00  0.00    -0.043 N 
ATOM     30  H13 UNL     1     131.397   7.981  67.863  1.00  0.00     0.277 HD
ATOM     31  H12 UNL     1     131.929   6.735  68.603  1.00  0.00     0.277 HD
ATOM     32  H11 UNL     1     130.260   7.004  68.646  1.00  0.00     0.277 HD
ENDBRANCH  28  29
BRANCH  28  33
HETATM   33  N2  UNL     1     130.655   9.482  69.747  1.00  0.00    -0.043 N 
ATOM     34  H23 UNL     1     130.591   9.759  68.768  1.00  0.00     0.277 HD
ATOM     35  H22 UNL     1     129.657   9.427  69.952  1.00  0.00     0.277 HD
ATOM     36  H21 UNL     1     131.124  10.188  70.314  1.00  0.00     0.277 HD
ENDBRANCH  28  33
ENDBRANCH   1  28
TORSDOF 9
ENDMDL
MODEL 5
REMARK VINA RESULT: -8.299492931      2.376      2.687
REMARK  9 active torsions:
REMARK  status: ('A' for Active; 'I' for Inactive)
REMARK    1  A    between atoms: N1_1  and  C1_5 
REMARK    2  A    between atoms: C1_5  and  N2_6 
REMARK    3  A    between atoms: C1_5  and  C2_10 
REMARK    4  A    between atoms: C6_18  and  O3_19 
REMARK    5  A    between atoms: C6_18  and  N4_21 
REMARK    6  A    between atoms: N4_21  and  C7_23 
REMARK    7  A    between atoms: C9_25  and  O4_26 
REMARK    8  A    between atoms: C9_25  and  O5_28 
REMARK    9  A    between atoms: C10_31  and  C11_32 
ROOT
HETATM    1  C2  UNL     1     132.245   9.059  71.080  1.00  0.00     0.143 A 
HETATM    2  N3  UNL     1     133.178   9.915  71.299  1.00  0.00    -0.306 N 
ATOM      3  H3  UNL     1     133.303  10.682  70.639  1.00  0.00     0.170 HD
HETATM    4  C3  UNL     1     134.046   9.837  72.426  1.00  0.00     0.299 A 
HETATM    5  O1  UNL     1     134.960  10.653  72.665  1.00  0.00    -0.264 OA
HETATM    6  C4  UNL     1     133.835   8.725  73.343  1.00  0.00     0.270 A 
HETATM    7  O2  UNL     1     134.584   8.607  74.369  1.00  0.00    -0.280 OA
HETATM    8  C5  UNL     1     132.782   7.744  73.112  1.00  0.00     0.141 A 
HETATM    9  C6  UNL     1     132.581   6.742  73.927  1.00  0.00     0.172 C 
HETATM   10  N5  UNL     1     131.983   7.951  71.933  1.00  0.00    -0.336 N 
ATOM     11  H5  UNL     1     131.229   7.303  71.708  1.00  0.00     0.167 HD
ENDROOT
BRANCH   9  12
HETATM   12  O3  UNL     1     133.394   6.614  75.040  1.00  0.00    -0.344 OA
ATOM     13  H3  UNL     1     134.189   6.097  74.970  1.00  0.00     0.219 HD
ENDBRANCH   9  12
BRANCH   9  14
HETATM   14  N4  UNL     1     131.551   5.791  73.691  1.00  0.00    -0.336 N 
ATOM     15  H4  UNL     1     131.771   4.960  73.142  1.00  0.00     0.168 HD
BRANCH  14  16
HETATM   16  C7  UNL     1     130.229   5.948  74.188  1.00  0.00     0.055 C 
HETATM   17  C8  UNL     1     129.789   6.061  75.429  1.00  0.00     0.101 C 
HETATM   18  C9  UNL     1     128.311   6.206  75.438  1.00  0.00     0.302 C 
HETATM   19  O6  UNL     1     127.925   5.928  74.134  1.00  0.00    -0.307 OA
HETATM   20  C10 UNL     1     129.028   6.017  73.328  1.00  0.00     0.278 C 
BRANCH  18  21
HETATM   21  O4  UNL     1     127.885   7.440  75.859  1.00  0.00    -0.340 OA
ATOM     22  H4  UNL     1     127.082   7.411  76.365  1.00  0.00     0.216 HD
ENDBRANCH  18  21
BRANCH  18  23
HETATM   23  O5  UNL     1     127.804   5.190  76.243  1.00  0.00    -0.340 OA
ATOM     24  H5  UNL     1     128.130   5.343  77.122  1.00  0.00     0.216 HD
ENDBRANCH  18  23
BRANCH  20  25
HETATM   25  C11 UNL     1     128.966   7.272  72.548  1.00  0.00     0.209 C 
HETATM   26  O7  UNL     1     128.957   8.415  73.099  1.00  0.00    -0.646 OA
HETATM   27  O8  UNL     1     128.915   7.203  71.170  1.00  0.00    -0.646 OA
ENDBRANCH  20  25
ENDBRANCH  14  16
ENDBRANCH   9  14
BRANCH   1  28
HETATM   28  C1  UNL     1     131.402   9.232  69.883  1.00  0.00     0.444 C 
BRANCH  28  29
HETATM   29  N1  UNL     1     131.136   7.978  69.218  1.00  0.00    -0.043 N 
ATOM     30  H13 UNL     1     130.811   8.114  68.261  1.00  0.00     0.277 HD
ATOM     31  H12 UNL     1     131.994   7.466  69.013  1.00  0.00     0.277 HD
ATOM     32  H11 UNL     1     130.483   7.423  69.770  1.00  0.00     0.277 HD
ENDBRANCH  28  29
BRANCH  28  33
HETATM   33  N2  UNL     1     130.154   9.878  70.237  1.00  0.00    -0.043 N 
ATOM     34  H23 UNL     1     129.427   9.202  70.472  1.00  0.00     0.277 HD
ATOM     35  H22 UNL     1     130.211  10.354  71.137  1.00  0.00     0.277 HD
ATOM     36  H21 UNL     1     129.863  10.507  69.488  1.00  0.00     0.277 HD
ENDBRANCH  28  33
ENDBRANCH   1  28
TORSDOF 9
ENDMDL
