MODEL 1
REMARK VINA RESULT: -9.008190571      0.000      0.000
REMARK  7 active torsions:
REMARK  status: ('A' for Active; 'I' for Inactive)
REMARK       I    between atoms: N1_2  and  C2_4 
REMARK    1  A    between atoms: C2_4  and  C3_6 
REMARK    2  A    between atoms: C3_6  and  O2_7 
REMARK    3  A    between atoms: C3_6  and  N2_9 
REMARK    4  A    between atoms: C7_17  and  N4_18 
REMARK    5  A    between atoms: N6_24  and  C9_25 
REMARK    6  A    between atoms: C10_29  and  C11_30 
REMARK    7  A    between atoms: C11_30  and  O5_31 
ROOT
HETATM    1  N2  UNL     1     130.832   5.920  72.900  1.00  0.00    -0.210 N 
HETATM    2  C4  UNL     1     129.516   6.011  73.085  1.00  0.00     0.284 A 
HETATM    3  O3  UNL     1     128.662   6.141  72.143  1.00  0.00    -0.265 OA
HETATM    4  C5  UNL     1     129.261   5.938  74.433  1.00  0.00     0.148 A 
HETATM    5  C6  UNL     1     128.102   5.979  75.168  1.00  0.00     0.279 A 
HETATM    6  O4  UNL     1     126.979   6.106  74.601  1.00  0.00    -0.266 OA
HETATM    7  N3  UNL     1     128.218   5.880  76.503  1.00  0.00    -0.155 N 
ATOM      8  H3  UNL     1     127.369   5.908  77.068  1.00  0.00     0.187 HD
HETATM    9  C7  UNL     1     129.397   5.745  77.128  1.00  0.00     0.680 A 
HETATM   10  N5  UNL     1     130.514   5.707  76.392  1.00  0.00    -0.174 N 
ATOM     11  H5  UNL     1     131.412   5.603  76.866  1.00  0.00     0.186 HD
HETATM   12  C8  UNL     1     130.499   5.799  75.052  1.00  0.00     0.163 A 
HETATM   13  N6  UNL     1     131.437   5.792  74.068  1.00  0.00    -0.212 N 
ENDROOT
BRANCH  13  14
HETATM   14  C9  UNL     1     132.833   5.663  74.328  1.00  0.00     0.457 C 
HETATM   15  N7  UNL     1     133.716   6.609  73.665  1.00  0.00    -0.000 N 
HETATM   16  C10 UNL     1     134.527   6.367  74.846  1.00  0.00     0.353 C 
ATOM     17  H72 UNL     1     134.056   6.490  72.711  1.00  0.00     0.285 HD
ATOM     18  H71 UNL     1     133.423   7.538  73.362  1.00  0.00     0.285 HD
HETATM   19  O6  UNL     1     133.311   6.196  75.526  1.00  0.00    -0.307 OA
BRANCH  16  20
HETATM   20  C11 UNL     1     135.321   7.554  75.324  1.00  0.00     0.225 C 
BRANCH  20  21
HETATM   21  O5  UNL     1     135.643   7.323  76.662  1.00  0.00    -0.397 OA
ATOM     22  H5  UNL     1     135.373   8.090  77.152  1.00  0.00     0.209 HD
ENDBRANCH  20  21
ENDBRANCH  16  20
ENDBRANCH  13  14
BRANCH   1  23
HETATM   23  C3  UNL     1     131.527   5.954  71.647  1.00  0.00     0.338 C 
BRANCH  23  24
HETATM   24  C2  UNL     1     131.347   7.202  70.883  1.00  0.00     0.268 C 
HETATM   25  N1  UNL     1     131.757   8.478  71.358  1.00  0.00    -0.362 N 
HETATM   26  C1  UNL     1     131.590   9.700  70.629  1.00  0.00     0.149 C 
ATOM     27  H1  UNL     1     132.199   8.525  72.276  1.00  0.00     0.162 HD
HETATM   28  O1  UNL     1     130.806   7.197  69.745  1.00  0.00    -0.269 OA
ENDBRANCH  23  24
BRANCH  23  29
HETATM   29  O2  UNL     1     131.102   4.904  70.798  1.00  0.00    -0.367 OA
ATOM     30  H2  UNL     1     131.599   4.136  71.056  1.00  0.00     0.212 HD
ENDBRANCH  23  29
ENDBRANCH   1  23
BRANCH   9  31
HETATM   31  N4  UNL     1     129.438   5.653  78.436  1.00  0.00    -0.234 N 
ATOM     32  H42 UNL     1     128.688   6.027  79.018  1.00  0.00     0.174 HD
ATOM     33  H41 UNL     1     130.231   5.200  78.890  1.00  0.00     0.174 HD
ENDBRANCH   9  31
TORSDOF 7
ENDMDL
MODEL 2
REMARK VINA RESULT: -8.836990220      3.568      6.039
REMARK  7 active torsions:
REMARK  status: ('A' for Active; 'I' for Inactive)
REMARK       I    between atoms: N1_2  and  C2_4 
REMARK    1  A    between atoms: C2_4  and  C3_6 
REMARK    2  A    between atoms: C3_6  and  O2_7 
REMARK    3  A    between atoms: C3_6  and  N2_9 
REMARK    4  A    between atoms: C7_17  and  N4_18 
REMARK    5  A    between atoms: N6_24  and  C9_25 
REMARK    6  A    between atoms: C10_29  and  C11_30 
REMARK    7  A    between atoms: C11_30  and  O5_31 
ROOT
HETATM    1  N2  UNL     1     134.578   7.402  74.262  1.00  0.00    -0.210 N 
HETATM    2  C4  UNL     1     134.148   6.146  74.165  1.00  0.00     0.284 A 
HETATM    3  O3  UNL     1     134.574   5.179  74.884  1.00  0.00    -0.265 OA
HETATM    4  C5  UNL     1     133.192   6.088  73.179  1.00  0.00     0.148 A 
HETATM    5  C6  UNL     1     132.433   5.062  72.672  1.00  0.00     0.279 A 
HETATM    6  O4  UNL     1     132.548   3.886  73.124  1.00  0.00    -0.266 OA
HETATM    7  N3  UNL     1     131.574   5.364  71.685  1.00  0.00    -0.155 N 
ATOM      8  H3  UNL     1     131.000   4.617  71.294  1.00  0.00     0.187 HD
HETATM    9  C7  UNL     1     131.434   6.602  71.189  1.00  0.00     0.680 A 
HETATM   10  N5  UNL     1     132.183   7.588  71.698  1.00  0.00    -0.174 N 
ATOM     11  H5  UNL     1     132.077   8.531  71.322  1.00  0.00     0.186 HD
HETATM   12  C8  UNL     1     133.069   7.383  72.686  1.00  0.00     0.163 A 
HETATM   13  N6  UNL     1     133.942   8.158  73.383  1.00  0.00    -0.212 N 
ENDROOT
BRANCH  13  14
HETATM   14  C9  UNL     1     134.094   9.557  73.151  1.00  0.00     0.457 C 
HETATM   15  N7  UNL     1     135.005   9.953  72.090  1.00  0.00    -0.000 N 
HETATM   16  C10 UNL     1     134.104  11.090  72.017  1.00  0.00     0.353 C 
ATOM     17  H72 UNL     1     136.014  10.038  72.215  1.00  0.00     0.285 HD
ATOM     18  H71 UNL     1     135.233   9.361  71.291  1.00  0.00     0.285 HD
HETATM   19  O6  UNL     1     133.097  10.191  72.407  1.00  0.00    -0.307 OA
BRANCH  16  20
HETATM   20  C11 UNL     1     133.903  11.653  70.635  1.00  0.00     0.225 C 
BRANCH  20  21
HETATM   21  O5  UNL     1     133.525  10.594  69.809  1.00  0.00    -0.397 OA
ATOM     22  H5  UNL     1     133.277  10.966  68.972  1.00  0.00     0.209 HD
ENDBRANCH  20  21
ENDBRANCH  16  20
ENDBRANCH  13  14
BRANCH   1  23
HETATM   23  C3  UNL     1     135.575   7.901  75.162  1.00  0.00     0.338 C 
BRANCH  23  24
HETATM   24  C2  UNL     1     136.964   7.647  74.737  1.00  0.00     0.268 C 
HETATM   25  N1  UNL     1     137.599   8.347  73.675  1.00  0.00    -0.362 N 
HETATM   26  C1  UNL     1     138.947   8.112  73.249  1.00  0.00     0.149 C 
ATOM     27  H1  UNL     1     137.060   9.062  73.186  1.00  0.00     0.162 HD
HETATM   28  O1  UNL     1     137.670   6.774  75.308  1.00  0.00    -0.269 OA
ENDBRANCH  23  24
BRANCH  23  29
HETATM   29  O2  UNL     1     135.440   7.322  76.446  1.00  0.00    -0.367 OA
ATOM     30  H2  UNL     1     135.590   8.022  77.071  1.00  0.00     0.212 HD
ENDBRANCH  23  29
ENDBRANCH   1  23
BRANCH   9  31
HETATM   31  N4  UNL     1     130.574   6.828  70.224  1.00  0.00    -0.234 N 
ATOM     32  H42 UNL     1     130.878   6.922  69.254  1.00  0.00     0.174 HD
ATOM     33  H41 UNL     1     129.580   6.912  70.436  1.00  0.00     0.174 HD
ENDBRANCH   9  31
TORSDOF 7
ENDMDL
MODEL 3
REMARK VINA RESULT: -8.782900256      2.069      2.192
REMARK  7 active torsions:
REMARK  status: ('A' for Active; 'I' for Inactive)
REMARK       I    between atoms: N1_2  and  C2_4 
REMARK    1  A    between atoms: C2_4  and  C3_6 
REMARK    2  A    between atoms: C3_6  and  O2_7 
REMARK    3  A    between atoms: C3_6  and  N2_9 
REMARK    4  A    between atoms: C7_17  and  N4_18 
REMARK    5  A    between atoms: N6_24  and  C9_25 
REMARK    6  A    between atoms: C10_29  and  C11_30 
REMARK    7  A    between atoms: C11_30  and  O5_31 
ROOT
HETATM    1  N2  UNL     1     129.893   7.297  72.959  1.00  0.00    -0.210 N 
HETATM    2  C4  UNL     1     128.684   6.809  73.229  1.00  0.00     0.284 A 
HETATM    3  O3  UNL     1     127.732   6.725  72.380  1.00  0.00    -0.265 OA
HETATM    4  C5  UNL     1     128.655   6.426  74.549  1.00  0.00     0.148 A 
HETATM    5  C6  UNL     1     127.679   5.870  75.340  1.00  0.00     0.279 A 
HETATM    6  O4  UNL     1     126.533   5.613  74.870  1.00  0.00    -0.266 OA
HETATM    7  N3  UNL     1     127.998   5.617  76.619  1.00  0.00    -0.155 N 
ATOM      8  H3  UNL     1     127.287   5.204  77.224  1.00  0.00     0.187 HD
HETATM    9  C7  UNL     1     129.205   5.880  77.140  1.00  0.00     0.680 A 
HETATM   10  N5  UNL     1     130.142   6.421  76.352  1.00  0.00    -0.174 N 
ATOM     11  H5  UNL     1     131.061   6.621  76.747  1.00  0.00     0.186 HD
HETATM   12  C8  UNL     1     129.917   6.710  75.060  1.00  0.00     0.163 A 
HETATM   13  N6  UNL     1     130.646   7.245  74.044  1.00  0.00    -0.212 N 
ENDROOT
BRANCH  13  14
HETATM   14  C9  UNL     1     132.001   7.660  74.197  1.00  0.00     0.457 C 
HETATM   15  N7  UNL     1     132.899   7.394  73.085  1.00  0.00    -0.000 N 
HETATM   16  C10 UNL     1     133.564   8.578  73.603  1.00  0.00     0.353 C 
ATOM     17  H72 UNL     1     133.369   6.500  72.940  1.00  0.00     0.285 HD
ATOM     18  H71 UNL     1     132.589   7.299  72.118  1.00  0.00     0.285 HD
HETATM   19  O6  UNL     1     132.283   9.011  73.982  1.00  0.00    -0.307 OA
BRANCH  16  20
HETATM   20  C11 UNL     1     134.209   9.451  72.560  1.00  0.00     0.225 C 
BRANCH  20  21
HETATM   21  O5  UNL     1     134.051  10.774  72.976  1.00  0.00    -0.397 OA
ATOM     22  H5  UNL     1     134.828  11.248  72.704  1.00  0.00     0.209 HD
ENDBRANCH  20  21
ENDBRANCH  16  20
ENDBRANCH  13  14
BRANCH   1  23
HETATM   23  C3  UNL     1     130.349   7.812  71.702  1.00  0.00     0.338 C 
BRANCH  23  24
HETATM   24  C2  UNL     1     130.038   9.235  71.476  1.00  0.00     0.268 C 
HETATM   25  N1  UNL     1     131.008  10.271  71.563  1.00  0.00    -0.362 N 
HETATM   26  C1  UNL     1     130.724  11.659  71.346  1.00  0.00     0.149 C 
ATOM     27  H1  UNL     1     131.966  10.010  71.794  1.00  0.00     0.162 HD
HETATM   28  O1  UNL     1     128.870   9.609  71.189  1.00  0.00    -0.269 OA
ENDBRANCH  23  24
BRANCH  23  29
HETATM   29  O2  UNL     1     129.773   7.103  70.620  1.00  0.00    -0.367 OA
ATOM     30  H2  UNL     1     129.697   6.199  70.904  1.00  0.00     0.212 HD
ENDBRANCH  23  29
ENDBRANCH   1  23
BRANCH   9  31
HETATM   31  N4  UNL     1     129.449   5.607  78.400  1.00  0.00    -0.234 N 
ATOM     32  H42 UNL     1     128.789   5.070  78.964  1.00  0.00     0.174 HD
ATOM     33  H41 UNL     1     130.312   5.934  78.835  1.00  0.00     0.174 HD
ENDBRANCH   9  31
TORSDOF 7
ENDMDL
MODEL 4
REMARK VINA RESULT: -8.647138224      2.634      4.809
REMARK  7 active torsions:
REMARK  status: ('A' for Active; 'I' for Inactive)
REMARK       I    between atoms: N1_2  and  C2_4 
REMARK    1  A    between atoms: C2_4  and  C3_6 
REMARK    2  A    between atoms: C3_6  and  O2_7 
REMARK    3  A    between atoms: C3_6  and  N2_9 
REMARK    4  A    between atoms: C7_17  and  N4_18 
REMARK    5  A    between atoms: N6_24  and  C9_25 
REMARK    6  A    between atoms: C10_29  and  C11_30 
REMARK    7  A    between atoms: C11_30  and  O5_31 
ROOT
HETATM    1  N2  UNL     1     132.107   7.034  72.029  1.00  0.00    -0.210 N 
HETATM    2  C4  UNL     1     132.404   5.893  72.649  1.00  0.00     0.284 A 
HETATM    3  O3  UNL     1     131.781   4.791  72.470  1.00  0.00    -0.265 OA
HETATM    4  C5  UNL     1     133.469   6.118  73.487  1.00  0.00     0.148 A 
HETATM    5  C6  UNL     1     134.169   5.308  74.347  1.00  0.00     0.279 A 
HETATM    6  O4  UNL     1     133.866   4.088  74.479  1.00  0.00    -0.266 OA
HETATM    7  N3  UNL     1     135.180   5.868  75.032  1.00  0.00    -0.155 N 
ATOM      8  H3  UNL     1     135.713   5.284  75.675  1.00  0.00     0.187 HD
HETATM    9  C7  UNL     1     135.521   7.159  74.909  1.00  0.00     0.680 A 
HETATM   10  N5  UNL     1     134.826   7.931  74.065  1.00  0.00    -0.174 N 
ATOM     11  H5  UNL     1     135.085   8.914  73.970  1.00  0.00     0.186 HD
HETATM   12  C8  UNL     1     133.800   7.461  73.338  1.00  0.00     0.163 A 
HETATM   13  N6  UNL     1     132.934   7.985  72.430  1.00  0.00    -0.212 N 
ENDROOT
BRANCH  13  14
HETATM   14  C9  UNL     1     132.971   9.350  72.019  1.00  0.00     0.457 C 
HETATM   15  N7  UNL     1     131.938  10.224  72.550  1.00  0.00    -0.000 N 
HETATM   16  C10 UNL     1     132.980  11.222  72.380  1.00  0.00     0.353 C 
ATOM     17  H72 UNL     1     131.005  10.306  72.145  1.00  0.00     0.285 HD
ATOM     18  H71 UNL     1     131.455  10.057  73.433  1.00  0.00     0.285 HD
HETATM   19  O6  UNL     1     133.883  10.185  72.667  1.00  0.00    -0.307 OA
BRANCH  16  20
HETATM   20  C11 UNL     1     132.980  12.321  73.409  1.00  0.00     0.225 C 
BRANCH  20  21
HETATM   21  O5  UNL     1     132.902  11.712  74.662  1.00  0.00    -0.397 OA
ATOM     22  H5  UNL     1     132.589  12.367  75.274  1.00  0.00     0.209 HD
ENDBRANCH  20  21
ENDBRANCH  16  20
ENDBRANCH  13  14
BRANCH   1  23
HETATM   23  C3  UNL     1     131.062   7.244  71.072  1.00  0.00     0.338 C 
BRANCH  23  24
HETATM   24  C2  UNL     1     129.700   7.186  71.633  1.00  0.00     0.268 C 
HETATM   25  N1  UNL     1     129.409   6.693  72.935  1.00  0.00    -0.362 N 
HETATM   26  C1  UNL     1     128.092   6.630  73.495  1.00  0.00     0.149 C 
ATOM     27  H1  UNL     1     130.188   6.364  73.505  1.00  0.00     0.162 HD
HETATM   28  O1  UNL     1     128.704   7.579  70.968  1.00  0.00    -0.269 OA
ENDBRANCH  23  24
BRANCH  23  29
HETATM   29  O2  UNL     1     131.109   6.274  70.042  1.00  0.00    -0.367 OA
ATOM     30  H2  UNL     1     131.174   5.430  70.474  1.00  0.00     0.212 HD
ENDBRANCH  23  29
ENDBRANCH   1  23
BRANCH   9  31
HETATM   31  N4  UNL     1     136.521   7.642  75.609  1.00  0.00    -0.234 N 
ATOM     32  H42 UNL     1     137.479   7.601  75.263  1.00  0.00     0.174 HD
ATOM     33  H41 UNL     1     136.346   8.068  76.520  1.00  0.00     0.174 HD
ENDBRANCH   9  31
TORSDOF 7
ENDMDL
MODEL 5
REMARK VINA RESULT: -8.367019769      3.083      4.284
REMARK  7 active torsions:
REMARK  status: ('A' for Active; 'I' for Inactive)
REMARK       I    between atoms: N1_2  and  C2_4 
REMARK    1  A    between atoms: C2_4  and  C3_6 
REMARK    2  A    between atoms: C3_6  and  O2_7 
REMARK    3  A    between atoms: C3_6  and  N2_9 
REMARK    4  A    between atoms: C7_17  and  N4_18 
REMARK    5  A    between atoms: N6_24  and  C9_25 
REMARK    6  A    between atoms: C10_29  and  C11_30 
REMARK    7  A    between atoms: C11_30  and  O5_31 
ROOT
HETATM    1  N2  UNL     1     131.733   9.896  72.760  1.00  0.00    -0.210 N 
HETATM    2  C4  UNL     1     130.482   9.777  72.319  1.00  0.00     0.284 A 
HETATM    3  O3  UNL     1     129.691  10.760  72.118  1.00  0.00    -0.265 OA
HETATM    4  C5  UNL     1     130.214   8.443  72.128  1.00  0.00     0.148 A 
HETATM    5  C6  UNL     1     129.100   7.766  71.694  1.00  0.00     0.279 A 
HETATM    6  O4  UNL     1     128.046   8.389  71.375  1.00  0.00    -0.266 OA
HETATM    7  N3  UNL     1     129.183   6.428  71.625  1.00  0.00    -0.155 N 
ATOM      8  H3  UNL     1     128.367   5.906  71.305  1.00  0.00     0.187 HD
HETATM    9  C7  UNL     1     130.288   5.744  71.957  1.00  0.00     0.680 A 
HETATM   10  N5  UNL     1     131.363   6.423  72.377  1.00  0.00    -0.174 N 
ATOM     11  H5  UNL     1     132.205   5.904  72.629  1.00  0.00     0.186 HD
HETATM   12  C8  UNL     1     131.375   7.762  72.479  1.00  0.00     0.163 A 
HETATM   13  N6  UNL     1     132.284   8.698  72.862  1.00  0.00    -0.212 N 
ENDROOT
BRANCH  13  14
HETATM   14  C9  UNL     1     133.603   8.369  73.291  1.00  0.00     0.457 C 
HETATM   15  N7  UNL     1     133.796   8.153  74.716  1.00  0.00    -0.000 N 
HETATM   16  C10 UNL     1     134.849   7.275  74.233  1.00  0.00     0.353 C 
ATOM     17  H72 UNL     1     133.951   8.907  75.385  1.00  0.00     0.285 HD
ATOM     18  H71 UNL     1     133.054   7.850  75.347  1.00  0.00     0.285 HD
HETATM   19  O6  UNL     1     134.015   7.045  73.127  1.00  0.00    -0.307 OA
BRANCH  16  20
HETATM   20  C11 UNL     1     135.087   6.048  75.072  1.00  0.00     0.225 C 
BRANCH  20  21
HETATM   21  O5  UNL     1     135.308   6.480  76.380  1.00  0.00    -0.397 OA
ATOM     22  H5  UNL     1     135.999   7.130  76.348  1.00  0.00     0.209 HD
ENDBRANCH  20  21
ENDBRANCH  16  20
ENDBRANCH  13  14
BRANCH   1  23
HETATM   23  C3  UNL     1     132.415  11.112  73.089  1.00  0.00     0.338 C 
BRANCH  23  24
HETATM   24  C2  UNL     1     133.602  11.390  72.260  1.00  0.00     0.268 C 
HETATM   25  N1  UNL     1     133.648  11.163  70.858  1.00  0.00    -0.362 N 
HETATM   26  C1  UNL     1     134.793  11.428  70.037  1.00  0.00     0.149 C 
ATOM     27  H1  UNL     1     132.814  10.789  70.407  1.00  0.00     0.162 HD
HETATM   28  O1  UNL     1     134.658  11.852  72.769  1.00  0.00    -0.269 OA
ENDBRANCH  23  24
BRANCH  23  29
HETATM   29  O2  UNL     1     132.862  11.100  74.432  1.00  0.00    -0.367 OA
ATOM     30  H2  UNL     1     132.961  10.185  74.672  1.00  0.00     0.212 HD
ENDBRANCH  23  29
ENDBRANCH   1  23
BRANCH   9  31
HETATM   31  N4  UNL     1     130.301   4.435  71.865  1.00  0.00    -0.234 N 
ATOM     32  H42 UNL     1     130.598   3.966  71.010  1.00  0.00     0.174 HD
ATOM     33  H41 UNL     1     130.009   3.866  72.661  1.00  0.00     0.174 HD
ENDBRANCH   9  31
TORSDOF 7
ENDMDL
