MODEL 1
REMARK VINA RESULT: -8.354923688      0.000      0.000
REMARK  11 active torsions:
REMARK  status: ('A' for Active; 'I' for Inactive)
REMARK    1  A    between atoms: C5_6  and  C6_7 
REMARK    2  A    between atoms: C6_7  and  O2_8 
REMARK    3  A    between atoms: C6_7  and  O3_10 
REMARK    4  A    between atoms: C8_14  and  N1_15 
REMARK    5  A    between atoms: C8_14  and  C9_19 
REMARK    6  A    between atoms: C9_19  and  N3_23 
REMARK    7  A    between atoms: N3_23  and  N4_25 
REMARK    8  A    between atoms: C11_30  and  O6_31 
REMARK    9  A    between atoms: C11_30  and  C12_33 
REMARK   10  A    between atoms: C12_33  and  O7_34 
REMARK   11  A    between atoms: C12_33  and  O8_36 
ROOT
HETATM    1  C1  UNL     1     133.668   5.347  74.684  1.00  0.00     0.048 C 
HETATM    2  C2  UNL     1     133.243   6.769  74.535  1.00  0.00     0.084 C 
HETATM    3  C3  UNL     1     134.561   7.564  74.730  1.00  0.00     0.048 C 
HETATM    4  O1  UNL     1     132.420   7.120  75.572  1.00  0.00    -0.366 OA
HETATM    5  C4  UNL     1     131.263   7.799  75.232  1.00  0.00     0.206 C 
HETATM    6  C5  UNL     1     130.148   6.863  74.765  1.00  0.00     0.148 C 
HETATM    7  C7  UNL     1     130.448   6.288  73.452  1.00  0.00     0.184 C 
HETATM    8  O4  UNL     1     129.548   5.604  73.004  1.00  0.00    -0.294 OA
HETATM    9  C8  UNL     1     131.629   6.398  72.600  1.00  0.00     0.270 C 
HETATM   10  C10 UNL     1     132.753   7.191  73.193  1.00  0.00     0.210 C 
HETATM   11  O5  UNL     1     132.458   8.551  73.291  1.00  0.00    -0.337 OA
HETATM   12  C11 UNL     1     131.472   8.873  74.183  1.00  0.00     0.241 C 
ENDROOT
BRANCH   9  13
HETATM   13  N1  UNL     1     131.214   7.139  71.388  1.00  0.00    -0.053 N 
ATOM     14  H13 UNL     1     130.800   6.541  70.674  1.00  0.00     0.276 HD
ATOM     15  H12 UNL     1     130.403   7.737  71.541  1.00  0.00     0.276 HD
ATOM     16  H11 UNL     1     132.034   7.649  71.060  1.00  0.00     0.276 HD
ENDBRANCH   9  13
BRANCH   9  17
HETATM   17  C9  UNL     1     132.065   5.094  72.063  1.00  0.00     0.136 C 
HETATM   18  N2  UNL     1     132.879   4.871  71.124  1.00  0.00    -0.385 N 
ATOM     19  H22 UNL     1     133.273   5.712  70.701  1.00  0.00     0.157 HD
ATOM     20  H21 UNL     1     133.179   3.970  70.752  1.00  0.00     0.157 HD
BRANCH  17  21
HETATM   21  N3  UNL     1     131.504   3.900  72.664  1.00  0.00    -0.293 N 
ATOM     22  H3  UNL     1     131.638   3.696  73.654  1.00  0.00     0.187 HD
BRANCH  21  23
HETATM   23  N4  UNL     1     130.773   3.036  71.841  1.00  0.00    -0.344 N 
ATOM     24  H42 UNL     1     129.937   3.370  71.363  1.00  0.00     0.176 HD
ATOM     25  H41 UNL     1     131.106   2.076  71.743  1.00  0.00     0.176 HD
ENDBRANCH  21  23
ENDBRANCH  17  21
ENDBRANCH   9  17
BRANCH   6  26
HETATM   26  C6  UNL     1     129.642   5.961  75.812  1.00  0.00     0.267 C 
BRANCH  26  27
HETATM   27  O2  UNL     1     128.308   5.745  75.915  1.00  0.00    -0.371 OA
ATOM     28  H2  UNL     1     127.873   5.205  75.266  1.00  0.00     0.212 HD
ENDBRANCH  26  27
BRANCH  26  29
HETATM   29  O3  UNL     1     130.249   4.687  75.646  1.00  0.00    -0.371 OA
ATOM     30  H3  UNL     1     130.684   4.449  76.457  1.00  0.00     0.212 HD
ENDBRANCH  26  29
ENDBRANCH   6  26
BRANCH  12  31
HETATM   31  O6  UNL     1     130.226   8.955  73.491  1.00  0.00    -0.360 OA
ATOM     32  H6  UNL     1     130.352   9.639  72.843  1.00  0.00     0.213 HD
ENDBRANCH  12  31
BRANCH  12  33
HETATM   33  C12 UNL     1     131.622  10.219  74.844  1.00  0.00     0.320 C 
BRANCH  33  34
HETATM   34  O7  UNL     1     131.867  10.050  76.231  1.00  0.00    -0.366 OA
ATOM     35  H7  UNL     1     132.766   9.778  76.369  1.00  0.00     0.212 HD
ENDBRANCH  33  34
BRANCH  33  36
HETATM   36  O8  UNL     1     130.613  11.125  74.598  1.00  0.00    -0.366 OA
ATOM     37  H8  UNL     1     129.847  11.052  75.154  1.00  0.00     0.212 HD
ENDBRANCH  33  36
ENDBRANCH  12  33
TORSDOF 11
ENDMDL
MODEL 2
REMARK VINA RESULT: -8.071019546      2.394      4.494
REMARK  11 active torsions:
REMARK  status: ('A' for Active; 'I' for Inactive)
REMARK    1  A    between atoms: C5_6  and  C6_7 
REMARK    2  A    between atoms: C6_7  and  O2_8 
REMARK    3  A    between atoms: C6_7  and  O3_10 
REMARK    4  A    between atoms: C8_14  and  N1_15 
REMARK    5  A    between atoms: C8_14  and  C9_19 
REMARK    6  A    between atoms: C9_19  and  N3_23 
REMARK    7  A    between atoms: N3_23  and  N4_25 
REMARK    8  A    between atoms: C11_30  and  O6_31 
REMARK    9  A    between atoms: C11_30  and  C12_33 
REMARK   10  A    between atoms: C12_33  and  O7_34 
REMARK   11  A    between atoms: C12_33  and  O8_36 
ROOT
HETATM    1  C1  UNL     1     130.060   7.611  71.870  1.00  0.00     0.048 C 
HETATM    2  C2  UNL     1     130.891   8.111  73.004  1.00  0.00     0.084 C 
HETATM    3  C3  UNL     1     130.112   7.635  74.259  1.00  0.00     0.048 C 
HETATM    4  O1  UNL     1     130.869   9.480  73.028  1.00  0.00    -0.366 OA
HETATM    5  C4  UNL     1     132.092  10.108  73.186  1.00  0.00     0.206 C 
HETATM    6  C5  UNL     1     132.869  10.220  71.874  1.00  0.00     0.148 C 
HETATM    7  C7  UNL     1     133.360   8.913  71.430  1.00  0.00     0.184 C 
HETATM    8  O4  UNL     1     134.056   8.968  70.435  1.00  0.00    -0.294 OA
HETATM    9  C8  UNL     1     133.158   7.573  71.976  1.00  0.00     0.270 C 
HETATM   10  C10 UNL     1     132.247   7.515  73.163  1.00  0.00     0.210 C 
HETATM   11  O5  UNL     1     132.804   8.104  74.298  1.00  0.00    -0.337 OA
HETATM   12  C11 UNL     1     132.981   9.459  74.228  1.00  0.00     0.241 C 
ENDROOT
BRANCH   9  13
HETATM   13  N1  UNL     1     134.475   7.106  72.461  1.00  0.00    -0.053 N 
ATOM     14  H13 UNL     1     135.052   7.856  72.842  1.00  0.00     0.276 HD
ATOM     15  H12 UNL     1     134.415   6.547  73.312  1.00  0.00     0.276 HD
ATOM     16  H11 UNL     1     134.917   6.613  71.686  1.00  0.00     0.276 HD
ENDBRANCH   9  13
BRANCH   9  17
HETATM   17  C9  UNL     1     132.814   6.583  70.937  1.00  0.00     0.136 C 
HETATM   18  N2  UNL     1     132.942   5.329  70.983  1.00  0.00    -0.385 N 
ATOM     19  H22 UNL     1     133.331   4.978  71.859  1.00  0.00     0.157 HD
ATOM     20  H21 UNL     1     132.705   4.644  70.265  1.00  0.00     0.157 HD
BRANCH  17  21
HETATM   21  N3  UNL     1     132.261   7.082  69.692  1.00  0.00    -0.293 N 
ATOM     22  H3  UNL     1     131.319   7.470  69.653  1.00  0.00     0.187 HD
BRANCH  21  23
HETATM   23  N4  UNL     1     133.062   7.014  68.547  1.00  0.00    -0.344 N 
ATOM     24  H42 UNL     1     133.002   7.743  67.837  1.00  0.00     0.176 HD
ATOM     25  H41 UNL     1     133.696   6.219  68.456  1.00  0.00     0.176 HD
ENDBRANCH  21  23
ENDBRANCH  17  21
ENDBRANCH   9  17
BRANCH   6  26
HETATM   26  C6  UNL     1     132.237  11.094  70.873  1.00  0.00     0.267 C 
BRANCH  26  27
HETATM   27  O2  UNL     1     133.016  11.874  70.086  1.00  0.00    -0.371 OA
ATOM     28  H2  UNL     1     133.761  12.324  70.467  1.00  0.00     0.212 HD
ENDBRANCH  26  27
BRANCH  26  29
HETATM   29  O3  UNL     1     131.452  10.291  70.001  1.00  0.00    -0.371 OA
ATOM     30  H3  UNL     1     130.542  10.551  70.086  1.00  0.00     0.212 HD
ENDBRANCH  26  29
ENDBRANCH   6  26
BRANCH  12  31
HETATM   31  O6  UNL     1     134.313   9.732  73.793  1.00  0.00    -0.360 OA
ATOM     32  H6  UNL     1     134.283   9.648  72.847  1.00  0.00     0.213 HD
ENDBRANCH  12  31
BRANCH  12  33
HETATM   33  C12 UNL     1     132.858  10.189  75.540  1.00  0.00     0.320 C 
BRANCH  33  34
HETATM   34  O7  UNL     1     131.546  10.037  76.055  1.00  0.00    -0.366 OA
ATOM     35  H7  UNL     1     130.932  10.535  75.528  1.00  0.00     0.212 HD
ENDBRANCH  33  34
BRANCH  33  36
HETATM   36  O8  UNL     1     133.269  11.504  75.536  1.00  0.00    -0.366 OA
ATOM     37  H8  UNL     1     133.621  11.830  76.356  1.00  0.00     0.212 HD
ENDBRANCH  33  36
ENDBRANCH  12  33
TORSDOF 11
ENDMDL
MODEL 3
REMARK VINA RESULT: -7.930840184      1.711      2.318
REMARK  11 active torsions:
REMARK  status: ('A' for Active; 'I' for Inactive)
REMARK    1  A    between atoms: C5_6  and  C6_7 
REMARK    2  A    between atoms: C6_7  and  O2_8 
REMARK    3  A    between atoms: C6_7  and  O3_10 
REMARK    4  A    between atoms: C8_14  and  N1_15 
REMARK    5  A    between atoms: C8_14  and  C9_19 
REMARK    6  A    between atoms: C9_19  and  N3_23 
REMARK    7  A    between atoms: N3_23  and  N4_25 
REMARK    8  A    between atoms: C11_30  and  O6_31 
REMARK    9  A    between atoms: C11_30  and  C12_33 
REMARK   10  A    between atoms: C12_33  and  O7_34 
REMARK   11  A    between atoms: C12_33  and  O8_36 
ROOT
HETATM    1  C1  UNL     1     134.719   6.797  72.778  1.00  0.00     0.048 C 
HETATM    2  C2  UNL     1     133.953   7.948  73.339  1.00  0.00     0.084 C 
HETATM    3  C3  UNL     1     135.053   8.994  73.657  1.00  0.00     0.048 C 
HETATM    4  O1  UNL     1     133.394   7.594  74.538  1.00  0.00    -0.366 OA
HETATM    5  C4  UNL     1     132.064   7.933  74.717  1.00  0.00     0.206 C 
HETATM    6  C5  UNL     1     131.110   6.931  74.065  1.00  0.00     0.148 C 
HETATM    7  C7  UNL     1     131.156   7.023  72.603  1.00  0.00     0.184 C 
HETATM    8  O4  UNL     1     130.350   6.303  72.046  1.00  0.00    -0.294 OA
HETATM    9  C8  UNL     1     131.994   7.824  71.715  1.00  0.00     0.270 C 
HETATM   10  C10 UNL     1     133.024   8.657  72.414  1.00  0.00     0.210 C 
HETATM   11  O5  UNL     1     132.463   9.703  73.147  1.00  0.00    -0.337 OA
HETATM   12  C11 UNL     1     131.718   9.326  74.230  1.00  0.00     0.241 C 
ENDROOT
BRANCH   9  13
HETATM   13  N1  UNL     1     131.099   8.786  71.035  1.00  0.00    -0.053 N 
ATOM     14  H13 UNL     1     130.783   9.540  71.643  1.00  0.00     0.276 HD
ATOM     15  H12 UNL     1     131.581   9.367  70.349  1.00  0.00     0.276 HD
ATOM     16  H11 UNL     1     130.333   8.243  70.636  1.00  0.00     0.276 HD
ENDBRANCH   9  13
BRANCH   9  17
HETATM   17  C9  UNL     1     132.552   7.037  70.598  1.00  0.00     0.136 C 
HETATM   18  N2  UNL     1     132.686   5.785  70.518  1.00  0.00    -0.385 N 
ATOM     19  H22 UNL     1     132.359   5.274  71.339  1.00  0.00     0.157 HD
ATOM     20  H21 UNL     1     133.071   5.241  69.746  1.00  0.00     0.157 HD
BRANCH  17  21
HETATM   21  N3  UNL     1     133.016   7.763  69.432  1.00  0.00    -0.293 N 
ATOM     22  H3  UNL     1     133.315   8.736  69.502  1.00  0.00     0.187 HD
BRANCH  21  23
HETATM   23  N4  UNL     1     133.042   7.086  68.208  1.00  0.00    -0.344 N 
ATOM     24  H42 UNL     1     133.670   6.294  68.075  1.00  0.00     0.176 HD
ATOM     25  H41 UNL     1     132.418   7.413  67.469  1.00  0.00     0.176 HD
ENDBRANCH  21  23
ENDBRANCH  17  21
ENDBRANCH   9  17
BRANCH   6  26
HETATM   26  C6  UNL     1     131.138   5.590  74.671  1.00  0.00     0.267 C 
BRANCH  26  27
HETATM   27  O2  UNL     1     130.014   4.835  74.666  1.00  0.00    -0.371 OA
ATOM     28  H2  UNL     1     129.816   4.299  73.907  1.00  0.00     0.212 HD
ENDBRANCH  26  27
BRANCH  26  29
HETATM   29  O3  UNL     1     132.147   4.823  74.028  1.00  0.00    -0.371 OA
ATOM     30  H3  UNL     1     131.764   4.004  73.733  1.00  0.00     0.212 HD
ENDBRANCH  26  29
ENDBRANCH   6  26
BRANCH  12  31
HETATM   31  O6  UNL     1     130.345   9.249  73.848  1.00  0.00    -0.360 OA
ATOM     32  H6  UNL     1     130.161  10.084  73.433  1.00  0.00     0.213 HD
ENDBRANCH  12  31
BRANCH  12  33
HETATM   33  C12 UNL     1     131.732  10.294  75.385  1.00  0.00     0.320 C 
BRANCH  33  34
HETATM   34  O7  UNL     1     132.680  11.320  75.142  1.00  0.00    -0.366 OA
ATOM     35  H7  UNL     1     132.362  12.144  75.492  1.00  0.00     0.212 HD
ENDBRANCH  33  34
BRANCH  33  36
HETATM   36  O8  UNL     1     131.874   9.735  76.636  1.00  0.00    -0.366 OA
ATOM     37  H8  UNL     1     131.303  10.082  77.311  1.00  0.00     0.212 HD
ENDBRANCH  33  36
ENDBRANCH  12  33
TORSDOF 11
ENDMDL
MODEL 4
REMARK VINA RESULT: -7.868622705      2.836      5.089
REMARK  11 active torsions:
REMARK  status: ('A' for Active; 'I' for Inactive)
REMARK    1  A    between atoms: C5_6  and  C6_7 
REMARK    2  A    between atoms: C6_7  and  O2_8 
REMARK    3  A    between atoms: C6_7  and  O3_10 
REMARK    4  A    between atoms: C8_14  and  N1_15 
REMARK    5  A    between atoms: C8_14  and  C9_19 
REMARK    6  A    between atoms: C9_19  and  N3_23 
REMARK    7  A    between atoms: N3_23  and  N4_25 
REMARK    8  A    between atoms: C11_30  and  O6_31 
REMARK    9  A    between atoms: C11_30  and  C12_33 
REMARK   10  A    between atoms: C12_33  and  O7_34 
REMARK   11  A    between atoms: C12_33  and  O8_36 
ROOT
HETATM    1  C1  UNL     1     133.750   9.141  72.554  1.00  0.00     0.048 C 
HETATM    2  C2  UNL     1     133.373   7.699  72.622  1.00  0.00     0.084 C 
HETATM    3  C3  UNL     1     134.741   6.967  72.636  1.00  0.00     0.048 C 
HETATM    4  O1  UNL     1     132.744   7.327  71.464  1.00  0.00    -0.366 OA
HETATM    5  C4  UNL     1     131.581   6.592  71.608  1.00  0.00     0.206 C 
HETATM    6  C5  UNL     1     130.363   7.470  71.896  1.00  0.00     0.148 C 
HETATM    7  C7  UNL     1     130.421   8.039  73.245  1.00  0.00     0.184 C 
HETATM    8  O4  UNL     1     129.431   8.675  73.547  1.00  0.00    -0.294 OA
HETATM    9  C8  UNL     1     131.454   7.968  74.275  1.00  0.00     0.270 C 
HETATM   10  C10 UNL     1     132.694   7.235  73.865  1.00  0.00     0.210 C 
HETATM   11  O5  UNL     1     132.483   5.866  73.710  1.00  0.00    -0.337 OA
HETATM   12  C11 UNL     1     131.669   5.513  72.669  1.00  0.00     0.241 C 
ENDROOT
BRANCH   9  13
HETATM   13  N1  UNL     1     130.886   7.192  75.399  1.00  0.00    -0.053 N 
ATOM     14  H13 UNL     1     130.814   7.729  76.262  1.00  0.00     0.276 HD
ATOM     15  H12 UNL     1     129.891   6.994  75.288  1.00  0.00     0.276 HD
ATOM     16  H11 UNL     1     131.456   6.351  75.494  1.00  0.00     0.276 HD
ENDBRANCH   9  13
BRANCH   9  17
HETATM   17  C9  UNL     1     131.737   9.282  74.885  1.00  0.00     0.136 C 
HETATM   18  N2  UNL     1     131.297  10.413  74.538  1.00  0.00    -0.385 N 
ATOM     19  H22 UNL     1     130.667  10.391  73.736  1.00  0.00     0.157 HD
ATOM     20  H21 UNL     1     131.493  11.321  74.960  1.00  0.00     0.157 HD
BRANCH  17  21
HETATM   21  N3  UNL     1     132.633   9.314  76.025  1.00  0.00    -0.293 N 
ATOM     22  H3  UNL     1     133.226   8.516  76.251  1.00  0.00     0.187 HD
BRANCH  21  23
HETATM   23  N4  UNL     1     132.656  10.475  76.806  1.00  0.00    -0.344 N 
ATOM     24  H42 UNL     1     133.045  11.338  76.427  1.00  0.00     0.176 HD
ATOM     25  H41 UNL     1     132.276  10.421  77.751  1.00  0.00     0.176 HD
ENDBRANCH  21  23
ENDBRANCH  17  21
ENDBRANCH   9  17
BRANCH   6  26
HETATM   26  C6  UNL     1     129.990   8.364  70.788  1.00  0.00     0.267 C 
BRANCH  26  27
HETATM   27  O2  UNL     1     128.688   8.695  70.611  1.00  0.00    -0.371 OA
ATOM     28  H2  UNL     1     128.141   8.152  70.055  1.00  0.00     0.212 HD
ENDBRANCH  26  27
BRANCH  26  29
HETATM   29  O3  UNL     1     130.704   9.584  70.930  1.00  0.00    -0.371 OA
ATOM     30  H3  UNL     1     131.000   9.661  71.829  1.00  0.00     0.212 HD
ENDBRANCH  26  29
ENDBRANCH   6  26
BRANCH  12  31
HETATM   31  O6  UNL     1     130.333   5.365  73.151  1.00  0.00    -0.360 OA
ATOM     32  H6  UNL     1     129.945   4.700  72.593  1.00  0.00     0.213 HD
ENDBRANCH  12  31
BRANCH  12  33
HETATM   33  C12 UNL     1     131.985   4.185  72.030  1.00  0.00     0.320 C 
BRANCH  33  34
HETATM   34  O7  UNL     1     132.887   4.372  70.952  1.00  0.00    -0.366 OA
ATOM     35  H7  UNL     1     133.518   3.662  70.932  1.00  0.00     0.212 HD
ENDBRANCH  33  34
BRANCH  33  36
HETATM   36  O8  UNL     1     130.899   3.414  71.677  1.00  0.00    -0.366 OA
ATOM     37  H8  UNL     1     130.123   3.523  72.214  1.00  0.00     0.212 HD
ENDBRANCH  33  36
ENDBRANCH  12  33
TORSDOF 11
ENDMDL
MODEL 5
REMARK VINA RESULT: -7.859998817      2.860      5.225
REMARK  11 active torsions:
REMARK  status: ('A' for Active; 'I' for Inactive)
REMARK    1  A    between atoms: C5_6  and  C6_7 
REMARK    2  A    between atoms: C6_7  and  O2_8 
REMARK    3  A    between atoms: C6_7  and  O3_10 
REMARK    4  A    between atoms: C8_14  and  N1_15 
REMARK    5  A    between atoms: C8_14  and  C9_19 
REMARK    6  A    between atoms: C9_19  and  N3_23 
REMARK    7  A    between atoms: N3_23  and  N4_25 
REMARK    8  A    between atoms: C11_30  and  O6_31 
REMARK    9  A    between atoms: C11_30  and  C12_33 
REMARK   10  A    between atoms: C12_33  and  O7_34 
REMARK   11  A    between atoms: C12_33  and  O8_36 
ROOT
HETATM    1  C1  UNL     1     134.275   8.132  73.853  1.00  0.00     0.048 C 
HETATM    2  C2  UNL     1     133.313   6.995  73.760  1.00  0.00     0.084 C 
HETATM    3  C3  UNL     1     133.643   6.138  75.010  1.00  0.00     0.048 C 
HETATM    4  O1  UNL     1     133.611   6.222  72.669  1.00  0.00    -0.366 OA
HETATM    5  C4  UNL     1     132.544   5.864  71.864  1.00  0.00     0.206 C 
HETATM    6  C5  UNL     1     132.155   6.967  70.879  1.00  0.00     0.148 C 
HETATM    7  C7  UNL     1     131.528   8.100  71.566  1.00  0.00     0.184 C 
HETATM    8  O4  UNL     1     131.125   8.963  70.811  1.00  0.00    -0.294 OA
HETATM    9  C8  UNL     1     131.308   8.361  72.986  1.00  0.00     0.270 C 
HETATM   10  C10 UNL     1     131.867   7.319  73.906  1.00  0.00     0.210 C 
HETATM   11  O5  UNL     1     131.182   6.107  73.824  1.00  0.00    -0.337 OA
HETATM   12  C11 UNL     1     131.311   5.440  72.637  1.00  0.00     0.241 C 
ENDROOT
BRANCH   9  13
HETATM   13  N1  UNL     1     129.845   8.341  73.203  1.00  0.00    -0.053 N 
ATOM     14  H13 UNL     1     129.515   7.479  73.636  1.00  0.00     0.276 HD
ATOM     15  H12 UNL     1     129.538   8.979  73.936  1.00  0.00     0.276 HD
ATOM     16  H11 UNL     1     129.411   8.528  72.299  1.00  0.00     0.276 HD
ENDBRANCH   9  13
BRANCH   9  17
HETATM   17  C9  UNL     1     131.685   9.734  73.375  1.00  0.00     0.136 C 
HETATM   18  N2  UNL     1     132.484  10.518  72.791  1.00  0.00    -0.385 N 
ATOM     19  H22 UNL     1     132.907  10.133  71.946  1.00  0.00     0.157 HD
ATOM     20  H21 UNL     1     132.745  11.466  73.060  1.00  0.00     0.157 HD
BRANCH  17  21
HETATM   21  N3  UNL     1     131.083  10.281  74.576  1.00  0.00    -0.293 N 
ATOM     22  H3  UNL     1     130.132  10.649  74.567  1.00  0.00     0.187 HD
BRANCH  21  23
HETATM   23  N4  UNL     1     131.849  10.285  75.747  1.00  0.00    -0.344 N 
ATOM     24  H42 UNL     1     131.466   9.899  76.610  1.00  0.00     0.176 HD
ATOM     25  H41 UNL     1     132.788  10.682  75.701  1.00  0.00     0.176 HD
ENDBRANCH  21  23
ENDBRANCH  17  21
ENDBRANCH   9  17
BRANCH   6  26
HETATM   26  C6  UNL     1     133.180   7.259  69.866  1.00  0.00     0.267 C 
BRANCH  26  27
HETATM   27  O2  UNL     1     132.816   7.377  68.566  1.00  0.00    -0.371 OA
ATOM     28  H2  UNL     1     131.951   7.710  68.354  1.00  0.00     0.212 HD
ENDBRANCH  26  27
BRANCH  26  29
HETATM   29  O3  UNL     1     133.834   8.471  70.217  1.00  0.00    -0.371 OA
ATOM     30  H3  UNL     1     133.178   9.152  70.318  1.00  0.00     0.212 HD
ENDBRANCH  26  29
ENDBRANCH   6  26
BRANCH  12  31
HETATM   31  O6  UNL     1     130.214   5.779  71.789  1.00  0.00    -0.360 OA
ATOM     32  H6  UNL     1     130.613   6.040  70.967  1.00  0.00     0.213 HD
ENDBRANCH  12  31
BRANCH  12  33
HETATM   33  C12 UNL     1     131.256   3.937  72.738  1.00  0.00     0.320 C 
BRANCH  33  34
HETATM   34  O7  UNL     1     132.476   3.445  73.268  1.00  0.00    -0.366 OA
ATOM     35  H7  UNL     1     132.379   3.275  74.198  1.00  0.00     0.212 HD
ENDBRANCH  33  34
BRANCH  33  36
HETATM   36  O8  UNL     1     130.877   3.272  71.593  1.00  0.00    -0.366 OA
ATOM     37  H8  UNL     1     130.567   2.382  71.715  1.00  0.00     0.212 HD
ENDBRANCH  33  36
ENDBRANCH  12  33
TORSDOF 11
ENDMDL
