MODEL 1
REMARK VINA RESULT: -8.670174172      0.000      0.000
REMARK  9 active torsions:
REMARK  status: ('A' for Active; 'I' for Inactive)
REMARK    1  A    between atoms: C3_3  and  N1_4 
REMARK    2  A    between atoms: N1_4  and  C4_6 
REMARK    3  A    between atoms: N3_9  and  O1_10 
REMARK    4  A    between atoms: C5_12  and  N4_13 
REMARK       I    between atoms: N4_13  and  C6_15 
REMARK       I    between atoms: C6_15  and  N5_17 
REMARK    5  A    between atoms: N5_17  and  N6_19 
REMARK    6  A    between atoms: N6_19  and  N7_20 
REMARK    7  A    between atoms: N7_20  and  N8_21 
REMARK    8  A    between atoms: C8_30  and  O4_31 
REMARK    9  A    between atoms: C9_33  and  O5_34 
ROOT
HETATM    1  C4  UNL     1     135.909   5.956  74.745  1.00  0.00     0.712 A 
HETATM    2  N2  UNL     1     134.953   5.289  75.379  1.00  0.00    -0.089 N 
ATOM      3  H2  UNL     1     135.154   4.855  76.280  1.00  0.00     0.209 HD
HETATM    4  N3  UNL     1     133.752   5.182  74.860  1.00  0.00     0.032 N 
HETATM    5  C5  UNL     1     133.410   5.737  73.659  1.00  0.00     0.743 A 
HETATM    6  N9  UNL     1     134.387   6.397  73.043  1.00  0.00    -0.114 N 
ATOM      7  H9  UNL     1     134.187   6.829  72.141  1.00  0.00     0.206 HD
HETATM    8  N10 UNL     1     135.595   6.520  73.540  1.00  0.00    -0.116 N 
ATOM      9  H10 UNL     1     136.305   7.040  73.024  1.00  0.00     0.206 HD
ENDROOT
BRANCH   1  10
HETATM   10  N1  UNL     1     137.075   6.084  75.235  1.00  0.00    -0.197 N 
ATOM     11  H1  UNL     1     137.578   5.242  75.513  1.00  0.00     0.180 HD
BRANCH  10  12
HETATM   12  C3  UNL     1     137.719   7.345  75.418  1.00  0.00     0.244 C 
HETATM   13  C2  UNL     1     139.194   7.283  75.266  1.00  0.00     0.062 C 
HETATM   14  C1  UNL     1     139.636   7.968  73.987  1.00  0.00     0.017 C 
HETATM   15  C9  UNL     1     139.823   8.030  76.462  1.00  0.00     0.156 C 
HETATM   16  C8  UNL     1     139.542   7.188  77.683  1.00  0.00     0.171 C 
HETATM   17  C7  UNL     1     138.081   6.770  77.565  1.00  0.00     0.204 C 
HETATM   18  O3  UNL     1     137.429   7.732  76.763  1.00  0.00    -0.363 OA
BRANCH  15  19
HETATM   19  O5  UNL     1     141.208   8.147  76.285  1.00  0.00    -0.392 OA
ATOM     20  H5  UNL     1     141.465   9.061  76.313  1.00  0.00     0.210 HD
ENDBRANCH  15  19
BRANCH  16  21
HETATM   21  O4  UNL     1     140.338   6.061  77.599  1.00  0.00    -0.391 OA
ATOM     22  H4  UNL     1     140.397   5.793  76.690  1.00  0.00     0.210 HD
ENDBRANCH  16  21
ENDBRANCH  10  12
ENDBRANCH   1  10
BRANCH   4  23
HETATM   23  O1  UNL     1     132.785   4.483  75.559  1.00  0.00    -0.254 OA
ATOM     24  H1  UNL     1     132.044   4.959  75.915  1.00  0.00     0.247 HD
ENDBRANCH   4  23
BRANCH   5  25
HETATM   25  N4  UNL     1     132.090   5.603  73.168  1.00  0.00    -0.135 N 
HETATM   26  C6  UNL     1     131.286   6.748  72.949  1.00  0.00     0.351 C 
HETATM   27  O2  UNL     1     131.757   7.899  73.176  1.00  0.00    -0.245 OA
HETATM   28  N5  UNL     1     129.957   6.621  72.477  1.00  0.00    -0.237 N 
ATOM     29  H5  UNL     1     129.573   5.693  72.295  1.00  0.00     0.188 HD
ATOM     30  H4  UNL     1     131.715   4.675  72.969  1.00  0.00     0.189 HD
BRANCH  28  31
HETATM   31  N6  UNL     1     129.175   7.739  72.262  1.00  0.00    -0.005 NA
BRANCH  31  32
HETATM   32  N7  UNL     1     129.146   8.093  70.901  1.00  0.00    -0.016 NA
BRANCH  32  33
HETATM   33  N8  UNL     1     130.144   9.048  70.672  1.00  0.00    -0.330 N 
ATOM     34  H82 UNL     1     130.191   9.663  69.859  1.00  0.00     0.173 HD
ATOM     35  H81 UNL     1     130.801   9.019  71.451  1.00  0.00     0.173 HD
ENDBRANCH  32  33
ENDBRANCH  31  32
ENDBRANCH  28  31
ENDBRANCH   5  25
TORSDOF 9
ENDMDL
MODEL 2
REMARK VINA RESULT: -8.628316841      1.228      1.279
REMARK  9 active torsions:
REMARK  status: ('A' for Active; 'I' for Inactive)
REMARK    1  A    between atoms: C3_3  and  N1_4 
REMARK    2  A    between atoms: N1_4  and  C4_6 
REMARK    3  A    between atoms: N3_9  and  O1_10 
REMARK    4  A    between atoms: C5_12  and  N4_13 
REMARK       I    between atoms: N4_13  and  C6_15 
REMARK       I    between atoms: C6_15  and  N5_17 
REMARK    5  A    between atoms: N5_17  and  N6_19 
REMARK    6  A    between atoms: N6_19  and  N7_20 
REMARK    7  A    between atoms: N7_20  and  N8_21 
REMARK    8  A    between atoms: C8_30  and  O4_31 
REMARK    9  A    between atoms: C9_33  and  O5_34 
ROOT
HETATM    1  C4  UNL     1     136.328   6.194  74.263  1.00  0.00     0.712 A 
HETATM    2  N2  UNL     1     135.602   5.101  74.066  1.00  0.00    -0.089 N 
ATOM      3  H2  UNL     1     135.876   4.227  74.515  1.00  0.00     0.209 HD
HETATM    4  N3  UNL     1     134.537   5.131  73.300  1.00  0.00     0.032 N 
HETATM    5  C5  UNL     1     134.110   6.265  72.667  1.00  0.00     0.743 A 
HETATM    6  N9  UNL     1     134.856   7.346  72.879  1.00  0.00    -0.114 N 
ATOM      7  H9  UNL     1     134.584   8.219  72.428  1.00  0.00     0.206 HD
HETATM    8  N10 UNL     1     135.925   7.342  73.641  1.00  0.00    -0.116 N 
ATOM      9  H10 UNL     1     136.458   8.202  73.769  1.00  0.00     0.206 HD
ENDROOT
BRANCH   1  10
HETATM   10  N1  UNL     1     137.356   6.191  75.012  1.00  0.00    -0.197 N 
ATOM     11  H1  UNL     1     137.867   5.316  75.127  1.00  0.00     0.180 HD
BRANCH  10  12
HETATM   12  C3  UNL     1     137.833   7.346  75.701  1.00  0.00     0.244 C 
HETATM   13  C2  UNL     1     139.202   7.184  76.248  1.00  0.00     0.062 C 
HETATM   14  C1  UNL     1     140.199   8.026  75.474  1.00  0.00     0.017 C 
HETATM   15  C9  UNL     1     139.185   7.673  77.713  1.00  0.00     0.156 C 
HETATM   16  C8  UNL     1     138.359   6.672  78.485  1.00  0.00     0.171 C 
HETATM   17  C7  UNL     1     137.130   6.404  77.622  1.00  0.00     0.204 C 
HETATM   18  O3  UNL     1     136.937   7.535  76.799  1.00  0.00    -0.363 OA
BRANCH  15  19
HETATM   19  O5  UNL     1     140.488   7.699  78.229  1.00  0.00    -0.392 OA
ATOM     20  H5  UNL     1     140.923   6.871  78.062  1.00  0.00     0.210 HD
ENDBRANCH  15  19
BRANCH  16  21
HETATM   21  O4  UNL     1     139.101   5.510  78.579  1.00  0.00    -0.391 OA
ATOM     22  H4  UNL     1     138.860   5.055  79.378  1.00  0.00     0.210 HD
ENDBRANCH  16  21
ENDBRANCH  10  12
ENDBRANCH   1  10
BRANCH   4  23
HETATM   23  O1  UNL     1     133.808   3.970  73.127  1.00  0.00    -0.254 OA
ATOM     24  H1  UNL     1     132.965   4.019  72.691  1.00  0.00     0.247 HD
ENDBRANCH   4  23
BRANCH   5  25
HETATM   25  N4  UNL     1     132.939   6.235  71.873  1.00  0.00    -0.135 N 
HETATM   26  C6  UNL     1     131.798   6.984  72.249  1.00  0.00     0.351 C 
HETATM   27  O2  UNL     1     131.831   7.699  73.290  1.00  0.00    -0.245 OA
HETATM   28  N5  UNL     1     130.615   6.942  71.471  1.00  0.00    -0.237 N 
ATOM     29  H5  UNL     1     130.584   6.363  70.631  1.00  0.00     0.188 HD
ATOM     30  H4  UNL     1     132.917   5.669  71.025  1.00  0.00     0.189 HD
BRANCH  28  31
HETATM   31  N6  UNL     1     129.504   7.676  71.838  1.00  0.00    -0.005 NA
BRANCH  31  32
HETATM   32  N7  UNL     1     129.061   8.499  70.787  1.00  0.00    -0.016 NA
BRANCH  32  33
HETATM   33  N8  UNL     1     130.075   9.418  70.490  1.00  0.00    -0.330 N 
ATOM     34  H82 UNL     1     130.682   9.377  69.671  1.00  0.00     0.173 HD
ATOM     35  H81 UNL     1     130.095  10.123  71.227  1.00  0.00     0.173 HD
ENDBRANCH  32  33
ENDBRANCH  31  32
ENDBRANCH  28  31
ENDBRANCH   5  25
TORSDOF 9
ENDMDL
MODEL 3
REMARK VINA RESULT: -8.613894899      1.747      2.134
REMARK  9 active torsions:
REMARK  status: ('A' for Active; 'I' for Inactive)
REMARK    1  A    between atoms: C3_3  and  N1_4 
REMARK    2  A    between atoms: N1_4  and  C4_6 
REMARK    3  A    between atoms: N3_9  and  O1_10 
REMARK    4  A    between atoms: C5_12  and  N4_13 
REMARK       I    between atoms: N4_13  and  C6_15 
REMARK       I    between atoms: C6_15  and  N5_17 
REMARK    5  A    between atoms: N5_17  and  N6_19 
REMARK    6  A    between atoms: N6_19  and  N7_20 
REMARK    7  A    between atoms: N7_20  and  N8_21 
REMARK    8  A    between atoms: C8_30  and  O4_31 
REMARK    9  A    between atoms: C9_33  and  O5_34 
ROOT
HETATM    1  C4  UNL     1     135.974   5.577  74.945  1.00  0.00     0.712 A 
HETATM    2  N2  UNL     1     135.512   4.339  74.826  1.00  0.00    -0.089 N 
ATOM      3  H2  UNL     1     136.120   3.551  75.048  1.00  0.00     0.209 HD
HETATM    4  N3  UNL     1     134.281   4.119  74.426  1.00  0.00     0.032 N 
HETATM    5  C5  UNL     1     133.411   5.125  74.111  1.00  0.00     0.743 A 
HETATM    6  N9  UNL     1     133.901   6.355  74.237  1.00  0.00    -0.114 N 
ATOM      7  H9  UNL     1     133.294   7.144  74.012  1.00  0.00     0.206 HD
HETATM    8  N10 UNL     1     135.126   6.603  74.636  1.00  0.00    -0.116 N 
ATOM      9  H10 UNL     1     135.447   7.568  74.715  1.00  0.00     0.206 HD
ENDROOT
BRANCH   1  10
HETATM   10  N1  UNL     1     137.159   5.815  75.344  1.00  0.00    -0.197 N 
ATOM     11  H1  UNL     1     137.747   5.025  75.609  1.00  0.00     0.180 HD
BRANCH  10  12
HETATM   12  C3  UNL     1     137.709   7.128  75.440  1.00  0.00     0.244 C 
HETATM   13  C2  UNL     1     139.185   7.163  75.286  1.00  0.00     0.062 C 
HETATM   14  C1  UNL     1     139.578   7.792  73.964  1.00  0.00     0.017 C 
HETATM   15  C9  UNL     1     139.757   8.031  76.429  1.00  0.00     0.156 C 
HETATM   16  C8  UNL     1     139.537   7.254  77.704  1.00  0.00     0.171 C 
HETATM   17  C7  UNL     1     138.110   6.724  77.619  1.00  0.00     0.204 C 
HETATM   18  O3  UNL     1     137.391   7.581  76.758  1.00  0.00    -0.363 OA
BRANCH  15  19
HETATM   19  O5  UNL     1     141.130   8.236  76.238  1.00  0.00    -0.392 OA
ATOM     20  H5  UNL     1     141.465   8.839  76.892  1.00  0.00     0.210 HD
ENDBRANCH  15  19
BRANCH  16  21
HETATM   21  O4  UNL     1     140.412   6.184  77.692  1.00  0.00    -0.391 OA
ATOM     22  H4  UNL     1     141.069   6.332  77.021  1.00  0.00     0.210 HD
ENDBRANCH  16  21
ENDBRANCH  10  12
ENDBRANCH   1  10
BRANCH   4  23
HETATM   23  O1  UNL     1     133.839   2.813  74.322  1.00  0.00    -0.254 OA
ATOM     24  H1  UNL     1     133.688   2.448  73.458  1.00  0.00     0.247 HD
ENDBRANCH   4  23
BRANCH   5  25
HETATM   25  N4  UNL     1     132.090   4.818  73.709  1.00  0.00    -0.135 N 
HETATM   26  C6  UNL     1     130.998   5.581  74.188  1.00  0.00     0.351 C 
HETATM   27  O2  UNL     1     131.205   6.555  74.966  1.00  0.00    -0.245 OA
HETATM   28  N5  UNL     1     129.671   5.267  73.805  1.00  0.00    -0.237 N 
ATOM     29  H5  UNL     1     129.499   4.480  73.179  1.00  0.00     0.188 HD
ATOM     30  H4  UNL     1     131.923   4.041  73.069  1.00  0.00     0.189 HD
BRANCH  28  31
HETATM   31  N6  UNL     1     128.607   6.015  74.271  1.00  0.00    -0.005 NA
BRANCH  31  32
HETATM   32  N7  UNL     1     127.493   5.204  74.556  1.00  0.00    -0.016 NA
BRANCH  32  33
HETATM   33  N8  UNL     1     127.571   4.802  75.895  1.00  0.00    -0.330 N 
ATOM     34  H82 UNL     1     127.920   5.378  76.660  1.00  0.00     0.173 HD
ATOM     35  H81 UNL     1     127.223   3.846  75.963  1.00  0.00     0.173 HD
ENDBRANCH  32  33
ENDBRANCH  31  32
ENDBRANCH  28  31
ENDBRANCH   5  25
TORSDOF 9
ENDMDL
MODEL 4
REMARK VINA RESULT: -8.362451596      4.849      7.162
REMARK  9 active torsions:
REMARK  status: ('A' for Active; 'I' for Inactive)
REMARK    1  A    between atoms: C3_3  and  N1_4 
REMARK    2  A    between atoms: N1_4  and  C4_6 
REMARK    3  A    between atoms: N3_9  and  O1_10 
REMARK    4  A    between atoms: C5_12  and  N4_13 
REMARK       I    between atoms: N4_13  and  C6_15 
REMARK       I    between atoms: C6_15  and  N5_17 
REMARK    5  A    between atoms: N5_17  and  N6_19 
REMARK    6  A    between atoms: N6_19  and  N7_20 
REMARK    7  A    between atoms: N7_20  and  N8_21 
REMARK    8  A    between atoms: C8_30  and  O4_31 
REMARK    9  A    between atoms: C9_33  and  O5_34 
ROOT
HETATM    1  C4  UNL     1     132.809  10.231  70.754  1.00  0.00     0.712 A 
HETATM    2  N2  UNL     1     132.773   9.239  69.875  1.00  0.00    -0.089 N 
ATOM      3  H2  UNL     1     132.840   9.446  68.878  1.00  0.00     0.209 HD
HETATM    4  N3  UNL     1     132.651   7.994  70.273  1.00  0.00     0.032 N 
HETATM    5  C5  UNL     1     132.556   7.642  71.590  1.00  0.00     0.743 A 
HETATM    6  N9  UNL     1     132.593   8.656  72.450  1.00  0.00    -0.114 N 
ATOM      7  H9  UNL     1     132.522   8.449  73.446  1.00  0.00     0.206 HD
HETATM    8  N10 UNL     1     132.714   9.908  72.079  1.00  0.00    -0.116 N 
ATOM      9  H10 UNL     1     132.738  10.646  72.783  1.00  0.00     0.206 HD
ENDROOT
BRANCH   1  10
HETATM   10  N1  UNL     1     132.940  11.444  70.392  1.00  0.00    -0.197 N 
ATOM     11  H1  UNL     1     132.100  12.017  70.310  1.00  0.00     0.180 HD
BRANCH  10  12
HETATM   12  C3  UNL     1     134.199  12.046  70.094  1.00  0.00     0.244 C 
HETATM   13  C2  UNL     1     135.135  12.059  71.245  1.00  0.00     0.062 C 
HETATM   14  C1  UNL     1     136.276  11.084  71.029  1.00  0.00     0.017 C 
HETATM   15  C9  UNL     1     135.724  13.483  71.357  1.00  0.00     0.156 C 
HETATM   16  C8  UNL     1     134.590  14.378  71.793  1.00  0.00     0.171 C 
HETATM   17  C7  UNL     1     133.396  13.975  70.934  1.00  0.00     0.204 C 
HETATM   18  O3  UNL     1     133.904  13.401  69.748  1.00  0.00    -0.363 OA
BRANCH  15  19
HETATM   19  O5  UNL     1     136.738  13.511  72.323  1.00  0.00    -0.392 OA
ATOM     20  H5  UNL     1     136.571  14.202  72.953  1.00  0.00     0.210 HD
ENDBRANCH  15  19
BRANCH  16  21
HETATM   21  O4  UNL     1     134.312  14.080  73.113  1.00  0.00    -0.391 OA
ATOM     22  H4  UNL     1     133.797  14.785  73.486  1.00  0.00     0.210 HD
ENDBRANCH  16  21
ENDBRANCH  10  12
ENDBRANCH   1  10
BRANCH   4  23
HETATM   23  O1  UNL     1     132.624   6.990  69.322  1.00  0.00    -0.254 OA
ATOM     24  H1  UNL     1     131.968   7.028  68.636  1.00  0.00     0.247 HD
ENDBRANCH   4  23
BRANCH   5  25
HETATM   25  N4  UNL     1     132.451   6.278  71.952  1.00  0.00    -0.135 N 
HETATM   26  C6  UNL     1     133.572   5.584  72.467  1.00  0.00     0.351 C 
HETATM   27  O2  UNL     1     134.670   6.190  72.622  1.00  0.00    -0.245 OA
HETATM   28  N5  UNL     1     133.480   4.213  72.812  1.00  0.00    -0.237 N 
ATOM     29  H5  UNL     1     132.595   3.720  72.687  1.00  0.00     0.188 HD
ATOM     30  H4  UNL     1     131.561   5.792  71.841  1.00  0.00     0.189 HD
BRANCH  28  31
HETATM   31  N6  UNL     1     134.574   3.538  73.318  1.00  0.00    -0.005 NA
BRANCH  31  32
HETATM   32  N7  UNL     1     134.642   3.642  74.719  1.00  0.00    -0.016 NA
BRANCH  32  33
HETATM   33  N8  UNL     1     135.785   4.380  75.051  1.00  0.00    -0.330 N 
ATOM     34  H82 UNL     1     135.850   5.042  75.824  1.00  0.00     0.173 HD
ATOM     35  H81 UNL     1     136.525   4.137  74.393  1.00  0.00     0.173 HD
ENDBRANCH  32  33
ENDBRANCH  31  32
ENDBRANCH  28  31
ENDBRANCH   5  25
TORSDOF 9
ENDMDL
MODEL 5
REMARK VINA RESULT: -8.328775334      3.067      8.472
REMARK  9 active torsions:
REMARK  status: ('A' for Active; 'I' for Inactive)
REMARK    1  A    between atoms: C3_3  and  N1_4 
REMARK    2  A    between atoms: N1_4  and  C4_6 
REMARK    3  A    between atoms: N3_9  and  O1_10 
REMARK    4  A    between atoms: C5_12  and  N4_13 
REMARK       I    between atoms: N4_13  and  C6_15 
REMARK       I    between atoms: C6_15  and  N5_17 
REMARK    5  A    between atoms: N5_17  and  N6_19 
REMARK    6  A    between atoms: N6_19  and  N7_20 
REMARK    7  A    between atoms: N7_20  and  N8_21 
REMARK    8  A    between atoms: C8_30  and  O4_31 
REMARK    9  A    between atoms: C9_33  and  O5_34 
ROOT
HETATM    1  C4  UNL     1     133.275   7.446  74.590  1.00  0.00     0.712 A 
HETATM    2  N2  UNL     1     133.629   8.710  74.398  1.00  0.00    -0.089 N 
ATOM      3  H2  UNL     1     132.936   9.450  74.509  1.00  0.00     0.209 HD
HETATM    4  N3  UNL     1     134.861   9.018  74.065  1.00  0.00     0.032 N 
HETATM    5  C5  UNL     1     135.842   8.080  73.898  1.00  0.00     0.743 A 
HETATM    6  N9  UNL     1     135.460   6.822  74.096  1.00  0.00    -0.114 N 
ATOM      7  H9  UNL     1     136.152   6.081  73.981  1.00  0.00     0.206 HD
HETATM    8  N10 UNL     1     134.236   6.487  74.429  1.00  0.00    -0.116 N 
ATOM      9  H10 UNL     1     134.000   5.504  74.569  1.00  0.00     0.206 HD
ENDROOT
BRANCH   1  10
HETATM   10  N1  UNL     1     132.091   7.125  74.927  1.00  0.00    -0.197 N 
ATOM     11  H1  UNL     1     131.707   7.525  75.783  1.00  0.00     0.180 HD
BRANCH  10  12
HETATM   12  C3  UNL     1     131.270   6.236  74.171  1.00  0.00     0.244 C 
HETATM   13  C2  UNL     1     129.838   6.622  74.156  1.00  0.00     0.062 C 
HETATM   14  C1  UNL     1     129.427   7.135  72.790  1.00  0.00     0.017 C 
HETATM   15  C9  UNL     1     129.006   5.359  74.473  1.00  0.00     0.156 C 
HETATM   16  C8  UNL     1     129.283   5.020  75.918  1.00  0.00     0.171 C 
HETATM   17  C7  UNL     1     130.792   5.157  76.089  1.00  0.00     0.204 C 
HETATM   18  O3  UNL     1     131.380   4.967  74.820  1.00  0.00    -0.363 OA
BRANCH  15  19
HETATM   19  O5  UNL     1     127.640   5.627  74.310  1.00  0.00    -0.392 OA
ATOM     20  H5  UNL     1     127.520   6.466  73.882  1.00  0.00     0.210 HD
ENDBRANCH  15  19
BRANCH  16  21
HETATM   21  O4  UNL     1     128.657   5.978  76.694  1.00  0.00    -0.391 OA
ATOM     22  H4  UNL     1     128.069   5.545  77.301  1.00  0.00     0.210 HD
ENDBRANCH  16  21
ENDBRANCH  10  12
ENDBRANCH   1  10
BRANCH   4  23
HETATM   23  O1  UNL     1     135.188  10.349  73.880  1.00  0.00    -0.254 OA
ATOM     24  H1  UNL     1     134.735  11.007  74.393  1.00  0.00     0.247 HD
ENDBRANCH   4  23
BRANCH   5  25
HETATM   25  N4  UNL     1     137.156   8.483  73.562  1.00  0.00    -0.135 N 
HETATM   26  C6  UNL     1     138.274   7.883  74.191  1.00  0.00     0.351 C 
HETATM   27  O2  UNL     1     138.098   6.969  75.046  1.00  0.00    -0.245 OA
HETATM   28  N5  UNL     1     139.591   8.296  73.875  1.00  0.00    -0.237 N 
ATOM     29  H5  UNL     1     139.737   9.035  73.187  1.00  0.00     0.188 HD
ATOM     30  H4  UNL     1     137.299   9.210  72.861  1.00  0.00     0.189 HD
BRANCH  28  31
HETATM   31  N6  UNL     1     140.681   7.707  74.488  1.00  0.00    -0.005 NA
BRANCH  31  32
HETATM   32  N7  UNL     1     141.159   8.492  75.552  1.00  0.00    -0.016 NA
BRANCH  32  33
HETATM   33  N8  UNL     1     140.587   8.020  76.740  1.00  0.00    -0.330 N 
ATOM     34  H82 UNL     1     140.984   7.288  77.330  1.00  0.00     0.173 HD
ATOM     35  H81 UNL     1     139.721   8.532  76.904  1.00  0.00     0.173 HD
ENDBRANCH  32  33
ENDBRANCH  31  32
ENDBRANCH  28  31
ENDBRANCH   5  25
TORSDOF 9
ENDMDL
