MODEL 1
REMARK VINA RESULT: -9.079338586      0.000      0.000
REMARK  8 active torsions:
REMARK  status: ('A' for Active; 'I' for Inactive)
REMARK    1  A    between atoms: N1_1  and  N2_4 
REMARK       I    between atoms: N2_4  and  C1_6 
REMARK    2  A    between atoms: C1_6  and  C2_8 
REMARK    3  A    between atoms: C5_14  and  C6_15 
REMARK    4  A    between atoms: C7_17  and  C8_18 
REMARK    5  A    between atoms: C8_18  and  N8_26 
REMARK    6  A    between atoms: N4_19  and  N5_21 
REMARK    7  A    between atoms: N8_26  and  N9_28 
REMARK    8  A    between atoms: N11_34  and  N12_35 
ROOT
HETATM    1  C2  UNL     1     137.575   7.068  74.894  1.00  0.00     0.199 A 
HETATM    2  N3  UNL     1     136.744   6.068  75.236  1.00  0.00    -0.330 N 
ATOM      3  H3  UNL     1     136.938   5.368  75.951  1.00  0.00     0.168 HD
HETATM    4  C3  UNL     1     135.609   6.124  74.492  1.00  0.00     0.132 A 
HETATM    5  C4  UNL     1     134.469   5.347  74.454  1.00  0.00     0.218 A 
HETATM    6  O2  UNL     1     134.331   4.350  75.219  1.00  0.00    -0.285 OA
HETATM    7  C5  UNL     1     133.492   5.711  73.545  1.00  0.00     0.085 A 
HETATM    8  C7  UNL     1     133.667   6.805  72.722  1.00  0.00     0.098 A 
HETATM    9  N10 UNL     1     134.802   7.530  72.800  1.00  0.00    -0.335 N 
ATOM     10  H10 UNL     1     134.920   8.336  72.187  1.00  0.00     0.168 HD
HETATM   11  C10 UNL     1     135.782   7.218  73.668  1.00  0.00     0.160 A 
HETATM   12  N11 UNL     1     136.989   7.789  73.921  1.00  0.00    -0.222 N 
ENDROOT
BRANCH   8  13
HETATM   13  C8  UNL     1     132.610   7.140  71.789  1.00  0.00     0.162 C 
HETATM   14  N4  UNL     1     131.791   8.127  71.991  1.00  0.00    -0.281 N 
ATOM     15  H4  UNL     1     131.900   8.681  72.840  1.00  0.00     0.188 HD
BRANCH  14  16
HETATM   16  N5  UNL     1     130.782   8.461  71.117  1.00  0.00    -0.274 N 
HETATM   17  C9  UNL     1     129.520   8.216  71.368  1.00  0.00     0.215 C 
HETATM   18  N6  UNL     1     128.510   8.574  70.445  1.00  0.00    -0.065 NA
HETATM   19  N7  UNL     1     129.220   7.583  72.592  1.00  0.00    -0.065 NA
ATOM     20  H5  UNL     1     131.028   8.918  70.238  1.00  0.00     0.189 HD
ENDBRANCH  14  16
BRANCH  13  21
HETATM   21  N8  UNL     1     132.431   6.387  70.598  1.00  0.00    -0.289 N 
ATOM     22  H8  UNL     1     131.959   5.482  70.597  1.00  0.00     0.188 HD
BRANCH  21  23
HETATM   23  N9  UNL     1     132.945   6.965  69.416  1.00  0.00    -0.344 N 
ATOM     24  H92 UNL     1     132.696   7.916  69.143  1.00  0.00     0.176 HD
ATOM     25  H91 UNL     1     133.569   6.376  68.865  1.00  0.00     0.176 HD
ENDBRANCH  21  23
ENDBRANCH  13  21
ENDBRANCH   8  13
BRANCH   7  26
HETATM   26  C6  UNL     1     132.280   4.924  73.472  1.00  0.00     0.276 C 
HETATM   27  O3  UNL     1     132.239   3.960  72.669  1.00  0.00    -0.301 OA
ENDBRANCH   7  26
BRANCH  12  28
HETATM   28  N12 UNL     1     137.503   8.909  73.283  1.00  0.00    -0.335 N 
ATOM     29 2H12 UNL     1     138.148   9.583  73.695  1.00  0.00     0.177 HD
ATOM     30 1H12 UNL     1     137.314   9.214  72.328  1.00  0.00     0.177 HD
ENDBRANCH  12  28
BRANCH   1  31
HETATM   31  C1  UNL     1     138.898   7.303  75.505  1.00  0.00     0.305 C 
HETATM   32  N2  UNL     1     139.022   7.495  76.894  1.00  0.00    -0.270 N 
ATOM     33  H2  UNL     1     138.193   7.474  77.488  1.00  0.00     0.189 HD
HETATM   34  O1  UNL     1     139.894   7.326  74.759  1.00  0.00    -0.263 OA
BRANCH  32  35
HETATM   35  N1  UNL     1     140.271   7.714  77.451  1.00  0.00    -0.342 N 
ATOM     36  H12 UNL     1     140.786   8.557  77.197  1.00  0.00     0.176 HD
ATOM     37  H11 UNL     1     140.661   7.037  78.106  1.00  0.00     0.176 HD
ENDBRANCH  32  35
ENDBRANCH   1  31
TORSDOF 8
ENDMDL
MODEL 2
REMARK VINA RESULT: -8.840770852      3.890      6.422
REMARK  8 active torsions:
REMARK  status: ('A' for Active; 'I' for Inactive)
REMARK    1  A    between atoms: N1_1  and  N2_4 
REMARK       I    between atoms: N2_4  and  C1_6 
REMARK    2  A    between atoms: C1_6  and  C2_8 
REMARK    3  A    between atoms: C5_14  and  C6_15 
REMARK    4  A    between atoms: C7_17  and  C8_18 
REMARK    5  A    between atoms: C8_18  and  N8_26 
REMARK    6  A    between atoms: N4_19  and  N5_21 
REMARK    7  A    between atoms: N8_26  and  N9_28 
REMARK    8  A    between atoms: N11_34  and  N12_35 
ROOT
HETATM    1  C2  UNL     1     133.280  11.154  70.999  1.00  0.00     0.199 A 
HETATM    2  N3  UNL     1     132.174  10.821  71.686  1.00  0.00    -0.330 N 
ATOM      3  H3  UNL     1     131.447  11.476  71.972  1.00  0.00     0.168 HD
HETATM    4  C3  UNL     1     132.164   9.487  71.947  1.00  0.00     0.132 A 
HETATM    5  C4  UNL     1     131.275   8.664  72.606  1.00  0.00     0.218 A 
HETATM    6  O2  UNL     1     130.215   9.121  73.118  1.00  0.00    -0.285 OA
HETATM    7  C5  UNL     1     131.601   7.320  72.679  1.00  0.00     0.085 A 
HETATM    8  C7  UNL     1     132.766   6.846  72.111  1.00  0.00     0.098 A 
HETATM    9  N10 UNL     1     133.600   7.696  71.478  1.00  0.00    -0.335 N 
ATOM     10  H10 UNL     1     134.458   7.333  71.062  1.00  0.00     0.168 HD
HETATM   11  C10 UNL     1     133.329   9.010  71.380  1.00  0.00     0.160 A 
HETATM   12  N11 UNL     1     134.005  10.038  70.802  1.00  0.00    -0.222 N 
ENDROOT
BRANCH   8  13
HETATM   13  C8  UNL     1     133.055   5.430  72.218  1.00  0.00     0.162 C 
HETATM   14  N4  UNL     1     133.663   4.919  73.245  1.00  0.00    -0.281 N 
ATOM     15  H4  UNL     1     133.943   5.543  74.001  1.00  0.00     0.188 HD
BRANCH  14  16
HETATM   16  N5  UNL     1     133.945   3.579  73.365  1.00  0.00    -0.274 N 
HETATM   17  C9  UNL     1     134.875   3.122  74.166  1.00  0.00     0.215 C 
HETATM   18  N6  UNL     1     135.138   1.735  74.263  1.00  0.00    -0.065 NA
HETATM   19  N7  UNL     1     135.596   4.070  74.921  1.00  0.00    -0.065 NA
ATOM     20  H5  UNL     1     133.409   2.914  72.807  1.00  0.00     0.189 HD
ENDBRANCH  14  16
BRANCH  13  21
HETATM   21  N8  UNL     1     132.678   4.534  71.182  1.00  0.00    -0.289 N 
ATOM     22  H8  UNL     1     133.209   4.456  70.315  1.00  0.00     0.188 HD
BRANCH  21  23
HETATM   23  N9  UNL     1     131.522   3.759  71.424  1.00  0.00    -0.344 N 
ATOM     24  H92 UNL     1     131.032   3.292  70.660  1.00  0.00     0.176 HD
ATOM     25  H91 UNL     1     131.218   3.699  72.395  1.00  0.00     0.176 HD
ENDBRANCH  21  23
ENDBRANCH  13  21
ENDBRANCH   8  13
BRANCH   7  26
HETATM   26  C6  UNL     1     130.697   6.421  73.361  1.00  0.00     0.276 C 
HETATM   27  O3  UNL     1     129.916   5.720  72.672  1.00  0.00    -0.301 OA
ENDBRANCH   7  26
BRANCH  12  28
HETATM   28  N12 UNL     1     135.219   9.934  70.136  1.00  0.00    -0.335 N 
ATOM     29 2H12 UNL     1     135.554   9.109  69.639  1.00  0.00     0.177 HD
ATOM     30 1H12 UNL     1     135.936  10.654  70.050  1.00  0.00     0.177 HD
ENDBRANCH  12  28
BRANCH   1  31
HETATM   31  C1  UNL     1     133.608  12.521  70.552  1.00  0.00     0.305 C 
HETATM   32  N2  UNL     1     132.793  13.185  69.615  1.00  0.00    -0.270 N 
ATOM     33  H2  UNL     1     131.967  12.720  69.238  1.00  0.00     0.189 HD
HETATM   34  O1  UNL     1     134.622  13.067  71.026  1.00  0.00    -0.263 OA
BRANCH  32  35
HETATM   35  N1  UNL     1     133.115  14.468  69.207  1.00  0.00    -0.342 N 
ATOM     36  H12 UNL     1     133.187  15.208  69.906  1.00  0.00     0.176 HD
ATOM     37  H11 UNL     1     133.277  14.662  68.219  1.00  0.00     0.176 HD
ENDBRANCH  32  35
ENDBRANCH   1  31
TORSDOF 8
ENDMDL
MODEL 3
REMARK VINA RESULT: -8.795265050      2.370      3.023
REMARK  8 active torsions:
REMARK  status: ('A' for Active; 'I' for Inactive)
REMARK    1  A    between atoms: N1_1  and  N2_4 
REMARK       I    between atoms: N2_4  and  C1_6 
REMARK    2  A    between atoms: C1_6  and  C2_8 
REMARK    3  A    between atoms: C5_14  and  C6_15 
REMARK    4  A    between atoms: C7_17  and  C8_18 
REMARK    5  A    between atoms: C8_18  and  N8_26 
REMARK    6  A    between atoms: N4_19  and  N5_21 
REMARK    7  A    between atoms: N8_26  and  N9_28 
REMARK    8  A    between atoms: N11_34  and  N12_35 
ROOT
HETATM    1  C2  UNL     1     137.422   7.319  74.568  1.00  0.00     0.199 A 
HETATM    2  N3  UNL     1     136.941   8.164  73.640  1.00  0.00    -0.330 N 
ATOM      3  H3  UNL     1     137.457   8.948  73.243  1.00  0.00     0.168 HD
HETATM    4  C3  UNL     1     135.668   7.825  73.308  1.00  0.00     0.132 A 
HETATM    5  C4  UNL     1     134.750   8.359  72.427  1.00  0.00     0.218 A 
HETATM    6  O2  UNL     1     135.029   9.373  71.727  1.00  0.00    -0.285 OA
HETATM    7  C5  UNL     1     133.517   7.735  72.350  1.00  0.00     0.085 A 
HETATM    8  C7  UNL     1     133.238   6.629  73.126  1.00  0.00     0.098 A 
HETATM    9  N10 UNL     1     134.172   6.147  73.971  1.00  0.00    -0.335 N 
ATOM     10  H10 UNL     1     133.954   5.329  74.540  1.00  0.00     0.168 HD
HETATM   11  C10 UNL     1     135.386   6.718  74.084  1.00  0.00     0.160 A 
HETATM   12  N11 UNL     1     136.466   6.416  74.852  1.00  0.00    -0.222 N 
ENDROOT
BRANCH   8  13
HETATM   13  C8  UNL     1     131.931   6.015  73.003  1.00  0.00     0.162 C 
HETATM   14  N4  UNL     1     131.001   6.174  73.895  1.00  0.00    -0.281 N 
ATOM     15  H4  UNL     1     131.205   6.753  74.710  1.00  0.00     0.188 HD
BRANCH  14  16
HETATM   16  N5  UNL     1     129.755   5.601  73.796  1.00  0.00    -0.274 N 
HETATM   17  C9  UNL     1     128.808   5.812  74.676  1.00  0.00     0.215 C 
HETATM   18  N6  UNL     1     127.537   5.205  74.541  1.00  0.00    -0.065 NA
HETATM   19  N7  UNL     1     129.114   6.666  75.756  1.00  0.00    -0.065 NA
ATOM     20  H5  UNL     1     129.560   4.987  73.005  1.00  0.00     0.189 HD
ENDBRANCH  14  16
BRANCH  13  21
HETATM   21  N8  UNL     1     131.615   5.203  71.881  1.00  0.00    -0.289 N 
ATOM     22  H8  UNL     1     130.652   5.021  71.600  1.00  0.00     0.188 HD
BRANCH  21  23
HETATM   23  N9  UNL     1     132.715   4.662  71.178  1.00  0.00    -0.344 N 
ATOM     24  H92 UNL     1     133.616   5.140  71.161  1.00  0.00     0.176 HD
ATOM     25  H91 UNL     1     132.548   3.777  70.699  1.00  0.00     0.176 HD
ENDBRANCH  21  23
ENDBRANCH  13  21
ENDBRANCH   8  13
BRANCH   7  26
HETATM   26  C6  UNL     1     132.526   8.262  71.439  1.00  0.00     0.276 C 
HETATM   27  O3  UNL     1     132.426   7.747  70.298  1.00  0.00    -0.301 OA
ENDBRANCH   7  26
BRANCH  12  28
HETATM   28  N12 UNL     1     136.547   5.366  75.755  1.00  0.00    -0.335 N 
ATOM     29 2H12 UNL     1     137.047   5.384  76.644  1.00  0.00     0.177 HD
ATOM     30 1H12 UNL     1     136.125   4.441  75.664  1.00  0.00     0.177 HD
ENDBRANCH  12  28
BRANCH   1  31
HETATM   31  C1  UNL     1     138.775   7.398  75.152  1.00  0.00     0.305 C 
HETATM   32  N2  UNL     1     138.950   7.679  76.520  1.00  0.00    -0.270 N 
ATOM     33  H2  UNL     1     138.137   7.830  77.118  1.00  0.00     0.189 HD
HETATM   34  O1  UNL     1     139.751   7.211  74.402  1.00  0.00    -0.263 OA
BRANCH  32  35
HETATM   35  N1  UNL     1     140.226   7.749  77.053  1.00  0.00    -0.342 N 
ATOM     36  H12 UNL     1     140.669   6.896  77.393  1.00  0.00     0.176 HD
ATOM     37  H11 UNL     1     140.709   8.646  77.100  1.00  0.00     0.176 HD
ENDBRANCH  32  35
ENDBRANCH   1  31
TORSDOF 8
ENDMDL
MODEL 4
REMARK VINA RESULT: -8.617914174      2.462      3.250
REMARK  8 active torsions:
REMARK  status: ('A' for Active; 'I' for Inactive)
REMARK    1  A    between atoms: N1_1  and  N2_4 
REMARK       I    between atoms: N2_4  and  C1_6 
REMARK    2  A    between atoms: C1_6  and  C2_8 
REMARK    3  A    between atoms: C5_14  and  C6_15 
REMARK    4  A    between atoms: C7_17  and  C8_18 
REMARK    5  A    between atoms: C8_18  and  N8_26 
REMARK    6  A    between atoms: N4_19  and  N5_21 
REMARK    7  A    between atoms: N8_26  and  N9_28 
REMARK    8  A    between atoms: N11_34  and  N12_35 
ROOT
HETATM    1  C2  UNL     1     136.873   6.667  75.356  1.00  0.00     0.199 A 
HETATM    2  N3  UNL     1     137.286   7.760  74.691  1.00  0.00    -0.330 N 
ATOM      3  H3  UNL     1     138.174   8.236  74.850  1.00  0.00     0.168 HD
HETATM    4  C3  UNL     1     136.354   8.139  73.779  1.00  0.00     0.132 A 
HETATM    5  C4  UNL     1     136.295   9.172  72.867  1.00  0.00     0.218 A 
HETATM    6  O2  UNL     1     137.239  10.005  72.759  1.00  0.00    -0.285 OA
HETATM    7  C5  UNL     1     135.158   9.250  72.080  1.00  0.00     0.085 A 
HETATM    8  C7  UNL     1     134.142   8.327  72.218  1.00  0.00     0.098 A 
HETATM    9  N10 UNL     1     134.251   7.336  73.127  1.00  0.00    -0.335 N 
ATOM     10  H10 UNL     1     133.492   6.660  73.219  1.00  0.00     0.168 HD
HETATM   11  C10 UNL     1     135.335   7.217  73.915  1.00  0.00     0.160 A 
HETATM   12  N11 UNL     1     135.662   6.320  74.882  1.00  0.00    -0.222 N 
ENDROOT
BRANCH   8  13
HETATM   13  C8  UNL     1     132.975   8.457  71.368  1.00  0.00     0.162 C 
HETATM   14  N4  UNL     1     131.854   8.953  71.796  1.00  0.00    -0.281 N 
ATOM     15  H4  UNL     1     131.800   9.259  72.767  1.00  0.00     0.188 HD
BRANCH  14  16
HETATM   16  N5  UNL     1     130.737   9.086  71.005  1.00  0.00    -0.274 N 
HETATM   17  C9  UNL     1     129.625   8.436  71.238  1.00  0.00     0.215 C 
HETATM   18  N6  UNL     1     128.495   8.597  70.402  1.00  0.00    -0.065 NA
HETATM   19  N7  UNL     1     129.607   7.574  72.354  1.00  0.00    -0.065 NA
ATOM     20  H5  UNL     1     130.777   9.716  70.203  1.00  0.00     0.189 HD
ENDBRANCH  14  16
BRANCH  13  21
HETATM   21  N8  UNL     1     133.018   8.040  70.011  1.00  0.00    -0.289 N 
ATOM     22  H8  UNL     1     133.270   8.679  69.256  1.00  0.00     0.188 HD
BRANCH  21  23
HETATM   23  N9  UNL     1     132.691   6.687  69.767  1.00  0.00    -0.344 N 
ATOM     24  H92 UNL     1     132.860   6.260  68.856  1.00  0.00     0.176 HD
ATOM     25  H91 UNL     1     132.283   6.178  70.551  1.00  0.00     0.176 HD
ENDBRANCH  21  23
ENDBRANCH  13  21
ENDBRANCH   8  13
BRANCH   7  26
HETATM   26  C6  UNL     1     135.055  10.318  71.110  1.00  0.00     0.276 C 
HETATM   27  O3  UNL     1     135.516  10.126  69.958  1.00  0.00    -0.301 OA
ENDBRANCH   7  26
BRANCH  12  28
HETATM   28  N12 UNL     1     134.878   5.251  75.291  1.00  0.00    -0.335 N 
ATOM     29 2H12 UNL     1     133.860   5.252  75.356  1.00  0.00     0.177 HD
ATOM     30 1H12 UNL     1     135.199   4.327  75.580  1.00  0.00     0.177 HD
ENDBRANCH  12  28
BRANCH   1  31
HETATM   31  C1  UNL     1     137.643   5.990  76.417  1.00  0.00     0.305 C 
HETATM   32  N2  UNL     1     137.068   5.753  77.679  1.00  0.00    -0.270 N 
ATOM     33  H2  UNL     1     136.110   6.049  77.868  1.00  0.00     0.189 HD
HETATM   34  O1  UNL     1     138.810   5.638  76.163  1.00  0.00    -0.263 OA
BRANCH  32  35
HETATM   35  N1  UNL     1     137.804   5.115  78.664  1.00  0.00    -0.342 N 
ATOM     36  H12 UNL     1     137.615   5.332  79.643  1.00  0.00     0.176 HD
ATOM     37  H11 UNL     1     138.523   4.440  78.405  1.00  0.00     0.176 HD
ENDBRANCH  32  35
ENDBRANCH   1  31
TORSDOF 8
ENDMDL
MODEL 5
REMARK VINA RESULT: -8.539456856      2.022      2.891
REMARK  8 active torsions:
REMARK  status: ('A' for Active; 'I' for Inactive)
REMARK    1  A    between atoms: N1_1  and  N2_4 
REMARK       I    between atoms: N2_4  and  C1_6 
REMARK    2  A    between atoms: C1_6  and  C2_8 
REMARK    3  A    between atoms: C5_14  and  C6_15 
REMARK    4  A    between atoms: C7_17  and  C8_18 
REMARK    5  A    between atoms: C8_18  and  N8_26 
REMARK    6  A    between atoms: N4_19  and  N5_21 
REMARK    7  A    between atoms: N8_26  and  N9_28 
REMARK    8  A    between atoms: N11_34  and  N12_35 
ROOT
HETATM    1  C2  UNL     1     137.521   7.083  75.165  1.00  0.00     0.199 A 
HETATM    2  N3  UNL     1     137.533   8.120  74.310  1.00  0.00    -0.330 N 
ATOM      3  H3  UNL     1     138.305   8.778  74.203  1.00  0.00     0.168 HD
HETATM    4  C3  UNL     1     136.370   8.168  73.610  1.00  0.00     0.132 A 
HETATM    5  C4  UNL     1     135.893   9.018  72.634  1.00  0.00     0.218 A 
HETATM    6  O2  UNL     1     136.584   9.992  72.219  1.00  0.00    -0.285 OA
HETATM    7  C5  UNL     1     134.629   8.755  72.135  1.00  0.00     0.085 A 
HETATM    8  C7  UNL     1     133.896   7.685  72.605  1.00  0.00     0.098 A 
HETATM    9  N10 UNL     1     134.410   6.885  73.562  1.00  0.00    -0.335 N 
ATOM     10  H10 UNL     1     133.857   6.097  73.901  1.00  0.00     0.168 HD
HETATM   11  C10 UNL     1     135.633   7.099  74.079  1.00  0.00     0.160 A 
HETATM   12  N11 UNL     1     136.346   6.441  75.031  1.00  0.00    -0.222 N 
ENDROOT
BRANCH   8  13
HETATM   13  C8  UNL     1     132.578   7.456  72.046  1.00  0.00     0.162 C 
HETATM   14  N4  UNL     1     131.530   8.113  72.442  1.00  0.00    -0.281 N 
ATOM     15  H4  UNL     1     131.646   8.814  73.174  1.00  0.00     0.188 HD
BRANCH  14  16
HETATM   16  N5  UNL     1     130.273   7.911  71.924  1.00  0.00    -0.274 N 
HETATM   17  C9  UNL     1     129.768   8.667  70.981  1.00  0.00     0.215 C 
HETATM   18  N6  UNL     1     128.469   8.429  70.472  1.00  0.00    -0.065 NA
HETATM   19  N7  UNL     1     130.573   9.721  70.502  1.00  0.00    -0.065 NA
ATOM     20  H5  UNL     1     129.711   7.141  72.288  1.00  0.00     0.189 HD
ENDBRANCH  14  16
BRANCH  13  21
HETATM   21  N8  UNL     1     132.383   6.488  71.026  1.00  0.00    -0.289 N 
ATOM     22  H8  UNL     1     132.131   5.522  71.238  1.00  0.00     0.188 HD
BRANCH  21  23
HETATM   23  N9  UNL     1     132.560   6.940  69.699  1.00  0.00    -0.344 N 
ATOM     24  H92 UNL     1     133.068   7.802  69.500  1.00  0.00     0.176 HD
ATOM     25  H91 UNL     1     132.152   6.357  68.969  1.00  0.00     0.176 HD
ENDBRANCH  21  23
ENDBRANCH  13  21
ENDBRANCH   8  13
BRANCH   7  26
HETATM   26  C6  UNL     1     134.091   9.621  71.110  1.00  0.00     0.276 C 
HETATM   27  O3  UNL     1     134.364   9.370  69.910  1.00  0.00    -0.301 OA
ENDBRANCH   7  26
BRANCH  12  28
HETATM   28  N12 UNL     1     135.923   5.315  75.724  1.00  0.00    -0.335 N 
ATOM     29 2H12 UNL     1     135.040   4.825  75.578  1.00  0.00     0.177 HD
ATOM     30 1H12 UNL     1     136.423   4.825  76.465  1.00  0.00     0.177 HD
ENDBRANCH  12  28
BRANCH   1  31
HETATM   31  C1  UNL     1     138.627   6.738  76.079  1.00  0.00     0.305 C 
HETATM   32  N2  UNL     1     139.391   7.748  76.693  1.00  0.00    -0.270 N 
ATOM     33  H2  UNL     1     139.183   8.729  76.508  1.00  0.00     0.189 HD
HETATM   34  O1  UNL     1     138.862   5.534  76.290  1.00  0.00    -0.263 OA
BRANCH  32  35
HETATM   35  N1  UNL     1     140.425   7.407  77.550  1.00  0.00    -0.342 N 
ATOM     36  H12 UNL     1     140.666   6.423  77.668  1.00  0.00     0.176 HD
ATOM     37  H11 UNL     1     140.932   8.137  78.050  1.00  0.00     0.176 HD
ENDBRANCH  32  35
ENDBRANCH   1  31
TORSDOF 8
ENDMDL
