MODEL 1
REMARK VINA RESULT: -8.173919274      0.000      0.000
REMARK  10 active torsions:
REMARK  status: ('A' for Active; 'I' for Inactive)
REMARK    1  A    between atoms: C2_2  and  N1_3 
REMARK    2  A    between atoms: C2_2  and  C3_7 
REMARK    3  A    between atoms: C3_7  and  C4_9 
REMARK    4  A    between atoms: C4_9  and  O2_10 
REMARK    5  A    between atoms: C4_9  and  C5_12 
REMARK    6  A    between atoms: C6_14  and  O4_15 
REMARK    7  A    between atoms: C6_14  and  C7_17 
REMARK    8  A    between atoms: C7_17  and  O5_18 
REMARK    9  A    between atoms: C9_23  and  N4_24 
REMARK   10  A    between atoms: C11_32  and  O7_33 
ROOT
HETATM    1  C5  UNL     1     131.419   7.141  72.604  1.00  0.00     0.193 C 
HETATM    2  O3  UNL     1     131.482   5.854  72.065  1.00  0.00    -0.340 OA
HETATM    3  C6  UNL     1     131.551   4.994  73.176  1.00  0.00     0.220 C 
HETATM    4  C8  UNL     1     130.542   5.571  74.101  1.00  0.00     0.213 C 
HETATM    5  N2  UNL     1     129.194   5.166  73.751  1.00  0.00    -0.116 NA
HETATM    6  N3  UNL     1     128.247   5.905  74.501  1.00  0.00    -0.093 NA
HETATM    7  C9  UNL     1     128.262   5.531  75.898  1.00  0.00     0.395 C 
HETATM    8  N5  UNL     1     129.594   5.193  76.360  1.00  0.00    -0.318 N 
ATOM      9  H5  UNL     1     129.719   4.926  77.336  1.00  0.00     0.165 HD
HETATM   10  C10 UNL     1     130.732   5.218  75.511  1.00  0.00     0.254 C 
HETATM   11  O6  UNL     1     131.847   4.941  75.987  1.00  0.00    -0.271 OA
HETATM   12  C11 UNL     1     130.792   7.051  73.946  1.00  0.00     0.191 C 
ENDROOT
BRANCH   1  13
HETATM   13  C4  UNL     1     130.719   8.023  71.614  1.00  0.00     0.221 C 
BRANCH  13  14
HETATM   14  C3  UNL     1     131.221   9.421  71.658  1.00  0.00     0.187 C 
HETATM   15  O1  UNL     1     131.151   9.995  72.733  1.00  0.00    -0.293 OA
BRANCH  14  16
HETATM   16  C2  UNL     1     131.789  10.163  70.526  1.00  0.00     0.251 C 
HETATM   17  C1  UNL     1     132.540  11.417  70.996  1.00  0.00     0.048 C 
BRANCH  16  18
HETATM   18  N1  UNL     1     132.693   9.430  69.698  1.00  0.00    -0.069 N 
ATOM     19  H13 UNL     1     133.445  10.004  69.317  1.00  0.00     0.275 HD
ATOM     20  H12 UNL     1     133.281   8.780  70.221  1.00  0.00     0.275 HD
ATOM     21  H11 UNL     1     132.130   8.976  68.979  1.00  0.00     0.275 HD
ENDBRANCH  16  18
ENDBRANCH  14  16
ENDBRANCH  13  14
BRANCH  13  22
HETATM   22  O2  UNL     1     129.354   7.911  71.654  1.00  0.00    -0.385 OA
ATOM     23  H2  UNL     1     129.014   7.558  72.467  1.00  0.00     0.210 HD
ENDBRANCH  13  22
ENDBRANCH   1  13
BRANCH  12  24
HETATM   24  O7  UNL     1     129.728   7.859  74.190  1.00  0.00    -0.390 OA
ATOM     25  H7  UNL     1     129.476   7.983  75.097  1.00  0.00     0.210 HD
ENDBRANCH  12  24
BRANCH   3  26
HETATM   26  O4  UNL     1     132.841   5.143  73.689  1.00  0.00    -0.361 OA
ATOM     27  H4  UNL     1     133.074   4.296  74.051  1.00  0.00     0.213 HD
ENDBRANCH   3  26
BRANCH   3  28
HETATM   28  C7  UNL     1     131.364   3.580  72.778  1.00  0.00     0.235 C 
BRANCH  28  29
HETATM   29  O5  UNL     1     130.768   3.360  71.564  1.00  0.00    -0.395 OA
ATOM     30  H5  UNL     1     130.893   2.500  71.180  1.00  0.00     0.209 HD
ENDBRANCH  28  29
ENDBRANCH   3  28
BRANCH   7  31
HETATM   31  N4  UNL     1     127.413   4.372  76.067  1.00  0.00    -0.043 N 
ATOM     32  H43 UNL     1     127.280   3.854  75.199  1.00  0.00     0.278 HD
ATOM     33  H42 UNL     1     127.863   3.631  76.603  1.00  0.00     0.278 HD
ATOM     34  H41 UNL     1     126.533   4.678  76.481  1.00  0.00     0.278 HD
ENDBRANCH   7  31
TORSDOF 10
ENDMDL
MODEL 2
REMARK VINA RESULT: -8.120988665      1.408      1.497
REMARK  10 active torsions:
REMARK  status: ('A' for Active; 'I' for Inactive)
REMARK    1  A    between atoms: C2_2  and  N1_3 
REMARK    2  A    between atoms: C2_2  and  C3_7 
REMARK    3  A    between atoms: C3_7  and  C4_9 
REMARK    4  A    between atoms: C4_9  and  O2_10 
REMARK    5  A    between atoms: C4_9  and  C5_12 
REMARK    6  A    between atoms: C6_14  and  O4_15 
REMARK    7  A    between atoms: C6_14  and  C7_17 
REMARK    8  A    between atoms: C7_17  and  O5_18 
REMARK    9  A    between atoms: C9_23  and  N4_24 
REMARK   10  A    between atoms: C11_32  and  O7_33 
ROOT
HETATM    1  C5  UNL     1     132.051   7.581  72.696  1.00  0.00     0.193 C 
HETATM    2  O3  UNL     1     132.664   6.327  72.767  1.00  0.00    -0.340 OA
HETATM    3  C6  UNL     1     132.488   5.907  74.097  1.00  0.00     0.220 C 
HETATM    4  C8  UNL     1     131.075   6.272  74.372  1.00  0.00     0.213 C 
HETATM    5  N2  UNL     1     130.149   5.290  73.839  1.00  0.00    -0.116 NA
HETATM    6  N3  UNL     1     128.820   5.773  73.915  1.00  0.00    -0.093 NA
HETATM    7  C9  UNL     1     128.352   5.837  75.282  1.00  0.00     0.395 C 
HETATM    8  N5  UNL     1     129.409   6.192  76.207  1.00  0.00    -0.318 N 
ATOM      9  H5  UNL     1     129.183   6.277  77.198  1.00  0.00     0.165 HD
HETATM   10  C10 UNL     1     130.747   6.427  75.792  1.00  0.00     0.254 C 
HETATM   11  O6  UNL     1     131.594   6.754  76.643  1.00  0.00    -0.271 OA
HETATM   12  C11 UNL     1     130.971   7.626  73.713  1.00  0.00     0.191 C 
ENDROOT
BRANCH   1  13
HETATM   13  C4  UNL     1     131.621   7.805  71.277  1.00  0.00     0.221 C 
BRANCH  13  14
HETATM   14  C3  UNL     1     131.478   9.249  70.959  1.00  0.00     0.187 C 
HETATM   15  O1  UNL     1     130.355   9.641  70.680  1.00  0.00    -0.293 OA
BRANCH  14  16
HETATM   16  C2  UNL     1     132.564  10.236  70.952  1.00  0.00     0.251 C 
HETATM   17  C1  UNL     1     133.822   9.683  70.267  1.00  0.00     0.048 C 
BRANCH  16  18
HETATM   18  N1  UNL     1     132.265  11.480  70.317  1.00  0.00    -0.069 N 
ATOM     19  H13 UNL     1     132.051  12.227  70.977  1.00  0.00     0.275 HD
ATOM     20  H12 UNL     1     133.080  11.919  69.887  1.00  0.00     0.275 HD
ATOM     21  H11 UNL     1     131.510  11.298  69.656  1.00  0.00     0.275 HD
ENDBRANCH  16  18
ENDBRANCH  14  16
ENDBRANCH  13  14
BRANCH  13  22
HETATM   22  O2  UNL     1     130.552   7.035  70.903  1.00  0.00    -0.385 OA
ATOM     23  H2  UNL     1     130.528   6.175  71.306  1.00  0.00     0.210 HD
ENDBRANCH  13  22
ENDBRANCH   1  13
BRANCH  12  24
HETATM   24  O7  UNL     1     129.732   7.983  73.287  1.00  0.00    -0.390 OA
ATOM     25  H7  UNL     1     129.173   7.293  72.950  1.00  0.00     0.210 HD
ENDBRANCH  12  24
BRANCH   3  26
HETATM   26  O4  UNL     1     133.361   6.688  74.859  1.00  0.00    -0.361 OA
ATOM     27  H4  UNL     1     132.862   7.453  75.117  1.00  0.00     0.213 HD
ENDBRANCH   3  26
BRANCH   3  28
HETATM   28  C7  UNL     1     132.858   4.484  74.269  1.00  0.00     0.235 C 
BRANCH  28  29
HETATM   29  O5  UNL     1     132.514   3.635  73.250  1.00  0.00    -0.395 OA
ATOM     30  H5  UNL     1     131.832   3.001  73.438  1.00  0.00     0.209 HD
ENDBRANCH  28  29
ENDBRANCH   3  28
BRANCH   7  31
HETATM   31  N4  UNL     1     127.843   4.533  75.648  1.00  0.00    -0.043 N 
ATOM     32  H43 UNL     1     126.881   4.568  75.986  1.00  0.00     0.278 HD
ATOM     33  H42 UNL     1     127.684   3.933  74.840  1.00  0.00     0.278 HD
ATOM     34  H41 UNL     1     128.483   4.119  76.326  1.00  0.00     0.278 HD
ENDBRANCH   7  31
TORSDOF 10
ENDMDL
MODEL 3
REMARK VINA RESULT: -8.077837138      1.677      1.745
REMARK  10 active torsions:
REMARK  status: ('A' for Active; 'I' for Inactive)
REMARK    1  A    between atoms: C2_2  and  N1_3 
REMARK    2  A    between atoms: C2_2  and  C3_7 
REMARK    3  A    between atoms: C3_7  and  C4_9 
REMARK    4  A    between atoms: C4_9  and  O2_10 
REMARK    5  A    between atoms: C4_9  and  C5_12 
REMARK    6  A    between atoms: C6_14  and  O4_15 
REMARK    7  A    between atoms: C6_14  and  C7_17 
REMARK    8  A    between atoms: C7_17  and  O5_18 
REMARK    9  A    between atoms: C9_23  and  N4_24 
REMARK   10  A    between atoms: C11_32  and  O7_33 
ROOT
HETATM    1  C5  UNL     1     131.860   7.581  73.401  1.00  0.00     0.193 C 
HETATM    2  O3  UNL     1     131.970   6.425  72.624  1.00  0.00    -0.340 OA
HETATM    3  C6  UNL     1     131.851   5.359  73.533  1.00  0.00     0.220 C 
HETATM    4  C8  UNL     1     130.731   5.795  74.405  1.00  0.00     0.213 C 
HETATM    5  N2  UNL     1     129.439   5.542  73.793  1.00  0.00    -0.116 NA
HETATM    6  N3  UNL     1     128.411   6.168  74.538  1.00  0.00    -0.093 NA
HETATM    7  C9  UNL     1     128.208   5.524  75.817  1.00  0.00     0.395 C 
HETATM    8  N5  UNL     1     129.446   5.029  76.383  1.00  0.00    -0.318 N 
ATOM      9  H5  UNL     1     129.418   4.567  77.292  1.00  0.00     0.165 HD
HETATM   10  C10 UNL     1     130.699   5.159  75.726  1.00  0.00     0.254 C 
HETATM   11  O6  UNL     1     131.723   4.733  76.288  1.00  0.00    -0.271 OA
HETATM   12  C11 UNL     1     131.038   7.261  74.593  1.00  0.00     0.191 C 
ENDROOT
BRANCH   1  13
HETATM   13  C4  UNL     1     131.337   8.679  72.523  1.00  0.00     0.221 C 
BRANCH  13  14
HETATM   14  C3  UNL     1     131.880  10.007  72.908  1.00  0.00     0.187 C 
HETATM   15  O1  UNL     1     131.754  10.909  72.094  1.00  0.00    -0.293 OA
BRANCH  14  16
HETATM   16  C2  UNL     1     132.552  10.324  74.175  1.00  0.00     0.251 C 
HETATM   17  C1  UNL     1     133.555  11.474  74.008  1.00  0.00     0.048 C 
BRANCH  16  18
HETATM   18  N1  UNL     1     131.692  10.683  75.257  1.00  0.00    -0.069 N 
ATOM     19  H13 UNL     1     132.173  11.182  76.004  1.00  0.00     0.275 HD
ATOM     20  H12 UNL     1     131.029  11.421  75.016  1.00  0.00     0.275 HD
ATOM     21  H11 UNL     1     131.241   9.824  75.571  1.00  0.00     0.275 HD
ENDBRANCH  16  18
ENDBRANCH  14  16
ENDBRANCH  13  14
BRANCH  13  22
HETATM   22  O2  UNL     1     129.977   8.649  72.364  1.00  0.00    -0.385 OA
ATOM     23  H2  UNL     1     129.598   7.778  72.394  1.00  0.00     0.210 HD
ENDBRANCH  13  22
ENDBRANCH   1  13
BRANCH  12  24
HETATM   24  O7  UNL     1     129.970   8.061  74.845  1.00  0.00    -0.390 OA
ATOM     25  H7  UNL     1     129.621   8.056  75.729  1.00  0.00     0.210 HD
ENDBRANCH  12  24
BRANCH   3  26
HETATM   26  O4  UNL     1     133.054   5.332  74.243  1.00  0.00    -0.361 OA
ATOM     27  H4  UNL     1     133.568   4.637  73.850  1.00  0.00     0.213 HD
ENDBRANCH   3  26
BRANCH   3  28
HETATM   28  C7  UNL     1     131.689   4.065  72.832  1.00  0.00     0.235 C 
BRANCH  28  29
HETATM   29  O5  UNL     1     130.809   4.043  71.784  1.00  0.00    -0.395 OA
ATOM     30  H5  UNL     1     130.742   4.838  71.269  1.00  0.00     0.209 HD
ENDBRANCH  28  29
ENDBRANCH   3  28
BRANCH   7  31
HETATM   31  N4  UNL     1     127.314   4.403  75.624  1.00  0.00    -0.043 N 
ATOM     32  H43 UNL     1     127.124   3.898  76.490  1.00  0.00     0.278 HD
ATOM     33  H42 UNL     1     126.358   4.694  75.421  1.00  0.00     0.278 HD
ATOM     34  H41 UNL     1     127.705   3.804  74.897  1.00  0.00     0.278 HD
ENDBRANCH   7  31
TORSDOF 10
ENDMDL
MODEL 4
REMARK VINA RESULT: -8.002812011      2.649      4.661
REMARK  10 active torsions:
REMARK  status: ('A' for Active; 'I' for Inactive)
REMARK    1  A    between atoms: C2_2  and  N1_3 
REMARK    2  A    between atoms: C2_2  and  C3_7 
REMARK    3  A    between atoms: C3_7  and  C4_9 
REMARK    4  A    between atoms: C4_9  and  O2_10 
REMARK    5  A    between atoms: C4_9  and  C5_12 
REMARK    6  A    between atoms: C6_14  and  O4_15 
REMARK    7  A    between atoms: C6_14  and  C7_17 
REMARK    8  A    between atoms: C7_17  and  O5_18 
REMARK    9  A    between atoms: C9_23  and  N4_24 
REMARK   10  A    between atoms: C11_32  and  O7_33 
ROOT
HETATM    1  C5  UNL     1     132.691   5.640  73.244  1.00  0.00     0.193 C 
HETATM    2  O3  UNL     1     132.830   6.748  74.084  1.00  0.00    -0.340 OA
HETATM    3  C6  UNL     1     131.583   7.395  74.048  1.00  0.00     0.220 C 
HETATM    4  C8  UNL     1     130.624   6.264  74.145  1.00  0.00     0.213 C 
HETATM    5  N2  UNL     1     130.458   5.812  75.514  1.00  0.00    -0.116 NA
HETATM    6  N3  UNL     1     129.724   4.602  75.547  1.00  0.00    -0.093 NA
HETATM    7  C9  UNL     1     128.338   4.806  75.185  1.00  0.00     0.395 C 
HETATM    8  N5  UNL     1     128.182   5.834  74.176  1.00  0.00    -0.318 N 
ATOM      9  H5  UNL     1     127.244   6.049  73.839  1.00  0.00     0.165 HD
HETATM   10  C10 UNL     1     129.281   6.554  73.635  1.00  0.00     0.254 C 
HETATM   11  O6  UNL     1     129.070   7.403  72.751  1.00  0.00    -0.271 OA
HETATM   12  C11 UNL     1     131.263   5.239  73.240  1.00  0.00     0.191 C 
ENDROOT
BRANCH   1  13
HETATM   13  C4  UNL     1     133.663   4.591  73.698  1.00  0.00     0.221 C 
BRANCH  13  14
HETATM   14  C3  UNL     1     134.524   5.072  74.808  1.00  0.00     0.187 C 
HETATM   15  O1  UNL     1     133.985   5.229  75.893  1.00  0.00    -0.293 OA
BRANCH  14  16
HETATM   16  C2  UNL     1     135.958   5.371  74.712  1.00  0.00     0.251 C 
HETATM   17  C1  UNL     1     136.201   6.816  74.254  1.00  0.00     0.048 C 
BRANCH  16  18
HETATM   18  N1  UNL     1     136.710   5.189  75.912  1.00  0.00    -0.069 N 
ATOM     19  H13 UNL     1     137.622   4.762  75.755  1.00  0.00     0.275 HD
ATOM     20  H12 UNL     1     137.046   6.065  76.313  1.00  0.00     0.275 HD
ATOM     21  H11 UNL     1     136.119   4.655  76.550  1.00  0.00     0.275 HD
ENDBRANCH  16  18
ENDBRANCH  14  16
ENDBRANCH  13  14
BRANCH  13  22
HETATM   22  O2  UNL     1     134.345   3.998  72.669  1.00  0.00    -0.385 OA
ATOM     23  H2  UNL     1     134.052   4.258  71.803  1.00  0.00     0.210 HD
ENDBRANCH  13  22
ENDBRANCH   1  13
BRANCH  12  24
HETATM   24  O7  UNL     1     130.981   3.941  73.524  1.00  0.00    -0.390 OA
ATOM     25  H7  UNL     1     130.653   3.749  74.395  1.00  0.00     0.210 HD
ENDBRANCH  12  24
BRANCH   3  26
HETATM   26  O4  UNL     1     131.509   8.004  72.794  1.00  0.00    -0.361 OA
ATOM     27  H4  UNL     1     132.408   8.134  72.517  1.00  0.00     0.213 HD
ENDBRANCH   3  26
BRANCH   3  28
HETATM   28  C7  UNL     1     131.487   8.445  75.088  1.00  0.00     0.235 C 
BRANCH  28  29
HETATM   29  O5  UNL     1     132.153   8.206  76.261  1.00  0.00    -0.395 OA
ATOM     30  H5  UNL     1     133.086   8.384  76.263  1.00  0.00     0.209 HD
ENDBRANCH  28  29
ENDBRANCH   3  28
BRANCH   7  31
HETATM   31  N4  UNL     1     127.616   5.216  76.370  1.00  0.00    -0.043 N 
ATOM     32  H43 UNL     1     126.765   4.674  76.517  1.00  0.00     0.278 HD
ATOM     33  H42 UNL     1     128.096   4.958  77.231  1.00  0.00     0.278 HD
ATOM     34  H41 UNL     1     127.438   6.218  76.305  1.00  0.00     0.278 HD
ENDBRANCH   7  31
TORSDOF 10
ENDMDL
MODEL 5
REMARK VINA RESULT: -7.995951545      1.126      1.168
REMARK  10 active torsions:
REMARK  status: ('A' for Active; 'I' for Inactive)
REMARK    1  A    between atoms: C2_2  and  N1_3 
REMARK    2  A    between atoms: C2_2  and  C3_7 
REMARK    3  A    between atoms: C3_7  and  C4_9 
REMARK    4  A    between atoms: C4_9  and  O2_10 
REMARK    5  A    between atoms: C4_9  and  C5_12 
REMARK    6  A    between atoms: C6_14  and  O4_15 
REMARK    7  A    between atoms: C6_14  and  C7_17 
REMARK    8  A    between atoms: C7_17  and  O5_18 
REMARK    9  A    between atoms: C9_23  and  N4_24 
REMARK   10  A    between atoms: C11_32  and  O7_33 
ROOT
HETATM    1  C5  UNL     1     131.809   7.610  73.319  1.00  0.00     0.193 C 
HETATM    2  O3  UNL     1     131.933   6.438  72.567  1.00  0.00    -0.340 OA
HETATM    3  C6  UNL     1     131.847   5.391  73.502  1.00  0.00     0.220 C 
HETATM    4  C8  UNL     1     130.729   5.824  74.378  1.00  0.00     0.213 C 
HETATM    5  N2  UNL     1     129.435   5.532  73.789  1.00  0.00    -0.116 NA
HETATM    6  N3  UNL     1     128.403   6.154  74.533  1.00  0.00    -0.093 NA
HETATM    7  C9  UNL     1     128.229   5.535  75.828  1.00  0.00     0.395 C 
HETATM    8  N5  UNL     1     129.485   5.078  76.389  1.00  0.00    -0.318 N 
ATOM      9  H5  UNL     1     129.477   4.636  77.308  1.00  0.00     0.165 HD
HETATM   10  C10 UNL     1     130.726   5.218  75.713  1.00  0.00     0.254 C 
HETATM   11  O6  UNL     1     131.766   4.825  76.271  1.00  0.00    -0.271 OA
HETATM   12  C11 UNL     1     131.008   7.300  74.529  1.00  0.00     0.191 C 
ENDROOT
BRANCH   1  13
HETATM   13  C4  UNL     1     131.253   8.677  72.424  1.00  0.00     0.221 C 
BRANCH  13  14
HETATM   14  C3  UNL     1     131.740  10.029  72.800  1.00  0.00     0.187 C 
HETATM   15  O1  UNL     1     131.169  10.580  73.728  1.00  0.00    -0.293 OA
BRANCH  14  16
HETATM   16  C2  UNL     1     132.841  10.754  72.153  1.00  0.00     0.251 C 
HETATM   17  C1  UNL     1     132.337  11.625  70.994  1.00  0.00     0.048 C 
BRANCH  16  18
HETATM   18  N1  UNL     1     133.605  11.608  73.006  1.00  0.00    -0.069 N 
ATOM     19  H13 UNL     1     133.389  12.597  72.882  1.00  0.00     0.275 HD
ATOM     20  H12 UNL     1     133.336  11.540  73.988  1.00  0.00     0.275 HD
ATOM     21  H11 UNL     1     134.587  11.385  72.841  1.00  0.00     0.275 HD
ENDBRANCH  16  18
ENDBRANCH  14  16
ENDBRANCH  13  14
BRANCH  13  22
HETATM   22  O2  UNL     1     129.897   8.592  72.251  1.00  0.00    -0.385 OA
ATOM     23  H2  UNL     1     129.517   7.770  72.538  1.00  0.00     0.210 HD
ENDBRANCH  13  22
ENDBRANCH   1  13
BRANCH  12  24
HETATM   24  O7  UNL     1     129.927   8.085  74.777  1.00  0.00    -0.390 OA
ATOM     25  H7  UNL     1     129.929   8.584  75.585  1.00  0.00     0.210 HD
ENDBRANCH  12  24
BRANCH   3  26
HETATM   26  O4  UNL     1     133.058   5.405  74.196  1.00  0.00    -0.361 OA
ATOM     27  H4  UNL     1     132.849   5.704  75.073  1.00  0.00     0.213 HD
ENDBRANCH   3  26
BRANCH   3  28
HETATM   28  C7  UNL     1     131.703   4.079  72.832  1.00  0.00     0.235 C 
BRANCH  28  29
HETATM   29  O5  UNL     1     130.814   4.017  71.792  1.00  0.00    -0.395 OA
ATOM     30  H5  UNL     1     131.121   3.600  70.995  1.00  0.00     0.209 HD
ENDBRANCH  28  29
ENDBRANCH   3  28
BRANCH   7  31
HETATM   31  N4  UNL     1     127.356   4.392  75.671  1.00  0.00    -0.043 N 
ATOM     32  H43 UNL     1     127.839   3.579  75.290  1.00  0.00     0.278 HD
ATOM     33  H42 UNL     1     127.080   3.984  76.563  1.00  0.00     0.278 HD
ATOM     34  H41 UNL     1     126.557   4.676  75.105  1.00  0.00     0.278 HD
ENDBRANCH   7  31
TORSDOF 10
ENDMDL
