MODEL 1
REMARK VINA RESULT: -8.714582199      0.000      0.000
REMARK  5 active torsions:
REMARK  status: ('A' for Active; 'I' for Inactive)
REMARK    1  A    between atoms: C2_2  and  C3_3 
REMARK    2  A    between atoms: C3_3  and  N1_4 
REMARK       I    between atoms: N1_4  and  C4_6 
REMARK    3  A    between atoms: C4_6  and  C5_8 
REMARK    4  A    between atoms: C13_16  and  C14_17 
REMARK    5  A    between atoms: C14_17  and  C15_19 
ROOT
HETATM    1  C5  UNL     1      42.116 -18.210  43.279  1.00  0.00     0.114 C 
HETATM    2  C6  UNL     1      42.881 -19.498  43.474  1.00  0.00     0.003 C 
HETATM    3  C7  UNL     1      43.302 -19.821  44.846  1.00  0.00     0.006 C 
HETATM    4  C8  UNL     1      42.380 -19.514  45.962  1.00  0.00     0.001 C 
HETATM    5  C9  UNL     1      40.960 -19.933  45.742  1.00  0.00     0.009 C 
HETATM    6  C10 UNL     1      40.400 -19.530  44.378  1.00  0.00     0.019 C 
HETATM    7  C11 UNL     1      40.705 -20.593  43.349  1.00  0.00     0.009 C 
HETATM    8  C12 UNL     1      42.119 -20.681  42.909  1.00  0.00     0.006 C 
HETATM    9  C13 UNL     1      40.824 -18.150  44.039  1.00  0.00    -0.016 C 
ENDROOT
BRANCH   9  10
HETATM   10  C14 UNL     1      39.864 -17.177  43.581  1.00  0.00     0.157 C 
HETATM   11  O2  UNL     1      38.760 -17.618  43.186  1.00  0.00    -0.293 OA
BRANCH  10  12
HETATM   12  C15 UNL     1      39.951 -15.717  43.488  1.00  0.00     0.060 C 
HETATM   13  C16 UNL     1      41.317 -15.116  43.449  1.00  0.00     0.012 C 
HETATM   14  C17 UNL     1      41.417 -13.899  44.358  1.00  0.00     0.001 C 
HETATM   15  C18 UNL     1      40.320 -12.923  44.053  1.00  0.00     0.000 C 
HETATM   16  C19 UNL     1      38.979 -13.565  44.240  1.00  0.00     0.001 C 
HETATM   17  C20 UNL     1      39.163 -15.017  44.588  1.00  0.00     0.012 C 
ENDBRANCH  10  12
ENDBRANCH   9  10
BRANCH   1  18
HETATM   18  C4  UNL     1      42.057 -17.975  41.836  1.00  0.00     0.226 C 
HETATM   19  N1  UNL     1      43.179 -17.393  41.194  1.00  0.00    -0.357 N 
ATOM     20  H1  UNL     1      43.995 -17.153  41.755  1.00  0.00     0.162 HD
HETATM   21  O1  UNL     1      41.081 -18.251  41.090  1.00  0.00    -0.273 OA
BRANCH  19  22
HETATM   22  C3  UNL     1      43.208 -17.126  39.762  1.00  0.00     0.149 C 
BRANCH  22  23
HETATM   23  C2  UNL     1      43.791 -15.755  39.548  1.00  0.00    -0.018 C 
HETATM   24  C1  UNL     1      43.336 -14.777  40.290  1.00  0.00     0.008 C 
ENDBRANCH  22  23
ENDBRANCH  19  22
ENDBRANCH   1  18
TORSDOF 5
ENDMDL
MODEL 2
REMARK VINA RESULT: -8.587306325      1.493      1.760
REMARK  5 active torsions:
REMARK  status: ('A' for Active; 'I' for Inactive)
REMARK    1  A    between atoms: C2_2  and  C3_3 
REMARK    2  A    between atoms: C3_3  and  N1_4 
REMARK       I    between atoms: N1_4  and  C4_6 
REMARK    3  A    between atoms: C4_6  and  C5_8 
REMARK    4  A    between atoms: C13_16  and  C14_17 
REMARK    5  A    between atoms: C14_17  and  C15_19 
ROOT
HETATM    1  C5  UNL     1      43.002 -17.784  43.961  1.00  0.00     0.114 C 
HETATM    2  C6  UNL     1      43.616 -19.080  44.435  1.00  0.00     0.003 C 
HETATM    3  C7  UNL     1      43.068 -19.663  45.670  1.00  0.00     0.006 C 
HETATM    4  C8  UNL     1      41.610 -19.587  45.905  1.00  0.00     0.001 C 
HETATM    5  C9  UNL     1      40.760 -19.964  44.732  1.00  0.00     0.009 C 
HETATM    6  C10 UNL     1      41.188 -19.305  43.421  1.00  0.00     0.019 C 
HETATM    7  C11 UNL     1      42.237 -20.144  42.727  1.00  0.00     0.009 C 
HETATM    8  C12 UNL     1      43.585 -20.134  43.346  1.00  0.00     0.006 C 
HETATM    9  C13 UNL     1      41.537 -17.883  43.654  1.00  0.00    -0.016 C 
ENDROOT
BRANCH   9  10
HETATM   10  C14 UNL     1      40.995 -16.845  42.812  1.00  0.00     0.157 C 
HETATM   11  O2  UNL     1      40.845 -17.124  41.600  1.00  0.00    -0.293 OA
BRANCH  10  12
HETATM   12  C15 UNL     1      40.576 -15.477  43.130  1.00  0.00     0.060 C 
HETATM   13  C16 UNL     1      41.650 -14.489  43.444  1.00  0.00     0.012 C 
HETATM   14  C17 UNL     1      41.289 -13.637  44.652  1.00  0.00     0.001 C 
HETATM   15  C18 UNL     1      39.935 -13.018  44.473  1.00  0.00     0.000 C 
HETATM   16  C19 UNL     1      38.892 -14.079  44.291  1.00  0.00     0.001 C 
HETATM   17  C20 UNL     1      39.553 -15.430  44.257  1.00  0.00     0.012 C 
ENDBRANCH  10  12
ENDBRANCH   9  10
BRANCH   1  18
HETATM   18  C4  UNL     1      43.876 -17.271  42.906  1.00  0.00     0.226 C 
HETATM   19  N1  UNL     1      44.785 -16.230  43.220  1.00  0.00    -0.357 N 
ATOM     20  H1  UNL     1      44.804 -15.866  44.172  1.00  0.00     0.162 HD
HETATM   21  O1  UNL     1      43.901 -17.679  41.715  1.00  0.00    -0.273 OA
BRANCH  19  22
HETATM   22  C3  UNL     1      45.693 -15.661  42.233  1.00  0.00     0.149 C 
BRANCH  22  23
HETATM   23  C2  UNL     1      45.135 -14.338  41.782  1.00  0.00    -0.018 C 
HETATM   24  C1  UNL     1      44.434 -14.319  40.676  1.00  0.00     0.008 C 
ENDBRANCH  22  23
ENDBRANCH  19  22
ENDBRANCH   1  18
TORSDOF 5
ENDMDL
MODEL 3
REMARK VINA RESULT: -8.578667764      1.351      1.549
REMARK  5 active torsions:
REMARK  status: ('A' for Active; 'I' for Inactive)
REMARK    1  A    between atoms: C2_2  and  C3_3 
REMARK    2  A    between atoms: C3_3  and  N1_4 
REMARK       I    between atoms: N1_4  and  C4_6 
REMARK    3  A    between atoms: C4_6  and  C5_8 
REMARK    4  A    between atoms: C13_16  and  C14_17 
REMARK    5  A    between atoms: C14_17  and  C15_19 
ROOT
HETATM    1  C5  UNL     1      42.976 -17.750  43.999  1.00  0.00     0.114 C 
HETATM    2  C6  UNL     1      43.605 -19.041  44.467  1.00  0.00     0.003 C 
HETATM    3  C7  UNL     1      43.040 -19.655  45.678  1.00  0.00     0.006 C 
HETATM    4  C8  UNL     1      41.575 -19.613  45.878  1.00  0.00     0.001 C 
HETATM    5  C9  UNL     1      40.762 -19.989  44.678  1.00  0.00     0.009 C 
HETATM    6  C10 UNL     1      41.209 -19.298  43.389  1.00  0.00     0.019 C 
HETATM    7  C11 UNL     1      42.291 -20.104  42.708  1.00  0.00     0.009 C 
HETATM    8  C12 UNL     1      43.624 -20.076  43.361  1.00  0.00     0.006 C 
HETATM    9  C13 UNL     1      41.522 -17.874  43.654  1.00  0.00    -0.016 C 
ENDROOT
BRANCH   9  10
HETATM   10  C14 UNL     1      40.978 -16.833  42.815  1.00  0.00     0.157 C 
HETATM   11  O2  UNL     1      40.824 -17.110  41.604  1.00  0.00    -0.293 OA
BRANCH  10  12
HETATM   12  C15 UNL     1      40.564 -15.465  43.137  1.00  0.00     0.060 C 
HETATM   13  C16 UNL     1      41.642 -14.483  43.458  1.00  0.00     0.012 C 
HETATM   14  C17 UNL     1      41.279 -13.633  44.668  1.00  0.00     0.001 C 
HETATM   15  C18 UNL     1      39.928 -13.008  44.487  1.00  0.00     0.000 C 
HETATM   16  C19 UNL     1      38.882 -14.064  44.298  1.00  0.00     0.001 C 
HETATM   17  C20 UNL     1      39.537 -15.418  44.261  1.00  0.00     0.012 C 
ENDBRANCH  10  12
ENDBRANCH   9  10
BRANCH   1  18
HETATM   18  C4  UNL     1      43.865 -17.201  42.974  1.00  0.00     0.226 C 
HETATM   19  N1  UNL     1      43.599 -17.494  41.613  1.00  0.00    -0.357 N 
ATOM     20  H1  UNL     1      42.797 -18.080  41.385  1.00  0.00     0.162 HD
HETATM   21  O1  UNL     1      44.868 -16.472  43.191  1.00  0.00    -0.273 OA
BRANCH  19  22
HETATM   22  C3  UNL     1      44.430 -16.989  40.528  1.00  0.00     0.149 C 
BRANCH  22  23
HETATM   23  C2  UNL     1      43.590 -16.081  39.670  1.00  0.00    -0.018 C 
HETATM   24  C1  UNL     1      43.313 -14.889  40.136  1.00  0.00     0.008 C 
ENDBRANCH  22  23
ENDBRANCH  19  22
ENDBRANCH   1  18
TORSDOF 5
ENDMDL
MODEL 4
REMARK VINA RESULT: -8.543739056      2.066      2.313
REMARK  5 active torsions:
REMARK  status: ('A' for Active; 'I' for Inactive)
REMARK    1  A    between atoms: C2_2  and  C3_3 
REMARK    2  A    between atoms: C3_3  and  N1_4 
REMARK       I    between atoms: N1_4  and  C4_6 
REMARK    3  A    between atoms: C4_6  and  C5_8 
REMARK    4  A    between atoms: C13_16  and  C14_17 
REMARK    5  A    between atoms: C14_17  and  C15_19 
ROOT
HETATM    1  C5  UNL     1      42.961 -17.765  44.022  1.00  0.00     0.114 C 
HETATM    2  C6  UNL     1      43.579 -19.058  44.498  1.00  0.00     0.003 C 
HETATM    3  C7  UNL     1      42.995 -19.671  45.701  1.00  0.00     0.006 C 
HETATM    4  C8  UNL     1      41.527 -19.623  45.881  1.00  0.00     0.001 C 
HETATM    5  C9  UNL     1      40.729 -19.995  44.670  1.00  0.00     0.009 C 
HETATM    6  C10 UNL     1      41.196 -19.306  43.387  1.00  0.00     0.019 C 
HETATM    7  C11 UNL     1      42.285 -20.116  42.721  1.00  0.00     0.009 C 
HETATM    8  C12 UNL     1      43.609 -20.094  43.391  1.00  0.00     0.006 C 
HETATM    9  C13 UNL     1      41.511 -17.882  43.657  1.00  0.00    -0.016 C 
ENDROOT
BRANCH   9  10
HETATM   10  C14 UNL     1      40.984 -16.839  42.811  1.00  0.00     0.157 C 
HETATM   11  O2  UNL     1      40.838 -17.117  41.599  1.00  0.00    -0.293 OA
BRANCH  10  12
HETATM   12  C15 UNL     1      40.577 -15.468  43.126  1.00  0.00     0.060 C 
HETATM   13  C16 UNL     1      41.658 -14.496  43.467  1.00  0.00     0.012 C 
HETATM   14  C17 UNL     1      41.283 -13.643  44.671  1.00  0.00     0.001 C 
HETATM   15  C18 UNL     1      39.941 -13.005  44.467  1.00  0.00     0.000 C 
HETATM   16  C19 UNL     1      38.888 -14.052  44.259  1.00  0.00     0.001 C 
HETATM   17  C20 UNL     1      39.531 -15.411  44.233  1.00  0.00     0.012 C 
ENDBRANCH  10  12
ENDBRANCH   9  10
BRANCH   1  18
HETATM   18  C4  UNL     1      43.867 -17.219  43.009  1.00  0.00     0.226 C 
HETATM   19  N1  UNL     1      44.956 -16.417  43.431  1.00  0.00    -0.357 N 
ATOM     20  H1  UNL     1      45.079 -16.240  44.427  1.00  0.00     0.162 HD
HETATM   21  O1  UNL     1      43.769 -17.402  41.768  1.00  0.00    -0.273 OA
BRANCH  19  22
HETATM   22  C3  UNL     1      45.907 -15.835  42.493  1.00  0.00     0.149 C 
BRANCH  22  23
HETATM   23  C2  UNL     1      47.267 -16.412  42.777  1.00  0.00    -0.018 C 
HETATM   24  C1  UNL     1      47.539 -16.753  44.012  1.00  0.00     0.008 C 
ENDBRANCH  22  23
ENDBRANCH  19  22
ENDBRANCH   1  18
TORSDOF 5
ENDMDL
MODEL 5
REMARK VINA RESULT: -8.534178016      0.616      1.106
REMARK  5 active torsions:
REMARK  status: ('A' for Active; 'I' for Inactive)
REMARK    1  A    between atoms: C2_2  and  C3_3 
REMARK    2  A    between atoms: C3_3  and  N1_4 
REMARK       I    between atoms: N1_4  and  C4_6 
REMARK    3  A    between atoms: C4_6  and  C5_8 
REMARK    4  A    between atoms: C13_16  and  C14_17 
REMARK    5  A    between atoms: C14_17  and  C15_19 
ROOT
HETATM    1  C5  UNL     1      42.109 -18.199  43.333  1.00  0.00     0.114 C 
HETATM    2  C6  UNL     1      42.894 -19.472  43.540  1.00  0.00     0.003 C 
HETATM    3  C7  UNL     1      43.287 -19.793  44.921  1.00  0.00     0.006 C 
HETATM    4  C8  UNL     1      42.332 -19.511  46.015  1.00  0.00     0.001 C 
HETATM    5  C9  UNL     1      40.927 -19.957  45.758  1.00  0.00     0.009 C 
HETATM    6  C10 UNL     1      40.393 -19.557  44.382  1.00  0.00     0.019 C 
HETATM    7  C11 UNL     1      40.745 -20.610  43.356  1.00  0.00     0.009 C 
HETATM    8  C12 UNL     1      42.171 -20.667  42.951  1.00  0.00     0.006 C 
HETATM    9  C13 UNL     1      40.798 -18.168  44.060  1.00  0.00    -0.016 C 
ENDROOT
BRANCH   9  10
HETATM   10  C14 UNL     1      39.830 -17.212  43.582  1.00  0.00     0.157 C 
HETATM   11  O2  UNL     1      38.754 -17.675  43.137  1.00  0.00    -0.293 OA
BRANCH  10  12
HETATM   12  C15 UNL     1      39.881 -15.749  43.520  1.00  0.00     0.060 C 
HETATM   13  C16 UNL     1      41.232 -15.114  43.481  1.00  0.00     0.012 C 
HETATM   14  C17 UNL     1      41.311 -13.914  44.414  1.00  0.00     0.001 C 
HETATM   15  C18 UNL     1      40.188 -12.959  44.140  1.00  0.00     0.000 C 
HETATM   16  C19 UNL     1      38.864 -13.637  44.324  1.00  0.00     0.001 C 
HETATM   17  C20 UNL     1      39.087 -15.091  44.641  1.00  0.00     0.012 C 
ENDBRANCH  10  12
ENDBRANCH   9  10
BRANCH   1  18
HETATM   18  C4  UNL     1      42.081 -17.957  41.889  1.00  0.00     0.226 C 
HETATM   19  N1  UNL     1      43.240 -17.433  41.264  1.00  0.00    -0.357 N 
ATOM     20  H1  UNL     1      44.061 -17.237  41.837  1.00  0.00     0.162 HD
HETATM   21  O1  UNL     1      41.103 -18.180  41.130  1.00  0.00    -0.273 OA
BRANCH  19  22
HETATM   22  C3  UNL     1      43.303 -17.164  39.834  1.00  0.00     0.149 C 
BRANCH  22  23
HETATM   23  C2  UNL     1      44.400 -18.006  39.239  1.00  0.00    -0.018 C 
HETATM   24  C1  UNL     1      44.240 -19.305  39.243  1.00  0.00     0.008 C 
ENDBRANCH  22  23
ENDBRANCH  19  22
ENDBRANCH   1  18
TORSDOF 5
ENDMDL
