MODEL 1
REMARK VINA RESULT: -8.714620589      0.000      0.000
REMARK  5 active torsions:
REMARK  status: ('A' for Active; 'I' for Inactive)
REMARK    1  A    between atoms: C10_10  and  N1_11 
REMARK       I    between atoms: N1_11  and  C11_13 
REMARK    2  A    between atoms: C11_13  and  C12_15 
REMARK    3  A    between atoms: C12_15  and  C13_16 
REMARK    4  A    between atoms: C13_16  and  C14_17 
REMARK    5  A    between atoms: C14_17  and  N2_18 
ROOT
HETATM    1  N1  UNL     1      43.048 -18.303  43.821  1.00  0.00    -0.351 N 
ATOM      2  H1  UNL     1      42.922 -17.778  44.687  1.00  0.00     0.163 HD
HETATM    3  C11 UNL     1      43.505 -17.573  42.712  1.00  0.00     0.218 C 
HETATM    4  O1  UNL     1      43.690 -18.121  41.609  1.00  0.00    -0.274 OA
ENDROOT
BRANCH   1   5
HETATM    5  C10 UNL     1      42.736 -19.705  43.876  1.00  0.00     0.037 C 
HETATM    6  C2  UNL     1      42.276 -20.096  45.278  1.00  0.00     0.014 C 
HETATM    7  C1  UNL     1      43.289 -19.745  46.326  1.00  0.00     0.012 C 
HETATM    8  C3  UNL     1      41.947 -21.550  45.297  1.00  0.00    -0.008 C 
HETATM    9  C4  UNL     1      43.169 -22.352  44.908  1.00  0.00     0.010 C 
HETATM   10  C8  UNL     1      40.828 -21.872  44.358  1.00  0.00     0.010 C 
HETATM   11  C5  UNL     1      43.573 -22.019  43.507  1.00  0.00    -0.012 C 
HETATM   12  C6  UNL     1      42.452 -22.259  42.522  1.00  0.00     0.009 C 
HETATM   13  C20 UNL     1      43.920 -20.537  43.454  1.00  0.00     0.036 C 
HETATM   14  C7  UNL     1      41.246 -21.480  42.950  1.00  0.00    -0.012 C 
HETATM   15  C9  UNL     1      41.570 -20.001  42.961  1.00  0.00     0.036 C 
ENDBRANCH   1   5
BRANCH   3  16
HETATM   16  C12 UNL     1      43.799 -16.108  42.783  1.00  0.00     0.104 C 
BRANCH  16  17
HETATM   17  C13 UNL     1      42.727 -15.294  42.097  1.00  0.00     0.039 C 
BRANCH  17  18
HETATM   18  C14 UNL     1      41.392 -15.740  42.635  1.00  0.00     0.273 C 
BRANCH  18  19
HETATM   19  N2  UNL     1      40.752 -14.771  43.456  1.00  0.00     0.088 N 
HETATM   20  C15 UNL     1      41.358 -13.457  43.368  1.00  0.00     0.272 C 
HETATM   21  C16 UNL     1      40.744 -12.499  44.365  1.00  0.00     0.030 C 
HETATM   22  C17 UNL     1      39.772 -13.205  45.286  1.00  0.00     0.003 C 
HETATM   23  C18 UNL     1      38.773 -14.056  44.580  1.00  0.00     0.030 C 
HETATM   24  C19 UNL     1      39.336 -14.670  43.318  1.00  0.00     0.272 C 
ENDBRANCH  18  19
ENDBRANCH  17  18
ENDBRANCH  16  17
ENDBRANCH   3  16
TORSDOF 5
ENDMDL
MODEL 2
REMARK VINA RESULT: -8.671986963      0.893      1.426
REMARK  5 active torsions:
REMARK  status: ('A' for Active; 'I' for Inactive)
REMARK    1  A    between atoms: C10_10  and  N1_11 
REMARK       I    between atoms: N1_11  and  C11_13 
REMARK    2  A    between atoms: C11_13  and  C12_15 
REMARK    3  A    between atoms: C12_15  and  C13_16 
REMARK    4  A    between atoms: C13_16  and  C14_17 
REMARK    5  A    between atoms: C14_17  and  N2_18 
ROOT
HETATM    1  N1  UNL     1      42.875 -18.300  43.589  1.00  0.00    -0.351 N 
ATOM      2  H1  UNL     1      43.128 -17.725  44.393  1.00  0.00     0.163 HD
HETATM    3  C11 UNL     1      43.239 -17.798  42.328  1.00  0.00     0.218 C 
HETATM    4  O1  UNL     1      42.975 -18.422  41.284  1.00  0.00    -0.274 OA
ENDROOT
BRANCH   1   5
HETATM    5  C10 UNL     1      42.189 -19.529  43.874  1.00  0.00     0.037 C 
HETATM    6  C2  UNL     1      42.033 -19.717  45.382  1.00  0.00     0.014 C 
HETATM    7  C1  UNL     1      43.350 -19.676  46.097  1.00  0.00     0.012 C 
HETATM    8  C3  UNL     1      41.305 -20.992  45.644  1.00  0.00    -0.008 C 
HETATM    9  C4  UNL     1      42.079 -22.148  45.052  1.00  0.00     0.010 C 
HETATM   10  C8  UNL     1      39.930 -20.969  45.057  1.00  0.00     0.010 C 
HETATM   11  C5  UNL     1      42.167 -21.998  43.567  1.00  0.00    -0.012 C 
HETATM   12  C6  UNL     1      40.801 -21.898  42.927  1.00  0.00     0.009 C 
HETATM   13  C20 UNL     1      42.909 -20.704  43.264  1.00  0.00     0.036 C 
HETATM   14  C7  UNL     1      40.045 -20.767  43.554  1.00  0.00    -0.012 C 
HETATM   15  C9  UNL     1      40.784 -19.466  43.320  1.00  0.00     0.036 C 
ENDBRANCH   1   5
BRANCH   3  16
HETATM   16  C12 UNL     1      43.959 -16.497  42.160  1.00  0.00     0.104 C 
BRANCH  16  17
HETATM   17  C13 UNL     1      43.432 -15.446  43.109  1.00  0.00     0.039 C 
BRANCH  17  18
HETATM   18  C14 UNL     1      42.337 -14.690  42.401  1.00  0.00     0.273 C 
BRANCH  18  19
HETATM   19  N2  UNL     1      41.219 -14.393  43.228  1.00  0.00     0.088 N 
HETATM   20  C15 UNL     1      40.449 -15.565  43.594  1.00  0.00     0.272 C 
HETATM   21  C16 UNL     1      39.192 -15.187  44.346  1.00  0.00     0.030 C 
HETATM   22  C17 UNL     1      38.999 -13.686  44.384  1.00  0.00     0.003 C 
HETATM   23  C18 UNL     1      40.208 -12.927  44.817  1.00  0.00     0.030 C 
HETATM   24  C19 UNL     1      41.490 -13.602  44.385  1.00  0.00     0.272 C 
ENDBRANCH  18  19
ENDBRANCH  17  18
ENDBRANCH  16  17
ENDBRANCH   3  16
TORSDOF 5
ENDMDL
MODEL 3
REMARK VINA RESULT: -8.564061270      0.840      2.071
REMARK  5 active torsions:
REMARK  status: ('A' for Active; 'I' for Inactive)
REMARK    1  A    between atoms: C10_10  and  N1_11 
REMARK       I    between atoms: N1_11  and  C11_13 
REMARK    2  A    between atoms: C11_13  and  C12_15 
REMARK    3  A    between atoms: C12_15  and  C13_16 
REMARK    4  A    between atoms: C13_16  and  C14_17 
REMARK    5  A    between atoms: C14_17  and  N2_18 
ROOT
HETATM    1  N1  UNL     1      42.454 -18.656  44.430  1.00  0.00    -0.351 N 
ATOM      2  H1  UNL     1      41.962 -18.131  45.154  1.00  0.00     0.163 HD
HETATM    3  C11 UNL     1      43.313 -17.917  43.601  1.00  0.00     0.218 C 
HETATM    4  O1  UNL     1      43.958 -18.463  42.687  1.00  0.00    -0.274 OA
ENDROOT
BRANCH   1   5
HETATM    5  C10 UNL     1      42.188 -20.067  44.374  1.00  0.00     0.037 C 
HETATM    6  C2  UNL     1      41.661 -20.458  42.995  1.00  0.00     0.014 C 
HETATM    7  C1  UNL     1      40.437 -19.680  42.614  1.00  0.00     0.012 C 
HETATM    8  C3  UNL     1      41.409 -21.927  42.966  1.00  0.00    -0.008 C 
HETATM    9  C4  UNL     1      40.399 -22.290  44.031  1.00  0.00     0.010 C 
HETATM   10  C8  UNL     1      42.666 -22.704  43.196  1.00  0.00     0.010 C 
HETATM   11  C5  UNL     1      40.947 -21.972  45.385  1.00  0.00    -0.012 C 
HETATM   12  C6  UNL     1      42.259 -22.678  45.644  1.00  0.00     0.009 C 
HETATM   13  C20 UNL     1      41.213 -20.475  45.450  1.00  0.00     0.036 C 
HETATM   14  C7  UNL     1      43.229 -22.328  44.558  1.00  0.00    -0.012 C 
HETATM   15  C9  UNL     1      43.477 -20.834  44.556  1.00  0.00     0.036 C 
ENDBRANCH   1   5
BRANCH   3  16
HETATM   16  C12 UNL     1      43.509 -16.442  43.762  1.00  0.00     0.104 C 
BRANCH  16  17
HETATM   17  C13 UNL     1      42.900 -15.673  42.614  1.00  0.00     0.039 C 
BRANCH  17  18
HETATM   18  C14 UNL     1      41.402 -15.828  42.695  1.00  0.00     0.273 C 
BRANCH  18  19
HETATM   19  N2  UNL     1      40.766 -14.830  43.483  1.00  0.00     0.088 N 
HETATM   20  C15 UNL     1      41.364 -13.518  43.337  1.00  0.00     0.272 C 
HETATM   21  C16 UNL     1      40.755 -12.523  44.301  1.00  0.00     0.030 C 
HETATM   22  C17 UNL     1      39.794 -13.196  45.259  1.00  0.00     0.003 C 
HETATM   23  C18 UNL     1      38.793 -14.079  44.596  1.00  0.00     0.030 C 
HETATM   24  C19 UNL     1      39.348 -14.741  43.354  1.00  0.00     0.272 C 
ENDBRANCH  18  19
ENDBRANCH  17  18
ENDBRANCH  16  17
ENDBRANCH   3  16
TORSDOF 5
ENDMDL
MODEL 4
REMARK VINA RESULT: -8.421271317      0.943      1.906
REMARK  5 active torsions:
REMARK  status: ('A' for Active; 'I' for Inactive)
REMARK    1  A    between atoms: C10_10  and  N1_11 
REMARK       I    between atoms: N1_11  and  C11_13 
REMARK    2  A    between atoms: C11_13  and  C12_15 
REMARK    3  A    between atoms: C12_15  and  C13_16 
REMARK    4  A    between atoms: C13_16  and  C14_17 
REMARK    5  A    between atoms: C14_17  and  N2_18 
ROOT
HETATM    1  N1  UNL     1      42.443 -18.981  42.436  1.00  0.00    -0.351 N 
ATOM      2  H1  UNL     1      41.940 -19.012  41.549  1.00  0.00     0.163 HD
HETATM    3  C11 UNL     1      43.230 -17.841  42.665  1.00  0.00     0.218 C 
HETATM    4  O1  UNL     1      43.884 -17.707  43.715  1.00  0.00    -0.274 OA
ENDROOT
BRANCH   1   5
HETATM    5  C10 UNL     1      42.266 -20.109  43.308  1.00  0.00     0.037 C 
HETATM    6  C2  UNL     1      43.587 -20.853  43.495  1.00  0.00     0.014 C 
HETATM    7  C1  UNL     1      44.180 -21.291  42.190  1.00  0.00     0.012 C 
HETATM    8  C3  UNL     1      43.373 -22.007  44.416  1.00  0.00    -0.008 C 
HETATM    9  C4  UNL     1      42.330 -22.934  43.832  1.00  0.00     0.010 C 
HETATM   10  C8  UNL     1      42.925 -21.554  45.769  1.00  0.00     0.010 C 
HETATM   11  C5  UNL     1      41.020 -22.224  43.718  1.00  0.00    -0.012 C 
HETATM   12  C6  UNL     1      40.553 -21.681  45.049  1.00  0.00     0.009 C 
HETATM   13  C20 UNL     1      41.203 -21.038  42.780  1.00  0.00     0.036 C 
HETATM   14  C7  UNL     1      41.617 -20.793  45.619  1.00  0.00    -0.012 C 
HETATM   15  C9  UNL     1      41.866 -19.628  44.684  1.00  0.00     0.036 C 
ENDBRANCH   1   5
BRANCH   3  16
HETATM   16  C12 UNL     1      43.331 -16.725  41.673  1.00  0.00     0.104 C 
BRANCH  16  17
HETATM   17  C13 UNL     1      42.702 -15.457  42.200  1.00  0.00     0.039 C 
BRANCH  17  18
HETATM   18  C14 UNL     1      41.284 -15.775  42.602  1.00  0.00     0.273 C 
BRANCH  18  19
HETATM   19  N2  UNL     1      40.695 -14.795  43.447  1.00  0.00     0.088 N 
HETATM   20  C15 UNL     1      41.367 -13.512  43.390  1.00  0.00     0.272 C 
HETATM   21  C16 UNL     1      40.802 -12.548  44.412  1.00  0.00     0.030 C 
HETATM   22  C17 UNL     1      39.796 -13.226  45.316  1.00  0.00     0.003 C 
HETATM   23  C18 UNL     1      38.754 -14.007  44.590  1.00  0.00     0.030 C 
HETATM   24  C19 UNL     1      39.286 -14.618  43.313  1.00  0.00     0.272 C 
ENDBRANCH  18  19
ENDBRANCH  17  18
ENDBRANCH  16  17
ENDBRANCH   3  16
TORSDOF 5
ENDMDL
MODEL 5
REMARK VINA RESULT: -8.324600060      0.927      1.778
REMARK  5 active torsions:
REMARK  status: ('A' for Active; 'I' for Inactive)
REMARK    1  A    between atoms: C10_10  and  N1_11 
REMARK       I    between atoms: N1_11  and  C11_13 
REMARK    2  A    between atoms: C11_13  and  C12_15 
REMARK    3  A    between atoms: C12_15  and  C13_16 
REMARK    4  A    between atoms: C13_16  and  C14_17 
REMARK    5  A    between atoms: C14_17  and  N2_18 
ROOT
HETATM    1  N1  UNL     1      42.949 -18.508  43.709  1.00  0.00    -0.351 N 
ATOM      2  H1  UNL     1      43.299 -18.055  44.553  1.00  0.00     0.163 HD
HETATM    3  C11 UNL     1      43.268 -17.886  42.491  1.00  0.00     0.218 C 
HETATM    4  O1  UNL     1      42.888 -18.359  41.404  1.00  0.00    -0.274 OA
ENDROOT
BRANCH   1   5
HETATM    5  C10 UNL     1      42.187 -19.710  43.901  1.00  0.00     0.037 C 
HETATM    6  C2  UNL     1      40.748 -19.512  43.429  1.00  0.00     0.014 C 
HETATM    7  C1  UNL     1      40.081 -18.356  44.111  1.00  0.00     0.012 C 
HETATM    8  C3  UNL     1      39.989 -20.780  43.628  1.00  0.00    -0.008 C 
HETATM    9  C4  UNL     1      40.008 -21.158  45.092  1.00  0.00     0.010 C 
HETATM   10  C8  UNL     1      40.568 -21.900  42.823  1.00  0.00     0.010 C 
HETATM   11  C5  UNL     1      41.413 -21.422  45.533  1.00  0.00    -0.012 C 
HETATM   12  C6  UNL     1      42.073 -22.499  44.704  1.00  0.00     0.009 C 
HETATM   13  C20 UNL     1      42.216 -20.143  45.345  1.00  0.00     0.036 C 
HETATM   14  C7  UNL     1      42.010 -22.115  43.257  1.00  0.00    -0.012 C 
HETATM   15  C9  UNL     1      42.755 -20.815  43.040  1.00  0.00     0.036 C 
ENDBRANCH   1   5
BRANCH   3  16
HETATM   16  C12 UNL     1      44.078 -16.629  42.421  1.00  0.00     0.104 C 
BRANCH  16  17
HETATM   17  C13 UNL     1      43.403 -15.494  43.154  1.00  0.00     0.039 C 
BRANCH  17  18
HETATM   18  C14 UNL     1      41.990 -15.386  42.640  1.00  0.00     0.273 C 
BRANCH  18  19
HETATM   19  N2  UNL     1      41.143 -14.588  43.457  1.00  0.00     0.088 N 
HETATM   20  C15 UNL     1      41.474 -13.178  43.421  1.00  0.00     0.272 C 
HETATM   21  C16 UNL     1      40.648 -12.391  44.415  1.00  0.00     0.030 C 
HETATM   22  C17 UNL     1      39.809 -13.303  45.283  1.00  0.00     0.003 C 
HETATM   23  C18 UNL     1      39.024 -14.316  44.521  1.00  0.00     0.030 C 
HETATM   24  C19 UNL     1      39.740 -14.768  43.268  1.00  0.00     0.272 C 
ENDBRANCH  18  19
ENDBRANCH  17  18
ENDBRANCH  16  17
ENDBRANCH   3  16
TORSDOF 5
ENDMDL
