MODEL 1
REMARK VINA RESULT: -8.165093968      0.000      0.000
REMARK  7 active torsions:
REMARK  status: ('A' for Active; 'I' for Inactive)
REMARK    1  A    between atoms: N1_2  and  C2_3 
REMARK       I    between atoms: N1_2  and  C6_7 
REMARK    2  A    between atoms: C2_3  and  C3_4 
REMARK    3  A    between atoms: C6_7  and  O2_9 
REMARK    4  A    between atoms: O2_9  and  C7_10 
REMARK    5  A    between atoms: C7_10  and  C8_11 
REMARK    6  A    between atoms: C13_16  and  N2_17 
REMARK       I    between atoms: N2_17  and  C14_19 
REMARK    7  A    between atoms: C14_19  and  C15_21 
ROOT
HETATM    1  C8  UNL     1      40.628 -20.446  43.073  1.00  0.00     0.033 C 
HETATM    2  C9  UNL     1      39.847 -21.763  43.067  1.00  0.00     0.009 C 
HETATM    3  C10 UNL     1      39.903 -22.425  44.425  1.00  0.00     0.001 C 
HETATM    4  C11 UNL     1      41.293 -22.573  44.952  1.00  0.00     0.002 C 
HETATM    5  C12 UNL     1      41.979 -21.219  44.938  1.00  0.00     0.026 C 
HETATM    6  C13 UNL     1      42.046 -20.809  43.460  1.00  0.00     0.090 C 
ENDROOT
BRANCH   1   7
HETATM    7  C7  UNL     1      40.631 -19.917  41.673  1.00  0.00     0.187 C 
BRANCH   7   8
HETATM    8  O2  UNL     1      39.835 -18.787  41.477  1.00  0.00    -0.303 OA
BRANCH   8   9
HETATM    9  C6  UNL     1      39.312 -17.986  42.478  1.00  0.00     0.362 C 
HETATM   10  N1  UNL     1      40.048 -16.854  42.923  1.00  0.00    -0.332 N 
HETATM   11  C1  UNL     1      41.337 -16.518  42.350  1.00  0.00     0.155 C 
HETATM   12  O1  UNL     1      38.194 -18.300  42.958  1.00  0.00    -0.238 OA
BRANCH  10  13
HETATM   13  C2  UNL     1      39.516 -16.003  43.970  1.00  0.00     0.132 C 
BRANCH  13  14
HETATM   14  C3  UNL     1      39.941 -14.571  43.830  1.00  0.00     0.004 A 
HETATM   15  C4  UNL     1      38.803 -13.584  43.834  1.00  0.00     0.007 A 
HETATM   16  C5  UNL     1      39.712 -13.643  44.991  1.00  0.00     0.007 A 
ENDBRANCH  13  14
ENDBRANCH  10  13
ENDBRANCH   8   9
ENDBRANCH   7   8
ENDBRANCH   1   7
BRANCH   6  17
HETATM   17  N2  UNL     1      42.974 -19.732  43.323  1.00  0.00    -0.355 N 
HETATM   18  C14 UNL     1      44.269 -19.995  42.798  1.00  0.00     0.225 C 
HETATM   19  O3  UNL     1      44.547 -21.183  42.472  1.00  0.00    -0.273 OA
ATOM     20  H2  UNL     1      42.711 -18.786  43.598  1.00  0.00     0.162 HD
BRANCH  18  21
HETATM   21  C15 UNL     1      45.285 -18.919  42.629  1.00  0.00     0.030 C 
HETATM   22  C16 UNL     1      46.472 -19.515  41.910  1.00  0.00     0.024 C 
HETATM   23  C17 UNL     1      45.710 -18.339  43.950  1.00  0.00     0.024 C 
HETATM   24  C18 UNL     1      44.746 -17.792  41.753  1.00  0.00     0.024 C 
ENDBRANCH  18  21
ENDBRANCH   6  17
TORSDOF 7
ENDMDL
MODEL 2
REMARK VINA RESULT: -8.020451124      2.038      3.170
REMARK  7 active torsions:
REMARK  status: ('A' for Active; 'I' for Inactive)
REMARK    1  A    between atoms: N1_2  and  C2_3 
REMARK       I    between atoms: N1_2  and  C6_7 
REMARK    2  A    between atoms: C2_3  and  C3_4 
REMARK    3  A    between atoms: C6_7  and  O2_9 
REMARK    4  A    between atoms: O2_9  and  C7_10 
REMARK    5  A    between atoms: C7_10  and  C8_11 
REMARK    6  A    between atoms: C13_16  and  N2_17 
REMARK       I    between atoms: N2_17  and  C14_19 
REMARK    7  A    between atoms: C14_19  and  C15_21 
ROOT
HETATM    1  C8  UNL     1      41.573 -20.320  40.594  1.00  0.00     0.033 C 
HETATM    2  C9  UNL     1      42.278 -20.216  39.238  1.00  0.00     0.009 C 
HETATM    3  C10 UNL     1      42.914 -21.534  38.861  1.00  0.00     0.001 C 
HETATM    4  C11 UNL     1      43.791 -22.093  39.933  1.00  0.00     0.002 C 
HETATM    5  C12 UNL     1      43.006 -22.177  41.229  1.00  0.00     0.026 C 
HETATM    6  C13 UNL     1      42.644 -20.728  41.584  1.00  0.00     0.090 C 
ENDROOT
BRANCH   1   7
HETATM    7  C7  UNL     1      41.079 -18.954  40.953  1.00  0.00     0.187 C 
BRANCH   7   8
HETATM    8  O2  UNL     1      40.134 -18.928  41.979  1.00  0.00    -0.303 OA
BRANCH   8   9
HETATM    9  C6  UNL     1      39.410 -17.817  42.379  1.00  0.00     0.362 C 
HETATM   10  N1  UNL     1      40.069 -16.770  43.080  1.00  0.00    -0.332 N 
HETATM   11  C1  UNL     1      41.485 -16.839  43.385  1.00  0.00     0.155 C 
HETATM   12  O1  UNL     1      38.185 -17.784  42.103  1.00  0.00    -0.238 OA
BRANCH  10  13
HETATM   13  C2  UNL     1      39.328 -15.599  43.507  1.00  0.00     0.132 C 
BRANCH  13  14
HETATM   14  C3  UNL     1      40.218 -14.477  43.957  1.00  0.00     0.004 A 
HETATM   15  C4  UNL     1      39.702 -13.103  43.618  1.00  0.00     0.007 A 
HETATM   16  C5  UNL     1      39.708 -13.547  45.022  1.00  0.00     0.007 A 
ENDBRANCH  13  14
ENDBRANCH  10  13
ENDBRANCH   8   9
ENDBRANCH   7   8
ENDBRANCH   1   7
BRANCH   6  17
HETATM   17  N2  UNL     1      42.217 -20.681  42.946  1.00  0.00    -0.355 N 
HETATM   18  C14 UNL     1      43.166 -20.378  43.960  1.00  0.00     0.225 C 
HETATM   19  O3  UNL     1      44.360 -20.162  43.610  1.00  0.00    -0.273 OA
ATOM     20  H2  UNL     1      41.242 -20.861  43.187  1.00  0.00     0.162 HD
BRANCH  18  21
HETATM   21  C15 UNL     1      42.788 -20.313  45.399  1.00  0.00     0.030 C 
HETATM   22  C16 UNL     1      42.934 -21.702  45.976  1.00  0.00     0.024 C 
HETATM   23  C17 UNL     1      41.383 -19.814  45.586  1.00  0.00     0.024 C 
HETATM   24  C18 UNL     1      43.736 -19.401  46.173  1.00  0.00     0.024 C 
ENDBRANCH  18  21
ENDBRANCH   6  17
TORSDOF 7
ENDMDL
MODEL 3
REMARK VINA RESULT: -7.930784596      1.617      2.237
REMARK  7 active torsions:
REMARK  status: ('A' for Active; 'I' for Inactive)
REMARK    1  A    between atoms: N1_2  and  C2_3 
REMARK       I    between atoms: N1_2  and  C6_7 
REMARK    2  A    between atoms: C2_3  and  C3_4 
REMARK    3  A    between atoms: C6_7  and  O2_9 
REMARK    4  A    between atoms: O2_9  and  C7_10 
REMARK    5  A    between atoms: C7_10  and  C8_11 
REMARK    6  A    between atoms: C13_16  and  N2_17 
REMARK       I    between atoms: N2_17  and  C14_19 
REMARK    7  A    between atoms: C14_19  and  C15_21 
ROOT
HETATM    1  C8  UNL     1      41.738 -19.113  44.063  1.00  0.00     0.033 C 
HETATM    2  C9  UNL     1      41.414 -19.986  45.279  1.00  0.00     0.009 C 
HETATM    3  C10 UNL     1      42.374 -19.704  46.413  1.00  0.00     0.001 C 
HETATM    4  C11 UNL     1      43.808 -19.781  46.004  1.00  0.00     0.002 C 
HETATM    5  C12 UNL     1      44.038 -18.874  44.810  1.00  0.00     0.026 C 
HETATM    6  C13 UNL     1      43.166 -19.447  43.684  1.00  0.00     0.090 C 
ENDROOT
BRANCH   1   7
HETATM    7  C7  UNL     1      40.832 -19.535  42.950  1.00  0.00     0.187 C 
BRANCH   7   8
HETATM    8  O2  UNL     1      40.286 -18.482  42.214  1.00  0.00    -0.303 OA
BRANCH   8   9
HETATM    9  C6  UNL     1      39.605 -17.398  42.742  1.00  0.00     0.362 C 
HETATM   10  N1  UNL     1      40.235 -16.123  42.768  1.00  0.00    -0.332 N 
HETATM   11  C1  UNL     1      41.578 -15.934  42.255  1.00  0.00     0.155 C 
HETATM   12  O1  UNL     1      38.444 -17.591  43.180  1.00  0.00    -0.238 OA
BRANCH  10  13
HETATM   13  C2  UNL     1      39.538 -14.976  43.316  1.00  0.00     0.132 C 
BRANCH  13  14
HETATM   14  C3  UNL     1      40.374 -14.194  44.286  1.00  0.00     0.004 A 
HETATM   15  C4  UNL     1      40.339 -12.703  44.071  1.00  0.00     0.007 A 
HETATM   16  C5  UNL     1      39.675 -13.278  45.253  1.00  0.00     0.007 A 
ENDBRANCH  13  14
ENDBRANCH  10  13
ENDBRANCH   8   9
ENDBRANCH   7   8
ENDBRANCH   1   7
BRANCH   6  17
HETATM   17  N2  UNL     1      43.581 -18.875  42.443  1.00  0.00    -0.355 N 
HETATM   18  C14 UNL     1      44.158 -19.716  41.452  1.00  0.00     0.225 C 
HETATM   19  O3  UNL     1      44.281 -20.944  41.713  1.00  0.00    -0.273 OA
ATOM     20  H2  UNL     1      43.464 -17.877  42.271  1.00  0.00     0.162 HD
BRANCH  18  21
HETATM   21  C15 UNL     1      44.612 -19.184  40.137  1.00  0.00     0.030 C 
HETATM   22  C16 UNL     1      44.167 -20.156  39.069  1.00  0.00     0.024 C 
HETATM   23  C17 UNL     1      46.104 -19.006  40.091  1.00  0.00     0.024 C 
HETATM   24  C18 UNL     1      43.952 -17.843  39.831  1.00  0.00     0.024 C 
ENDBRANCH  18  21
ENDBRANCH   6  17
TORSDOF 7
ENDMDL
MODEL 4
REMARK VINA RESULT: -7.897537677      2.147      3.773
REMARK  7 active torsions:
REMARK  status: ('A' for Active; 'I' for Inactive)
REMARK    1  A    between atoms: N1_2  and  C2_3 
REMARK       I    between atoms: N1_2  and  C6_7 
REMARK    2  A    between atoms: C2_3  and  C3_4 
REMARK    3  A    between atoms: C6_7  and  O2_9 
REMARK    4  A    between atoms: O2_9  and  C7_10 
REMARK    5  A    between atoms: C7_10  and  C8_11 
REMARK    6  A    between atoms: C13_16  and  N2_17 
REMARK       I    between atoms: N2_17  and  C14_19 
REMARK    7  A    between atoms: C14_19  and  C15_21 
ROOT
HETATM    1  C8  UNL     1      43.082 -19.154  40.219  1.00  0.00     0.033 C 
HETATM    2  C9  UNL     1      44.099 -19.474  39.120  1.00  0.00     0.009 C 
HETATM    3  C10 UNL     1      43.807 -20.818  38.494  1.00  0.00     0.001 C 
HETATM    4  C11 UNL     1      43.665 -21.917  39.496  1.00  0.00     0.002 C 
HETATM    5  C12 UNL     1      42.627 -21.520  40.529  1.00  0.00     0.026 C 
HETATM    6  C13 UNL     1      43.197 -20.277  41.227  1.00  0.00     0.090 C 
ENDROOT
BRANCH   1   7
HETATM    7  C7  UNL     1      43.508 -17.875  40.870  1.00  0.00     0.187 C 
BRANCH   7   8
HETATM    8  O2  UNL     1      42.550 -16.861  40.841  1.00  0.00    -0.303 OA
BRANCH   8   9
HETATM    9  C6  UNL     1      41.539 -16.681  41.770  1.00  0.00     0.362 C 
HETATM   10  N1  UNL     1      41.576 -15.550  42.632  1.00  0.00    -0.332 N 
HETATM   11  C1  UNL     1      42.651 -14.580  42.559  1.00  0.00     0.155 C 
HETATM   12  O1  UNL     1      40.620 -17.536  41.812  1.00  0.00    -0.238 OA
BRANCH  10  13
HETATM   13  C2  UNL     1      40.525 -15.344  43.610  1.00  0.00     0.132 C 
BRANCH  13  14
HETATM   14  C3  UNL     1      40.118 -13.905  43.734  1.00  0.00     0.004 A 
HETATM   15  C4  UNL     1      38.653 -13.699  44.020  1.00  0.00     0.007 A 
HETATM   16  C5  UNL     1      39.641 -13.413  45.073  1.00  0.00     0.007 A 
ENDBRANCH  13  14
ENDBRANCH  10  13
ENDBRANCH   8   9
ENDBRANCH   7   8
ENDBRANCH   1   7
BRANCH   6  17
HETATM   17  N2  UNL     1      42.463 -20.048  42.431  1.00  0.00    -0.355 N 
HETATM   18  C14 UNL     1      43.034 -20.434  43.674  1.00  0.00     0.225 C 
HETATM   19  O3  UNL     1      44.177 -20.969  43.663  1.00  0.00    -0.273 OA
ATOM     20  H2  UNL     1      41.541 -19.613  42.398  1.00  0.00     0.162 HD
BRANCH  18  21
HETATM   21  C15 UNL     1      42.323 -20.225  44.967  1.00  0.00     0.030 C 
HETATM   22  C16 UNL     1      41.761 -21.557  45.404  1.00  0.00     0.024 C 
HETATM   23  C17 UNL     1      41.222 -19.209  44.841  1.00  0.00     0.024 C 
HETATM   24  C18 UNL     1      43.290 -19.763  46.054  1.00  0.00     0.024 C 
ENDBRANCH  18  21
ENDBRANCH   6  17
TORSDOF 7
ENDMDL
MODEL 5
REMARK VINA RESULT: -7.841290343      2.094      4.041
REMARK  7 active torsions:
REMARK  status: ('A' for Active; 'I' for Inactive)
REMARK    1  A    between atoms: N1_2  and  C2_3 
REMARK       I    between atoms: N1_2  and  C6_7 
REMARK    2  A    between atoms: C2_3  and  C3_4 
REMARK    3  A    between atoms: C6_7  and  O2_9 
REMARK    4  A    between atoms: O2_9  and  C7_10 
REMARK    5  A    between atoms: C7_10  and  C8_11 
REMARK    6  A    between atoms: C13_16  and  N2_17 
REMARK       I    between atoms: N2_17  and  C14_19 
REMARK    7  A    between atoms: C14_19  and  C15_21 
ROOT
HETATM    1  C8  UNL     1      41.490 -20.677  40.225  1.00  0.00     0.033 C 
HETATM    2  C9  UNL     1      42.632 -19.939  39.519  1.00  0.00     0.009 C 
HETATM    3  C10 UNL     1      43.801 -20.867  39.277  1.00  0.00     0.001 C 
HETATM    4  C11 UNL     1      44.245 -21.590  40.506  1.00  0.00     0.002 C 
HETATM    5  C12 UNL     1      43.056 -22.303  41.124  1.00  0.00     0.026 C 
HETATM    6  C13 UNL     1      42.073 -21.193  41.523  1.00  0.00     0.090 C 
ENDROOT
BRANCH   1   7
HETATM    7  C7  UNL     1      40.429 -19.670  40.539  1.00  0.00     0.187 C 
BRANCH   7   8
HETATM    8  O2  UNL     1      40.852 -18.609  41.339  1.00  0.00    -0.303 OA
BRANCH   8   9
HETATM    9  C6  UNL     1      40.087 -17.967  42.298  1.00  0.00     0.362 C 
HETATM   10  N1  UNL     1      40.470 -16.673  42.747  1.00  0.00    -0.332 N 
HETATM   11  C1  UNL     1      41.647 -16.009  42.222  1.00  0.00     0.155 C 
HETATM   12  O1  UNL     1      39.073 -18.565  42.736  1.00  0.00    -0.238 OA
BRANCH  10  13
HETATM   13  C2  UNL     1      39.680 -15.985  43.750  1.00  0.00     0.132 C 
BRANCH  13  14
HETATM   14  C3  UNL     1      39.912 -14.503  43.760  1.00  0.00     0.004 A 
HETATM   15  C4  UNL     1      38.663 -13.680  43.577  1.00  0.00     0.007 A 
HETATM   16  C5  UNL     1      39.331 -13.698  44.889  1.00  0.00     0.007 A 
ENDBRANCH  13  14
ENDBRANCH  10  13
ENDBRANCH   8   9
ENDBRANCH   7   8
ENDBRANCH   1   7
BRANCH   6  17
HETATM   17  N2  UNL     1      41.100 -21.739  42.414  1.00  0.00    -0.355 N 
HETATM   18  C14 UNL     1      41.137 -21.374  43.788  1.00  0.00     0.225 C 
HETATM   19  O3  UNL     1      42.038 -20.575  44.166  1.00  0.00    -0.273 OA
ATOM     20  H2  UNL     1      40.388 -22.382  42.069  1.00  0.00     0.162 HD
BRANCH  18  21
HETATM   21  C15 UNL     1      40.152 -21.906  44.771  1.00  0.00     0.030 C 
HETATM   22  C16 UNL     1      38.819 -22.025  44.070  1.00  0.00     0.024 C 
HETATM   23  C17 UNL     1      40.030 -21.018  45.978  1.00  0.00     0.024 C 
HETATM   24  C18 UNL     1      40.545 -23.306  45.234  1.00  0.00     0.024 C 
ENDBRANCH  18  21
ENDBRANCH   6  17
TORSDOF 7
ENDMDL
