MODEL 1
REMARK VINA RESULT: -8.834072118      0.000      0.000
REMARK  11 active torsions:
REMARK  status: ('A' for Active; 'I' for Inactive)
REMARK    1  A    between atoms: C2_2  and  O1_4 
REMARK    2  A    between atoms: C2_2  and  C4_6 
REMARK    3  A    between atoms: C4_6  and  C5_8 
REMARK    4  A    between atoms: C5_8  and  N1_9 
REMARK    5  A    between atoms: N1_9  and  C6_12 
REMARK    6  A    between atoms: C6_12  and  O2_13 
REMARK    7  A    between atoms: C6_12  and  C7_15 
REMARK    8  A    between atoms: C9_18  and  C10_19 
REMARK    9  A    between atoms: C13_22  and  O3_23 
REMARK   10  A    between atoms: C14_25  and  O4_26 
REMARK   11  A    between atoms: O4_26  and  C15_27 
ROOT
HETATM    1  C7  UNL     1       8.514  -3.881   1.249  1.00  0.00     0.073 A 
HETATM    2  C8  UNL     1       9.737  -3.553   1.776  1.00  0.00     0.081 A 
HETATM    3  S1  UNL     1      10.294  -5.082   2.316  1.00  0.00    -0.081 SA
HETATM    4  C9  UNL     1       8.954  -6.023   1.841  1.00  0.00     0.087 A 
HETATM    5  N2  UNL     1       8.150  -5.122   1.297  1.00  0.00    -0.349 N 
ATOM      6  H2  UNL     1       7.247  -5.406   0.917  1.00  0.00     0.166 HD
ENDROOT
BRANCH   4   7
HETATM    7  C10 UNL     1       8.753  -7.473   2.005  1.00  0.00     0.039 A 
HETATM    8  C11 UNL     1       9.360  -8.067   3.088  1.00  0.00     0.020 A 
HETATM    9  C12 UNL     1       9.212  -9.442   3.305  1.00  0.00     0.040 A 
HETATM   10  C13 UNL     1       8.442 -10.165   2.398  1.00  0.00     0.102 A 
HETATM   11  C14 UNL     1       7.827  -9.596   1.310  1.00  0.00     0.142 A 
HETATM   12  C25 UNL     1       8.000  -8.220   1.131  1.00  0.00     0.165 A 
HETATM   13  F2  UNL     1       7.429  -7.585   0.086  1.00  0.00    -0.202 F 
BRANCH  10  14
HETATM   14  O3  UNL     1       8.319 -11.517   2.643  1.00  0.00    -0.358 OA
ATOM     15  H3  UNL     1       8.257 -11.774   3.555  1.00  0.00     0.217 HD
ENDBRANCH  10  14
BRANCH  11  16
HETATM   16  O4  UNL     1       7.084 -10.356   0.455  1.00  0.00    -0.339 OA
BRANCH  16  17
HETATM   17  C15 UNL     1       5.695 -10.407   0.332  1.00  0.00     0.137 C 
HETATM   18  C16 UNL     1       5.384 -10.807  -1.104  1.00  0.00     0.016 C 
HETATM   19  C17 UNL     1       3.915 -11.052  -1.329  1.00  0.00     0.012 C 
HETATM   20  C21 UNL     1       6.162 -12.087  -1.374  1.00  0.00     0.012 C 
HETATM   21  C18 UNL     1       3.419 -12.160  -0.437  1.00  0.00    -0.013 C 
HETATM   22  C19 UNL     1       4.152 -13.435  -0.760  1.00  0.00     0.009 C 
HETATM   23  C24 UNL     1       3.662 -11.738   0.982  1.00  0.00     0.012 C 
HETATM   24  C20 UNL     1       5.623 -13.197  -0.503  1.00  0.00    -0.013 C 
HETATM   25  C22 UNL     1       5.845 -12.827   0.929  1.00  0.00     0.012 C 
HETATM   26  C23 UNL     1       5.154 -11.509   1.213  1.00  0.00     0.016 C 
ENDBRANCH  16  17
ENDBRANCH  11  16
ENDBRANCH   4   7
BRANCH   1  27
HETATM   27  C6  UNL     1       7.646  -2.794   0.640  1.00  0.00     0.370 C 
BRANCH  27  28
HETATM   28  N1  UNL     1       8.229  -1.502   1.005  1.00  0.00    -0.041 N 
ATOM     29  H12 UNL     1       8.991  -1.615   1.672  1.00  0.00     0.280 HD
ATOM     30  H11 UNL     1       7.590  -0.956   1.583  1.00  0.00     0.280 HD
BRANCH  28  31
HETATM   31  C5  UNL     1       8.649  -0.762  -0.148  1.00  0.00     0.276 C 
BRANCH  31  32
HETATM   32  C4  UNL     1       7.605   0.209  -0.594  1.00  0.00     0.229 C 
HETATM   33  F1  UNL     1       7.104   0.978   0.425  1.00  0.00    -0.244 F 
BRANCH  32  34
HETATM   34  C2  UNL     1       8.048   1.110  -1.697  1.00  0.00     0.083 C 
HETATM   35  C1  UNL     1       7.601   2.525  -1.542  1.00  0.00     0.048 C 
HETATM   36  C3  UNL     1       9.559   1.015  -1.924  1.00  0.00     0.048 C 
BRANCH  34  37
HETATM   37  O1  UNL     1       7.470   0.617  -2.889  1.00  0.00    -0.388 OA
ATOM     38  H1  UNL     1       8.021   0.905  -3.608  1.00  0.00     0.210 HD
ENDBRANCH  34  37
ENDBRANCH  32  34
ENDBRANCH  31  32
ENDBRANCH  28  31
ENDBRANCH  27  28
BRANCH  27  39
HETATM   39  O2  UNL     1       6.329  -2.910   1.032  1.00  0.00    -0.365 OA
ATOM     40  H2  UNL     1       5.737  -3.016   0.296  1.00  0.00     0.212 HD
ENDBRANCH  27  39
ENDBRANCH   1  27
TORSDOF 11
ENDMDL
MODEL 2
REMARK VINA RESULT: -8.748873981      2.877      4.579
REMARK  11 active torsions:
REMARK  status: ('A' for Active; 'I' for Inactive)
REMARK    1  A    between atoms: C2_2  and  O1_4 
REMARK    2  A    between atoms: C2_2  and  C4_6 
REMARK    3  A    between atoms: C4_6  and  C5_8 
REMARK    4  A    between atoms: C5_8  and  N1_9 
REMARK    5  A    between atoms: N1_9  and  C6_12 
REMARK    6  A    between atoms: C6_12  and  O2_13 
REMARK    7  A    between atoms: C6_12  and  C7_15 
REMARK    8  A    between atoms: C9_18  and  C10_19 
REMARK    9  A    between atoms: C13_22  and  O3_23 
REMARK   10  A    between atoms: C14_25  and  O4_26 
REMARK   11  A    between atoms: O4_26  and  C15_27 
ROOT
HETATM    1  C7  UNL     1       7.669  -0.247  -0.285  1.00  0.00     0.073 A 
HETATM    2  C8  UNL     1       6.384  -0.391   0.169  1.00  0.00     0.081 A 
HETATM    3  S1  UNL     1       6.518  -1.812   1.120  1.00  0.00    -0.081 SA
HETATM    4  C9  UNL     1       8.177  -2.123   0.879  1.00  0.00     0.087 A 
HETATM    5  N2  UNL     1       8.542  -1.128   0.085  1.00  0.00    -0.349 N 
ATOM      6  H2  UNL     1       9.509  -1.056  -0.233  1.00  0.00     0.166 HD
ENDROOT
BRANCH   4   7
HETATM    7  C10 UNL     1       8.987  -3.227   1.422  1.00  0.00     0.039 A 
HETATM    8  C11 UNL     1       9.955  -2.893   2.343  1.00  0.00     0.020 A 
HETATM    9  C12 UNL     1      10.763  -3.892   2.900  1.00  0.00     0.040 A 
HETATM   10  C13 UNL     1      10.549  -5.206   2.491  1.00  0.00     0.102 A 
HETATM   11  C14 UNL     1       9.591  -5.563   1.575  1.00  0.00     0.142 A 
HETATM   12  C25 UNL     1       8.805  -4.535   1.043  1.00  0.00     0.165 A 
HETATM   13  F2  UNL     1       7.843  -4.803   0.137  1.00  0.00    -0.202 F 
BRANCH  10  14
HETATM   14  O3  UNL     1      11.363  -6.162   3.061  1.00  0.00    -0.358 OA
ATOM     15  H3  UNL     1      11.470  -6.116   4.004  1.00  0.00     0.217 HD
ENDBRANCH  10  14
BRANCH  11  16
HETATM   16  O4  UNL     1       9.428  -6.868   1.213  1.00  0.00    -0.339 OA
BRANCH  16  17
HETATM   17  C15 UNL     1       8.235  -7.571   1.037  1.00  0.00     0.137 C 
HETATM   18  C16 UNL     1       8.590  -8.909   0.402  1.00  0.00     0.016 C 
HETATM   19  C17 UNL     1       7.404  -9.832   0.302  1.00  0.00     0.012 C 
HETATM   20  C21 UNL     1       9.654  -9.539   1.288  1.00  0.00     0.012 C 
HETATM   21  C18 UNL     1       6.839 -10.120   1.668  1.00  0.00    -0.013 C 
HETATM   22  C19 UNL     1       7.882 -10.802   2.513  1.00  0.00     0.009 C 
HETATM   23  C24 UNL     1       6.425  -8.809   2.269  1.00  0.00     0.012 C 
HETATM   24  C20 UNL     1       9.059  -9.860   2.639  1.00  0.00    -0.013 C 
HETATM   25  C22 UNL     1       8.631  -8.581   3.285  1.00  0.00     0.012 C 
HETATM   26  C23 UNL     1       7.633  -7.881   2.387  1.00  0.00     0.016 C 
ENDBRANCH  16  17
ENDBRANCH  11  16
ENDBRANCH   4   7
BRANCH   1  27
HETATM   27  C6  UNL     1       8.015   0.920  -1.193  1.00  0.00     0.370 C 
BRANCH  27  28
HETATM   28  N1  UNL     1       7.154   2.044  -0.821  1.00  0.00    -0.041 N 
ATOM     29  H12 UNL     1       6.516   1.788  -0.069  1.00  0.00     0.280 HD
ATOM     30  H11 UNL     1       6.470   2.245  -1.551  1.00  0.00     0.280 HD
BRANCH  28  31
HETATM   31  C5  UNL     1       7.915   3.211  -0.486  1.00  0.00     0.276 C 
BRANCH  31  32
HETATM   32  C4  UNL     1       8.403   3.924  -1.705  1.00  0.00     0.229 C 
HETATM   33  F1  UNL     1       7.725   5.088  -1.963  1.00  0.00    -0.244 F 
BRANCH  32  34
HETATM   34  C2  UNL     1       9.864   4.217  -1.691  1.00  0.00     0.083 C 
HETATM   35  C1  UNL     1      10.297   5.204  -2.724  1.00  0.00     0.048 C 
HETATM   36  C3  UNL     1      10.341   4.618  -0.292  1.00  0.00     0.048 C 
BRANCH  34  37
HETATM   37  O1  UNL     1      10.532   3.003  -1.967  1.00  0.00    -0.388 OA
ATOM     38  H1  UNL     1      10.695   2.576  -1.134  1.00  0.00     0.210 HD
ENDBRANCH  34  37
ENDBRANCH  32  34
ENDBRANCH  31  32
ENDBRANCH  28  31
ENDBRANCH  27  28
BRANCH  27  39
HETATM   39  O2  UNL     1       7.901   0.585  -2.526  1.00  0.00    -0.365 OA
ATOM     40  H2  UNL     1       8.447  -0.156  -2.763  1.00  0.00     0.212 HD
ENDBRANCH  27  39
ENDBRANCH   1  27
TORSDOF 11
ENDMDL
MODEL 3
REMARK VINA RESULT: -8.544864888      0.952      1.119
REMARK  11 active torsions:
REMARK  status: ('A' for Active; 'I' for Inactive)
REMARK    1  A    between atoms: C2_2  and  O1_4 
REMARK    2  A    between atoms: C2_2  and  C4_6 
REMARK    3  A    between atoms: C4_6  and  C5_8 
REMARK    4  A    between atoms: C5_8  and  N1_9 
REMARK    5  A    between atoms: N1_9  and  C6_12 
REMARK    6  A    between atoms: C6_12  and  O2_13 
REMARK    7  A    between atoms: C6_12  and  C7_15 
REMARK    8  A    between atoms: C9_18  and  C10_19 
REMARK    9  A    between atoms: C13_22  and  O3_23 
REMARK   10  A    between atoms: C14_25  and  O4_26 
REMARK   11  A    between atoms: O4_26  and  C15_27 
ROOT
HETATM    1  C7  UNL     1       8.378  -3.788   1.173  1.00  0.00     0.073 A 
HETATM    2  C8  UNL     1       9.598  -3.416   1.677  1.00  0.00     0.081 A 
HETATM    3  S1  UNL     1      10.207  -4.920   2.231  1.00  0.00    -0.081 SA
HETATM    4  C9  UNL     1       8.888  -5.907   1.790  1.00  0.00     0.087 A 
HETATM    5  N2  UNL     1       8.051  -5.038   1.244  1.00  0.00    -0.349 N 
ATOM      6  H2  UNL     1       7.152  -5.353   0.882  1.00  0.00     0.166 HD
ENDROOT
BRANCH   4   7
HETATM    7  C10 UNL     1       8.732  -7.359   1.977  1.00  0.00     0.039 A 
HETATM    8  C11 UNL     1       9.375  -7.920   3.058  1.00  0.00     0.020 A 
HETATM    9  C12 UNL     1       9.270  -9.296   3.296  1.00  0.00     0.040 A 
HETATM   10  C13 UNL     1       8.505 -10.053   2.413  1.00  0.00     0.102 A 
HETATM   11  C14 UNL     1       7.855  -9.518   1.329  1.00  0.00     0.142 A 
HETATM   12  C25 UNL     1       7.986  -8.140   1.126  1.00  0.00     0.165 A 
HETATM   13  F2  UNL     1       7.379  -7.537   0.083  1.00  0.00    -0.202 F 
BRANCH  10  14
HETATM   14  O3  UNL     1       8.425 -11.405   2.680  1.00  0.00    -0.358 OA
ATOM     15  H3  UNL     1       7.599 -11.715   3.029  1.00  0.00     0.217 HD
ENDBRANCH  10  14
BRANCH  11  16
HETATM   16  O4  UNL     1       7.121 -10.311   0.498  1.00  0.00    -0.339 OA
BRANCH  16  17
HETATM   17  C15 UNL     1       5.733 -10.359   0.355  1.00  0.00     0.137 C 
HETATM   18  C16 UNL     1       5.441 -10.810  -1.070  1.00  0.00     0.016 C 
HETATM   19  C17 UNL     1       3.974 -11.055  -1.308  1.00  0.00     0.012 C 
HETATM   20  C21 UNL     1       6.215 -12.103  -1.281  1.00  0.00     0.012 C 
HETATM   21  C18 UNL     1       3.458 -12.126  -0.383  1.00  0.00    -0.013 C 
HETATM   22  C19 UNL     1       4.188 -13.416  -0.648  1.00  0.00     0.009 C 
HETATM   23  C24 UNL     1       3.682 -11.653   1.024  1.00  0.00     0.012 C 
HETATM   24  C20 UNL     1       5.657 -13.178  -0.377  1.00  0.00    -0.013 C 
HETATM   25  C22 UNL     1       5.859 -12.755   1.043  1.00  0.00     0.012 C 
HETATM   26  C23 UNL     1       5.173 -11.424   1.268  1.00  0.00     0.016 C 
ENDBRANCH  16  17
ENDBRANCH  11  16
ENDBRANCH   4   7
BRANCH   1  27
HETATM   27  C6  UNL     1       7.470  -2.735   0.561  1.00  0.00     0.370 C 
BRANCH  27  28
HETATM   28  N1  UNL     1       8.196  -1.464   0.565  1.00  0.00    -0.041 N 
ATOM     29  H12 UNL     1       9.132  -1.571   0.175  1.00  0.00     0.280 HD
ATOM     30  H11 UNL     1       8.448  -1.184   1.513  1.00  0.00     0.280 HD
BRANCH  28  31
HETATM   31  C5  UNL     1       7.465  -0.431  -0.107  1.00  0.00     0.276 C 
BRANCH  31  32
HETATM   32  C4  UNL     1       8.371   0.627  -0.646  1.00  0.00     0.229 C 
HETATM   33  F1  UNL     1       8.953   0.291  -1.841  1.00  0.00    -0.244 F 
BRANCH  32  34
HETATM   34  C2  UNL     1       7.724   1.962  -0.791  1.00  0.00     0.083 C 
HETATM   35  C1  UNL     1       7.524   2.391  -2.207  1.00  0.00     0.048 C 
HETATM   36  C3  UNL     1       6.423   2.044   0.013  1.00  0.00     0.048 C 
BRANCH  34  37
HETATM   37  O1  UNL     1       8.584   2.907  -0.186  1.00  0.00    -0.388 OA
ATOM     38  H1  UNL     1       9.371   2.950  -0.716  1.00  0.00     0.210 HD
ENDBRANCH  34  37
ENDBRANCH  32  34
ENDBRANCH  31  32
ENDBRANCH  28  31
ENDBRANCH  27  28
BRANCH  27  39
HETATM   39  O2  UNL     1       6.261  -2.656   1.219  1.00  0.00    -0.365 OA
ATOM     40  H2  UNL     1       6.247  -1.967   1.874  1.00  0.00     0.212 HD
ENDBRANCH  27  39
ENDBRANCH   1  27
TORSDOF 11
ENDMDL
MODEL 4
REMARK VINA RESULT: -8.439223846      3.140      5.277
REMARK  11 active torsions:
REMARK  status: ('A' for Active; 'I' for Inactive)
REMARK    1  A    between atoms: C2_2  and  O1_4 
REMARK    2  A    between atoms: C2_2  and  C4_6 
REMARK    3  A    between atoms: C4_6  and  C5_8 
REMARK    4  A    between atoms: C5_8  and  N1_9 
REMARK    5  A    between atoms: N1_9  and  C6_12 
REMARK    6  A    between atoms: C6_12  and  O2_13 
REMARK    7  A    between atoms: C6_12  and  C7_15 
REMARK    8  A    between atoms: C9_18  and  C10_19 
REMARK    9  A    between atoms: C13_22  and  O3_23 
REMARK   10  A    between atoms: C14_25  and  O4_26 
REMARK   11  A    between atoms: O4_26  and  C15_27 
ROOT
HETATM    1  C7  UNL     1       7.593   0.362  -0.864  1.00  0.00     0.073 A 
HETATM    2  C8  UNL     1       6.430   0.586  -0.171  1.00  0.00     0.081 A 
HETATM    3  S1  UNL     1       6.526  -0.617   1.047  1.00  0.00    -0.081 SA
HETATM    4  C9  UNL     1       8.017  -1.314   0.600  1.00  0.00     0.087 A 
HETATM    5  N2  UNL     1       8.364  -0.594  -0.456  1.00  0.00    -0.349 N 
ATOM      6  H2  UNL     1       9.236  -0.793  -0.946  1.00  0.00     0.166 HD
ENDROOT
BRANCH   4   7
HETATM    7  C10 UNL     1       8.727  -2.436   1.237  1.00  0.00     0.039 A 
HETATM    8  C11 UNL     1       9.817  -2.120   2.016  1.00  0.00     0.020 A 
HETATM    9  C12 UNL     1      10.541  -3.137   2.651  1.00  0.00     0.040 A 
HETATM   10  C13 UNL     1      10.118  -4.451   2.463  1.00  0.00     0.102 A 
HETATM   11  C14 UNL     1       9.035  -4.791   1.692  1.00  0.00     0.142 A 
HETATM   12  C25 UNL     1       8.340  -3.745   1.075  1.00  0.00     0.165 A 
HETATM   13  F2  UNL     1       7.266  -3.996   0.299  1.00  0.00    -0.202 F 
BRANCH  10  14
HETATM   14  O3  UNL     1      10.855  -5.426   3.104  1.00  0.00    -0.358 OA
ATOM     15  H3  UNL     1      10.634  -5.589   4.013  1.00  0.00     0.217 HD
ENDBRANCH  10  14
BRANCH  11  16
HETATM   16  O4  UNL     1       8.669  -6.096   1.545  1.00  0.00    -0.339 OA
BRANCH  16  17
HETATM   17  C15 UNL     1       9.291  -7.230   2.069  1.00  0.00     0.137 C 
HETATM   18  C16 UNL     1       8.379  -7.782   3.157  1.00  0.00     0.016 C 
HETATM   19  C17 UNL     1       8.862  -9.103   3.699  1.00  0.00     0.012 C 
HETATM   20  C21 UNL     1       7.008  -7.962   2.522  1.00  0.00     0.012 C 
HETATM   21  C18 UNL     1       8.928 -10.134   2.602  1.00  0.00    -0.013 C 
HETATM   22  C19 UNL     1       7.554 -10.349   2.027  1.00  0.00     0.009 C 
HETATM   23  C24 UNL     1       9.880  -9.622   1.560  1.00  0.00     0.012 C 
HETATM   24  C20 UNL     1       7.083  -9.029   1.455  1.00  0.00    -0.013 C 
HETATM   25  C22 UNL     1       8.021  -8.566   0.386  1.00  0.00     0.012 C 
HETATM   26  C23 UNL     1       9.378  -8.293   0.999  1.00  0.00     0.016 C 
ENDBRANCH  16  17
ENDBRANCH  11  16
ENDBRANCH   4   7
BRANCH   1  27
HETATM   27  C6  UNL     1       7.926   1.228  -2.066  1.00  0.00     0.370 C 
BRANCH  27  28
HETATM   28  N1  UNL     1       7.230   2.505  -1.901  1.00  0.00    -0.041 N 
ATOM     29  H12 UNL     1       6.998   2.677  -0.923  1.00  0.00     0.280 HD
ATOM     30  H11 UNL     1       6.286   2.466  -2.285  1.00  0.00     0.280 HD
BRANCH  28  31
HETATM   31  C5  UNL     1       7.975   3.594  -2.459  1.00  0.00     0.276 C 
BRANCH  31  32
HETATM   32  C4  UNL     1       8.694   4.372  -1.406  1.00  0.00     0.229 C 
HETATM   33  F1  UNL     1       8.383   3.978  -0.129  1.00  0.00    -0.244 F 
BRANCH  32  34
HETATM   34  C2  UNL     1      10.177   4.367  -1.557  1.00  0.00     0.083 C 
HETATM   35  C1  UNL     1      10.674   5.168  -2.715  1.00  0.00     0.048 C 
HETATM   36  C3  UNL     1      10.873   4.767  -0.253  1.00  0.00     0.048 C 
BRANCH  34  37
HETATM   37  O1  UNL     1      10.566   3.026  -1.779  1.00  0.00    -0.388 OA
ATOM     38  H1  UNL     1      10.038   2.696  -2.496  1.00  0.00     0.210 HD
ENDBRANCH  34  37
ENDBRANCH  32  34
ENDBRANCH  31  32
ENDBRANCH  28  31
ENDBRANCH  27  28
BRANCH  27  39
HETATM   39  O2  UNL     1       7.608   0.603  -3.253  1.00  0.00    -0.365 OA
ATOM     40  H2  UNL     1       8.349   0.147  -3.635  1.00  0.00     0.212 HD
ENDBRANCH  27  39
ENDBRANCH   1  27
TORSDOF 11
ENDMDL
MODEL 5
REMARK VINA RESULT: -8.250128845      3.215      5.539
REMARK  11 active torsions:
REMARK  status: ('A' for Active; 'I' for Inactive)
REMARK    1  A    between atoms: C2_2  and  O1_4 
REMARK    2  A    between atoms: C2_2  and  C4_6 
REMARK    3  A    between atoms: C4_6  and  C5_8 
REMARK    4  A    between atoms: C5_8  and  N1_9 
REMARK    5  A    between atoms: N1_9  and  C6_12 
REMARK    6  A    between atoms: C6_12  and  O2_13 
REMARK    7  A    between atoms: C6_12  and  C7_15 
REMARK    8  A    between atoms: C9_18  and  C10_19 
REMARK    9  A    between atoms: C13_22  and  O3_23 
REMARK   10  A    between atoms: C14_25  and  O4_26 
REMARK   11  A    between atoms: O4_26  and  C15_27 
ROOT
HETATM    1  C7  UNL     1       7.835   0.533  -0.905  1.00  0.00     0.073 A 
HETATM    2  C8  UNL     1       6.544   0.619  -0.449  1.00  0.00     0.081 A 
HETATM    3  S1  UNL     1       6.496  -0.672   0.678  1.00  0.00    -0.081 SA
HETATM    4  C9  UNL     1       8.099  -1.227   0.497  1.00  0.00     0.087 A 
HETATM    5  N2  UNL     1       8.586  -0.400  -0.414  1.00  0.00    -0.349 N 
ATOM      6  H2  UNL     1       9.552  -0.497  -0.729  1.00  0.00     0.166 HD
ENDROOT
BRANCH   4   7
HETATM    7  C10 UNL     1       8.759  -2.348   1.186  1.00  0.00     0.039 A 
HETATM    8  C11 UNL     1       9.805  -2.033   2.025  1.00  0.00     0.020 A 
HETATM    9  C12 UNL     1      10.480  -3.050   2.712  1.00  0.00     0.040 A 
HETATM   10  C13 UNL     1      10.057  -4.361   2.514  1.00  0.00     0.102 A 
HETATM   11  C14 UNL     1       9.018  -4.701   1.683  1.00  0.00     0.142 A 
HETATM   12  C25 UNL     1       8.371  -3.655   1.016  1.00  0.00     0.165 A 
HETATM   13  F2  UNL     1       7.341  -3.905   0.181  1.00  0.00    -0.202 F 
BRANCH  10  14
HETATM   14  O3  UNL     1      10.745  -5.336   3.207  1.00  0.00    -0.358 OA
ATOM     15  H3  UNL     1      11.530  -5.053   3.661  1.00  0.00     0.217 HD
ENDBRANCH  10  14
BRANCH  11  16
HETATM   16  O4  UNL     1       8.649  -6.004   1.529  1.00  0.00    -0.339 OA
BRANCH  16  17
HETATM   17  C15 UNL     1       9.262  -7.142   2.055  1.00  0.00     0.137 C 
HETATM   18  C16 UNL     1       8.326  -7.710   3.114  1.00  0.00     0.016 C 
HETATM   19  C17 UNL     1       8.801  -9.034   3.653  1.00  0.00     0.012 C 
HETATM   20  C21 UNL     1       6.972  -7.887   2.445  1.00  0.00     0.012 C 
HETATM   21  C18 UNL     1       8.898 -10.053   2.547  1.00  0.00    -0.013 C 
HETATM   22  C19 UNL     1       7.538 -10.265   1.936  1.00  0.00     0.009 C 
HETATM   23  C24 UNL     1       9.872  -9.526   1.534  1.00  0.00     0.012 C 
HETATM   24  C20 UNL     1       7.077  -8.942   1.368  1.00  0.00    -0.013 C 
HETATM   25  C22 UNL     1       8.037  -8.463   0.327  1.00  0.00     0.012 C 
HETATM   26  C23 UNL     1       9.379  -8.192   0.976  1.00  0.00     0.016 C 
ENDBRANCH  16  17
ENDBRANCH  11  16
ENDBRANCH   4   7
BRANCH   1  27
HETATM   27  C6  UNL     1       8.326   1.518  -1.951  1.00  0.00     0.370 C 
BRANCH  27  28
HETATM   28  N1  UNL     1       8.626   2.778  -1.271  1.00  0.00    -0.041 N 
ATOM     29  H12 UNL     1       8.493   2.696  -0.263  1.00  0.00     0.280 HD
ATOM     30  H11 UNL     1       7.917   3.485  -1.469  1.00  0.00     0.280 HD
BRANCH  28  31
HETATM   31  C5  UNL     1       9.939   3.255  -1.586  1.00  0.00     0.276 C 
BRANCH  31  32
HETATM   32  C4  UNL     1       9.894   4.480  -2.441  1.00  0.00     0.229 C 
HETATM   33  F1  UNL     1       8.714   5.172  -2.340  1.00  0.00    -0.244 F 
BRANCH  32  34
HETATM   34  C2  UNL     1      11.022   5.426  -2.204  1.00  0.00     0.083 C 
HETATM   35  C1  UNL     1      11.483   5.481  -0.786  1.00  0.00     0.048 C 
HETATM   36  C3  UNL     1      12.184   5.162  -3.166  1.00  0.00     0.048 C 
BRANCH  34  37
HETATM   37  O1  UNL     1      10.556   6.717  -2.543  1.00  0.00    -0.388 OA
ATOM     38  H1  UNL     1       9.813   6.604  -3.123  1.00  0.00     0.210 HD
ENDBRANCH  34  37
ENDBRANCH  32  34
ENDBRANCH  31  32
ENDBRANCH  28  31
ENDBRANCH  27  28
BRANCH  27  39
HETATM   39  O2  UNL     1       7.416   1.674  -2.976  1.00  0.00    -0.365 OA
ATOM     40  H2  UNL     1       7.628   1.143  -3.735  1.00  0.00     0.212 HD
ENDBRANCH  27  39
ENDBRANCH   1  27
TORSDOF 11
ENDMDL
