MODEL 1
REMARK VINA RESULT: -8.466247564      0.000      0.000
REMARK  12 active torsions:
REMARK  status: ('A' for Active; 'I' for Inactive)
REMARK    1  A    between atoms: O1_2  and  C2_3 
REMARK    2  A    between atoms: C4_5  and  C5_6 
REMARK    3  A    between atoms: C5_6  and  C6_7 
REMARK    4  A    between atoms: C6_7  and  C7_8 
REMARK    5  A    between atoms: C7_8  and  O2_9 
REMARK    6  A    between atoms: C7_8  and  C8_11 
REMARK    7  A    between atoms: C8_11  and  C9_12 
REMARK    8  A    between atoms: C9_12  and  C11_14 
REMARK    9  A    between atoms: C11_14  and  C12_15 
REMARK   10  A    between atoms: C12_15  and  O3_16 
REMARK   11  A    between atoms: C14_19  and  O4_20 
REMARK   12  A    between atoms: C19_26  and  O5_27 
ROOT
HETATM    1  C9  UNL     1       6.566  -0.578   0.308  1.00  0.00    -0.013 C 
HETATM    2  C10 UNL     1       5.333   0.165   0.694  1.00  0.00     0.010 C 
ENDROOT
BRANCH   1   3
HETATM    3  C8  UNL     1       6.762  -1.816   1.088  1.00  0.00     0.036 C 
BRANCH   3   4
HETATM    4  C7  UNL     1       7.608  -2.901   0.626  1.00  0.00     0.118 C 
BRANCH   4   5
HETATM    5  C6  UNL     1       7.161  -4.320   0.798  1.00  0.00     0.036 C 
BRANCH   5   6
HETATM    6  C5  UNL     1       7.672  -4.753   2.170  1.00  0.00     0.043 C 
BRANCH   6   7
HETATM    7  C4  UNL     1       8.117  -6.148   2.206  1.00  0.00    -0.034 A 
HETATM    8  C3  UNL     1       8.191  -6.884   1.027  1.00  0.00     0.047 A 
HETATM    9  C2  UNL     1       8.606  -8.192   1.132  1.00  0.00     0.090 A 
HETATM   10  C25 UNL     1       8.937  -8.762   2.351  1.00  0.00     0.069 A 
HETATM   11  C24 UNL     1       8.862  -8.028   3.515  1.00  0.00     0.051 A 
HETATM   12 CL2  UNL     1       9.465 -10.451   2.429  1.00  0.00    -0.081 Cl
HETATM   13  C23 UNL     1       8.446  -6.712   3.417  1.00  0.00     0.042 A 
HETATM   14 CL1  UNL     1       8.381  -5.824   4.945  1.00  0.00    -0.084 Cl
BRANCH   9  15
HETATM   15  O1  UNL     1       8.707  -8.990   0.016  1.00  0.00    -0.354 OA
HETATM   16  C1  UNL     1       7.666  -9.573  -0.703  1.00  0.00     0.210 C 
ENDBRANCH   9  15
ENDBRANCH   6   7
ENDBRANCH   5   6
ENDBRANCH   4   5
BRANCH   4  17
HETATM   17  O2  UNL     1       8.942  -2.845   1.032  1.00  0.00    -0.396 OA
ATOM     18  H2  UNL     1       9.420  -2.396   0.344  1.00  0.00     0.210 HD
ENDBRANCH   4  17
ENDBRANCH   3   4
ENDBRANCH   1   3
BRANCH   1  19
HETATM   19  C11 UNL     1       7.809   0.274   0.208  1.00  0.00     0.043 C 
BRANCH  19  20
HETATM   20  C12 UNL     1       8.086   0.795  -1.157  1.00  0.00     0.069 C 
HETATM   21  C13 UNL     1       9.561   0.639  -1.543  1.00  0.00     0.071 C 
HETATM   22  C14 UNL     1       9.946   2.011  -2.048  1.00  0.00     0.130 C 
HETATM   23  C15 UNL     1       9.124   2.887  -1.192  1.00  0.00     0.054 C 
HETATM   24  C16 UNL     1       8.975   4.282  -1.665  1.00  0.00    -0.078 C 
HETATM   25  C21 UNL     1       7.753   2.255  -1.312  1.00  0.00    -0.001 C 
HETATM   26  C17 UNL     1       9.805   4.911  -2.704  1.00  0.00     0.043 C 
HETATM   27  C18 UNL     1       8.002   4.967  -1.072  1.00  0.00     0.007 C 
HETATM   28  C19 UNL     1       7.179   4.335  -0.040  1.00  0.00     0.142 C 
HETATM   29  C20 UNL     1       6.912   2.857  -0.249  1.00  0.00     0.048 C 
HETATM   30  C22 UNL     1       7.166   2.437  -2.689  1.00  0.00     0.019 C 
BRANCH  20  31
HETATM   31  O3  UNL     1       7.375   0.044  -2.089  1.00  0.00    -0.389 OA
ATOM     32  H3  UNL     1       6.612   0.535  -2.371  1.00  0.00     0.210 HD
ENDBRANCH  20  31
BRANCH  22  33
HETATM   33  O4  UNL     1      11.303   2.269  -1.858  1.00  0.00    -0.395 OA
ATOM     34  H4  UNL     1      11.518   3.177  -2.040  1.00  0.00     0.210 HD
ENDBRANCH  22  33
BRANCH  28  35
HETATM   35  O5  UNL     1       5.962   5.030   0.051  1.00  0.00    -0.392 OA
ATOM     36  H5  UNL     1       5.299   4.545  -0.425  1.00  0.00     0.210 HD
ENDBRANCH  28  35
ENDBRANCH  19  20
ENDBRANCH   1  19
TORSDOF 12
ENDMDL
MODEL 2
REMARK VINA RESULT: -8.283578818      3.118     10.509
REMARK  12 active torsions:
REMARK  status: ('A' for Active; 'I' for Inactive)
REMARK    1  A    between atoms: O1_2  and  C2_3 
REMARK    2  A    between atoms: C4_5  and  C5_6 
REMARK    3  A    between atoms: C5_6  and  C6_7 
REMARK    4  A    between atoms: C6_7  and  C7_8 
REMARK    5  A    between atoms: C7_8  and  O2_9 
REMARK    6  A    between atoms: C7_8  and  C8_11 
REMARK    7  A    between atoms: C8_11  and  C9_12 
REMARK    8  A    between atoms: C9_12  and  C11_14 
REMARK    9  A    between atoms: C11_14  and  C12_15 
REMARK   10  A    between atoms: C12_15  and  O3_16 
REMARK   11  A    between atoms: C14_19  and  O4_20 
REMARK   12  A    between atoms: C19_26  and  O5_27 
ROOT
HETATM    1  C9  UNL     1       6.954  -4.463   1.917  1.00  0.00    -0.013 C 
HETATM    2  C10 UNL     1       5.510  -4.699   2.204  1.00  0.00     0.010 C 
ENDROOT
BRANCH   1   3
HETATM    3  C8  UNL     1       7.193  -3.247   1.116  1.00  0.00     0.036 C 
BRANCH   3   4
HETATM    4  C7  UNL     1       8.319  -2.365   1.357  1.00  0.00     0.118 C 
BRANCH   4   5
HETATM    5  C6  UNL     1       8.730  -1.375   0.310  1.00  0.00     0.036 C 
BRANCH   5   6
HETATM    6  C5  UNL     1       7.437  -0.918  -0.359  1.00  0.00     0.043 C 
BRANCH   6   7
HETATM    7  C4  UNL     1       7.315   0.539  -0.446  1.00  0.00    -0.034 A 
HETATM    8  C3  UNL     1       8.193   1.263  -1.248  1.00  0.00     0.047 A 
HETATM    9  C2  UNL     1       8.032   2.629  -1.275  1.00  0.00     0.090 A 
HETATM   10  C25 UNL     1       7.044   3.267  -0.542  1.00  0.00     0.069 A 
HETATM   11  C24 UNL     1       6.179   2.545   0.250  1.00  0.00     0.051 A 
HETATM   12 CL2  UNL     1       6.881   5.030  -0.614  1.00  0.00    -0.081 Cl
HETATM   13  C23 UNL     1       6.334   1.171   0.283  1.00  0.00     0.042 A 
HETATM   14 CL1  UNL     1       5.185   0.304   1.311  1.00  0.00    -0.084 Cl
BRANCH   9  15
HETATM   15  O1  UNL     1       8.855   3.420  -2.042  1.00  0.00    -0.354 OA
HETATM   16  C1  UNL     1      10.137   3.865  -1.723  1.00  0.00     0.210 C 
ENDBRANCH   9  15
ENDBRANCH   6   7
ENDBRANCH   5   6
ENDBRANCH   4   5
BRANCH   4  17
HETATM   17  O2  UNL     1       9.487  -2.982   1.810  1.00  0.00    -0.396 OA
ATOM     18  H2  UNL     1       9.383  -3.914   1.658  1.00  0.00     0.210 HD
ENDBRANCH   4  17
ENDBRANCH   3   4
ENDBRANCH   1   3
BRANCH   1  19
HETATM   19  C11 UNL     1       7.701  -5.674   1.411  1.00  0.00     0.043 C 
BRANCH  19  20
HETATM   20  C12 UNL     1       8.563  -6.332   2.430  1.00  0.00     0.069 C 
HETATM   21  C13 UNL     1      10.040  -6.331   2.020  1.00  0.00     0.071 C 
HETATM   22  C14 UNL     1      10.467  -7.768   2.214  1.00  0.00     0.130 C 
HETATM   23  C15 UNL     1       9.233  -8.498   1.865  1.00  0.00     0.054 C 
HETATM   24  C16 UNL     1       9.182  -9.910   2.302  1.00  0.00    -0.078 C 
HETATM   25  C21 UNL     1       8.188  -7.768   2.683  1.00  0.00    -0.001 C 
HETATM   26  C17 UNL     1      10.343 -10.693   2.755  1.00  0.00     0.043 C 
HETATM   27  C18 UNL     1       7.973 -10.460   2.261  1.00  0.00     0.007 C 
HETATM   28  C19 UNL     1       6.822  -9.677   1.810  1.00  0.00     0.142 C 
HETATM   29  C20 UNL     1       6.866  -8.205   2.175  1.00  0.00     0.048 C 
HETATM   30  C22 UNL     1       8.353  -8.019   4.161  1.00  0.00     0.019 C 
BRANCH  20  31
HETATM   31  O3  UNL     1       8.504  -5.609   3.618  1.00  0.00    -0.389 OA
ATOM     32  H3  UNL     1       9.081  -6.010   4.258  1.00  0.00     0.210 HD
ENDBRANCH  20  31
BRANCH  22  33
HETATM   33  O4  UNL     1      11.507  -8.119   1.354  1.00  0.00    -0.395 OA
ATOM     34  H4  UNL     1      11.191  -8.300   0.476  1.00  0.00     0.210 HD
ENDBRANCH  22  33
BRANCH  28  35
HETATM   35  O5  UNL     1       5.653 -10.260   2.325  1.00  0.00    -0.392 OA
ATOM     36  H5  UNL     1       5.595 -10.057   3.252  1.00  0.00     0.210 HD
ENDBRANCH  28  35
ENDBRANCH  19  20
ENDBRANCH   1  19
TORSDOF 12
ENDMDL
MODEL 3
REMARK VINA RESULT: -8.122237554      5.456      8.893
REMARK  12 active torsions:
REMARK  status: ('A' for Active; 'I' for Inactive)
REMARK    1  A    between atoms: O1_2  and  C2_3 
REMARK    2  A    between atoms: C4_5  and  C5_6 
REMARK    3  A    between atoms: C5_6  and  C6_7 
REMARK    4  A    between atoms: C6_7  and  C7_8 
REMARK    5  A    between atoms: C7_8  and  O2_9 
REMARK    6  A    between atoms: C7_8  and  C8_11 
REMARK    7  A    between atoms: C8_11  and  C9_12 
REMARK    8  A    between atoms: C9_12  and  C11_14 
REMARK    9  A    between atoms: C11_14  and  C12_15 
REMARK   10  A    between atoms: C12_15  and  O3_16 
REMARK   11  A    between atoms: C14_19  and  O4_20 
REMARK   12  A    between atoms: C19_26  and  O5_27 
ROOT
HETATM    1  C9  UNL     1       8.814  -9.641   3.259  1.00  0.00    -0.013 C 
HETATM    2  C10 UNL     1       9.843 -10.431   2.524  1.00  0.00     0.010 C 
ENDROOT
BRANCH   1   3
HETATM    3  C8  UNL     1       7.453  -9.820   2.717  1.00  0.00     0.036 C 
BRANCH   3   4
HETATM    4  C7  UNL     1       7.183 -10.623   1.540  1.00  0.00     0.118 C 
BRANCH   4   5
HETATM    5  C6  UNL     1       6.256 -10.109   0.481  1.00  0.00     0.036 C 
BRANCH   5   6
HETATM    6  C5  UNL     1       6.375 -11.087  -0.685  1.00  0.00     0.043 C 
BRANCH   6   7
HETATM    7  C4  UNL     1       5.120 -11.779  -0.988  1.00  0.00    -0.034 A 
HETATM    8  C3  UNL     1       3.965 -11.464  -0.279  1.00  0.00     0.047 A 
HETATM    9  C2  UNL     1       2.823 -12.160  -0.605  1.00  0.00     0.090 A 
HETATM   10  C25 UNL     1       2.811 -13.130  -1.595  1.00  0.00     0.069 A 
HETATM   11  C24 UNL     1       3.958 -13.436  -2.293  1.00  0.00     0.051 A 
HETATM   12 CL2  UNL     1       1.312 -13.995  -1.974  1.00  0.00    -0.081 Cl
HETATM   13  C23 UNL     1       5.110 -12.742  -1.971  1.00  0.00     0.042 A 
HETATM   14 CL1  UNL     1       6.543 -13.176  -2.912  1.00  0.00    -0.084 Cl
BRANCH   9  15
HETATM   15  O1  UNL     1       1.637 -11.911   0.047  1.00  0.00    -0.354 OA
HETATM   16  C1  UNL     1       1.337 -12.172   1.382  1.00  0.00     0.210 C 
ENDBRANCH   9  15
ENDBRANCH   6   7
ENDBRANCH   5   6
ENDBRANCH   4   5
BRANCH   4  17
HETATM   17  O2  UNL     1       6.825 -11.951   1.781  1.00  0.00    -0.396 OA
ATOM     18  H2  UNL     1       6.627 -12.340   0.937  1.00  0.00     0.210 HD
ENDBRANCH   4  17
ENDBRANCH   3   4
ENDBRANCH   1   3
BRANCH   1  19
HETATM   19  C11 UNL     1       9.182  -8.196   3.497  1.00  0.00     0.043 C 
BRANCH  19  20
HETATM   20  C12 UNL     1       9.402  -7.407   2.256  1.00  0.00     0.069 C 
HETATM   21  C13 UNL     1      10.652  -6.524   2.351  1.00  0.00     0.071 C 
HETATM   22  C14 UNL     1      10.163  -5.163   1.912  1.00  0.00     0.130 C 
HETATM   23  C15 UNL     1       8.779  -5.162   2.423  1.00  0.00     0.054 C 
HETATM   24  C16 UNL     1       7.888  -4.129   1.849  1.00  0.00    -0.078 C 
HETATM   25  C21 UNL     1       8.254  -6.492   1.924  1.00  0.00    -0.001 C 
HETATM   26  C17 UNL     1       8.343  -2.959   1.082  1.00  0.00     0.043 C 
HETATM   27  C18 UNL     1       6.594  -4.326   2.075  1.00  0.00     0.007 C 
HETATM   28  C19 UNL     1       6.147  -5.492   2.839  1.00  0.00     0.142 C 
HETATM   29  C20 UNL     1       6.981  -6.744   2.641  1.00  0.00     0.048 C 
HETATM   30  C22 UNL     1       8.088  -6.507   0.426  1.00  0.00     0.019 C 
BRANCH  20  31
HETATM   31  O3  UNL     1       9.639  -8.277   1.195  1.00  0.00    -0.389 OA
ATOM     32  H3  UNL     1       8.972  -8.953   1.189  1.00  0.00     0.210 HD
ENDBRANCH  20  31
BRANCH  22  33
HETATM   33  O4  UNL     1      10.904  -4.136   2.495  1.00  0.00    -0.395 OA
ATOM     34  H4  UNL     1      11.056  -4.293   3.420  1.00  0.00     0.210 HD
ENDBRANCH  22  33
BRANCH  28  35
HETATM   35  O5  UNL     1       4.807  -5.756   2.512  1.00  0.00    -0.392 OA
ATOM     36  H5  UNL     1       4.724  -6.677   2.293  1.00  0.00     0.210 HD
ENDBRANCH  28  35
ENDBRANCH  19  20
ENDBRANCH   1  19
TORSDOF 12
ENDMDL
MODEL 4
REMARK VINA RESULT: -8.105764848      3.717     10.801
REMARK  12 active torsions:
REMARK  status: ('A' for Active; 'I' for Inactive)
REMARK    1  A    between atoms: O1_2  and  C2_3 
REMARK    2  A    between atoms: C4_5  and  C5_6 
REMARK    3  A    between atoms: C5_6  and  C6_7 
REMARK    4  A    between atoms: C6_7  and  C7_8 
REMARK    5  A    between atoms: C7_8  and  O2_9 
REMARK    6  A    between atoms: C7_8  and  C8_11 
REMARK    7  A    between atoms: C8_11  and  C9_12 
REMARK    8  A    between atoms: C9_12  and  C11_14 
REMARK    9  A    between atoms: C11_14  and  C12_15 
REMARK   10  A    between atoms: C12_15  and  O3_16 
REMARK   11  A    between atoms: C14_19  and  O4_20 
REMARK   12  A    between atoms: C19_26  and  O5_27 
ROOT
HETATM    1  C9  UNL     1       7.481  -3.382   1.077  1.00  0.00    -0.013 C 
HETATM    2  C10 UNL     1       6.549  -3.770  -0.021  1.00  0.00     0.010 C 
ENDROOT
BRANCH   1   3
HETATM    3  C8  UNL     1       8.076  -2.045   0.885  1.00  0.00     0.036 C 
BRANCH   3   4
HETATM    4  C7  UNL     1       7.458  -1.032   0.051  1.00  0.00     0.118 C 
BRANCH   4   5
HETATM    5  C6  UNL     1       8.305   0.018  -0.601  1.00  0.00     0.036 C 
BRANCH   5   6
HETATM    6  C5  UNL     1       7.453   1.285  -0.623  1.00  0.00     0.043 C 
BRANCH   6   7
HETATM    7  C4  UNL     1       8.172   2.455  -1.129  1.00  0.00    -0.034 A 
HETATM    8  C3  UNL     1       8.989   3.191  -0.275  1.00  0.00     0.047 A 
HETATM    9  C2  UNL     1       9.627   4.287  -0.811  1.00  0.00     0.090 A 
HETATM   10  C25 UNL     1       9.471   4.650  -2.140  1.00  0.00     0.069 A 
HETATM   11  C24 UNL     1       8.661   3.917  -2.980  1.00  0.00     0.051 A 
HETATM   12 CL2  UNL     1      10.317   6.070  -2.778  1.00  0.00    -0.081 Cl
HETATM   13  C23 UNL     1       8.017   2.815  -2.448  1.00  0.00     0.042 A 
HETATM   14 CL1  UNL     1       7.001   1.913  -3.582  1.00  0.00    -0.084 Cl
BRANCH   9  15
HETATM   15  O1  UNL     1      10.452   5.068  -0.038  1.00  0.00    -0.354 OA
HETATM   16  C1  UNL     1      11.845   5.047  -0.001  1.00  0.00     0.210 C 
ENDBRANCH   9  15
ENDBRANCH   6   7
ENDBRANCH   5   6
ENDBRANCH   4   5
BRANCH   4  17
HETATM   17  O2  UNL     1       6.358  -0.376   0.608  1.00  0.00    -0.396 OA
ATOM     18  H2  UNL     1       5.855  -0.020  -0.115  1.00  0.00     0.210 HD
ENDBRANCH   4  17
ENDBRANCH   3   4
ENDBRANCH   1   3
BRANCH   1  19
HETATM   19  C11 UNL     1       8.491  -4.442   1.448  1.00  0.00     0.043 C 
BRANCH  19  20
HETATM   20  C12 UNL     1       7.981  -5.469   2.396  1.00  0.00     0.069 C 
HETATM   21  C13 UNL     1       8.745  -5.453   3.725  1.00  0.00     0.071 C 
HETATM   22  C14 UNL     1       9.111  -6.903   3.945  1.00  0.00     0.130 C 
HETATM   23  C15 UNL     1       9.326  -7.371   2.563  1.00  0.00     0.054 C 
HETATM   24  C16 UNL     1       9.337  -8.840   2.382  1.00  0.00    -0.078 C 
HETATM   25  C21 UNL     1       8.082  -6.872   1.860  1.00  0.00    -0.001 C 
HETATM   26  C17 UNL     1       9.461  -9.821   3.472  1.00  0.00     0.043 C 
HETATM   27  C18 UNL     1       9.221  -9.244   1.122  1.00  0.00     0.007 C 
HETATM   28  C19 UNL     1       9.096  -8.265   0.042  1.00  0.00     0.142 C 
HETATM   29  C20 UNL     1       8.332  -7.006   0.404  1.00  0.00     0.048 C 
HETATM   30  C22 UNL     1       6.846  -7.611   2.306  1.00  0.00     0.019 C 
BRANCH  20  31
HETATM   31  O3  UNL     1       6.659  -5.177   2.722  1.00  0.00    -0.389 OA
ATOM     32  H3  UNL     1       6.476  -5.494   3.598  1.00  0.00     0.210 HD
ENDBRANCH  20  31
BRANCH  22  33
HETATM   33  O4  UNL     1      10.279  -7.032   4.697  1.00  0.00    -0.395 OA
ATOM     34  H4  UNL     1      10.822  -7.746   4.383  1.00  0.00     0.210 HD
ENDBRANCH  22  33
BRANCH  28  35
HETATM   35  O5  UNL     1       8.492  -8.888  -1.062  1.00  0.00    -0.392 OA
ATOM     36  H5  UNL     1       9.070  -8.805  -1.811  1.00  0.00     0.210 HD
ENDBRANCH  28  35
ENDBRANCH  19  20
ENDBRANCH   1  19
TORSDOF 12
ENDMDL
MODEL 5
REMARK VINA RESULT: -7.894306311      3.283     10.627
REMARK  12 active torsions:
REMARK  status: ('A' for Active; 'I' for Inactive)
REMARK    1  A    between atoms: O1_2  and  C2_3 
REMARK    2  A    between atoms: C4_5  and  C5_6 
REMARK    3  A    between atoms: C5_6  and  C6_7 
REMARK    4  A    between atoms: C6_7  and  C7_8 
REMARK    5  A    between atoms: C7_8  and  O2_9 
REMARK    6  A    between atoms: C7_8  and  C8_11 
REMARK    7  A    between atoms: C8_11  and  C9_12 
REMARK    8  A    between atoms: C9_12  and  C11_14 
REMARK    9  A    between atoms: C11_14  and  C12_15 
REMARK   10  A    between atoms: C12_15  and  O3_16 
REMARK   11  A    between atoms: C14_19  and  O4_20 
REMARK   12  A    between atoms: C19_26  and  O5_27 
ROOT
HETATM    1  C9  UNL     1       7.107  -4.181   1.618  1.00  0.00    -0.013 C 
HETATM    2  C10 UNL     1       5.744  -4.388   2.188  1.00  0.00     0.010 C 
ENDROOT
BRANCH   1   3
HETATM    3  C8  UNL     1       7.153  -3.110   0.605  1.00  0.00     0.036 C 
BRANCH   3   4
HETATM    4  C7  UNL     1       7.670  -1.786   0.895  1.00  0.00     0.118 C 
BRANCH   4   5
HETATM    5  C6  UNL     1       6.953  -0.575   0.382  1.00  0.00     0.036 C 
BRANCH   5   6
HETATM    6  C5  UNL     1       7.569  -0.274  -0.982  1.00  0.00     0.043 C 
BRANCH   6   7
HETATM    7  C4  UNL     1       8.099   1.087  -1.088  1.00  0.00    -0.034 A 
HETATM    8  C3  UNL     1       7.425   2.144  -0.483  1.00  0.00     0.047 A 
HETATM    9  C2  UNL     1       7.970   3.399  -0.631  1.00  0.00     0.090 A 
HETATM   10  C25 UNL     1       9.138   3.613  -1.347  1.00  0.00     0.069 A 
HETATM   11  C24 UNL     1       9.801   2.562  -1.943  1.00  0.00     0.051 A 
HETATM   12 CL2  UNL     1       9.796   5.250  -1.506  1.00  0.00    -0.081 Cl
HETATM   13  C23 UNL     1       9.259   1.298  -1.798  1.00  0.00     0.042 A 
HETATM   14 CL1  UNL     1      10.163  -0.006  -2.578  1.00  0.00    -0.084 Cl
BRANCH   9  15
HETATM   15  O1  UNL     1       7.368   4.499  -0.066  1.00  0.00    -0.354 OA
HETATM   16  C1  UNL     1       6.063   4.595   0.413  1.00  0.00     0.210 C 
ENDBRANCH   9  15
ENDBRANCH   6   7
ENDBRANCH   5   6
ENDBRANCH   4   5
BRANCH   4  17
HETATM   17  O2  UNL     1       9.028  -1.593   0.631  1.00  0.00    -0.396 OA
ATOM     18  H2  UNL     1       9.325  -2.357   0.151  1.00  0.00     0.210 HD
ENDBRANCH   4  17
ENDBRANCH   3   4
ENDBRANCH   1   3
BRANCH   1  19
HETATM   19  C11 UNL     1       7.808  -5.448   1.188  1.00  0.00     0.043 C 
BRANCH  19  20
HETATM   20  C12 UNL     1       8.600  -6.105   2.262  1.00  0.00     0.069 C 
HETATM   21  C13 UNL     1      10.094  -6.160   1.922  1.00  0.00     0.071 C 
HETATM   22  C14 UNL     1      10.465  -7.604   2.172  1.00  0.00     0.130 C 
HETATM   23  C15 UNL     1       9.226  -8.304   1.783  1.00  0.00     0.054 C 
HETATM   24  C16 UNL     1       9.110  -9.702   2.252  1.00  0.00    -0.078 C 
HETATM   25  C21 UNL     1       8.169  -7.521   2.534  1.00  0.00    -0.001 C 
HETATM   26  C17 UNL     1      10.223 -10.508   2.779  1.00  0.00     0.043 C 
HETATM   27  C18 UNL     1       7.887 -10.216   2.169  1.00  0.00     0.007 C 
HETATM   28  C19 UNL     1       6.783  -9.410   1.645  1.00  0.00     0.142 C 
HETATM   29  C20 UNL     1       6.858  -7.931   1.974  1.00  0.00     0.048 C 
HETATM   30  C22 UNL     1       8.257  -7.738   4.023  1.00  0.00     0.019 C 
BRANCH  20  31
HETATM   31  O3  UNL     1       8.510  -5.348   3.428  1.00  0.00    -0.389 OA
ATOM     32  H3  UNL     1       8.037  -5.843   4.086  1.00  0.00     0.210 HD
ENDBRANCH  20  31
BRANCH  22  33
HETATM   33  O4  UNL     1      11.532  -8.009   1.370  1.00  0.00    -0.395 OA
ATOM     34  H4  UNL     1      12.189  -8.478   1.870  1.00  0.00     0.210 HD
ENDBRANCH  22  33
BRANCH  28  35
HETATM   35  O5  UNL     1       5.574  -9.943   2.120  1.00  0.00    -0.392 OA
ATOM     36  H5  UNL     1       5.218  -9.353   2.774  1.00  0.00     0.210 HD
ENDBRANCH  28  35
ENDBRANCH  19  20
ENDBRANCH   1  19
TORSDOF 12
ENDMDL
