MODEL 1
REMARK VINA RESULT: -5.525298126      0.000      0.000
REMARK  11 active torsions:
REMARK  status: ('A' for Active; 'I' for Inactive)
REMARK    1  A    between atoms: C7_9  and  C8_10 
REMARK    2  A    between atoms: C8_10  and  C9_11 
REMARK    3  A    between atoms: C9_11  and  C10_12 
REMARK    4  A    between atoms: C10_12  and  C12_14 
REMARK    5  A    between atoms: C12_14  and  C13_15 
REMARK    6  A    between atoms: C13_15  and  O3_16 
REMARK    7  A    between atoms: C13_15  and  C14_18 
REMARK    8  A    between atoms: C14_18  and  C15_19 
REMARK    9  A    between atoms: C18_24  and  O6_25 
REMARK   10  A    between atoms: C19_27  and  C20_28 
REMARK   11  A    between atoms: C20_28  and  O7_29 
ROOT
HETATM    1  C1  UNL     1       0.220 -12.567   4.229  1.00  0.00     0.047 C 
HETATM    2  C2  UNL     1       1.470 -13.061   3.606  1.00  0.00    -0.068 C 
HETATM    3  C3  UNL     1       2.570 -13.348   4.299  1.00  0.00    -0.020 C 
HETATM    4  C4  UNL     1       3.848 -13.845   3.739  1.00  0.00     0.037 C 
HETATM    5  C5  UNL     1       4.629 -12.948   2.860  1.00  0.00     0.115 C 
HETATM    6  C6  UNL     1       5.331 -13.721   1.750  1.00  0.00     0.259 C 
HETATM    7  O1  UNL     1       6.247 -14.452   2.289  1.00  0.00    -0.265 OA
HETATM    8  O2  UNL     1       5.111 -13.708   0.475  1.00  0.00    -0.316 OA
HETATM    9  C7  UNL     1       5.316 -13.351  -0.813  1.00  0.00     0.138 C 
HETATM   10  C16 UNL     1       4.018 -13.392  -1.675  1.00  0.00     0.040 C 
HETATM   11  C17 UNL     1       4.166 -14.212  -2.895  1.00  0.00     0.015 C 
HETATM   12  C18 UNL     1       2.990 -13.914  -0.684  1.00  0.00     0.132 C 
HETATM   13  C19 UNL     1       1.571 -13.884  -0.946  1.00  0.00     0.058 C 
HETATM   14  C21 UNL     1       0.690 -13.015  -0.100  1.00  0.00     0.113 C 
HETATM   15 CL1  UNL     1       1.268 -11.350  -0.115  1.00  0.00    -0.123 Cl
HETATM   16  C22 UNL     1       0.386 -13.519   1.309  1.00  0.00     0.124 C 
HETATM   17 CL2  UNL     1      -0.097 -15.202   1.239  1.00  0.00    -0.119 Cl
HETATM   18  C23 UNL     1       1.550 -13.233   2.173  1.00  0.00     0.001 C 
ENDROOT
BRANCH   9  19
HETATM   19  C8  UNL     1       6.079 -12.077  -1.039  1.00  0.00     0.033 C 
BRANCH  19  20
HETATM   20  C9  UNL     1       5.357 -10.882  -0.523  1.00  0.00     0.007 C 
BRANCH  20  21
HETATM   21  C10 UNL     1       6.195  -9.999   0.360  1.00  0.00    -0.016 C 
HETATM   22  C11 UNL     1       5.746  -9.975   1.780  1.00  0.00     0.010 C 
BRANCH  21  23
HETATM   23  C12 UNL     1       7.624 -10.499   0.323  1.00  0.00     0.036 C 
BRANCH  23  24
HETATM   24  C13 UNL     1       8.603  -9.429  -0.078  1.00  0.00     0.128 C 
BRANCH  24  25
HETATM   25  O3  UNL     1       7.914  -8.512  -0.870  1.00  0.00    -0.395 OA
ATOM     26  H3  UNL     1       7.588  -7.830  -0.295  1.00  0.00     0.210 HD
ENDBRANCH  24  25
BRANCH  24  27
HETATM   27  C14 UNL     1       9.129  -8.690   1.132  1.00  0.00     0.144 C 
BRANCH  27  28
HETATM   28  C15 UNL     1       9.028  -7.220   0.957  1.00  0.00     0.175 C 
HETATM   29  O4  UNL     1       9.924  -6.553   0.377  1.00  0.00    -0.648 OA
HETATM   30  O5  UNL     1       7.934  -6.533   1.433  1.00  0.00    -0.648 OA
ENDBRANCH  27  28
ENDBRANCH  24  27
ENDBRANCH  23  24
ENDBRANCH  21  23
ENDBRANCH  20  21
ENDBRANCH  19  20
ENDBRANCH   9  19
BRANCH  12  31
HETATM   31  O6  UNL     1       3.448 -15.173  -0.354  1.00  0.00    -0.395 OA
ATOM     32  H6  UNL     1       3.756 -15.082   0.540  1.00  0.00     0.210 HD
ENDBRANCH  12  31
BRANCH  13  33
HETATM   33  C20 UNL     1       1.190 -13.581  -2.404  1.00  0.00     0.172 C 
BRANCH  33  34
HETATM   34  O7  UNL     1      -0.179 -13.283  -2.486  1.00  0.00    -0.400 OA
ATOM     35  H7  UNL     1      -0.305 -12.484  -2.983  1.00  0.00     0.209 HD
ENDBRANCH  33  34
ENDBRANCH  13  33
TORSDOF 11
ENDMDL
MODEL 2
REMARK VINA RESULT: -5.467776573      1.164      1.472
REMARK  11 active torsions:
REMARK  status: ('A' for Active; 'I' for Inactive)
REMARK    1  A    between atoms: C7_9  and  C8_10 
REMARK    2  A    between atoms: C8_10  and  C9_11 
REMARK    3  A    between atoms: C9_11  and  C10_12 
REMARK    4  A    between atoms: C10_12  and  C12_14 
REMARK    5  A    between atoms: C12_14  and  C13_15 
REMARK    6  A    between atoms: C13_15  and  O3_16 
REMARK    7  A    between atoms: C13_15  and  C14_18 
REMARK    8  A    between atoms: C14_18  and  C15_19 
REMARK    9  A    between atoms: C18_24  and  O6_25 
REMARK   10  A    between atoms: C19_27  and  C20_28 
REMARK   11  A    between atoms: C20_28  and  O7_29 
ROOT
HETATM    1  C1  UNL     1       0.217 -12.510   4.244  1.00  0.00     0.047 C 
HETATM    2  C2  UNL     1       1.471 -12.960   3.597  1.00  0.00    -0.068 C 
HETATM    3  C3  UNL     1       2.599 -13.190   4.266  1.00  0.00    -0.020 C 
HETATM    4  C4  UNL     1       3.883 -13.642   3.681  1.00  0.00     0.037 C 
HETATM    5  C5  UNL     1       4.603 -12.726   2.770  1.00  0.00     0.115 C 
HETATM    6  C6  UNL     1       5.309 -13.487   1.653  1.00  0.00     0.259 C 
HETATM    7  O1  UNL     1       6.269 -14.170   2.180  1.00  0.00    -0.265 OA
HETATM    8  O2  UNL     1       5.058 -13.503   0.384  1.00  0.00    -0.316 OA
HETATM    9  C7  UNL     1       5.215 -13.158  -0.914  1.00  0.00     0.138 C 
HETATM   10  C16 UNL     1       3.900 -13.266  -1.741  1.00  0.00     0.040 C 
HETATM   11  C17 UNL     1       4.052 -14.099  -2.952  1.00  0.00     0.015 C 
HETATM   12  C18 UNL     1       2.920 -13.816  -0.717  1.00  0.00     0.132 C 
HETATM   13  C19 UNL     1       1.495 -13.850  -0.943  1.00  0.00     0.058 C 
HETATM   14  C21 UNL     1       0.599 -13.005  -0.088  1.00  0.00     0.113 C 
HETATM   15 CL1  UNL     1       1.105 -11.318  -0.142  1.00  0.00    -0.123 Cl
HETATM   16  C22 UNL     1       0.351 -13.500   1.335  1.00  0.00     0.124 C 
HETATM   17 CL2  UNL     1      -0.061 -15.203   1.302  1.00  0.00    -0.119 Cl
HETATM   18  C23 UNL     1       1.523 -13.152   2.165  1.00  0.00     0.001 C 
ENDROOT
BRANCH   9  19
HETATM   19  C8  UNL     1       5.918 -11.857  -1.177  1.00  0.00     0.033 C 
BRANCH  19  20
HETATM   20  C9  UNL     1       5.720 -10.871  -0.080  1.00  0.00     0.007 C 
BRANCH  20  21
HETATM   21  C10 UNL     1       7.001 -10.360   0.519  1.00  0.00    -0.016 C 
HETATM   22  C11 UNL     1       7.781  -9.482  -0.397  1.00  0.00     0.010 C 
BRANCH  21  23
HETATM   23  C12 UNL     1       6.666  -9.567   1.765  1.00  0.00     0.036 C 
BRANCH  23  24
HETATM   24  C13 UNL     1       7.648  -8.459   2.031  1.00  0.00     0.128 C 
BRANCH  24  25
HETATM   25  O3  UNL     1       6.914  -7.287   2.212  1.00  0.00    -0.395 OA
ATOM     26  H3  UNL     1       7.238  -6.651   1.585  1.00  0.00     0.210 HD
ENDBRANCH  24  25
BRANCH  24  27
HETATM   27  C14 UNL     1       8.428  -8.715   3.300  1.00  0.00     0.144 C 
BRANCH  27  28
HETATM   28  C15 UNL     1       8.905  -7.449   3.910  1.00  0.00     0.175 C 
HETATM   29  O4  UNL     1      10.075  -7.020   3.731  1.00  0.00    -0.648 OA
HETATM   30  O5  UNL     1       8.068  -6.695   4.702  1.00  0.00    -0.648 OA
ENDBRANCH  27  28
ENDBRANCH  24  27
ENDBRANCH  23  24
ENDBRANCH  21  23
ENDBRANCH  20  21
ENDBRANCH  19  20
ENDBRANCH   9  19
BRANCH  12  31
HETATM   31  O6  UNL     1       3.439 -15.050  -0.380  1.00  0.00    -0.395 OA
ATOM     32  H6  UNL     1       3.102 -15.634  -1.049  1.00  0.00     0.210 HD
ENDBRANCH  12  31
BRANCH  13  33
HETATM   33  C20 UNL     1       1.065 -13.586  -2.396  1.00  0.00     0.172 C 
BRANCH  33  34
HETATM   34  O7  UNL     1      -0.265 -13.139  -2.425  1.00  0.00    -0.400 OA
ATOM     35  H7  UNL     1      -0.538 -12.998  -3.323  1.00  0.00     0.209 HD
ENDBRANCH  33  34
ENDBRANCH  13  33
TORSDOF 11
ENDMDL
MODEL 3
REMARK VINA RESULT: -5.327639092      1.026      1.262
REMARK  11 active torsions:
REMARK  status: ('A' for Active; 'I' for Inactive)
REMARK    1  A    between atoms: C7_9  and  C8_10 
REMARK    2  A    between atoms: C8_10  and  C9_11 
REMARK    3  A    between atoms: C9_11  and  C10_12 
REMARK    4  A    between atoms: C10_12  and  C12_14 
REMARK    5  A    between atoms: C12_14  and  C13_15 
REMARK    6  A    between atoms: C13_15  and  O3_16 
REMARK    7  A    between atoms: C13_15  and  C14_18 
REMARK    8  A    between atoms: C14_18  and  C15_19 
REMARK    9  A    between atoms: C18_24  and  O6_25 
REMARK   10  A    between atoms: C19_27  and  C20_28 
REMARK   11  A    between atoms: C20_28  and  O7_29 
ROOT
HETATM    1  C1  UNL     1       0.081 -12.752   4.668  1.00  0.00     0.047 C 
HETATM    2  C2  UNL     1       1.301 -13.040   3.878  1.00  0.00    -0.068 C 
HETATM    3  C3  UNL     1       2.500 -13.230   4.425  1.00  0.00    -0.020 C 
HETATM    4  C4  UNL     1       3.755 -13.523   3.694  1.00  0.00     0.037 C 
HETATM    5  C5  UNL     1       4.317 -12.478   2.811  1.00  0.00     0.115 C 
HETATM    6  C6  UNL     1       4.972 -13.080   1.574  1.00  0.00     0.259 C 
HETATM    7  O1  UNL     1       6.025 -13.723   1.953  1.00  0.00    -0.265 OA
HETATM    8  O2  UNL     1       4.607 -13.012   0.335  1.00  0.00    -0.316 OA
HETATM    9  C7  UNL     1       4.617 -12.547  -0.935  1.00  0.00     0.138 C 
HETATM   10  C16 UNL     1       3.242 -12.696  -1.654  1.00  0.00     0.040 C 
HETATM   11  C17 UNL     1       3.345 -13.409  -2.944  1.00  0.00     0.015 C 
HETATM   12  C18 UNL     1       2.405 -13.409  -0.604  1.00  0.00     0.132 C 
HETATM   13  C19 UNL     1       0.972 -13.542  -0.709  1.00  0.00     0.058 C 
HETATM   14  C21 UNL     1       0.098 -12.850   0.292  1.00  0.00     0.113 C 
HETATM   15 CL1  UNL     1       0.468 -11.128   0.348  1.00  0.00    -0.123 Cl
HETATM   16  C22 UNL     1       0.021 -13.480   1.681  1.00  0.00     0.124 C 
HETATM   17 CL2  UNL     1      -0.263 -15.203   1.529  1.00  0.00    -0.119 Cl
HETATM   18  C23 UNL     1       1.234 -13.106   2.436  1.00  0.00     0.001 C 
ENDROOT
BRANCH   9  19
HETATM   19  C8  UNL     1       5.192 -11.175  -1.138  1.00  0.00     0.033 C 
BRANCH  19  20
HETATM   20  C9  UNL     1       6.553 -11.036  -0.553  1.00  0.00     0.007 C 
BRANCH  20  21
HETATM   21  C10 UNL     1       6.750  -9.773   0.238  1.00  0.00    -0.016 C 
HETATM   22  C11 UNL     1       6.581  -9.953   1.706  1.00  0.00     0.010 C 
BRANCH  21  23
HETATM   23  C12 UNL     1       8.152  -9.259  -0.018  1.00  0.00     0.036 C 
BRANCH  23  24
HETATM   24  C13 UNL     1       8.670  -8.400   1.103  1.00  0.00     0.128 C 
BRANCH  24  25
HETATM   25  O3  UNL     1       9.959  -8.841   1.403  1.00  0.00    -0.395 OA
ATOM     26  H3  UNL     1      10.040  -8.852   2.349  1.00  0.00     0.210 HD
ENDBRANCH  24  25
BRANCH  24  27
HETATM   27  C14 UNL     1       8.766  -6.952   0.679  1.00  0.00     0.144 C 
BRANCH  27  28
HETATM   28  C15 UNL     1       9.866  -6.250   1.386  1.00  0.00     0.175 C 
HETATM   29  O4  UNL     1       9.812  -5.990   2.616  1.00  0.00    -0.648 OA
HETATM   30  O5  UNL     1      10.996  -5.856   0.705  1.00  0.00    -0.648 OA
ENDBRANCH  27  28
ENDBRANCH  24  27
ENDBRANCH  23  24
ENDBRANCH  21  23
ENDBRANCH  20  21
ENDBRANCH  19  20
ENDBRANCH   9  19
BRANCH  12  31
HETATM   31  O6  UNL     1       3.045 -14.619  -0.426  1.00  0.00    -0.395 OA
ATOM     32  H6  UNL     1       2.421 -15.142   0.063  1.00  0.00     0.210 HD
ENDBRANCH  12  31
BRANCH  13  33
HETATM   33  C20 UNL     1       0.392 -13.194  -2.090  1.00  0.00     0.172 C 
BRANCH  33  34
HETATM   34  O7  UNL     1      -0.137 -14.349  -2.688  1.00  0.00    -0.400 OA
ATOM     35  H7  UNL     1      -1.073 -14.248  -2.811  1.00  0.00     0.209 HD
ENDBRANCH  33  34
ENDBRANCH  13  33
TORSDOF 11
ENDMDL
MODEL 4
REMARK VINA RESULT: -4.836338699      3.185      6.425
REMARK  11 active torsions:
REMARK  status: ('A' for Active; 'I' for Inactive)
REMARK    1  A    between atoms: C7_9  and  C8_10 
REMARK    2  A    between atoms: C8_10  and  C9_11 
REMARK    3  A    between atoms: C9_11  and  C10_12 
REMARK    4  A    between atoms: C10_12  and  C12_14 
REMARK    5  A    between atoms: C12_14  and  C13_15 
REMARK    6  A    between atoms: C13_15  and  O3_16 
REMARK    7  A    between atoms: C13_15  and  C14_18 
REMARK    8  A    between atoms: C14_18  and  C15_19 
REMARK    9  A    between atoms: C18_24  and  O6_25 
REMARK   10  A    between atoms: C19_27  and  C20_28 
REMARK   11  A    between atoms: C20_28  and  O7_29 
ROOT
HETATM    1  C1  UNL     1      -0.246 -15.202   2.511  1.00  0.00     0.047 C 
HETATM    2  C2  UNL     1       0.293 -14.720   1.218  1.00  0.00    -0.068 C 
HETATM    3  C3  UNL     1      -0.246 -15.025   0.040  1.00  0.00    -0.020 C 
HETATM    4  C4  UNL     1       0.242 -14.575  -1.284  1.00  0.00     0.037 C 
HETATM    5  C5  UNL     1       1.557 -15.062  -1.754  1.00  0.00     0.115 C 
HETATM    6  C6  UNL     1       2.296 -13.997  -2.557  1.00  0.00     0.259 C 
HETATM    7  O1  UNL     1       1.654 -13.814  -3.662  1.00  0.00    -0.265 OA
HETATM    8  O2  UNL     1       3.373 -13.345  -2.261  1.00  0.00    -0.316 OA
HETATM    9  C7  UNL     1       4.695 -13.061  -2.286  1.00  0.00     0.138 C 
HETATM   10  C16 UNL     1       5.196 -12.357  -0.990  1.00  0.00     0.040 C 
HETATM   11  C17 UNL     1       5.909 -11.092  -1.264  1.00  0.00     0.015 C 
HETATM   12  C18 UNL     1       3.910 -12.196  -0.194  1.00  0.00     0.132 C 
HETATM   13  C19 UNL     1       3.899 -11.821   1.200  1.00  0.00     0.058 C 
HETATM   14  C21 UNL     1       3.404 -12.803   2.218  1.00  0.00     0.113 C 
HETATM   15 CL1  UNL     1       4.282 -14.325   2.085  1.00  0.00    -0.123 Cl
HETATM   16  C22 UNL     1       1.892 -13.001   2.293  1.00  0.00     0.124 C 
HETATM   17 CL2  UNL     1       1.096 -11.440   2.335  1.00  0.00    -0.119 Cl
HETATM   18  C23 UNL     1       1.477 -13.890   1.189  1.00  0.00     0.001 C 
ENDROOT
BRANCH   9  19
HETATM   19  C8  UNL     1       5.610 -14.183  -2.684  1.00  0.00     0.033 C 
BRANCH  19  20
HETATM   20  C9  UNL     1       5.321 -14.695  -4.051  1.00  0.00     0.007 C 
BRANCH  20  21
HETATM   21  C10 UNL     1       6.211 -14.120  -5.118  1.00  0.00    -0.016 C 
HETATM   22  C11 UNL     1       6.562 -15.091  -6.192  1.00  0.00     0.010 C 
BRANCH  21  23
HETATM   23  C12 UNL     1       5.500 -12.945  -5.756  1.00  0.00     0.036 C 
BRANCH  23  24
HETATM   24  C13 UNL     1       4.157 -13.317  -6.324  1.00  0.00     0.128 C 
BRANCH  24  25
HETATM   25  O3  UNL     1       3.193 -12.602  -5.613  1.00  0.00    -0.395 OA
ATOM     26  H3  UNL     1       3.284 -11.688  -5.855  1.00  0.00     0.210 HD
ENDBRANCH  24  25
BRANCH  24  27
HETATM   27  C14 UNL     1       4.050 -12.914  -7.777  1.00  0.00     0.144 C 
BRANCH  27  28
HETATM   28  C15 UNL     1       3.185 -11.721  -7.949  1.00  0.00     0.175 C 
HETATM   29  O4  UNL     1       3.638 -10.549  -7.869  1.00  0.00    -0.648 OA
HETATM   30  O5  UNL     1       1.839 -11.864  -8.204  1.00  0.00    -0.648 OA
ENDBRANCH  27  28
ENDBRANCH  24  27
ENDBRANCH  23  24
ENDBRANCH  21  23
ENDBRANCH  20  21
ENDBRANCH  19  20
ENDBRANCH   9  19
BRANCH  12  31
HETATM   31  O6  UNL     1       3.128 -11.373  -0.977  1.00  0.00    -0.395 OA
ATOM     32  H6  UNL     1       2.582 -11.972  -1.472  1.00  0.00     0.210 HD
ENDBRANCH  12  31
BRANCH  13  33
HETATM   33  C20 UNL     1       5.241 -11.295   1.737  1.00  0.00     0.172 C 
BRANCH  33  34
HETATM   34  O7  UNL     1       5.171  -9.904   1.912  1.00  0.00    -0.400 OA
ATOM     35  H7  UNL     1       4.977  -9.703   2.819  1.00  0.00     0.209 HD
ENDBRANCH  33  34
ENDBRANCH  13  33
TORSDOF 11
ENDMDL
MODEL 5
REMARK VINA RESULT: -4.614056890      1.343      1.589
REMARK  11 active torsions:
REMARK  status: ('A' for Active; 'I' for Inactive)
REMARK    1  A    between atoms: C7_9  and  C8_10 
REMARK    2  A    between atoms: C8_10  and  C9_11 
REMARK    3  A    between atoms: C9_11  and  C10_12 
REMARK    4  A    between atoms: C10_12  and  C12_14 
REMARK    5  A    between atoms: C12_14  and  C13_15 
REMARK    6  A    between atoms: C13_15  and  O3_16 
REMARK    7  A    between atoms: C13_15  and  C14_18 
REMARK    8  A    between atoms: C14_18  and  C15_19 
REMARK    9  A    between atoms: C18_24  and  O6_25 
REMARK   10  A    between atoms: C19_27  and  C20_28 
REMARK   11  A    between atoms: C20_28  and  O7_29 
ROOT
HETATM    1  C1  UNL     1       1.664 -14.103   5.687  1.00  0.00     0.047 C 
HETATM    2  C2  UNL     1       2.643 -14.330   4.599  1.00  0.00    -0.068 C 
HETATM    3  C3  UNL     1       3.820 -14.925   4.783  1.00  0.00    -0.020 C 
HETATM    4  C4  UNL     1       4.839 -15.183   3.740  1.00  0.00     0.037 C 
HETATM    5  C5  UNL     1       5.516 -14.026   3.114  1.00  0.00     0.115 C 
HETATM    6  C6  UNL     1       5.810 -14.278   1.640  1.00  0.00     0.259 C 
HETATM    7  O1  UNL     1       6.708 -15.203   1.564  1.00  0.00    -0.265 OA
HETATM    8  O2  UNL     1       5.300 -13.716   0.592  1.00  0.00    -0.316 OA
HETATM    9  C7  UNL     1       5.245 -12.853  -0.446  1.00  0.00     0.138 C 
HETATM   10  C16 UNL     1       3.789 -12.476  -0.855  1.00  0.00     0.040 C 
HETATM   11  C17 UNL     1       3.519 -12.704  -2.289  1.00  0.00     0.015 C 
HETATM   12  C18 UNL     1       2.959 -13.332   0.088  1.00  0.00     0.132 C 
HETATM   13  C19 UNL     1       1.539 -13.142   0.265  1.00  0.00     0.058 C 
HETATM   14  C21 UNL     1       1.024 -12.683   1.596  1.00  0.00     0.113 C 
HETATM   15 CL1  UNL     1       1.825 -11.193   2.088  1.00  0.00    -0.123 Cl
HETATM   16  C22 UNL     1       0.990 -13.728   2.710  1.00  0.00     0.124 C 
HETATM   17 CL2  UNL     1       0.257 -15.202   2.110  1.00  0.00    -0.119 Cl
HETATM   18  C23 UNL     1       2.355 -13.879   3.256  1.00  0.00     0.001 C 
ENDROOT
BRANCH   9  19
HETATM   19  C8  UNL     1       6.116 -11.634  -0.347  1.00  0.00     0.033 C 
BRANCH  19  20
HETATM   20  C9  UNL     1       5.641 -10.679   0.691  1.00  0.00     0.007 C 
BRANCH  20  21
HETATM   21  C10 UNL     1       6.749  -9.982   1.431  1.00  0.00    -0.016 C 
HETATM   22  C11 UNL     1       7.568 -10.893   2.278  1.00  0.00     0.010 C 
BRANCH  21  23
HETATM   23  C12 UNL     1       7.664  -9.325   0.418  1.00  0.00     0.036 C 
BRANCH  23  24
HETATM   24  C13 UNL     1       8.056  -7.926   0.810  1.00  0.00     0.128 C 
BRANCH  24  25
HETATM   25  O3  UNL     1       7.418  -7.640   2.017  1.00  0.00    -0.395 OA
ATOM     26  H3  UNL     1       6.615  -7.176   1.809  1.00  0.00     0.210 HD
ENDBRANCH  24  25
BRANCH  24  27
HETATM   27  C14 UNL     1       9.546  -7.822   1.041  1.00  0.00     0.144 C 
BRANCH  27  28
HETATM   28  C15 UNL     1       9.922  -6.491   1.580  1.00  0.00     0.175 C 
HETATM   29  O4  UNL     1      11.038  -6.280   2.120  1.00  0.00    -0.648 OA
HETATM   30  O5  UNL     1       9.043  -5.434   1.504  1.00  0.00    -0.648 OA
ENDBRANCH  27  28
ENDBRANCH  24  27
ENDBRANCH  23  24
ENDBRANCH  21  23
ENDBRANCH  20  21
ENDBRANCH  19  20
ENDBRANCH   9  19
BRANCH  12  31
HETATM   31  O6  UNL     1       3.287 -14.628  -0.255  1.00  0.00    -0.395 OA
ATOM     32  H6  UNL     1       3.064 -15.136   0.516  1.00  0.00     0.210 HD
ENDBRANCH  12  31
BRANCH  13  33
HETATM   33  C20 UNL     1       0.874 -12.233  -0.782  1.00  0.00     0.172 C 
BRANCH  33  34
HETATM   34  O7  UNL     1      -0.042 -12.976  -1.543  1.00  0.00    -0.400 OA
ATOM     35  H7  UNL     1       0.401 -13.712  -1.951  1.00  0.00     0.209 HD
ENDBRANCH  33  34
ENDBRANCH  13  33
TORSDOF 11
ENDMDL
