MODEL 1
REMARK VINA RESULT: -8.271353606      0.000      0.000
REMARK  10 active torsions:
REMARK  status: ('A' for Active; 'I' for Inactive)
REMARK    1  A    between atoms: C2_2  and  O1_3 
REMARK    2  A    between atoms: O1_3  and  C3_4 
REMARK    3  A    between atoms: C6_7  and  N1_8 
REMARK       I    between atoms: N1_8  and  C7_10 
REMARK    4  A    between atoms: C7_10  and  O3_12 
REMARK    5  A    between atoms: O3_12  and  C8_13 
REMARK    6  A    between atoms: N2_19  and  C14_20 
REMARK    7  A    between atoms: C17_25  and  N4_26 
REMARK    8  A    between atoms: N4_26  and  C18_28 
REMARK    9  A    between atoms: C18_28  and  C19_29 
REMARK   10  A    between atoms: C19_29  and  C22_32 
ROOT
HETATM    1  C8  UNL     1     -26.558   1.035 -10.831  1.00  0.00     0.131 C 
HETATM    2  C9  UNL     1     -25.054   1.074 -10.962  1.00  0.00     0.049 C 
HETATM    3  C10 UNL     1     -24.578   1.431 -12.353  1.00  0.00     0.029 C 
HETATM    4  C11 UNL     1     -25.775   1.642 -13.239  1.00  0.00     0.093 C 
HETATM    5  C12 UNL     1     -26.595   0.371 -13.204  1.00  0.00     0.029 C 
HETATM    6  C13 UNL     1     -27.090   0.018 -11.817  1.00  0.00     0.049 C 
HETATM    7  N2  UNL     1     -26.541   2.727 -12.591  1.00  0.00    -0.314 N 
HETATM    8  C24 UNL     1     -27.064   2.351 -11.326  1.00  0.00     0.132 C 
HETATM    9  N6  UNL     1     -27.891   3.101 -10.703  1.00  0.00    -0.285 N 
ATOM     10  H6  UNL     1     -28.159   3.979 -11.149  1.00  0.00     0.182 HD
HETATM   11 CL1  UNL     1     -28.582   2.747  -9.174  1.00  0.00     0.012 Cl
ENDROOT
BRANCH   7  12
HETATM   12  C14 UNL     1     -26.694   3.967 -13.209  1.00  0.00     0.126 A 
HETATM   13  C15 UNL     1     -25.686   4.904 -13.166  1.00  0.00     0.067 A 
HETATM   14  C16 UNL     1     -25.838   6.148 -13.788  1.00  0.00     0.110 A 
HETATM   15  N3  UNL     1     -26.985   6.407 -14.425  1.00  0.00    -0.202 N 
HETATM   16  C17 UNL     1     -27.974   5.507 -14.477  1.00  0.00     0.679 A 
ATOM     17  H3  UNL     1     -27.108   7.311 -14.882  1.00  0.00     0.183 HD
HETATM   18  N5  UNL     1     -27.805   4.314 -13.870  1.00  0.00    -0.176 N 
ATOM     19  H5  UNL     1     -28.568   3.638 -13.917  1.00  0.00     0.186 HD
BRANCH  16  20
HETATM   20  N4  UNL     1     -29.088   5.784 -15.108  1.00  0.00    -0.225 N 
ATOM     21  H4  UNL     1     -29.820   6.306 -14.626  1.00  0.00     0.177 HD
BRANCH  20  22
HETATM   22  C18 UNL     1     -29.297   5.361 -16.477  1.00  0.00     0.146 C 
BRANCH  22  23
HETATM   23  C19 UNL     1     -29.231   6.525 -17.436  1.00  0.00    -0.032 C 
HETATM   24  C20 UNL     1     -27.822   6.664 -17.959  1.00  0.00     0.016 C 
HETATM   25  C21 UNL     1     -30.105   6.218 -18.659  1.00  0.00     0.016 C 
BRANCH  23  26
HETATM   26  C22 UNL     1     -29.757   7.792 -16.842  1.00  0.00     0.006 C 
HETATM   27  C23 UNL     1     -29.412   9.015 -17.641  1.00  0.00     0.006 C 
ENDBRANCH  23  26
ENDBRANCH  22  23
ENDBRANCH  20  22
ENDBRANCH  16  20
ENDBRANCH   7  12
BRANCH   1  28
HETATM   28  O3  UNL     1     -26.881   0.790  -9.519  1.00  0.00    -0.285 OA
BRANCH  28  29
HETATM   29  C7  UNL     1     -26.203   0.170  -8.519  1.00  0.00     0.362 C 
HETATM   30  N1  UNL     1     -25.929  -1.228  -8.462  1.00  0.00    -0.332 N 
ATOM     31  H1  UNL     1     -26.254  -1.830  -9.218  1.00  0.00     0.165 HD
HETATM   32  O2  UNL     1     -25.798   0.920  -7.582  1.00  0.00    -0.238 OA
BRANCH  30  33
HETATM   33  C6  UNL     1     -25.205  -1.808  -7.366  1.00  0.00     0.086 C 
HETATM   34  C5  UNL     1     -25.750  -3.164  -6.967  1.00  0.00     0.028 C 
HETATM   35  C4  UNL     1     -24.583  -3.978  -6.467  1.00  0.00     0.034 C 
HETATM   36  C3  UNL     1     -23.648  -4.296  -7.615  1.00  0.00     0.121 C 
HETATM   37  C26 UNL     1     -23.269  -3.050  -8.358  1.00  0.00     0.034 C 
HETATM   38  C25 UNL     1     -23.711  -1.858  -7.576  1.00  0.00     0.028 C 
BRANCH  36  39
HETATM   39  O1  UNL     1     -22.551  -5.010  -7.174  1.00  0.00    -0.386 OA
BRANCH  39  40
HETATM   40  C2  UNL     1     -22.396  -4.863  -5.818  1.00  0.00     0.163 C 
HETATM   41  C1  UNL     1     -21.064  -4.206  -5.504  1.00  0.00     0.033 C 
ENDBRANCH  39  40
ENDBRANCH  36  39
ENDBRANCH  30  33
ENDBRANCH  28  29
ENDBRANCH   1  28
TORSDOF 10
ENDMDL
MODEL 2
REMARK VINA RESULT: -8.226846584      5.415     11.238
REMARK  10 active torsions:
REMARK  status: ('A' for Active; 'I' for Inactive)
REMARK    1  A    between atoms: C2_2  and  O1_3 
REMARK    2  A    between atoms: O1_3  and  C3_4 
REMARK    3  A    between atoms: C6_7  and  N1_8 
REMARK       I    between atoms: N1_8  and  C7_10 
REMARK    4  A    between atoms: C7_10  and  O3_12 
REMARK    5  A    between atoms: O3_12  and  C8_13 
REMARK    6  A    between atoms: N2_19  and  C14_20 
REMARK    7  A    between atoms: C17_25  and  N4_26 
REMARK    8  A    between atoms: N4_26  and  C18_28 
REMARK    9  A    between atoms: C18_28  and  C19_29 
REMARK   10  A    between atoms: C19_29  and  C22_32 
ROOT
HETATM    1  C8  UNL     1     -27.146   5.940 -14.552  1.00  0.00     0.131 C 
HETATM    2  C9  UNL     1     -25.770   5.436 -14.913  1.00  0.00     0.049 C 
HETATM    3  C10 UNL     1     -25.052   4.763 -13.763  1.00  0.00     0.029 C 
HETATM    4  C11 UNL     1     -25.937   4.799 -12.548  1.00  0.00     0.093 C 
HETATM    5  C12 UNL     1     -26.268   6.249 -12.270  1.00  0.00     0.029 C 
HETATM    6  C13 UNL     1     -27.003   6.922 -13.410  1.00  0.00     0.049 C 
HETATM    7  N2  UNL     1     -27.171   4.093 -12.956  1.00  0.00    -0.314 N 
HETATM    8  C24 UNL     1     -27.887   4.780 -13.970  1.00  0.00     0.132 C 
HETATM    9  N6  UNL     1     -29.058   4.405 -14.322  1.00  0.00    -0.285 N 
ATOM     10  H6  UNL     1     -29.456   3.595 -13.845  1.00  0.00     0.182 HD
HETATM   11 CL1  UNL     1     -30.010   5.158 -15.532  1.00  0.00     0.012 Cl
ENDROOT
BRANCH   7  12
HETATM   12  C14 UNL     1     -27.533   2.882 -12.367  1.00  0.00     0.126 A 
HETATM   13  C15 UNL     1     -28.104   2.851 -11.115  1.00  0.00     0.067 A 
HETATM   14  C16 UNL     1     -28.468   1.635 -10.526  1.00  0.00     0.110 A 
HETATM   15  N3  UNL     1     -28.249   0.504 -11.205  1.00  0.00    -0.202 N 
HETATM   16  C17 UNL     1     -27.695   0.518 -12.423  1.00  0.00     0.679 A 
ATOM     17  H3  UNL     1     -28.510  -0.388 -10.785  1.00  0.00     0.183 HD
HETATM   18  N5  UNL     1     -27.352   1.702 -12.973  1.00  0.00    -0.176 N 
ATOM     19  H5  UNL     1     -26.930   1.697 -13.902  1.00  0.00     0.186 HD
BRANCH  16  20
HETATM   20  N4  UNL     1     -27.491  -0.602 -13.070  1.00  0.00    -0.225 N 
ATOM     21  H4  UNL     1     -27.335  -1.463 -12.544  1.00  0.00     0.177 HD
BRANCH  20  22
HETATM   22  C18 UNL     1     -27.484  -0.640 -14.517  1.00  0.00     0.146 C 
BRANCH  22  23
HETATM   23  C19 UNL     1     -26.226  -1.283 -15.052  1.00  0.00    -0.032 C 
HETATM   24  C20 UNL     1     -26.296  -1.343 -16.558  1.00  0.00     0.016 C 
HETATM   25  C21 UNL     1     -25.026  -0.386 -14.723  1.00  0.00     0.016 C 
BRANCH  23  26
HETATM   26  C22 UNL     1     -25.949  -2.613 -14.429  1.00  0.00     0.006 C 
HETATM   27  C23 UNL     1     -24.947  -3.432 -15.191  1.00  0.00     0.006 C 
ENDBRANCH  23  26
ENDBRANCH  22  23
ENDBRANCH  20  22
ENDBRANCH  16  20
ENDBRANCH   7  12
BRANCH   1  28
HETATM   28  O3  UNL     1     -27.740   6.450 -15.680  1.00  0.00    -0.285 OA
BRANCH  28  29
HETATM   29  C7  UNL     1     -27.463   7.543 -16.436  1.00  0.00     0.362 C 
HETATM   30  N1  UNL     1     -26.256   8.299 -16.366  1.00  0.00    -0.332 N 
ATOM     31  H1  UNL     1     -25.530   8.018 -15.708  1.00  0.00     0.165 HD
HETATM   32  O2  UNL     1     -28.365   7.891 -17.254  1.00  0.00    -0.238 OA
BRANCH  30  33
HETATM   33  C6  UNL     1     -26.039   9.448 -17.200  1.00  0.00     0.086 C 
HETATM   34  C5  UNL     1     -26.949  10.604 -16.839  1.00  0.00     0.028 C 
HETATM   35  C4  UNL     1     -26.186  11.872 -17.131  1.00  0.00     0.034 C 
HETATM   36  C3  UNL     1     -25.033  12.014 -16.159  1.00  0.00     0.121 C 
HETATM   37  C26 UNL     1     -24.195  10.770 -16.138  1.00  0.00     0.034 C 
HETATM   38  C25 UNL     1     -24.597   9.888 -17.273  1.00  0.00     0.028 C 
BRANCH  36  39
HETATM   39  O1  UNL     1     -24.296  13.150 -16.431  1.00  0.00    -0.386 OA
BRANCH  39  40
HETATM   40  C2  UNL     1     -24.882  14.251 -15.856  1.00  0.00     0.163 C 
HETATM   41  C1  UNL     1     -25.364  13.926 -14.454  1.00  0.00     0.033 C 
ENDBRANCH  39  40
ENDBRANCH  36  39
ENDBRANCH  30  33
ENDBRANCH  28  29
ENDBRANCH   1  28
TORSDOF 10
ENDMDL
MODEL 3
REMARK VINA RESULT: -8.071048426      4.512      6.696
REMARK  10 active torsions:
REMARK  status: ('A' for Active; 'I' for Inactive)
REMARK    1  A    between atoms: C2_2  and  O1_3 
REMARK    2  A    between atoms: O1_3  and  C3_4 
REMARK    3  A    between atoms: C6_7  and  N1_8 
REMARK       I    between atoms: N1_8  and  C7_10 
REMARK    4  A    between atoms: C7_10  and  O3_12 
REMARK    5  A    between atoms: O3_12  and  C8_13 
REMARK    6  A    between atoms: N2_19  and  C14_20 
REMARK    7  A    between atoms: C17_25  and  N4_26 
REMARK    8  A    between atoms: N4_26  and  C18_28 
REMARK    9  A    between atoms: C18_28  and  C19_29 
REMARK   10  A    between atoms: C19_29  and  C22_32 
ROOT
HETATM    1  C8  UNL     1     -27.280   4.698 -13.198  1.00  0.00     0.131 C 
HETATM    2  C9  UNL     1     -26.958   5.412 -11.907  1.00  0.00     0.049 C 
HETATM    3  C10 UNL     1     -26.121   6.658 -12.099  1.00  0.00     0.029 C 
HETATM    4  C11 UNL     1     -25.830   6.830 -13.564  1.00  0.00     0.093 C 
HETATM    5  C12 UNL     1     -25.134   5.573 -14.039  1.00  0.00     0.029 C 
HETATM    6  C13 UNL     1     -25.975   4.325 -13.867  1.00  0.00     0.049 C 
HETATM    7  N2  UNL     1     -27.158   6.918 -14.207  1.00  0.00    -0.314 N 
HETATM    8  C24 UNL     1     -27.899   5.712 -14.104  1.00  0.00     0.132 C 
HETATM    9  N6  UNL     1     -28.993   5.552 -14.747  1.00  0.00    -0.285 N 
ATOM     10  H6  UNL     1     -29.311   6.323 -15.335  1.00  0.00     0.182 HD
HETATM   11 CL1  UNL     1     -29.967   4.141 -14.695  1.00  0.00     0.012 Cl
ENDROOT
BRANCH   7  12
HETATM   12  C14 UNL     1     -27.578   8.092 -14.830  1.00  0.00     0.126 A 
HETATM   13  C15 UNL     1     -28.729   8.116 -15.585  1.00  0.00     0.067 A 
HETATM   14  C16 UNL     1     -29.150   9.296 -16.208  1.00  0.00     0.110 A 
HETATM   15  N3  UNL     1     -28.411  10.400 -16.055  1.00  0.00    -0.202 N 
HETATM   16  C17 UNL     1     -27.290  10.392 -15.323  1.00  0.00     0.679 A 
ATOM     17  H3  UNL     1     -28.708  11.265 -16.505  1.00  0.00     0.183 HD
HETATM   18  N5  UNL     1     -26.902   9.244 -14.731  1.00  0.00    -0.176 N 
ATOM     19  H5  UNL     1     -26.046   9.254 -14.177  1.00  0.00     0.186 HD
BRANCH  16  20
HETATM   20  N4  UNL     1     -26.583  11.486 -15.187  1.00  0.00    -0.225 N 
ATOM     21  H4  UNL     1     -27.058  12.373 -15.018  1.00  0.00     0.177 HD
BRANCH  20  22
HETATM   22  C18 UNL     1     -25.137  11.457 -15.273  1.00  0.00     0.146 C 
BRANCH  22  23
HETATM   23  C19 UNL     1     -24.526  12.763 -14.824  1.00  0.00    -0.032 C 
HETATM   24  C20 UNL     1     -24.712  13.801 -15.903  1.00  0.00     0.016 C 
HETATM   25  C21 UNL     1     -25.296  13.285 -13.603  1.00  0.00     0.016 C 
BRANCH  23  26
HETATM   26  C22 UNL     1     -23.101  12.617 -14.398  1.00  0.00     0.006 C 
HETATM   27  C23 UNL     1     -22.946  12.174 -12.972  1.00  0.00     0.006 C 
ENDBRANCH  23  26
ENDBRANCH  22  23
ENDBRANCH  20  22
ENDBRANCH  16  20
ENDBRANCH   7  12
BRANCH   1  28
HETATM   28  O3  UNL     1     -28.110   3.640 -12.923  1.00  0.00    -0.285 OA
BRANCH  28  29
HETATM   29  C7  UNL     1     -27.857   2.329 -12.675  1.00  0.00     0.362 C 
HETATM   30  N1  UNL     1     -27.847   1.298 -13.660  1.00  0.00    -0.332 N 
ATOM     31  H1  UNL     1     -28.041   1.537 -14.632  1.00  0.00     0.165 HD
HETATM   32  O2  UNL     1     -27.614   2.034 -11.467  1.00  0.00    -0.238 OA
BRANCH  30  33
HETATM   33  C6  UNL     1     -27.572  -0.068 -13.316  1.00  0.00     0.086 C 
HETATM   34  C5  UNL     1     -28.131  -1.043 -14.331  1.00  0.00     0.028 C 
HETATM   35  C4  UNL     1     -27.199  -2.229 -14.364  1.00  0.00     0.034 C 
HETATM   36  C3  UNL     1     -25.869  -1.820 -14.962  1.00  0.00     0.121 C 
HETATM   37  C26 UNL     1     -25.318  -0.609 -14.268  1.00  0.00     0.034 C 
HETATM   38  C25 UNL     1     -26.115  -0.347 -13.034  1.00  0.00     0.028 C 
BRANCH  36  39
HETATM   39  O1  UNL     1     -24.984  -2.881 -14.968  1.00  0.00    -0.386 OA
BRANCH  39  40
HETATM   40  C2  UNL     1     -24.575  -3.158 -16.249  1.00  0.00     0.163 C 
HETATM   41  C1  UNL     1     -23.131  -2.735 -16.449  1.00  0.00     0.033 C 
ENDBRANCH  39  40
ENDBRANCH  36  39
ENDBRANCH  30  33
ENDBRANCH  28  29
ENDBRANCH   1  28
TORSDOF 10
ENDMDL
MODEL 4
REMARK VINA RESULT: -7.893418160      3.476     11.146
REMARK  10 active torsions:
REMARK  status: ('A' for Active; 'I' for Inactive)
REMARK    1  A    between atoms: C2_2  and  O1_3 
REMARK    2  A    between atoms: O1_3  and  C3_4 
REMARK    3  A    between atoms: C6_7  and  N1_8 
REMARK       I    between atoms: N1_8  and  C7_10 
REMARK    4  A    between atoms: C7_10  and  O3_12 
REMARK    5  A    between atoms: O3_12  and  C8_13 
REMARK    6  A    between atoms: N2_19  and  C14_20 
REMARK    7  A    between atoms: C17_25  and  N4_26 
REMARK    8  A    between atoms: N4_26  and  C18_28 
REMARK    9  A    between atoms: C18_28  and  C19_29 
REMARK   10  A    between atoms: C19_29  and  C22_32 
ROOT
HETATM    1  C8  UNL     1     -27.044   2.084 -12.513  1.00  0.00     0.131 C 
HETATM    2  C9  UNL     1     -27.529   0.990 -13.434  1.00  0.00     0.049 C 
HETATM    3  C10 UNL     1     -26.751  -0.301 -13.302  1.00  0.00     0.029 C 
HETATM    4  C11 UNL     1     -25.675  -0.118 -12.266  1.00  0.00     0.093 C 
HETATM    5  C12 UNL     1     -24.816   1.048 -12.706  1.00  0.00     0.029 C 
HETATM    6  C13 UNL     1     -25.586   2.346 -12.822  1.00  0.00     0.049 C 
HETATM    7  N2  UNL     1     -26.397   0.254 -11.031  1.00  0.00    -0.314 N 
HETATM    8  C24 UNL     1     -27.047   1.512 -11.132  1.00  0.00     0.132 C 
HETATM    9  N6  UNL     1     -27.574   2.068 -10.108  1.00  0.00    -0.285 N 
ATOM     10  H6  UNL     1     -27.508   1.574  -9.218  1.00  0.00     0.182 HD
HETATM   11 CL1  UNL     1     -28.382   3.580 -10.116  1.00  0.00     0.012 Cl
ENDROOT
BRANCH   7  12
HETATM   12  C14 UNL     1     -26.401  -0.588  -9.920  1.00  0.00     0.126 A 
HETATM   13  C15 UNL     1     -25.333  -0.613  -9.052  1.00  0.00     0.067 A 
HETATM   14  C16 UNL     1     -25.337  -1.457  -7.937  1.00  0.00     0.110 A 
HETATM   15  N3  UNL     1     -26.402  -2.240  -7.732  1.00  0.00    -0.202 N 
HETATM   16  C17 UNL     1     -27.448  -2.228  -8.567  1.00  0.00     0.679 A 
ATOM     17  H3  UNL     1     -26.416  -2.861  -6.923  1.00  0.00     0.183 HD
HETATM   18  N5  UNL     1     -27.422  -1.405  -9.636  1.00  0.00    -0.176 N 
ATOM     19  H5  UNL     1     -28.227  -1.407 -10.264  1.00  0.00     0.186 HD
BRANCH  16  20
HETATM   20  N4  UNL     1     -28.480  -3.003  -8.346  1.00  0.00    -0.225 N 
ATOM     21  H4  UNL     1     -29.366  -2.803  -8.809  1.00  0.00     0.177 HD
BRANCH  20  22
HETATM   22  C18 UNL     1     -28.383  -4.141  -7.454  1.00  0.00     0.146 C 
BRANCH  22  23
HETATM   23  C19 UNL     1     -29.551  -5.082  -7.623  1.00  0.00    -0.032 C 
HETATM   24  C20 UNL     1     -29.294  -6.345  -6.838  1.00  0.00     0.016 C 
HETATM   25  C21 UNL     1     -30.801  -4.448  -7.000  1.00  0.00     0.016 C 
BRANCH  23  26
HETATM   26  C22 UNL     1     -29.876  -5.346  -9.058  1.00  0.00     0.006 C 
HETATM   27  C23 UNL     1     -29.873  -6.805  -9.413  1.00  0.00     0.006 C 
ENDBRANCH  23  26
ENDBRANCH  22  23
ENDBRANCH  20  22
ENDBRANCH  16  20
ENDBRANCH   7  12
BRANCH   1  28
HETATM   28  O3  UNL     1     -27.868   3.173 -12.649  1.00  0.00    -0.285 OA
BRANCH  28  29
HETATM   29  C7  UNL     1     -28.047   4.053 -13.667  1.00  0.00     0.362 C 
HETATM   30  N1  UNL     1     -27.236   5.202 -13.906  1.00  0.00    -0.332 N 
ATOM     31  H1  UNL     1     -26.456   5.400 -13.280  1.00  0.00     0.165 HD
HETATM   32  O2  UNL     1     -29.016   3.806 -14.445  1.00  0.00    -0.238 OA
BRANCH  30  33
HETATM   33  C6  UNL     1     -27.493   6.087 -15.007  1.00  0.00     0.086 C 
HETATM   34  C5  UNL     1     -28.791   6.850 -14.844  1.00  0.00     0.028 C 
HETATM   35  C4  UNL     1     -28.598   8.194 -15.504  1.00  0.00     0.034 C 
HETATM   36  C3  UNL     1     -27.602   9.016 -14.712  1.00  0.00     0.121 C 
HETATM   37  C26 UNL     1     -26.336   8.246 -14.479  1.00  0.00     0.034 C 
HETATM   38  C25 UNL     1     -26.347   7.017 -15.325  1.00  0.00     0.028 C 
BRANCH  36  39
HETATM   39  O1  UNL     1     -27.380  10.238 -15.318  1.00  0.00    -0.386 OA
BRANCH  39  40
HETATM   40  C2  UNL     1     -26.134  10.715 -14.994  1.00  0.00     0.163 C 
HETATM   41  C1  UNL     1     -25.715  11.806 -15.962  1.00  0.00     0.033 C 
ENDBRANCH  39  40
ENDBRANCH  36  39
ENDBRANCH  30  33
ENDBRANCH  28  29
ENDBRANCH   1  28
TORSDOF 10
ENDMDL
MODEL 5
REMARK VINA RESULT: -7.881671419      3.198     11.357
REMARK  10 active torsions:
REMARK  status: ('A' for Active; 'I' for Inactive)
REMARK    1  A    between atoms: C2_2  and  O1_3 
REMARK    2  A    between atoms: O1_3  and  C3_4 
REMARK    3  A    between atoms: C6_7  and  N1_8 
REMARK       I    between atoms: N1_8  and  C7_10 
REMARK    4  A    between atoms: C7_10  and  O3_12 
REMARK    5  A    between atoms: O3_12  and  C8_13 
REMARK    6  A    between atoms: N2_19  and  C14_20 
REMARK    7  A    between atoms: C17_25  and  N4_26 
REMARK    8  A    between atoms: N4_26  and  C18_28 
REMARK    9  A    between atoms: C18_28  and  C19_29 
REMARK   10  A    between atoms: C19_29  and  C22_32 
ROOT
HETATM    1  C8  UNL     1     -27.101   1.791 -12.415  1.00  0.00     0.131 C 
HETATM    2  C9  UNL     1     -27.656   0.723 -13.328  1.00  0.00     0.049 C 
HETATM    3  C10 UNL     1     -26.925  -0.598 -13.227  1.00  0.00     0.029 C 
HETATM    4  C11 UNL     1     -25.813  -0.465 -12.224  1.00  0.00     0.093 C 
HETATM    5  C12 UNL     1     -24.922   0.670 -12.681  1.00  0.00     0.029 C 
HETATM    6  C13 UNL     1     -25.644   1.998 -12.766  1.00  0.00     0.049 C 
HETATM    7  N2  UNL     1     -26.483  -0.074 -10.965  1.00  0.00    -0.314 N 
HETATM    8  C24 UNL     1     -27.086   1.209 -11.039  1.00  0.00     0.132 C 
HETATM    9  N6  UNL     1     -27.560   1.778  -9.996  1.00  0.00    -0.285 N 
ATOM     10  H6  UNL     1     -27.487   1.275  -9.111  1.00  0.00     0.182 HD
HETATM   11 CL1  UNL     1     -28.308   3.320  -9.971  1.00  0.00     0.012 Cl
ENDROOT
BRANCH   7  12
HETATM   12  C14 UNL     1     -26.487  -0.923  -9.860  1.00  0.00     0.126 A 
HETATM   13  C15 UNL     1     -25.389  -1.008  -9.033  1.00  0.00     0.067 A 
HETATM   14  C16 UNL     1     -25.394  -1.860  -7.923  1.00  0.00     0.110 A 
HETATM   15  N3  UNL     1     -26.488  -2.591  -7.683  1.00  0.00    -0.202 N 
HETATM   16  C17 UNL     1     -27.563  -2.520  -8.477  1.00  0.00     0.679 A 
ATOM     17  H3  UNL     1     -26.503  -3.216  -6.878  1.00  0.00     0.183 HD
HETATM   18  N5  UNL     1     -27.537  -1.691  -9.542  1.00  0.00    -0.176 N 
ATOM     19  H5  UNL     1     -28.363  -1.648 -10.138  1.00  0.00     0.186 HD
BRANCH  16  20
HETATM   20  N4  UNL     1     -28.623  -3.245  -8.222  1.00  0.00    -0.225 N 
ATOM     21  H4  UNL     1     -29.483  -3.079  -8.746  1.00  0.00     0.177 HD
BRANCH  20  22
HETATM   22  C18 UNL     1     -28.596  -4.278  -7.208  1.00  0.00     0.146 C 
BRANCH  22  23
HETATM   23  C19 UNL     1     -29.244  -5.553  -7.693  1.00  0.00    -0.032 C 
HETATM   24  C20 UNL     1     -30.333  -5.958  -6.730  1.00  0.00     0.016 C 
HETATM   25  C21 UNL     1     -29.946  -5.282  -9.030  1.00  0.00     0.016 C 
BRANCH  23  26
HETATM   26  C22 UNL     1     -28.254  -6.644  -7.943  1.00  0.00     0.006 C 
HETATM   27  C23 UNL     1     -28.683  -7.604  -9.015  1.00  0.00     0.006 C 
ENDBRANCH  23  26
ENDBRANCH  22  23
ENDBRANCH  20  22
ENDBRANCH  16  20
ENDBRANCH   7  12
BRANCH   1  28
HETATM   28  O3  UNL     1     -27.885   2.913 -12.520  1.00  0.00    -0.285 OA
BRANCH  28  29
HETATM   29  C7  UNL     1     -27.674   4.113 -13.117  1.00  0.00     0.362 C 
HETATM   30  N1  UNL     1     -28.190   4.493 -14.391  1.00  0.00    -0.332 N 
ATOM     31  H1  UNL     1     -28.765   3.832 -14.913  1.00  0.00     0.165 HD
HETATM   32  O2  UNL     1     -26.962   4.935 -12.468  1.00  0.00    -0.238 OA
BRANCH  30  33
HETATM   33  C6  UNL     1     -27.920   5.785 -14.957  1.00  0.00     0.086 C 
HETATM   34  C5  UNL     1     -27.071   5.701 -16.209  1.00  0.00     0.028 C 
HETATM   35  C4  UNL     1     -27.490   6.841 -17.103  1.00  0.00     0.034 C 
HETATM   36  C3  UNL     1     -28.897   6.604 -17.613  1.00  0.00     0.121 C 
HETATM   37  C26 UNL     1     -29.837   6.319 -16.479  1.00  0.00     0.034 C 
HETATM   38  C25 UNL     1     -29.154   6.623 -15.187  1.00  0.00     0.028 C 
BRANCH  36  39
HETATM   39  O1  UNL     1     -29.318   7.655 -18.405  1.00  0.00    -0.386 OA
BRANCH  39  40
HETATM   40  C2  UNL     1     -28.683   8.816 -18.040  1.00  0.00     0.163 C 
HETATM   41  C1  UNL     1     -29.627   9.719 -17.268  1.00  0.00     0.033 C 
ENDBRANCH  39  40
ENDBRANCH  36  39
ENDBRANCH  30  33
ENDBRANCH  28  29
ENDBRANCH   1  28
TORSDOF 10
ENDMDL
