MODEL 1
REMARK VINA RESULT: -8.008432916      0.000      0.000
REMARK  10 active torsions:
REMARK  status: ('A' for Active; 'I' for Inactive)
REMARK    1  A    between atoms: C2_2  and  O1_3 
REMARK    2  A    between atoms: O1_3  and  C3_4 
REMARK    3  A    between atoms: C3_4  and  C4_6 
REMARK    4  A    between atoms: C10_13  and  O3_14 
REMARK    5  A    between atoms: N1_16  and  C11_17 
REMARK    6  A    between atoms: C11_17  and  C12_18 
REMARK    7  A    between atoms: C16_23  and  C17_24 
REMARK       I    between atoms: C17_24  and  N2_26 
REMARK    8  A    between atoms: N2_26  and  C18_28 
REMARK    9  A    between atoms: N3_35  and  C25_36 
REMARK   10  A    between atoms: C25_36  and  C26_37 
ROOT
HETATM    1  C4  UNL     1     -26.338  -0.110  -6.864  1.00  0.00     0.096 C 
HETATM    2  C5  UNL     1     -25.601  -1.056  -7.780  1.00  0.00     0.054 C 
HETATM    3  C6  UNL     1     -26.477  -2.140  -8.308  1.00  0.00     0.262 C 
HETATM    4  C7  UNL     1     -26.855  -1.800  -9.739  1.00  0.00     0.239 C 
HETATM    5  F1  UNL     1     -25.670  -1.986 -10.474  1.00  0.00    -0.242 F 
HETATM    6  C8  UNL     1     -27.264  -0.410  -9.921  1.00  0.00     0.021 A 
HETATM    7  C9  UNL     1     -27.571   0.534  -8.946  1.00  0.00     0.010 A 
HETATM    8  C10 UNL     1     -27.877   1.717  -9.540  1.00  0.00     0.150 A 
HETATM    9  N1  UNL     1     -27.770   1.542 -10.898  1.00  0.00    -0.316 N 
HETATM   10  C16 UNL     1     -27.396   0.245 -11.144  1.00  0.00     0.115 A 
HETATM   11  C22 UNL     1     -27.600   0.410  -7.454  1.00  0.00     0.039 C 
HETATM   12  C23 UNL     1     -28.790  -0.429  -7.079  1.00  0.00     0.041 C 
HETATM   13  C24 UNL     1     -28.784  -1.802  -7.667  1.00  0.00     0.273 C 
HETATM   14  N3  UNL     1     -27.558  -2.537  -7.480  1.00  0.00     0.096 N 
ENDROOT
BRANCH  10  15
HETATM   15  C17 UNL     1     -27.220  -0.354 -12.449  1.00  0.00     0.269 C 
HETATM   16  O5  UNL     1     -28.283  -0.793 -13.020  1.00  0.00    -0.266 OA
HETATM   17  N2  UNL     1     -26.046  -0.526 -13.173  1.00  0.00    -0.351 N 
ATOM     18  H2  UNL     1     -25.175  -0.199 -12.757  1.00  0.00     0.163 HD
BRANCH  17  19
HETATM   19  C18 UNL     1     -25.987  -1.143 -14.483  1.00  0.00     0.084 C 
HETATM   20  C19 UNL     1     -24.753  -0.830 -15.290  1.00  0.00     0.025 C 
HETATM   21  C20 UNL     1     -24.897  -2.251 -15.863  1.00  0.00     0.004 C 
HETATM   22  C21 UNL     1     -25.563  -2.589 -14.520  1.00  0.00     0.025 C 
ENDBRANCH  17  19
ENDBRANCH  10  15
BRANCH   9  23
HETATM   23  C11 UNL     1     -28.027   2.554 -11.860  1.00  0.00     0.196 C 
BRANCH  23  24
HETATM   24  C12 UNL     1     -26.802   3.119 -12.498  1.00  0.00     0.070 A 
HETATM   25  C13 UNL     1     -26.721   4.418 -12.936  1.00  0.00     0.036 A 
HETATM   26  C14 UNL     1     -25.465   4.611 -13.471  1.00  0.00     0.027 A 
HETATM   27  C15 UNL     1     -24.845   3.383 -13.323  1.00  0.00     0.142 A 
HETATM   28  O4  UNL     1     -25.669   2.551 -12.751  1.00  0.00    -0.325 OA
ENDBRANCH  23  24
ENDBRANCH   9  23
BRANCH   8  29
HETATM   29  O3  UNL     1     -28.231   2.886  -8.915  1.00  0.00    -0.345 OA
ATOM     30  H3  UNL     1     -28.622   3.652  -9.317  1.00  0.00     0.219 HD
ENDBRANCH   8  29
BRANCH  14  31
HETATM   31  C25 UNL     1     -27.893  -3.937  -7.782  1.00  0.00     0.277 C 
BRANCH  31  32
HETATM   32  C26 UNL     1     -29.352  -4.107  -8.136  1.00  0.00     0.014 A 
HETATM   33  C27 UNL     1     -29.855  -5.270  -8.877  1.00  0.00     0.007 A 
HETATM   34  C28 UNL     1     -30.144  -5.186  -7.393  1.00  0.00     0.007 A 
ENDBRANCH  31  32
ENDBRANCH  14  31
BRANCH   1  35
HETATM   35  C3  UNL     1     -25.434   1.008  -6.521  1.00  0.00     0.263 C 
HETATM   36  O2  UNL     1     -24.485   1.393  -7.259  1.00  0.00    -0.265 OA
BRANCH  35  37
HETATM   37  O1  UNL     1     -25.575   1.728  -5.325  1.00  0.00    -0.322 OA
BRANCH  37  38
HETATM   38  C2  UNL     1     -26.187   1.224  -4.175  1.00  0.00     0.174 C 
HETATM   39  C1  UNL     1     -27.528   1.815  -3.893  1.00  0.00     0.034 C 
ENDBRANCH  37  38
ENDBRANCH  35  37
ENDBRANCH   1  35
TORSDOF 10
ENDMDL
MODEL 2
REMARK VINA RESULT: -7.269035161      2.267      7.097
REMARK  10 active torsions:
REMARK  status: ('A' for Active; 'I' for Inactive)
REMARK    1  A    between atoms: C2_2  and  O1_3 
REMARK    2  A    between atoms: O1_3  and  C3_4 
REMARK    3  A    between atoms: C3_4  and  C4_6 
REMARK    4  A    between atoms: C10_13  and  O3_14 
REMARK    5  A    between atoms: N1_16  and  C11_17 
REMARK    6  A    between atoms: C11_17  and  C12_18 
REMARK    7  A    between atoms: C16_23  and  C17_24 
REMARK       I    between atoms: C17_24  and  N2_26 
REMARK    8  A    between atoms: N2_26  and  C18_28 
REMARK    9  A    between atoms: N3_35  and  C25_36 
REMARK   10  A    between atoms: C25_36  and  C26_37 
ROOT
HETATM    1  C4  UNL     1     -25.945   2.174 -13.462  1.00  0.00     0.096 C 
HETATM    2  C5  UNL     1     -27.392   1.824 -13.216  1.00  0.00     0.054 C 
HETATM    3  C6  UNL     1     -27.676   0.377 -13.435  1.00  0.00     0.262 C 
HETATM    4  C7  UNL     1     -27.771  -0.305 -12.081  1.00  0.00     0.239 C 
HETATM    5  F1  UNL     1     -28.981   0.160 -11.534  1.00  0.00    -0.242 F 
HETATM    6  C8  UNL     1     -26.704   0.074 -11.159  1.00  0.00     0.021 A 
HETATM    7  C9  UNL     1     -25.528   0.763 -11.437  1.00  0.00     0.010 A 
HETATM    8  C10 UNL     1     -24.821   0.935 -10.289  1.00  0.00     0.150 A 
HETATM    9  N1  UNL     1     -25.536   0.359  -9.269  1.00  0.00    -0.316 N 
HETATM   10  C16 UNL     1     -26.690  -0.172  -9.788  1.00  0.00     0.115 A 
HETATM   11  C22 UNL     1     -24.998   1.290 -12.735  1.00  0.00     0.039 C 
HETATM   12  C23 UNL     1     -24.561   0.118 -13.569  1.00  0.00     0.041 C 
HETATM   13  C24 UNL     1     -25.646  -0.865 -13.866  1.00  0.00     0.273 C 
HETATM   14  N3  UNL     1     -26.861  -0.288 -14.386  1.00  0.00     0.096 N 
ENDROOT
BRANCH  10  15
HETATM   15  C17 UNL     1     -27.694  -0.905  -9.048  1.00  0.00     0.269 C 
HETATM   16  O5  UNL     1     -28.692  -0.223  -8.616  1.00  0.00    -0.266 OA
HETATM   17  N2  UNL     1     -27.722  -2.258  -8.732  1.00  0.00    -0.351 N 
ATOM     18  H2  UNL     1     -26.947  -2.840  -9.048  1.00  0.00     0.163 HD
BRANCH  17  19
HETATM   19  C18 UNL     1     -28.788  -2.892  -7.981  1.00  0.00     0.084 C 
HETATM   20  C19 UNL     1     -29.073  -4.326  -8.346  1.00  0.00     0.025 C 
HETATM   21  C20 UNL     1     -29.429  -4.522  -6.862  1.00  0.00     0.004 C 
HETATM   22  C21 UNL     1     -28.429  -3.384  -6.602  1.00  0.00     0.025 C 
ENDBRANCH  17  19
ENDBRANCH  10  15
BRANCH   9  23
HETATM   23  C11 UNL     1     -25.113   0.323  -7.914  1.00  0.00     0.196 C 
BRANCH  23  24
HETATM   24  C12 UNL     1     -24.379  -0.918  -7.532  1.00  0.00     0.070 A 
HETATM   25  C13 UNL     1     -24.515  -1.518  -6.304  1.00  0.00     0.036 A 
HETATM   26  C14 UNL     1     -23.704  -2.632  -6.280  1.00  0.00     0.027 A 
HETATM   27  C15 UNL     1     -23.109  -2.641  -7.529  1.00  0.00     0.142 A 
HETATM   28  O4  UNL     1     -23.537  -1.620  -8.217  1.00  0.00    -0.325 OA
ENDBRANCH  23  24
ENDBRANCH   9  23
BRANCH   8  29
HETATM   29  O3  UNL     1     -23.611   1.568 -10.154  1.00  0.00    -0.345 OA
ATOM     30  H3  UNL     1     -22.989   1.464  -9.444  1.00  0.00     0.219 HD
ENDBRANCH   8  29
BRANCH  14  31
HETATM   31  C25 UNL     1     -27.619  -1.417 -14.947  1.00  0.00     0.277 C 
BRANCH  31  32
HETATM   32  C26 UNL     1     -26.757  -2.303 -15.816  1.00  0.00     0.014 A 
HETATM   33  C27 UNL     1     -27.182  -2.761 -17.144  1.00  0.00     0.007 A 
HETATM   34  C28 UNL     1     -26.126  -1.678 -17.064  1.00  0.00     0.007 A 
ENDBRANCH  31  32
ENDBRANCH  14  31
BRANCH   1  35
HETATM   35  C3  UNL     1     -25.733   3.584 -13.072  1.00  0.00     0.263 C 
HETATM   36  O2  UNL     1     -24.618   4.172 -13.147  1.00  0.00    -0.265 OA
BRANCH  35  37
HETATM   37  O1  UNL     1     -26.780   4.378 -12.582  1.00  0.00    -0.322 OA
BRANCH  37  38
HETATM   38  C2  UNL     1     -27.206   5.568 -13.178  1.00  0.00     0.174 C 
HETATM   39  C1  UNL     1     -28.144   5.369 -14.322  1.00  0.00     0.034 C 
ENDBRANCH  37  38
ENDBRANCH  35  37
ENDBRANCH   1  35
TORSDOF 10
ENDMDL
MODEL 3
REMARK VINA RESULT: -6.997087147      1.783      6.826
REMARK  10 active torsions:
REMARK  status: ('A' for Active; 'I' for Inactive)
REMARK    1  A    between atoms: C2_2  and  O1_3 
REMARK    2  A    between atoms: O1_3  and  C3_4 
REMARK    3  A    between atoms: C3_4  and  C4_6 
REMARK    4  A    between atoms: C10_13  and  O3_14 
REMARK    5  A    between atoms: N1_16  and  C11_17 
REMARK    6  A    between atoms: C11_17  and  C12_18 
REMARK    7  A    between atoms: C16_23  and  C17_24 
REMARK       I    between atoms: C17_24  and  N2_26 
REMARK    8  A    between atoms: N2_26  and  C18_28 
REMARK    9  A    between atoms: N3_35  and  C25_36 
REMARK   10  A    between atoms: C25_36  and  C26_37 
ROOT
HETATM    1  C4  UNL     1     -26.943   2.019 -12.002  1.00  0.00     0.096 C 
HETATM    2  C5  UNL     1     -27.947   0.921 -11.745  1.00  0.00     0.054 C 
HETATM    3  C6  UNL     1     -27.523  -0.387 -12.319  1.00  0.00     0.262 C 
HETATM    4  C7  UNL     1     -26.991  -1.257 -11.194  1.00  0.00     0.239 C 
HETATM    5  F1  UNL     1     -28.131  -1.611 -10.449  1.00  0.00    -0.242 F 
HETATM    6  C8  UNL     1     -26.083  -0.556 -10.291  1.00  0.00     0.021 A 
HETATM    7  C9  UNL     1     -25.482   0.686 -10.467  1.00  0.00     0.010 A 
HETATM    8  C10 UNL     1     -24.731   0.985  -9.374  1.00  0.00     0.150 A 
HETATM    9  N1  UNL     1     -24.845  -0.061  -8.491  1.00  0.00    -0.316 N 
HETATM   10  C16 UNL     1     -25.669  -1.010  -9.041  1.00  0.00     0.115 A 
HETATM   11  C22 UNL     1     -25.558   1.646 -11.614  1.00  0.00     0.039 C 
HETATM   12  C23 UNL     1     -24.785   1.059 -12.763  1.00  0.00     0.041 C 
HETATM   13  C24 UNL     1     -25.284  -0.270 -13.225  1.00  0.00     0.273 C 
HETATM   14  N3  UNL     1     -26.704  -0.333 -13.475  1.00  0.00     0.096 N 
ENDROOT
BRANCH  10  15
HETATM   15  C17 UNL     1     -26.008  -2.285  -8.448  1.00  0.00     0.269 C 
HETATM   16  O5  UNL     1     -25.081  -3.173  -8.443  1.00  0.00    -0.266 OA
HETATM   17  N2  UNL     1     -27.213  -2.686  -7.883  1.00  0.00    -0.351 N 
ATOM     18  H2  UNL     1     -27.982  -2.016  -7.869  1.00  0.00     0.163 HD
BRANCH  17  19
HETATM   19  C18 UNL     1     -27.442  -3.998  -7.311  1.00  0.00     0.084 C 
HETATM   20  C19 UNL     1     -28.089  -4.008  -5.950  1.00  0.00     0.025 C 
HETATM   21  C20 UNL     1     -28.762  -5.317  -6.396  1.00  0.00     0.004 C 
HETATM   22  C21 UNL     1     -28.650  -4.744  -7.817  1.00  0.00     0.025 C 
ENDBRANCH  17  19
ENDBRANCH  10  15
BRANCH   9  23
HETATM   23  C11 UNL     1     -24.190  -0.123  -7.233  1.00  0.00     0.196 C 
BRANCH  23  24
HETATM   24  C12 UNL     1     -24.925   0.555  -6.125  1.00  0.00     0.070 A 
HETATM   25  C13 UNL     1     -26.244   0.302  -5.840  1.00  0.00     0.036 A 
HETATM   26  C14 UNL     1     -26.609   1.090  -4.769  1.00  0.00     0.027 A 
HETATM   27  C15 UNL     1     -25.457   1.791  -4.461  1.00  0.00     0.142 A 
HETATM   28  O4  UNL     1     -24.507   1.442  -5.282  1.00  0.00    -0.325 OA
ENDBRANCH  23  24
ENDBRANCH   9  23
BRANCH   8  29
HETATM   29  O3  UNL     1     -23.988   2.121  -9.170  1.00  0.00    -0.345 OA
ATOM     30  H3  UNL     1     -23.232   2.405  -9.669  1.00  0.00     0.219 HD
ENDBRANCH   8  29
BRANCH  14  31
HETATM   31  C25 UNL     1     -26.908  -1.563 -14.256  1.00  0.00     0.277 C 
BRANCH  31  32
HETATM   32  C26 UNL     1     -25.637  -2.021 -14.933  1.00  0.00     0.014 A 
HETATM   33  C27 UNL     1     -25.296  -3.440 -15.093  1.00  0.00     0.007 A 
HETATM   34  C28 UNL     1     -25.762  -2.673 -16.313  1.00  0.00     0.007 A 
ENDBRANCH  31  32
ENDBRANCH  14  31
BRANCH   1  35
HETATM   35  C3  UNL     1     -27.374   3.227 -11.267  1.00  0.00     0.263 C 
HETATM   36  O2  UNL     1     -27.936   3.196 -10.136  1.00  0.00    -0.265 OA
BRANCH  35  37
HETATM   37  O1  UNL     1     -27.181   4.514 -11.789  1.00  0.00    -0.322 OA
BRANCH  37  38
HETATM   38  C2  UNL     1     -27.000   4.788 -13.147  1.00  0.00     0.174 C 
HETATM   39  C1  UNL     1     -25.600   5.157 -13.509  1.00  0.00     0.034 C 
ENDBRANCH  37  38
ENDBRANCH  35  37
ENDBRANCH   1  35
TORSDOF 10
ENDMDL
MODEL 4
REMARK VINA RESULT: -6.701529196      1.837      2.828
REMARK  10 active torsions:
REMARK  status: ('A' for Active; 'I' for Inactive)
REMARK    1  A    between atoms: C2_2  and  O1_3 
REMARK    2  A    between atoms: O1_3  and  C3_4 
REMARK    3  A    between atoms: C3_4  and  C4_6 
REMARK    4  A    between atoms: C10_13  and  O3_14 
REMARK    5  A    between atoms: N1_16  and  C11_17 
REMARK    6  A    between atoms: C11_17  and  C12_18 
REMARK    7  A    between atoms: C16_23  and  C17_24 
REMARK       I    between atoms: C17_24  and  N2_26 
REMARK    8  A    between atoms: N2_26  and  C18_28 
REMARK    9  A    between atoms: N3_35  and  C25_36 
REMARK   10  A    between atoms: C25_36  and  C26_37 
ROOT
HETATM    1  C4  UNL     1     -25.568  -1.161  -6.693  1.00  0.00     0.096 C 
HETATM    2  C5  UNL     1     -26.185  -2.252  -7.534  1.00  0.00     0.054 C 
HETATM    3  C6  UNL     1     -27.602  -1.963  -7.895  1.00  0.00     0.262 C 
HETATM    4  C7  UNL     1     -27.644  -1.481  -9.334  1.00  0.00     0.239 C 
HETATM    5  F1  UNL     1     -27.365  -2.627 -10.101  1.00  0.00    -0.242 F 
HETATM    6  C8  UNL     1     -26.620  -0.489  -9.649  1.00  0.00     0.021 A 
HETATM    7  C9  UNL     1     -25.804   0.217  -8.770  1.00  0.00     0.010 A 
HETATM    8  C10 UNL     1     -24.966   1.021  -9.476  1.00  0.00     0.150 A 
HETATM    9  N1  UNL     1     -25.238   0.838 -10.810  1.00  0.00    -0.316 N 
HETATM   10  C16 UNL     1     -26.248  -0.083 -10.929  1.00  0.00     0.115 A 
HETATM   11  C22 UNL     1     -25.746   0.196  -7.274  1.00  0.00     0.039 C 
HETATM   12  C23 UNL     1     -26.977   0.881  -6.751  1.00  0.00     0.041 C 
HETATM   13  C24 UNL     1     -28.261   0.252  -7.182  1.00  0.00     0.273 C 
HETATM   14  N3  UNL     1     -28.338  -1.174  -6.975  1.00  0.00     0.096 N 
ENDROOT
BRANCH  10  15
HETATM   15  C17 UNL     1     -26.857  -0.519 -12.166  1.00  0.00     0.269 C 
HETATM   16  O5  UNL     1     -28.058  -0.117 -12.381  1.00  0.00    -0.266 OA
HETATM   17  N2  UNL     1     -26.318  -1.325 -13.161  1.00  0.00    -0.351 N 
ATOM     18  H2  UNL     1     -25.368  -1.675 -13.033  1.00  0.00     0.163 HD
BRANCH  17  19
HETATM   19  C18 UNL     1     -27.024  -1.700 -14.370  1.00  0.00     0.084 C 
HETATM   20  C19 UNL     1     -26.597  -0.974 -15.621  1.00  0.00     0.025 C 
HETATM   21  C20 UNL     1     -26.923  -2.282 -16.363  1.00  0.00     0.004 C 
HETATM   22  C21 UNL     1     -26.574  -2.975 -15.037  1.00  0.00     0.025 C 
ENDBRANCH  17  19
ENDBRANCH  10  15
BRANCH   9  23
HETATM   23  C11 UNL     1     -24.574   1.519 -11.864  1.00  0.00     0.196 C 
BRANCH  23  24
HETATM   24  C12 UNL     1     -25.336   2.672 -12.426  1.00  0.00     0.070 A 
HETATM   25  C13 UNL     1     -24.798   3.551 -13.334  1.00  0.00     0.036 A 
HETATM   26  C14 UNL     1     -25.759   4.489 -13.643  1.00  0.00     0.027 A 
HETATM   27  C15 UNL     1     -26.851   4.113 -12.883  1.00  0.00     0.142 A 
HETATM   28  O4  UNL     1     -26.550   3.049 -12.193  1.00  0.00    -0.325 OA
ENDBRANCH  23  24
ENDBRANCH   9  23
BRANCH   8  29
HETATM   29  O3  UNL     1     -24.014   1.869  -8.968  1.00  0.00    -0.345 OA
ATOM     30  H3  UNL     1     -24.163   2.703  -8.539  1.00  0.00     0.219 HD
ENDBRANCH   8  29
BRANCH  14  31
HETATM   31  C25 UNL     1     -29.765  -1.509  -7.103  1.00  0.00     0.277 C 
BRANCH  31  32
HETATM   32  C26 UNL     1     -30.133  -2.736  -6.301  1.00  0.00     0.014 A 
HETATM   33  C27 UNL     1     -31.511  -3.233  -6.207  1.00  0.00     0.007 A 
HETATM   34  C28 UNL     1     -30.531  -3.997  -7.072  1.00  0.00     0.007 A 
ENDBRANCH  31  32
ENDBRANCH  14  31
BRANCH   1  35
HETATM   35  C3  UNL     1     -24.130  -1.460  -6.521  1.00  0.00     0.263 C 
HETATM   36  O2  UNL     1     -23.525  -1.377  -5.416  1.00  0.00    -0.265 OA
BRANCH  35  37
HETATM   37  O1  UNL     1     -23.329  -1.866  -7.598  1.00  0.00    -0.322 OA
BRANCH  37  38
HETATM   38  C2  UNL     1     -22.578  -3.044  -7.615  1.00  0.00     0.174 C 
HETATM   39  C1  UNL     1     -23.216  -4.158  -8.377  1.00  0.00     0.034 C 
ENDBRANCH  37  38
ENDBRANCH  35  37
ENDBRANCH   1  35
TORSDOF 10
ENDMDL
MODEL 5
REMARK VINA RESULT: -6.571363926      2.324      3.166
REMARK  10 active torsions:
REMARK  status: ('A' for Active; 'I' for Inactive)
REMARK    1  A    between atoms: C2_2  and  O1_3 
REMARK    2  A    between atoms: O1_3  and  C3_4 
REMARK    3  A    between atoms: C3_4  and  C4_6 
REMARK    4  A    between atoms: C10_13  and  O3_14 
REMARK    5  A    between atoms: N1_16  and  C11_17 
REMARK    6  A    between atoms: C11_17  and  C12_18 
REMARK    7  A    between atoms: C16_23  and  C17_24 
REMARK       I    between atoms: C17_24  and  N2_26 
REMARK    8  A    between atoms: N2_26  and  C18_28 
REMARK    9  A    between atoms: N3_35  and  C25_36 
REMARK   10  A    between atoms: C25_36  and  C26_37 
ROOT
HETATM    1  C4  UNL     1     -25.528  -0.001  -5.101  1.00  0.00     0.096 C 
HETATM    2  C5  UNL     1     -24.353   0.178  -6.032  1.00  0.00     0.054 C 
HETATM    3  C6  UNL     1     -23.974  -1.085  -6.725  1.00  0.00     0.262 C 
HETATM    4  C7  UNL     1     -24.505  -1.032  -8.147  1.00  0.00     0.239 C 
HETATM    5  F1  UNL     1     -23.695  -0.080  -8.793  1.00  0.00    -0.242 F 
HETATM    6  C8  UNL     1     -25.884  -0.563  -8.240  1.00  0.00     0.021 A 
HETATM    7  C9  UNL     1     -26.810  -0.399  -7.215  1.00  0.00     0.010 A 
HETATM    8  C10 UNL     1     -27.971   0.088  -7.726  1.00  0.00     0.150 A 
HETATM    9  N1  UNL     1     -27.800   0.239  -9.081  1.00  0.00    -0.316 N 
HETATM   10  C16 UNL     1     -26.527  -0.156  -9.407  1.00  0.00     0.115 A 
HETATM   11  C22 UNL     1     -26.688  -0.670  -5.747  1.00  0.00     0.039 C 
HETATM   12  C23 UNL     1     -26.667  -2.159  -5.550  1.00  0.00     0.041 C 
HETATM   13  C24 UNL     1     -25.550  -2.858  -6.253  1.00  0.00     0.273 C 
HETATM   14  N3  UNL     1     -24.243  -2.291  -6.029  1.00  0.00     0.096 N 
ENDROOT
BRANCH  10  15
HETATM   15  C17 UNL     1     -25.967  -0.194 -10.741  1.00  0.00     0.269 C 
HETATM   16  O5  UNL     1     -25.036   0.654 -10.989  1.00  0.00    -0.266 OA
HETATM   17  N2  UNL     1     -26.307  -1.026 -11.801  1.00  0.00    -0.351 N 
ATOM     18  H2  UNL     1     -27.046  -1.712 -11.653  1.00  0.00     0.163 HD
BRANCH  17  19
HETATM   19  C18 UNL     1     -25.673  -0.976 -13.103  1.00  0.00     0.084 C 
HETATM   20  C19 UNL     1     -25.660  -2.276 -13.867  1.00  0.00     0.025 C 
HETATM   21  C20 UNL     1     -25.778  -1.410 -15.133  1.00  0.00     0.004 C 
HETATM   22  C21 UNL     1     -26.500  -0.402 -14.226  1.00  0.00     0.025 C 
ENDBRANCH  17  19
ENDBRANCH  10  15
BRANCH   9  23
HETATM   23  C11 UNL     1     -28.801   0.714  -9.967  1.00  0.00     0.196 C 
BRANCH  23  24
HETATM   24  C12 UNL     1     -28.334   1.768 -10.914  1.00  0.00     0.070 A 
HETATM   25  C13 UNL     1     -28.118   3.069 -10.534  1.00  0.00     0.036 A 
HETATM   26  C14 UNL     1     -27.696   3.775 -11.641  1.00  0.00     0.027 A 
HETATM   27  C15 UNL     1     -27.683   2.832 -12.653  1.00  0.00     0.142 A 
HETATM   28  O4  UNL     1     -28.063   1.681 -12.175  1.00  0.00    -0.325 OA
ENDBRANCH  23  24
ENDBRANCH   9  23
BRANCH   8  29
HETATM   29  O3  UNL     1     -29.118   0.383  -7.032  1.00  0.00    -0.345 OA
ATOM     30  H3  UNL     1     -29.998   0.088  -7.233  1.00  0.00     0.219 HD
ENDBRANCH   8  29
BRANCH  14  31
HETATM   31  C25 UNL     1     -23.291  -3.318  -6.480  1.00  0.00     0.277 C 
BRANCH  31  32
HETATM   32  C26 UNL     1     -23.964  -4.393  -7.302  1.00  0.00     0.014 A 
HETATM   33  C27 UNL     1     -23.380  -4.922  -8.540  1.00  0.00     0.007 A 
HETATM   34  C28 UNL     1     -23.335  -5.789  -7.299  1.00  0.00     0.007 A 
ENDBRANCH  31  32
ENDBRANCH  14  31
BRANCH   1  35
HETATM   35  C3  UNL     1     -25.923   1.327  -4.586  1.00  0.00     0.263 C 
HETATM   36  O2  UNL     1     -25.108   2.162  -4.105  1.00  0.00    -0.265 OA
BRANCH  35  37
HETATM   37  O1  UNL     1     -27.259   1.754  -4.600  1.00  0.00    -0.322 OA
BRANCH  37  38
HETATM   38  C2  UNL     1     -27.924   2.279  -3.488  1.00  0.00     0.174 C 
HETATM   39  C1  UNL     1     -28.317   3.711  -3.638  1.00  0.00     0.034 C 
ENDBRANCH  37  38
ENDBRANCH  35  37
ENDBRANCH   1  35
TORSDOF 10
ENDMDL
