MODEL 1
REMARK VINA RESULT: -7.992749286      0.000      0.000
REMARK  9 active torsions:
REMARK  status: ('A' for Active; 'I' for Inactive)
REMARK    1  A    between atoms: C7_8  and  N1_9 
REMARK    2  A    between atoms: N1_9  and  C8_11 
REMARK    3  A    between atoms: N5_21  and  C12_23 
REMARK    4  A    between atoms: C12_23  and  C13_24 
REMARK    5  A    between atoms: C13_24  and  C14_25 
REMARK    6  A    between atoms: C14_25  and  C15_26 
REMARK    7  A    between atoms: C15_26  and  N6_27 
REMARK    8  A    between atoms: N6_27  and  C17_29 
REMARK    9  A    between atoms: C17_29  and  C18_30 
ROOT
HETATM    1  C8  UNL     1     -27.146  -0.023  -9.368  1.00  0.00     0.122 A 
HETATM    2  N2  UNL     1     -27.546   0.407  -8.170  1.00  0.00    -0.338 N 
ATOM      3  H2  UNL     1     -27.421  -0.190  -7.352  1.00  0.00     0.168 HD
HETATM    4  C9  UNL     1     -28.110   1.612  -8.030  1.00  0.00     0.183 A 
HETATM    5  N3  UNL     1     -28.290   2.423  -9.084  1.00  0.00    -0.338 N 
ATOM      6  H3  UNL     1     -28.720   3.340  -8.968  1.00  0.00     0.168 HD
HETATM    7  C10 UNL     1     -27.893   2.001 -10.292  1.00  0.00     0.123 A 
HETATM    8  N4  UNL     1     -28.033   2.748 -11.408  1.00  0.00    -0.326 N 
ATOM      9  H4  UNL     1     -28.462   3.668 -11.307  1.00  0.00     0.169 HD
HETATM   10  C11 UNL     1     -27.653   2.374 -12.636  1.00  0.00     0.138 A 
HETATM   11  N5  UNL     1     -27.823   3.155 -13.647  1.00  0.00    -0.374 N 
ATOM     12  H5  UNL     1     -27.506   2.797 -14.547  1.00  0.00     0.161 HD
HETATM   13  C22 UNL     1     -27.057   1.124 -12.848  1.00  0.00     0.131 A 
HETATM   14  C23 UNL     1     -26.900   0.343 -11.736  1.00  0.00     0.057 A 
HETATM   15  C24 UNL     1     -27.297   0.753 -10.506  1.00  0.00     0.072 A 
HETATM   16  S1  UNL     1     -26.114  -1.143 -12.329  1.00  0.00    -0.099 SA
HETATM   17  C25 UNL     1     -25.597  -0.374 -13.931  1.00  0.00     0.255 C 
HETATM   18  O2  UNL     1     -26.618   0.592 -14.014  1.00  0.00    -0.336 OA
ENDROOT
BRANCH  11  19
HETATM   19  C12 UNL     1     -28.396   4.453 -13.659  1.00  0.00     0.121 C 
BRANCH  19  20
HETATM   20  C13 UNL     1     -29.432   4.523 -14.743  1.00  0.00     0.025 C 
BRANCH  20  21
HETATM   21  C14 UNL     1     -29.446   5.781 -15.537  1.00  0.00     0.046 C 
BRANCH  21  22
HETATM   22  C15 UNL     1     -28.818   5.770 -16.875  1.00  0.00     0.058 C 
BRANCH  22  23
HETATM   23  N6  UNL     1     -27.701   6.570 -17.127  1.00  0.00    -0.395 N 
HETATM   24  C16 UNL     1     -26.640   6.109 -17.936  1.00  0.00     0.148 C 
BRANCH  23  25
HETATM   25  C17 UNL     1     -27.331   7.542 -16.149  1.00  0.00     0.153 C 
BRANCH  25  26
HETATM   26  C18 UNL     1     -27.583   8.928 -16.671  1.00  0.00     0.139 C 
HETATM   27  C19 UNL     1     -28.878   9.478 -16.134  1.00  0.00     0.035 C 
HETATM   28  C20 UNL     1     -28.398  10.341 -14.989  1.00  0.00     0.029 C 
HETATM   29  C21 UNL     1     -26.992  10.644 -15.369  1.00  0.00     0.168 C 
HETATM   30  O1  UNL     1     -26.573   9.770 -16.335  1.00  0.00    -0.384 OA
ENDBRANCH  25  26
ENDBRANCH  23  25
ENDBRANCH  22  23
ENDBRANCH  21  22
ENDBRANCH  20  21
ENDBRANCH  19  20
ENDBRANCH  11  19
BRANCH   1  31
HETATM   31  N1  UNL     1     -26.595  -1.185  -9.554  1.00  0.00    -0.341 N 
ATOM     32  H1  UNL     1     -25.992  -1.339 -10.362  1.00  0.00     0.167 HD
BRANCH  31  33
HETATM   33  C7  UNL     1     -26.829  -2.229  -8.644  1.00  0.00     0.041 A 
HETATM   34  C2  UNL     1     -25.777  -2.725  -7.916  1.00  0.00    -0.013 A 
HETATM   35  C1  UNL     1     -24.402  -2.172  -8.082  1.00  0.00     0.052 C 
HETATM   36  C3  UNL     1     -26.026  -3.748  -7.029  1.00  0.00     0.042 A 
HETATM   37 CL1  UNL     1     -24.701  -4.403  -6.087  1.00  0.00    -0.084 Cl
HETATM   38  C4  UNL     1     -27.307  -4.253  -6.886  1.00  0.00     0.024 A 
HETATM   39  C5  UNL     1     -28.359  -3.739  -7.630  1.00  0.00     0.004 A 
HETATM   40  C6  UNL     1     -28.120  -2.714  -8.520  1.00  0.00     0.030 A 
ENDBRANCH  31  33
ENDBRANCH   1  31
TORSDOF 9
ENDMDL
MODEL 2
REMARK VINA RESULT: -7.963053811      1.486      2.526
REMARK  9 active torsions:
REMARK  status: ('A' for Active; 'I' for Inactive)
REMARK    1  A    between atoms: C7_8  and  N1_9 
REMARK    2  A    between atoms: N1_9  and  C8_11 
REMARK    3  A    between atoms: N5_21  and  C12_23 
REMARK    4  A    between atoms: C12_23  and  C13_24 
REMARK    5  A    between atoms: C13_24  and  C14_25 
REMARK    6  A    between atoms: C14_25  and  C15_26 
REMARK    7  A    between atoms: C15_26  and  N6_27 
REMARK    8  A    between atoms: N6_27  and  C17_29 
REMARK    9  A    between atoms: C17_29  and  C18_30 
ROOT
HETATM    1  C8  UNL     1     -27.435  -0.180  -9.451  1.00  0.00     0.122 A 
HETATM    2  N2  UNL     1     -27.917   0.221  -8.273  1.00  0.00    -0.338 N 
ATOM      3  H2  UNL     1     -27.998  -0.448  -7.507  1.00  0.00     0.168 HD
HETATM    4  C9  UNL     1     -28.293   1.491  -8.085  1.00  0.00     0.183 A 
HETATM    5  N3  UNL     1     -28.199   2.397  -9.070  1.00  0.00    -0.338 N 
ATOM      6  H3  UNL     1     -28.487   3.364  -8.918  1.00  0.00     0.168 HD
HETATM    7  C10 UNL     1     -27.718   2.005 -10.257  1.00  0.00     0.123 A 
HETATM    8  N4  UNL     1     -27.587   2.847 -11.305  1.00  0.00    -0.326 N 
ATOM      9  H4  UNL     1     -27.872   3.817 -11.167  1.00  0.00     0.169 HD
HETATM   10  C11 UNL     1     -27.112   2.508 -12.510  1.00  0.00     0.138 A 
HETATM   11  N5  UNL     1     -27.018   3.380 -13.454  1.00  0.00    -0.374 N 
ATOM     12  H5  UNL     1     -26.647   3.041 -14.341  1.00  0.00     0.161 HD
HETATM   13  C22 UNL     1     -26.702   1.193 -12.769  1.00  0.00     0.131 A 
HETATM   14  C23 UNL     1     -26.821   0.316 -11.726  1.00  0.00     0.057 A 
HETATM   15  C24 UNL     1     -27.307   0.694 -10.519  1.00  0.00     0.072 A 
HETATM   16  S1  UNL     1     -26.212  -1.234 -12.363  1.00  0.00    -0.099 SA
HETATM   17  C25 UNL     1     -25.370  -0.448 -13.811  1.00  0.00     0.255 C 
HETATM   18  O2  UNL     1     -26.203   0.683 -13.920  1.00  0.00    -0.336 OA
ENDROOT
BRANCH  11  19
HETATM   19  C12 UNL     1     -27.369   4.754 -13.409  1.00  0.00     0.121 C 
BRANCH  19  20
HETATM   20  C13 UNL     1     -26.124   5.573 -13.227  1.00  0.00     0.025 C 
BRANCH  20  21
HETATM   21  C14 UNL     1     -26.342   7.002 -12.874  1.00  0.00     0.046 C 
BRANCH  21  22
HETATM   22  C15 UNL     1     -27.208   7.815 -13.753  1.00  0.00     0.058 C 
BRANCH  22  23
HETATM   23  N6  UNL     1     -26.715   8.291 -14.971  1.00  0.00    -0.395 N 
HETATM   24  C16 UNL     1     -26.348   9.645 -15.130  1.00  0.00     0.148 C 
BRANCH  23  25
HETATM   25  C17 UNL     1     -27.129   7.636 -16.169  1.00  0.00     0.153 C 
BRANCH  25  26
HETATM   26  C18 UNL     1     -28.550   7.166 -16.042  1.00  0.00     0.139 C 
HETATM   27  C19 UNL     1     -29.484   8.062 -16.813  1.00  0.00     0.035 C 
HETATM   28  C20 UNL     1     -29.677   7.282 -18.093  1.00  0.00     0.029 C 
HETATM   29  C21 UNL     1     -29.365   5.887 -17.681  1.00  0.00     0.168 C 
HETATM   30  O1  UNL     1     -28.688   5.893 -16.491  1.00  0.00    -0.384 OA
ENDBRANCH  25  26
ENDBRANCH  23  25
ENDBRANCH  22  23
ENDBRANCH  21  22
ENDBRANCH  20  21
ENDBRANCH  19  20
ENDBRANCH  11  19
BRANCH   1  31
HETATM   31  N1  UNL     1     -27.058  -1.401  -9.681  1.00  0.00    -0.341 N 
ATOM     32  H1  UNL     1     -27.283  -1.845 -10.572  1.00  0.00     0.167 HD
BRANCH  31  33
HETATM   33  C7  UNL     1     -26.342  -2.113  -8.705  1.00  0.00     0.041 A 
HETATM   34  C2  UNL     1     -26.992  -3.072  -7.970  1.00  0.00    -0.013 A 
HETATM   35  C1  UNL     1     -28.438  -3.360  -8.194  1.00  0.00     0.052 C 
HETATM   36  C3  UNL     1     -26.274  -3.760  -7.019  1.00  0.00     0.042 A 
HETATM   37 CL1  UNL     1     -27.079  -4.989  -6.063  1.00  0.00    -0.084 Cl
HETATM   38  C4  UNL     1     -24.932  -3.483  -6.819  1.00  0.00     0.024 A 
HETATM   39  C5  UNL     1     -24.290  -2.511  -7.573  1.00  0.00     0.004 A 
HETATM   40  C6  UNL     1     -25.001  -1.816  -8.528  1.00  0.00     0.030 A 
ENDBRANCH  31  33
ENDBRANCH   1  31
TORSDOF 9
ENDMDL
MODEL 3
REMARK VINA RESULT: -7.935040139      3.977      9.542
REMARK  9 active torsions:
REMARK  status: ('A' for Active; 'I' for Inactive)
REMARK    1  A    between atoms: C7_8  and  N1_9 
REMARK    2  A    between atoms: N1_9  and  C8_11 
REMARK    3  A    between atoms: N5_21  and  C12_23 
REMARK    4  A    between atoms: C12_23  and  C13_24 
REMARK    5  A    between atoms: C13_24  and  C14_25 
REMARK    6  A    between atoms: C14_25  and  C15_26 
REMARK    7  A    between atoms: C15_26  and  N6_27 
REMARK    8  A    between atoms: N6_27  and  C17_29 
REMARK    9  A    between atoms: C17_29  and  C18_30 
ROOT
HETATM    1  C8  UNL     1     -27.853   2.459 -11.667  1.00  0.00     0.122 A 
HETATM    2  N2  UNL     1     -28.437   3.341 -10.853  1.00  0.00    -0.338 N 
ATOM      3  H2  UNL     1     -28.814   4.208 -11.235  1.00  0.00     0.168 HD
HETATM    4  C9  UNL     1     -28.533   3.099  -9.540  1.00  0.00     0.183 A 
HETATM    5  N3  UNL     1     -28.048   1.969  -9.003  1.00  0.00    -0.338 N 
ATOM      6  H3  UNL     1     -28.126   1.793  -8.002  1.00  0.00     0.168 HD
HETATM    7  C10 UNL     1     -27.459   1.078  -9.811  1.00  0.00     0.123 A 
HETATM    8  N4  UNL     1     -26.943  -0.086  -9.360  1.00  0.00    -0.326 N 
ATOM      9  H4  UNL     1     -27.014  -0.275  -8.361  1.00  0.00     0.169 HD
HETATM   10  C11 UNL     1     -26.346  -1.010 -10.124  1.00  0.00     0.138 A 
HETATM   11  N5  UNL     1     -25.885  -2.096  -9.608  1.00  0.00    -0.374 N 
ATOM     12  H5  UNL     1     -25.445  -2.749 -10.257  1.00  0.00     0.161 HD
HETATM   13  C22 UNL     1     -26.215  -0.816 -11.505  1.00  0.00     0.131 A 
HETATM   14  C23 UNL     1     -26.729   0.355 -11.994  1.00  0.00     0.057 A 
HETATM   15  C24 UNL     1     -27.326   1.269 -11.191  1.00  0.00     0.072 A 
HETATM   16  S1  UNL     1     -26.422   0.290 -13.749  1.00  0.00    -0.099 SA
HETATM   17  C25 UNL     1     -26.093  -1.531 -13.747  1.00  0.00     0.255 C 
HETATM   18  O2  UNL     1     -25.643  -1.639 -12.417  1.00  0.00    -0.336 OA
ENDROOT
BRANCH  11  19
HETATM   19  C12 UNL     1     -25.915  -2.496  -8.247  1.00  0.00     0.121 C 
BRANCH  19  20
HETATM   20  C13 UNL     1     -27.224  -3.172  -7.961  1.00  0.00     0.025 C 
BRANCH  20  21
HETATM   21  C14 UNL     1     -27.893  -2.766  -6.696  1.00  0.00     0.046 C 
BRANCH  21  22
HETATM   22  C15 UNL     1     -28.585  -1.460  -6.658  1.00  0.00     0.058 C 
BRANCH  22  23
HETATM   23  N6  UNL     1     -28.185  -0.485  -5.741  1.00  0.00    -0.395 N 
HETATM   24  C16 UNL     1     -28.838   0.764  -5.673  1.00  0.00     0.148 C 
BRANCH  23  25
HETATM   25  C17 UNL     1     -26.822  -0.474  -5.318  1.00  0.00     0.153 C 
BRANCH  25  26
HETATM   26  C18 UNL     1     -26.171   0.827  -5.694  1.00  0.00     0.139 C 
HETATM   27  C19 UNL     1     -25.043   1.156  -4.752  1.00  0.00     0.035 C 
HETATM   28  C20 UNL     1     -23.837   0.693  -5.539  1.00  0.00     0.029 C 
HETATM   29  C21 UNL     1     -24.324   0.734  -6.945  1.00  0.00     0.168 C 
HETATM   30  O1  UNL     1     -25.691   0.788  -6.962  1.00  0.00    -0.384 OA
ENDBRANCH  25  26
ENDBRANCH  23  25
ENDBRANCH  22  23
ENDBRANCH  21  22
ENDBRANCH  20  21
ENDBRANCH  19  20
ENDBRANCH  11  19
BRANCH   1  31
HETATM   31  N1  UNL     1     -27.736   2.650 -12.946  1.00  0.00    -0.341 N 
ATOM     32  H1  UNL     1     -28.000   1.910 -13.598  1.00  0.00     0.167 HD
BRANCH  31  33
HETATM   33  C7  UNL     1     -27.245   3.871 -13.435  1.00  0.00     0.041 A 
HETATM   34  C2  UNL     1     -28.090   4.697 -14.132  1.00  0.00    -0.013 A 
HETATM   35  C1  UNL     1     -29.511   4.312 -14.373  1.00  0.00     0.052 C 
HETATM   36  C3  UNL     1     -27.592   5.891 -14.602  1.00  0.00     0.042 A 
HETATM   37 CL1  UNL     1     -28.648   6.965 -15.496  1.00  0.00    -0.084 Cl
HETATM   38  C4  UNL     1     -26.270   6.236 -14.371  1.00  0.00     0.024 A 
HETATM   39  C5  UNL     1     -25.430   5.389 -13.664  1.00  0.00     0.004 A 
HETATM   40  C6  UNL     1     -25.921   4.191 -13.188  1.00  0.00     0.030 A 
ENDBRANCH  31  33
ENDBRANCH   1  31
TORSDOF 9
ENDMDL
MODEL 4
REMARK VINA RESULT: -7.917081880      0.872      1.536
REMARK  9 active torsions:
REMARK  status: ('A' for Active; 'I' for Inactive)
REMARK    1  A    between atoms: C7_8  and  N1_9 
REMARK    2  A    between atoms: N1_9  and  C8_11 
REMARK    3  A    between atoms: N5_21  and  C12_23 
REMARK    4  A    between atoms: C12_23  and  C13_24 
REMARK    5  A    between atoms: C13_24  and  C14_25 
REMARK    6  A    between atoms: C14_25  and  C15_26 
REMARK    7  A    between atoms: C15_26  and  N6_27 
REMARK    8  A    between atoms: N6_27  and  C17_29 
REMARK    9  A    between atoms: C17_29  and  C18_30 
ROOT
HETATM    1  C8  UNL     1     -27.349  -0.208  -9.434  1.00  0.00     0.122 A 
HETATM    2  N2  UNL     1     -27.807   0.208  -8.251  1.00  0.00    -0.338 N 
ATOM      3  H2  UNL     1     -27.823  -0.437  -7.461  1.00  0.00     0.168 HD
HETATM    4  C9  UNL     1     -28.245   1.462  -8.092  1.00  0.00     0.183 A 
HETATM    5  N3  UNL     1     -28.238   2.337  -9.109  1.00  0.00    -0.338 N 
ATOM      6  H3  UNL     1     -28.573   3.291  -8.978  1.00  0.00     0.168 HD
HETATM    7  C10 UNL     1     -27.783   1.929 -10.301  1.00  0.00     0.123 A 
HETATM    8  N4  UNL     1     -27.738   2.739 -11.380  1.00  0.00    -0.326 N 
ATOM      9  H4  UNL     1     -28.070   3.696 -11.264  1.00  0.00     0.169 HD
HETATM   10  C11 UNL     1     -27.291   2.382 -12.592  1.00  0.00     0.138 A 
HETATM   11  N5  UNL     1     -27.281   3.224 -13.567  1.00  0.00    -0.374 N 
ATOM     12  H5  UNL     1     -26.926   2.874 -14.456  1.00  0.00     0.161 HD
HETATM   13  C22 UNL     1     -26.819   1.084 -12.823  1.00  0.00     0.131 A 
HETATM   14  C23 UNL     1     -26.851   0.238 -11.747  1.00  0.00     0.057 A 
HETATM   15  C24 UNL     1     -27.310   0.633 -10.535  1.00  0.00     0.072 A 
HETATM   16  S1  UNL     1     -26.182  -1.299 -12.355  1.00  0.00    -0.099 SA
HETATM   17  C25 UNL     1     -25.440  -0.520 -13.862  1.00  0.00     0.255 C 
HETATM   18  O2  UNL     1     -26.337   0.560 -13.975  1.00  0.00    -0.336 OA
ENDROOT
BRANCH  11  19
HETATM   19  C12 UNL     1     -27.704   4.578 -13.554  1.00  0.00     0.121 C 
BRANCH  19  20
HETATM   20  C13 UNL     1     -29.025   4.687 -14.260  1.00  0.00     0.025 C 
BRANCH  20  21
HETATM   21  C14 UNL     1     -29.184   5.874 -15.143  1.00  0.00     0.046 C 
BRANCH  21  22
HETATM   22  C15 UNL     1     -29.340   5.649 -16.595  1.00  0.00     0.058 C 
BRANCH  22  23
HETATM   23  N6  UNL     1     -29.168   6.711 -17.487  1.00  0.00    -0.395 N 
HETATM   24  C16 UNL     1     -29.798   6.712 -18.750  1.00  0.00     0.148 C 
BRANCH  23  25
HETATM   25  C17 UNL     1     -27.954   7.459 -17.421  1.00  0.00     0.153 C 
BRANCH  25  26
HETATM   26  C18 UNL     1     -28.247   8.932 -17.471  1.00  0.00     0.139 C 
HETATM   27  C19 UNL     1     -29.333   9.298 -16.495  1.00  0.00     0.035 C 
HETATM   28  C20 UNL     1     -28.534   9.821 -15.322  1.00  0.00     0.029 C 
HETATM   29  C21 UNL     1     -27.251  10.233 -15.954  1.00  0.00     0.168 C 
HETATM   30  O1  UNL     1     -27.137   9.662 -17.192  1.00  0.00    -0.384 OA
ENDBRANCH  25  26
ENDBRANCH  23  25
ENDBRANCH  22  23
ENDBRANCH  21  22
ENDBRANCH  20  21
ENDBRANCH  19  20
ENDBRANCH  11  19
BRANCH   1  31
HETATM   31  N1  UNL     1     -26.915  -1.415  -9.638  1.00  0.00    -0.341 N 
ATOM     32  H1  UNL     1     -27.063  -1.864 -10.542  1.00  0.00     0.167 HD
BRANCH  31  33
HETATM   33  C7  UNL     1     -26.242  -2.104  -8.615  1.00  0.00     0.041 A 
HETATM   34  C2  UNL     1     -26.921  -3.054  -7.895  1.00  0.00    -0.013 A 
HETATM   35  C1  UNL     1     -28.353  -3.357  -8.184  1.00  0.00     0.052 C 
HETATM   36  C3  UNL     1     -26.246  -3.720  -6.898  1.00  0.00     0.042 A 
HETATM   37 CL1  UNL     1     -27.088  -4.937  -5.960  1.00  0.00    -0.084 Cl
HETATM   38  C4  UNL     1     -24.917  -3.429  -6.639  1.00  0.00     0.024 A 
HETATM   39  C5  UNL     1     -24.246  -2.465  -7.378  1.00  0.00     0.004 A 
HETATM   40  C6  UNL     1     -24.914  -1.793  -8.379  1.00  0.00     0.030 A 
ENDBRANCH  31  33
ENDBRANCH   1  31
TORSDOF 9
ENDMDL
MODEL 5
REMARK VINA RESULT: -7.852927687      1.392      2.169
REMARK  9 active torsions:
REMARK  status: ('A' for Active; 'I' for Inactive)
REMARK    1  A    between atoms: C7_8  and  N1_9 
REMARK    2  A    between atoms: N1_9  and  C8_11 
REMARK    3  A    between atoms: N5_21  and  C12_23 
REMARK    4  A    between atoms: C12_23  and  C13_24 
REMARK    5  A    between atoms: C13_24  and  C14_25 
REMARK    6  A    between atoms: C14_25  and  C15_26 
REMARK    7  A    between atoms: C15_26  and  N6_27 
REMARK    8  A    between atoms: N6_27  and  C17_29 
REMARK    9  A    between atoms: C17_29  and  C18_30 
ROOT
HETATM    1  C8  UNL     1     -27.393  -0.213  -9.396  1.00  0.00     0.122 A 
HETATM    2  N2  UNL     1     -27.875   0.172  -8.213  1.00  0.00    -0.338 N 
ATOM      3  H2  UNL     1     -27.947  -0.504  -7.452  1.00  0.00     0.168 HD
HETATM    4  C9  UNL     1     -28.265   1.437  -8.013  1.00  0.00     0.183 A 
HETATM    5  N3  UNL     1     -28.185   2.353  -8.990  1.00  0.00    -0.338 N 
ATOM      6  H3  UNL     1     -28.483   3.314  -8.828  1.00  0.00     0.168 HD
HETATM    7  C10 UNL     1     -27.704   1.976 -10.182  1.00  0.00     0.123 A 
HETATM    8  N4  UNL     1     -27.586   2.829 -11.223  1.00  0.00    -0.326 N 
ATOM      9  H4  UNL     1     -27.881   3.794 -11.076  1.00  0.00     0.169 HD
HETATM   10  C11 UNL     1     -27.112   2.505 -12.433  1.00  0.00     0.138 A 
HETATM   11  N5  UNL     1     -27.031   3.386 -13.369  1.00  0.00    -0.374 N 
ATOM     12  H5  UNL     1     -26.659   3.059 -14.260  1.00  0.00     0.161 HD
HETATM   13  C22 UNL     1     -26.688   1.197 -12.705  1.00  0.00     0.131 A 
HETATM   14  C23 UNL     1     -26.794   0.309 -11.669  1.00  0.00     0.057 A 
HETATM   15  C24 UNL     1     -27.279   0.672 -10.457  1.00  0.00     0.072 A 
HETATM   16  S1  UNL     1     -26.170  -1.228 -12.321  1.00  0.00    -0.099 SA
HETATM   17  C25 UNL     1     -25.342  -0.419 -13.766  1.00  0.00     0.255 C 
HETATM   18  O2  UNL     1     -26.188   0.702 -13.862  1.00  0.00    -0.336 OA
ENDROOT
BRANCH  11  19
HETATM   19  C12 UNL     1     -27.397   4.756 -13.311  1.00  0.00     0.121 C 
BRANCH  19  20
HETATM   20  C13 UNL     1     -26.156   5.591 -13.187  1.00  0.00     0.025 C 
BRANCH  20  21
HETATM   21  C14 UNL     1     -26.378   7.029 -12.876  1.00  0.00     0.046 C 
BRANCH  21  22
HETATM   22  C15 UNL     1     -27.260   7.809 -13.769  1.00  0.00     0.058 C 
BRANCH  22  23
HETATM   23  N6  UNL     1     -26.770   8.292 -14.985  1.00  0.00    -0.395 N 
HETATM   24  C16 UNL     1     -26.443   9.656 -15.149  1.00  0.00     0.148 C 
BRANCH  23  25
HETATM   25  C17 UNL     1     -27.150   7.617 -16.183  1.00  0.00     0.153 C 
BRANCH  25  26
HETATM   26  C18 UNL     1     -28.552   7.091 -16.062  1.00  0.00     0.139 C 
HETATM   27  C19 UNL     1     -29.525   7.977 -16.794  1.00  0.00     0.035 C 
HETATM   28  C20 UNL     1     -29.699   7.235 -18.100  1.00  0.00     0.029 C 
HETATM   29  C21 UNL     1     -29.332   5.839 -17.738  1.00  0.00     0.168 C 
HETATM   30  O1  UNL     1     -28.647   5.829 -16.554  1.00  0.00    -0.384 OA
ENDBRANCH  25  26
ENDBRANCH  23  25
ENDBRANCH  22  23
ENDBRANCH  21  22
ENDBRANCH  20  21
ENDBRANCH  19  20
ENDBRANCH  11  19
BRANCH   1  31
HETATM   31  N1  UNL     1     -27.004  -1.428  -9.638  1.00  0.00    -0.341 N 
ATOM     32  H1  UNL     1     -26.631  -1.670 -10.557  1.00  0.00     0.167 HD
BRANCH  31  33
HETATM   33  C7  UNL     1     -27.095  -2.409  -8.638  1.00  0.00     0.041 A 
HETATM   34  C2  UNL     1     -25.974  -2.726  -7.912  1.00  0.00    -0.013 A 
HETATM   35  C1  UNL     1     -24.673  -2.045  -8.176  1.00  0.00     0.052 C 
HETATM   36  C3  UNL     1     -26.082  -3.689  -6.936  1.00  0.00     0.042 A 
HETATM   37 CL1  UNL     1     -24.666  -4.115  -5.994  1.00  0.00    -0.084 Cl
HETATM   38  C4  UNL     1     -27.295  -4.315  -6.702  1.00  0.00     0.024 A 
HETATM   39  C5  UNL     1     -28.418  -3.982  -7.444  1.00  0.00     0.004 A 
HETATM   40  C6  UNL     1     -28.320  -3.017  -8.425  1.00  0.00     0.030 A 
ENDBRANCH  31  33
ENDBRANCH   1  31
TORSDOF 9
ENDMDL
