MODEL 1
REMARK VINA RESULT: -8.964875738      0.000      0.000
REMARK  9 active torsions:
REMARK  status: ('A' for Active; 'I' for Inactive)
REMARK    1  A    between atoms: C2_2  and  C3_3 
REMARK    2  A    between atoms: C3_3  and  C4_4 
REMARK    3  A    between atoms: C6_9  and  O1_10 
REMARK    4  A    between atoms: N2_12  and  C7_13 
REMARK    5  A    between atoms: C12_18  and  N3_19 
REMARK       I    between atoms: N3_19  and  C13_21 
REMARK    6  A    between atoms: C13_21  and  C14_23 
REMARK    7  A    between atoms: C14_23  and  N4_24 
REMARK    8  A    between atoms: C16_26  and  C17_27 
REMARK    9  A    between atoms: C17_27  and  C18_28 
ROOT
HETATM    1  C7  UNL     1     -27.352   6.066 -14.971  1.00  0.00     0.046 C 
HETATM    2  C8  UNL     1     -27.571   7.433 -14.289  1.00  0.00     0.032 C 
HETATM    3  C9  UNL     1     -26.669   7.398 -13.066  1.00  0.00     0.009 C 
HETATM    4  C10 UNL     1     -26.138   5.990 -13.064  1.00  0.00     0.011 C 
HETATM    5  C11 UNL     1     -25.952   5.798 -14.590  1.00  0.00     0.038 C 
HETATM    6  C12 UNL     1     -27.280   5.045 -12.814  1.00  0.00     0.094 C 
HETATM    7  C23 UNL     1     -28.103   5.085 -14.089  1.00  0.00     0.033 C 
HETATM    8  C24 UNL     1     -28.227   3.731 -14.734  1.00  0.00     0.014 C 
ENDROOT
BRANCH   6   9
HETATM    9  N3  UNL     1     -26.778   3.740 -12.512  1.00  0.00    -0.354 N 
HETATM   10  C13 UNL     1     -27.350   2.959 -11.470  1.00  0.00     0.237 C 
HETATM   11  O2  UNL     1     -28.307   3.419 -10.807  1.00  0.00    -0.272 OA
ATOM     12  H3  UNL     1     -25.998   3.365 -13.051  1.00  0.00     0.162 HD
BRANCH  10  13
HETATM   13  C14 UNL     1     -26.829   1.609 -11.160  1.00  0.00     0.252 C 
BRANCH  13  14
HETATM   14  N4  UNL     1     -27.215   0.679 -12.202  1.00  0.00    -0.278 N 
HETATM   15  C15 UNL     1     -26.482  -0.322 -12.654  1.00  0.00     0.138 A 
HETATM   16  C16 UNL     1     -27.218  -0.959 -13.644  1.00  0.00     0.044 A 
HETATM   17  N5  UNL     1     -28.385  -0.289 -13.734  1.00  0.00    -0.289 N 
HETATM   18  N6  UNL     1     -28.357   0.695 -12.853  1.00  0.00    -0.240 N 
ATOM     19  H5  UNL     1     -29.154  -0.503 -14.370  1.00  0.00     0.188 HD
ATOM     20  H6  UNL     1     -29.109   1.366 -12.701  1.00  0.00     0.208 HD
BRANCH  16  21
HETATM   21  C17 UNL     1     -26.750  -2.129 -14.415  1.00  0.00     0.064 C 
BRANCH  21  22
HETATM   22  C18 UNL     1     -25.363  -2.011 -14.928  1.00  0.00    -0.009 C 
HETATM   23  C19 UNL     1     -25.235  -0.970 -15.999  1.00  0.00     0.005 C 
HETATM   24  C20 UNL     1     -24.101  -1.442 -16.895  1.00  0.00     0.000 C 
HETATM   25  C21 UNL     1     -23.599  -2.735 -16.306  1.00  0.00     0.000 C 
HETATM   26  C22 UNL     1     -24.838  -3.267 -15.596  1.00  0.00     0.005 C 
ENDBRANCH  21  22
ENDBRANCH  16  21
ENDBRANCH  13  14
ENDBRANCH  10  13
ENDBRANCH   6   9
BRANCH   1  27
HETATM   27  N2  UNL     1     -27.711   6.073 -16.328  1.00  0.00    -0.304 N 
HETATM   28  C4  UNL     1     -26.981   6.095 -17.449  1.00  0.00     0.087 A 
HETATM   29  N1  UNL     1     -27.860   6.105 -18.498  1.00  0.00    -0.336 N 
HETATM   30  C5  UNL     1     -29.116   6.087 -18.054  1.00  0.00     0.132 A 
ATOM     31  H1  UNL     1     -27.591   6.123 -19.482  1.00  0.00     0.168 HD
HETATM   32 BR1  UNL     1     -30.681   6.092 -19.151  1.00  0.00    -0.026 Br
HETATM   33  C6  UNL     1     -29.033   6.068 -16.683  1.00  0.00     0.179 A 
BRANCH  28  34
HETATM   34  C3  UNL     1     -25.521   6.113 -17.512  1.00  0.00     0.076 C 
BRANCH  34  35
HETATM   35  C2  UNL     1     -25.111   7.431 -18.201  1.00  0.00     0.003 C 
HETATM   36  C1  UNL     1     -25.373   8.538 -17.206  1.00  0.00     0.005 C 
ENDBRANCH  34  35
ENDBRANCH  28  34
BRANCH  33  37
HETATM   37  O1  UNL     1     -30.153   6.046 -15.869  1.00  0.00    -0.344 OA
ATOM     38  H1  UNL     1     -30.172   5.588 -15.038  1.00  0.00     0.219 HD
ENDBRANCH  33  37
ENDBRANCH   1  27
TORSDOF 9
ENDMDL
MODEL 2
REMARK VINA RESULT: -8.642693417      4.709     10.150
REMARK  9 active torsions:
REMARK  status: ('A' for Active; 'I' for Inactive)
REMARK    1  A    between atoms: C2_2  and  C3_3 
REMARK    2  A    between atoms: C3_3  and  C4_4 
REMARK    3  A    between atoms: C6_9  and  O1_10 
REMARK    4  A    between atoms: N2_12  and  C7_13 
REMARK    5  A    between atoms: C12_18  and  N3_19 
REMARK       I    between atoms: N3_19  and  C13_21 
REMARK    6  A    between atoms: C13_21  and  C14_23 
REMARK    7  A    between atoms: C14_23  and  N4_24 
REMARK    8  A    between atoms: C16_26  and  C17_27 
REMARK    9  A    between atoms: C17_27  and  C18_28 
ROOT
HETATM    1  C7  UNL     1     -26.831  -0.209  -8.808  1.00  0.00     0.046 C 
HETATM    2  C8  UNL     1     -26.772  -1.563  -9.545  1.00  0.00     0.032 C 
HETATM    3  C9  UNL     1     -26.047  -1.259 -10.846  1.00  0.00     0.009 C 
HETATM    4  C10 UNL     1     -25.892   0.237 -10.816  1.00  0.00     0.011 C 
HETATM    5  C11 UNL     1     -25.594   0.421  -9.308  1.00  0.00     0.038 C 
HETATM    6  C12 UNL     1     -27.255   0.865 -10.898  1.00  0.00     0.094 C 
HETATM    7  C23 UNL     1     -27.896   0.575  -9.553  1.00  0.00     0.033 C 
HETATM    8  C24 UNL     1     -28.285   1.830  -8.820  1.00  0.00     0.014 C 
ENDROOT
BRANCH   6   9
HETATM    9  N3  UNL     1     -27.133   2.264 -11.170  1.00  0.00    -0.354 N 
HETATM   10  C13 UNL     1     -27.248   2.765 -12.496  1.00  0.00     0.237 C 
HETATM   11  O2  UNL     1     -27.459   1.970 -13.440  1.00  0.00    -0.272 OA
ATOM     12  H3  UNL     1     -26.961   2.913 -10.402  1.00  0.00     0.162 HD
BRANCH  10  13
HETATM   13  C14 UNL     1     -27.123   4.213 -12.775  1.00  0.00     0.252 C 
BRANCH  13  14
HETATM   14  N4  UNL     1     -27.995   4.583 -13.872  1.00  0.00    -0.278 N 
HETATM   15  C15 UNL     1     -27.639   5.263 -14.946  1.00  0.00     0.138 A 
HETATM   16  C16 UNL     1     -28.769   5.401 -15.741  1.00  0.00     0.044 A 
HETATM   17  N5  UNL     1     -29.769   4.778 -15.084  1.00  0.00    -0.289 N 
HETATM   18  N6  UNL     1     -29.275   4.293 -13.959  1.00  0.00    -0.240 N 
ATOM     19  H5  UNL     1     -30.735   4.695 -15.399  1.00  0.00     0.188 HD
ATOM     20  H6  UNL     1     -29.806   3.772 -13.262  1.00  0.00     0.208 HD
BRANCH  16  21
HETATM   21  C17 UNL     1     -28.801   6.111 -17.036  1.00  0.00     0.064 C 
BRANCH  21  22
HETATM   22  C18 UNL     1     -29.468   7.436 -16.992  1.00  0.00    -0.009 C 
HETATM   23  C19 UNL     1     -29.442   8.134 -18.318  1.00  0.00     0.005 C 
HETATM   24  C20 UNL     1     -29.433   9.621 -17.999  1.00  0.00     0.000 C 
HETATM   25  C21 UNL     1     -29.469   9.735 -16.497  1.00  0.00     0.000 C 
HETATM   26  C22 UNL     1     -28.810   8.433 -16.060  1.00  0.00     0.005 C 
ENDBRANCH  21  22
ENDBRANCH  16  21
ENDBRANCH  13  14
ENDBRANCH  10  13
ENDBRANCH   6   9
BRANCH   1  27
HETATM   27  N2  UNL     1     -27.025  -0.352  -7.425  1.00  0.00    -0.304 N 
HETATM   28  C4  UNL     1     -27.951  -1.003  -6.712  1.00  0.00     0.087 A 
HETATM   29  N1  UNL     1     -27.661  -0.790  -5.392  1.00  0.00    -0.336 N 
HETATM   30  C5  UNL     1     -26.577  -0.024  -5.270  1.00  0.00     0.132 A 
ATOM     31  H1  UNL     1     -28.199  -1.165  -4.610  1.00  0.00     0.168 HD
HETATM   32 BR1  UNL     1     -25.796   0.538  -3.619  1.00  0.00    -0.026 Br
HETATM   33  C6  UNL     1     -26.167   0.258  -6.550  1.00  0.00     0.179 A 
BRANCH  28  34
HETATM   34  C3  UNL     1     -29.057  -1.781  -7.265  1.00  0.00     0.076 C 
BRANCH  34  35
HETATM   35  C2  UNL     1     -28.817  -3.254  -6.875  1.00  0.00     0.003 C 
HETATM   36  C1  UNL     1     -29.083  -4.078  -8.114  1.00  0.00     0.005 C 
ENDBRANCH  34  35
ENDBRANCH  28  34
BRANCH  33  37
HETATM   37  O1  UNL     1     -25.058   1.041  -6.821  1.00  0.00    -0.344 OA
ATOM     38  H1  UNL     1     -25.124   1.906  -7.208  1.00  0.00     0.219 HD
ENDBRANCH  33  37
ENDBRANCH   1  27
TORSDOF 9
ENDMDL
MODEL 3
REMARK VINA RESULT: -8.562056402      4.511      9.808
REMARK  9 active torsions:
REMARK  status: ('A' for Active; 'I' for Inactive)
REMARK    1  A    between atoms: C2_2  and  C3_3 
REMARK    2  A    between atoms: C3_3  and  C4_4 
REMARK    3  A    between atoms: C6_9  and  O1_10 
REMARK    4  A    between atoms: N2_12  and  C7_13 
REMARK    5  A    between atoms: C12_18  and  N3_19 
REMARK       I    between atoms: N3_19  and  C13_21 
REMARK    6  A    between atoms: C13_21  and  C14_23 
REMARK    7  A    between atoms: C14_23  and  N4_24 
REMARK    8  A    between atoms: C16_26  and  C17_27 
REMARK    9  A    between atoms: C17_27  and  C18_28 
ROOT
HETATM    1  C7  UNL     1     -27.042   0.120  -8.774  1.00  0.00     0.046 C 
HETATM    2  C8  UNL     1     -27.071  -1.310  -9.354  1.00  0.00     0.032 C 
HETATM    3  C9  UNL     1     -26.246  -1.222 -10.627  1.00  0.00     0.009 C 
HETATM    4  C10 UNL     1     -25.950   0.248 -10.749  1.00  0.00     0.011 C 
HETATM    5  C11 UNL     1     -25.724   0.577  -9.253  1.00  0.00     0.038 C 
HETATM    6  C12 UNL     1     -27.240   0.981 -10.992  1.00  0.00     0.094 C 
HETATM    7  C23 UNL     1     -27.983   0.905  -9.671  1.00  0.00     0.033 C 
HETATM    8  C24 UNL     1     -28.292   2.265  -9.106  1.00  0.00     0.014 C 
ENDROOT
BRANCH   6   9
HETATM    9  N3  UNL     1     -26.969   2.324 -11.405  1.00  0.00    -0.354 N 
HETATM   10  C13 UNL     1     -27.183   2.732 -12.751  1.00  0.00     0.237 C 
HETATM   11  O2  UNL     1     -27.614   1.906 -13.586  1.00  0.00    -0.272 OA
ATOM     12  H3  UNL     1     -26.617   2.998 -10.725  1.00  0.00     0.162 HD
BRANCH  10  13
HETATM   13  C14 UNL     1     -26.903   4.122 -13.176  1.00  0.00     0.252 C 
BRANCH  13  14
HETATM   14  N4  UNL     1     -27.923   4.571 -14.102  1.00  0.00    -0.278 N 
HETATM   15  C15 UNL     1     -27.706   5.165 -15.262  1.00  0.00     0.138 A 
HETATM   16  C16 UNL     1     -28.945   5.427 -15.830  1.00  0.00     0.044 A 
HETATM   17  N5  UNL     1     -29.864   4.962 -14.958  1.00  0.00    -0.289 N 
HETATM   18  N6  UNL     1     -29.220   4.451 -13.925  1.00  0.00    -0.240 N 
ATOM     19  H5  UNL     1     -30.876   4.999 -15.076  1.00  0.00     0.188 HD
ATOM     20  H6  UNL     1     -29.663   4.026 -13.110  1.00  0.00     0.208 HD
BRANCH  16  21
HETATM   21  C17 UNL     1     -29.145   6.096 -17.132  1.00  0.00     0.064 C 
BRANCH  21  22
HETATM   22  C18 UNL     1     -29.653   7.487 -17.036  1.00  0.00    -0.009 C 
HETATM   23  C19 UNL     1     -29.522   8.235 -18.328  1.00  0.00     0.005 C 
HETATM   24  C20 UNL     1     -29.345   9.694 -17.940  1.00  0.00     0.000 C 
HETATM   25  C21 UNL     1     -29.394   9.746 -16.435  1.00  0.00     0.000 C 
HETATM   26  C22 UNL     1     -28.899   8.357 -16.050  1.00  0.00     0.005 C 
ENDBRANCH  21  22
ENDBRANCH  16  21
ENDBRANCH  13  14
ENDBRANCH  10  13
ENDBRANCH   6   9
BRANCH   1  27
HETATM   27  N2  UNL     1     -27.330   0.154  -7.400  1.00  0.00    -0.304 N 
HETATM   28  C4  UNL     1     -26.574   0.432  -6.332  1.00  0.00     0.087 A 
HETATM   29  N1  UNL     1     -27.374   0.300  -5.230  1.00  0.00    -0.336 N 
HETATM   30  C5  UNL     1     -28.609  -0.052  -5.590  1.00  0.00     0.132 A 
ATOM     31  H1  UNL     1     -27.069   0.449  -4.268  1.00  0.00     0.168 HD
HETATM   32 BR1  UNL     1     -30.070  -0.353  -4.395  1.00  0.00    -0.026 Br
HETATM   33  C6  UNL     1     -28.591  -0.147  -6.961  1.00  0.00     0.179 A 
BRANCH  28  34
HETATM   34  C3  UNL     1     -25.160   0.799  -6.364  1.00  0.00     0.076 C 
BRANCH  34  35
HETATM   35  C2  UNL     1     -24.382  -0.322  -5.644  1.00  0.00     0.003 C 
HETATM   36  C1  UNL     1     -24.115  -1.394  -6.675  1.00  0.00     0.005 C 
ENDBRANCH  34  35
ENDBRANCH  28  34
BRANCH  33  37
HETATM   37  O1  UNL     1     -29.710  -0.496  -7.697  1.00  0.00    -0.344 OA
ATOM     38  H1  UNL     1     -29.691  -1.168  -8.368  1.00  0.00     0.219 HD
ENDBRANCH  33  37
ENDBRANCH   1  27
TORSDOF 9
ENDMDL
MODEL 4
REMARK VINA RESULT: -8.542409793      2.990      4.054
REMARK  9 active torsions:
REMARK  status: ('A' for Active; 'I' for Inactive)
REMARK    1  A    between atoms: C2_2  and  C3_3 
REMARK    2  A    between atoms: C3_3  and  C4_4 
REMARK    3  A    between atoms: C6_9  and  O1_10 
REMARK    4  A    between atoms: N2_12  and  C7_13 
REMARK    5  A    between atoms: C12_18  and  N3_19 
REMARK       I    between atoms: N3_19  and  C13_21 
REMARK    6  A    between atoms: C13_21  and  C14_23 
REMARK    7  A    between atoms: C14_23  and  N4_24 
REMARK    8  A    between atoms: C16_26  and  C17_27 
REMARK    9  A    between atoms: C17_27  and  C18_28 
ROOT
HETATM    1  C7  UNL     1     -26.402   8.027 -16.420  1.00  0.00     0.046 C 
HETATM    2  C8  UNL     1     -25.472   7.734 -17.616  1.00  0.00     0.032 C 
HETATM    3  C9  UNL     1     -25.741   6.279 -17.961  1.00  0.00     0.009 C 
HETATM    4  C10 UNL     1     -26.666   5.826 -16.865  1.00  0.00     0.011 C 
HETATM    5  C11 UNL     1     -27.519   7.111 -16.719  1.00  0.00     0.038 C 
HETATM    6  C12 UNL     1     -25.918   5.853 -15.561  1.00  0.00     0.094 C 
HETATM    7  C23 UNL     1     -25.736   7.327 -15.249  1.00  0.00     0.033 C 
HETATM    8  C24 UNL     1     -26.357   7.717 -13.935  1.00  0.00     0.014 C 
ENDROOT
BRANCH   6   9
HETATM    9  N3  UNL     1     -26.660   5.156 -14.557  1.00  0.00    -0.354 N 
HETATM   10  C13 UNL     1     -25.998   4.454 -13.512  1.00  0.00     0.237 C 
HETATM   11  O2  UNL     1     -24.746   4.445 -13.470  1.00  0.00    -0.272 OA
ATOM     12  H3  UNL     1     -27.680   5.162 -14.590  1.00  0.00     0.162 HD
BRANCH  10  13
HETATM   13  C14 UNL     1     -26.768   3.734 -12.473  1.00  0.00     0.252 C 
BRANCH  13  14
HETATM   14  N4  UNL     1     -26.984   2.360 -12.882  1.00  0.00    -0.278 N 
HETATM   15  C15 UNL     1     -26.134   1.363 -12.719  1.00  0.00     0.138 A 
HETATM   16  C16 UNL     1     -26.727   0.224 -13.247  1.00  0.00     0.044 A 
HETATM   17  N5  UNL     1     -27.934   0.609 -13.709  1.00  0.00    -0.289 N 
HETATM   18  N6  UNL     1     -28.064   1.902 -13.476  1.00  0.00    -0.240 N 
ATOM     19  H5  UNL     1     -28.625   0.008 -14.159  1.00  0.00     0.188 HD
ATOM     20  H6  UNL     1     -28.880   2.463 -13.721  1.00  0.00     0.208 HD
BRANCH  16  21
HETATM   21  C17 UNL     1     -26.098  -1.112 -13.274  1.00  0.00     0.064 C 
BRANCH  21  22
HETATM   22  C18 UNL     1     -25.849  -1.647 -14.635  1.00  0.00    -0.009 C 
HETATM   23  C19 UNL     1     -25.282  -3.034 -14.612  1.00  0.00     0.005 C 
HETATM   24  C20 UNL     1     -24.425  -3.147 -15.863  1.00  0.00     0.000 C 
HETATM   25  C21 UNL     1     -24.537  -1.826 -16.579  1.00  0.00     0.000 C 
HETATM   26  C22 UNL     1     -24.827  -0.864 -15.434  1.00  0.00     0.005 C 
ENDBRANCH  21  22
ENDBRANCH  16  21
ENDBRANCH  13  14
ENDBRANCH  10  13
ENDBRANCH   6   9
BRANCH   1  27
HETATM   27  N2  UNL     1     -26.657   9.398 -16.254  1.00  0.00    -0.304 N 
HETATM   28  C4  UNL     1     -27.785  10.080 -16.024  1.00  0.00     0.087 A 
HETATM   29  N1  UNL     1     -27.447  11.404 -15.963  1.00  0.00    -0.336 N 
HETATM   30  C5  UNL     1     -26.136  11.559 -16.147  1.00  0.00     0.132 A 
ATOM     31  H1  UNL     1     -28.106  12.165 -15.799  1.00  0.00     0.168 HD
HETATM   32 BR1  UNL     1     -25.206  13.229 -16.146  1.00  0.00    -0.026 Br
HETATM   33  C6  UNL     1     -25.627  10.296 -16.332  1.00  0.00     0.179 A 
BRANCH  28  34
HETATM   34  C3  UNL     1     -29.116   9.494 -15.878  1.00  0.00     0.076 C 
BRANCH  34  35
HETATM   35  C2  UNL     1     -29.961   9.979 -17.075  1.00  0.00     0.003 C 
HETATM   36  C1  UNL     1     -29.382   9.322 -18.307  1.00  0.00     0.005 C 
ENDBRANCH  34  35
ENDBRANCH  28  34
BRANCH  33  37
HETATM   37  O1  UNL     1     -24.281  10.062 -16.555  1.00  0.00    -0.344 OA
ATOM     38  H1  UNL     1     -23.868  10.216 -17.397  1.00  0.00     0.219 HD
ENDBRANCH  33  37
ENDBRANCH   1  27
TORSDOF 9
ENDMDL
MODEL 5
REMARK VINA RESULT: -8.416695378      1.511      1.784
REMARK  9 active torsions:
REMARK  status: ('A' for Active; 'I' for Inactive)
REMARK    1  A    between atoms: C2_2  and  C3_3 
REMARK    2  A    between atoms: C3_3  and  C4_4 
REMARK    3  A    between atoms: C6_9  and  O1_10 
REMARK    4  A    between atoms: N2_12  and  C7_13 
REMARK    5  A    between atoms: C12_18  and  N3_19 
REMARK       I    between atoms: N3_19  and  C13_21 
REMARK    6  A    between atoms: C13_21  and  C14_23 
REMARK    7  A    between atoms: C14_23  and  N4_24 
REMARK    8  A    between atoms: C16_26  and  C17_27 
REMARK    9  A    between atoms: C17_27  and  C18_28 
ROOT
HETATM    1  C7  UNL     1     -27.070   6.417 -14.729  1.00  0.00     0.046 C 
HETATM    2  C8  UNL     1     -26.497   7.491 -13.781  1.00  0.00     0.032 C 
HETATM    3  C9  UNL     1     -25.783   6.700 -12.696  1.00  0.00     0.009 C 
HETATM    4  C10 UNL     1     -26.130   5.273 -13.020  1.00  0.00     0.011 C 
HETATM    5  C11 UNL     1     -26.064   5.351 -14.565  1.00  0.00     0.038 C 
HETATM    6  C12 UNL     1     -27.608   5.080 -12.826  1.00  0.00     0.094 C 
HETATM    7  C23 UNL     1     -28.253   5.842 -13.969  1.00  0.00     0.033 C 
HETATM    8  C24 UNL     1     -29.103   4.958 -14.841  1.00  0.00     0.014 C 
ENDROOT
BRANCH   6   9
HETATM    9  N3  UNL     1     -27.924   3.685 -12.834  1.00  0.00    -0.354 N 
HETATM   10  C13 UNL     1     -28.086   2.963 -11.619  1.00  0.00     0.237 C 
HETATM   11  O2  UNL     1     -27.949   3.557 -10.525  1.00  0.00    -0.272 OA
ATOM     12  H3  UNL     1     -28.035   3.200 -13.725  1.00  0.00     0.162 HD
BRANCH  10  13
HETATM   13  C14 UNL     1     -28.414   1.520 -11.630  1.00  0.00     0.252 C 
BRANCH  13  14
HETATM   14  N4  UNL     1     -27.282   0.760 -12.120  1.00  0.00    -0.278 N 
HETATM   15  C15 UNL     1     -27.341  -0.418 -12.714  1.00  0.00     0.138 A 
HETATM   16  C16 UNL     1     -26.039  -0.791 -13.022  1.00  0.00     0.044 A 
HETATM   17  N5  UNL     1     -25.248   0.210 -12.585  1.00  0.00    -0.289 N 
HETATM   18  N6  UNL     1     -26.023   1.133 -12.045  1.00  0.00    -0.240 N 
ATOM     19  H5  UNL     1     -24.232   0.249 -12.659  1.00  0.00     0.188 HD
ATOM     20  H6  UNL     1     -25.695   2.006 -11.632  1.00  0.00     0.208 HD
BRANCH  16  21
HETATM   21  C17 UNL     1     -25.666  -2.056 -13.687  1.00  0.00     0.064 C 
BRANCH  21  22
HETATM   22  C18 UNL     1     -25.483  -1.947 -15.156  1.00  0.00    -0.009 C 
HETATM   23  C19 UNL     1     -26.772  -2.096 -15.906  1.00  0.00     0.005 C 
HETATM   24  C20 UNL     1     -26.395  -2.698 -17.251  1.00  0.00     0.000 C 
HETATM   25  C21 UNL     1     -24.898  -2.863 -17.241  1.00  0.00     0.000 C 
HETATM   26  C22 UNL     1     -24.602  -3.024 -15.755  1.00  0.00     0.005 C 
ENDBRANCH  21  22
ENDBRANCH  16  21
ENDBRANCH  13  14
ENDBRANCH  10  13
ENDBRANCH   6   9
BRANCH   1  27
HETATM   27  N2  UNL     1     -27.347   6.918 -16.011  1.00  0.00    -0.304 N 
HETATM   28  C4  UNL     1     -26.923   6.554 -17.227  1.00  0.00     0.087 A 
HETATM   29  N1  UNL     1     -27.509   7.404 -18.125  1.00  0.00    -0.336 N 
HETATM   30  C5  UNL     1     -28.287   8.283 -17.495  1.00  0.00     0.132 A 
ATOM     31  H1  UNL     1     -27.369   7.369 -19.135  1.00  0.00     0.168 HD
HETATM   32 BR1  UNL     1     -29.307   9.664 -18.336  1.00  0.00    -0.026 Br
HETATM   33  C6  UNL     1     -28.192   7.984 -16.158  1.00  0.00     0.179 A 
BRANCH  28  34
HETATM   34  C3  UNL     1     -26.001   5.457 -17.512  1.00  0.00     0.076 C 
BRANCH  34  35
HETATM   35  C2  UNL     1     -25.340   5.760 -18.873  1.00  0.00     0.003 C 
HETATM   36  C1  UNL     1     -23.940   5.193 -18.809  1.00  0.00     0.005 C 
ENDBRANCH  34  35
ENDBRANCH  28  34
BRANCH  33  37
HETATM   37  O1  UNL     1     -28.873   8.697 -15.185  1.00  0.00    -0.344 OA
ATOM     38  H1  UNL     1     -29.459   9.414 -15.394  1.00  0.00     0.219 HD
ENDBRANCH  33  37
ENDBRANCH   1  27
TORSDOF 9
ENDMDL
