MODEL 1
REMARK VINA RESULT: -9.521155635      0.000      0.000
REMARK  8 active torsions:
REMARK  status: ('A' for Active; 'I' for Inactive)
REMARK    1  A    between atoms: C3_5  and  S1_6 
REMARK    2  A    between atoms: S1_6  and  C4_7 
REMARK    3  A    between atoms: C4_7  and  C5_8 
REMARK    4  A    between atoms: C6_9  and  O1_10 
REMARK    5  A    between atoms: O1_10  and  C7_11 
REMARK    6  A    between atoms: C7_11  and  C8_12 
REMARK    7  A    between atoms: C22_33  and  C23_34 
REMARK    8  A    between atoms: C23_34  and  C24_35 
ROOT
HETATM    1  C5  UNL     1     -26.086  10.365 -16.085  1.00  0.00     0.036 C 
HETATM    2  C6  UNL     1     -25.326   9.590 -17.191  1.00  0.00     0.153 C 
HETATM    3  C14 UNL     1     -23.882   9.879 -17.261  1.00  0.00     0.264 C 
HETATM    4  N2  UNL     1     -23.568  11.296 -17.237  1.00  0.00    -0.072 N 
ATOM      5  H21 UNL     1     -22.944  11.562 -17.999  1.00  0.00     0.277 HD
ATOM      6  H22 UNL     1     -22.960  11.540 -16.455  1.00  0.00     0.277 HD
HETATM    7  C15 UNL     1     -24.792  12.075 -17.239  1.00  0.00     0.242 C 
HETATM    8  C16 UNL     1     -25.456  11.714 -15.900  1.00  0.00    -0.007 C 
HETATM    9  C17 UNL     1     -24.407  11.796 -14.832  1.00  0.00     0.014 C 
HETATM   10  C18 UNL     1     -24.069  13.299 -14.922  1.00  0.00     0.038 C 
HETATM   11  C19 UNL     1     -25.349  13.971 -15.292  1.00  0.00     0.171 C 
HETATM   12  F1  UNL     1     -25.751  14.717 -14.176  1.00  0.00    -0.249 F 
HETATM   13  C20 UNL     1     -26.359  12.841 -15.566  1.00  0.00     0.049 C 
ENDROOT
BRANCH   1  14
HETATM   14  C4  UNL     1     -26.042   9.483 -14.892  1.00  0.00     0.090 C 
BRANCH  14  15
HETATM   15  S1  UNL     1     -27.538   8.742 -14.317  1.00  0.00    -0.093 SA
BRANCH  15  16
HETATM   16  C3  UNL     1     -27.486   6.985 -14.078  1.00  0.00     0.147 A 
HETATM   17  N1  UNL     1     -26.352   6.319 -13.810  1.00  0.00    -0.340 N 
HETATM   18  C2  UNL     1     -26.341   4.959 -13.637  1.00  0.00     0.019 A 
ATOM     19  H1  UNL     1     -25.477   6.837 -13.733  1.00  0.00     0.167 HD
HETATM   20  C1  UNL     1     -25.038   4.275 -13.368  1.00  0.00     0.069 C 
HETATM   21  C22 UNL     1     -27.479   4.212 -13.725  1.00  0.00     0.036 A 
HETATM   22  C21 UNL     1     -28.652   4.936 -14.007  1.00  0.00     0.255 A 
HETATM   23  N3  UNL     1     -28.598   6.263 -14.166  1.00  0.00    -0.303 N 
HETATM   24  O2  UNL     1     -29.746   4.314 -14.107  1.00  0.00    -0.268 OA
ATOM     25  H3  UNL     1     -29.469   6.753 -14.370  1.00  0.00     0.171 HD
BRANCH  21  26
HETATM   26  C23 UNL     1     -27.559   2.760 -13.542  1.00  0.00     0.087 C 
BRANCH  26  27
HETATM   27  C24 UNL     1     -27.441   2.259 -12.170  1.00  0.00    -0.023 A 
HETATM   28  C25 UNL     1     -26.631   1.194 -11.870  1.00  0.00     0.097 A 
HETATM   29  N4  UNL     1     -26.501   0.725 -10.641  1.00  0.00    -0.362 N 
HETATM   30  C26 UNL     1     -27.181   1.303  -9.637  1.00  0.00     0.180 A 
ATOM     31  H4  UNL     1     -25.888  -0.070 -10.457  1.00  0.00     0.166 HD
HETATM   32  N5  UNL     1     -27.984   2.349  -9.902  1.00  0.00    -0.362 N 
HETATM   33  C27 UNL     1     -28.137   2.849 -11.138  1.00  0.00     0.097 A 
ATOM     34  H5  UNL     1     -28.497   2.780  -9.133  1.00  0.00     0.166 HD
ENDBRANCH  26  27
ENDBRANCH  21  26
ENDBRANCH  15  16
ENDBRANCH  14  15
ENDBRANCH   1  14
BRANCH   2  35
HETATM   35  O1  UNL     1     -25.542   8.230 -17.025  1.00  0.00    -0.379 OA
BRANCH  35  36
HETATM   36  C7  UNL     1     -26.072   7.608 -18.139  1.00  0.00     0.206 C 
BRANCH  36  37
HETATM   37  C8  UNL     1     -27.509   7.346 -17.900  1.00  0.00    -0.035 A 
HETATM   38  C9  UNL     1     -27.950   6.058 -17.720  1.00  0.00     0.009 A 
HETATM   39  C10 UNL     1     -29.303   5.789 -17.493  1.00  0.00     0.001 A 
HETATM   40  C11 UNL     1     -30.208   6.821 -17.447  1.00  0.00     0.000 A 
HETATM   41  C12 UNL     1     -29.777   8.118 -17.627  1.00  0.00     0.001 A 
HETATM   42  C13 UNL     1     -28.433   8.362 -17.851  1.00  0.00     0.009 A 
ENDBRANCH  36  37
ENDBRANCH  35  36
ENDBRANCH   2  35
TORSDOF 8
ENDMDL
MODEL 2
REMARK VINA RESULT: -9.401655726      0.874      1.378
REMARK  8 active torsions:
REMARK  status: ('A' for Active; 'I' for Inactive)
REMARK    1  A    between atoms: C3_5  and  S1_6 
REMARK    2  A    between atoms: S1_6  and  C4_7 
REMARK    3  A    between atoms: C4_7  and  C5_8 
REMARK    4  A    between atoms: C6_9  and  O1_10 
REMARK    5  A    between atoms: O1_10  and  C7_11 
REMARK    6  A    between atoms: C7_11  and  C8_12 
REMARK    7  A    between atoms: C22_33  and  C23_34 
REMARK    8  A    between atoms: C23_34  and  C24_35 
ROOT
HETATM    1  C5  UNL     1     -26.107  10.448 -16.064  1.00  0.00     0.036 C 
HETATM    2  C6  UNL     1     -25.380   9.643 -17.171  1.00  0.00     0.153 C 
HETATM    3  C14 UNL     1     -23.933   9.911 -17.275  1.00  0.00     0.264 C 
HETATM    4  N2  UNL     1     -23.600  11.323 -17.283  1.00  0.00    -0.072 N 
ATOM      5  H21 UNL     1     -22.988  11.567 -18.062  1.00  0.00     0.277 HD
ATOM      6  H22 UNL     1     -22.973  11.572 -16.518  1.00  0.00     0.277 HD
HETATM    7  C15 UNL     1     -24.812  12.119 -17.275  1.00  0.00     0.242 C 
HETATM    8  C16 UNL     1     -25.455  11.792 -15.917  1.00  0.00    -0.007 C 
HETATM    9  C17 UNL     1     -24.383  11.877 -14.871  1.00  0.00     0.014 C 
HETATM   10  C18 UNL     1     -24.026  13.374 -14.995  1.00  0.00     0.038 C 
HETATM   11  C19 UNL     1     -25.304  14.057 -15.351  1.00  0.00     0.171 C 
HETATM   12  F1  UNL     1     -25.674  14.829 -14.242  1.00  0.00    -0.249 F 
HETATM   13  C20 UNL     1     -26.335  12.937 -15.584  1.00  0.00     0.049 C 
ENDROOT
BRANCH   1  14
HETATM   14  C4  UNL     1     -26.051   9.587 -14.857  1.00  0.00     0.090 C 
BRANCH  14  15
HETATM   15  S1  UNL     1     -27.532   8.818 -14.282  1.00  0.00    -0.093 SA
BRANCH  15  16
HETATM   16  C3  UNL     1     -27.451   7.060 -14.057  1.00  0.00     0.147 A 
HETATM   17  N1  UNL     1     -28.494   6.247 -14.284  1.00  0.00    -0.340 N 
HETATM   18  C2  UNL     1     -28.404   4.892 -14.095  1.00  0.00     0.019 A 
ATOM     19  H1  UNL     1     -29.375   6.647 -14.605  1.00  0.00     0.167 HD
HETATM   20  C1  UNL     1     -29.614   4.046 -14.339  1.00  0.00     0.069 C 
HETATM   21  C22 UNL     1     -27.251   4.299 -13.669  1.00  0.00     0.036 A 
HETATM   22  C21 UNL     1     -26.175   5.174 -13.439  1.00  0.00     0.255 A 
HETATM   23  N3  UNL     1     -26.325   6.489 -13.641  1.00  0.00    -0.303 N 
HETATM   24  O2  UNL     1     -25.075   4.701 -13.040  1.00  0.00    -0.268 OA
ATOM     25  H3  UNL     1     -25.522   7.092 -13.464  1.00  0.00     0.171 HD
BRANCH  21  26
HETATM   26  C23 UNL     1     -27.065   2.862 -13.453  1.00  0.00     0.087 C 
BRANCH  26  27
HETATM   27  C24 UNL     1     -27.082   2.394 -12.064  1.00  0.00    -0.023 A 
HETATM   28  C25 UNL     1     -26.057   1.638 -11.557  1.00  0.00     0.097 A 
HETATM   29  N4  UNL     1     -26.042   1.208 -10.307  1.00  0.00    -0.362 N 
HETATM   30  C26 UNL     1     -27.063   1.515  -9.490  1.00  0.00     0.180 A 
ATOM     31  H4  UNL     1     -25.261   0.648  -9.966  1.00  0.00     0.166 HD
HETATM   32  N5  UNL     1     -28.084   2.255  -9.962  1.00  0.00    -0.362 N 
HETATM   33  C27 UNL     1     -28.128   2.706 -11.224  1.00  0.00     0.097 A 
ATOM     34  H5  UNL     1     -28.856   2.481  -9.334  1.00  0.00     0.166 HD
ENDBRANCH  26  27
ENDBRANCH  21  26
ENDBRANCH  15  16
ENDBRANCH  14  15
ENDBRANCH   1  14
BRANCH   2  35
HETATM   35  O1  UNL     1     -25.611   8.289 -16.976  1.00  0.00    -0.379 OA
BRANCH  35  36
HETATM   36  C7  UNL     1     -26.110   7.642 -18.090  1.00  0.00     0.206 C 
BRANCH  36  37
HETATM   37  C8  UNL     1     -27.549   7.368 -17.877  1.00  0.00    -0.035 A 
HETATM   38  C9  UNL     1     -28.000   6.072 -17.830  1.00  0.00     0.009 A 
HETATM   39  C10 UNL     1     -29.355   5.792 -17.629  1.00  0.00     0.001 A 
HETATM   40  C11 UNL     1     -30.251   6.821 -17.476  1.00  0.00     0.000 A 
HETATM   41  C12 UNL     1     -29.811   8.126 -17.522  1.00  0.00     0.001 A 
HETATM   42  C13 UNL     1     -28.464   8.381 -17.721  1.00  0.00     0.009 A 
ENDBRANCH  36  37
ENDBRANCH  35  36
ENDBRANCH   2  35
TORSDOF 8
ENDMDL
MODEL 3
REMARK VINA RESULT: -9.352205330      3.017      5.682
REMARK  8 active torsions:
REMARK  status: ('A' for Active; 'I' for Inactive)
REMARK    1  A    between atoms: C3_5  and  S1_6 
REMARK    2  A    between atoms: S1_6  and  C4_7 
REMARK    3  A    between atoms: C4_7  and  C5_8 
REMARK    4  A    between atoms: C6_9  and  O1_10 
REMARK    5  A    between atoms: O1_10  and  C7_11 
REMARK    6  A    between atoms: C7_11  and  C8_12 
REMARK    7  A    between atoms: C22_33  and  C23_34 
REMARK    8  A    between atoms: C23_34  and  C24_35 
ROOT
HETATM    1  C5  UNL     1     -27.476   7.961 -16.129  1.00  0.00     0.036 C 
HETATM    2  C6  UNL     1     -27.637   9.488 -15.916  1.00  0.00     0.153 C 
HETATM    3  C14 UNL     1     -29.022   9.981 -16.031  1.00  0.00     0.264 C 
HETATM    4  N2  UNL     1     -29.720   9.491 -17.206  1.00  0.00    -0.072 N 
ATOM      5  H21 UNL     1     -30.151  10.248 -17.738  1.00  0.00     0.277 HD
ATOM      6  H22 UNL     1     -30.569   8.980 -16.961  1.00  0.00     0.277 HD
HETATM    7  C15 UNL     1     -28.822   8.696 -18.022  1.00  0.00     0.242 C 
HETATM    8  C16 UNL     1     -28.491   7.489 -17.129  1.00  0.00    -0.007 C 
HETATM    9  C17 UNL     1     -29.778   6.980 -16.551  1.00  0.00     0.014 C 
HETATM   10  C18 UNL     1     -30.491   6.557 -17.853  1.00  0.00     0.038 C 
HETATM   11  C19 UNL     1     -29.406   6.087 -18.764  1.00  0.00     0.171 C 
HETATM   12  F1  UNL     1     -29.568   4.703 -18.906  1.00  0.00    -0.249 F 
HETATM   13  C20 UNL     1     -28.081   6.395 -18.042  1.00  0.00     0.049 C 
ENDROOT
BRANCH   1  14
HETATM   14  C4  UNL     1     -27.604   7.364 -14.776  1.00  0.00     0.090 C 
BRANCH  14  15
HETATM   15  S1  UNL     1     -26.149   6.817 -13.940  1.00  0.00    -0.093 SA
BRANCH  15  16
HETATM   16  C3  UNL     1     -26.190   5.151 -13.330  1.00  0.00     0.147 A 
HETATM   17  N1  UNL     1     -27.180   4.683 -12.554  1.00  0.00    -0.340 N 
HETATM   18  C2  UNL     1     -27.182   3.393 -12.092  1.00  0.00     0.019 A 
ATOM     19  H1  UNL     1     -27.950   5.303 -12.303  1.00  0.00     0.167 HD
HETATM   20  C1  UNL     1     -28.302   2.944 -11.207  1.00  0.00     0.069 C 
HETATM   21  C22 UNL     1     -26.182   2.517 -12.397  1.00  0.00     0.036 A 
HETATM   22  C21 UNL     1     -25.158   3.033 -13.211  1.00  0.00     0.255 A 
HETATM   23  N3  UNL     1     -25.212   4.303 -13.630  1.00  0.00    -0.303 N 
HETATM   24  O2  UNL     1     -24.195   2.284 -13.534  1.00  0.00    -0.268 OA
ATOM     25  H3  UNL     1     -24.452   4.642 -14.219  1.00  0.00     0.171 HD
BRANCH  21  26
HETATM   26  C23 UNL     1     -26.112   1.121 -11.956  1.00  0.00     0.087 C 
BRANCH  26  27
HETATM   27  C24 UNL     1     -26.541   0.101 -12.918  1.00  0.00    -0.023 A 
HETATM   28  C25 UNL     1     -25.690  -0.896 -13.322  1.00  0.00     0.097 A 
HETATM   29  N4  UNL     1     -26.051  -1.832 -14.182  1.00  0.00    -0.362 N 
HETATM   30  C26 UNL     1     -27.295  -1.820 -14.689  1.00  0.00     0.180 A 
ATOM     31  H4  UNL     1     -25.390  -2.558 -14.458  1.00  0.00     0.166 HD
HETATM   32  N5  UNL     1     -28.150  -0.853 -14.312  1.00  0.00    -0.362 N 
HETATM   33  C27 UNL     1     -27.815   0.110 -13.440  1.00  0.00     0.097 A 
ATOM     34  H5  UNL     1     -29.092  -0.852 -14.704  1.00  0.00     0.166 HD
ENDBRANCH  26  27
ENDBRANCH  21  26
ENDBRANCH  15  16
ENDBRANCH  14  15
ENDBRANCH   1  14
BRANCH   2  35
HETATM   35  O1  UNL     1     -27.098   9.835 -14.686  1.00  0.00    -0.379 OA
BRANCH  35  36
HETATM   36  C7  UNL     1     -25.730  10.025 -14.709  1.00  0.00     0.206 C 
BRANCH  36  37
HETATM   37  C8  UNL     1     -25.449  11.427 -15.089  1.00  0.00    -0.035 A 
HETATM   38  C9  UNL     1     -24.906  11.710 -16.318  1.00  0.00     0.009 A 
HETATM   39  C10 UNL     1     -24.634  13.028 -16.695  1.00  0.00     0.001 A 
HETATM   40  C11 UNL     1     -24.911  14.058 -15.831  1.00  0.00     0.000 A 
HETATM   41  C12 UNL     1     -25.455  13.788 -14.594  1.00  0.00     0.001 A 
HETATM   42  C13 UNL     1     -25.717  12.475 -14.241  1.00  0.00     0.009 A 
ENDBRANCH  36  37
ENDBRANCH  35  36
ENDBRANCH   2  35
TORSDOF 8
ENDMDL
MODEL 4
REMARK VINA RESULT: -9.293675440      1.826      2.402
REMARK  8 active torsions:
REMARK  status: ('A' for Active; 'I' for Inactive)
REMARK    1  A    between atoms: C3_5  and  S1_6 
REMARK    2  A    between atoms: S1_6  and  C4_7 
REMARK    3  A    between atoms: C4_7  and  C5_8 
REMARK    4  A    between atoms: C6_9  and  O1_10 
REMARK    5  A    between atoms: O1_10  and  C7_11 
REMARK    6  A    between atoms: C7_11  and  C8_12 
REMARK    7  A    between atoms: C22_33  and  C23_34 
REMARK    8  A    between atoms: C23_34  and  C24_35 
ROOT
HETATM    1  C5  UNL     1     -26.089   9.770 -15.725  1.00  0.00     0.036 C 
HETATM    2  C6  UNL     1     -25.504   9.225 -17.053  1.00  0.00     0.153 C 
HETATM    3  C14 UNL     1     -24.114   9.636 -17.325  1.00  0.00     0.264 C 
HETATM    4  N2  UNL     1     -23.876  11.055 -17.135  1.00  0.00    -0.072 N 
ATOM      5  H21 UNL     1     -23.417  11.477 -17.942  1.00  0.00     0.277 HD
ATOM      6  H22 UNL     1     -23.149  11.231 -16.441  1.00  0.00     0.277 HD
HETATM    7  C15 UNL     1     -25.119  11.726 -16.804  1.00  0.00     0.242 C 
HETATM    8  C16 UNL     1     -25.508  11.124 -15.444  1.00  0.00    -0.007 C 
HETATM    9  C17 UNL     1     -24.287  11.134 -14.573  1.00  0.00     0.014 C 
HETATM   10  C18 UNL     1     -24.051  12.657 -14.484  1.00  0.00     0.038 C 
HETATM   11  C19 UNL     1     -25.411  13.271 -14.518  1.00  0.00     0.171 C 
HETATM   12  F1  UNL     1     -25.642  13.814 -13.247  1.00  0.00    -0.249 F 
HETATM   13  C20 UNL     1     -26.393  12.115 -14.787  1.00  0.00     0.049 C 
ENDROOT
BRANCH   1  14
HETATM   14  C4  UNL     1     -25.781   8.731 -14.710  1.00  0.00     0.090 C 
BRANCH  14  15
HETATM   15  S1  UNL     1     -27.095   7.742 -14.070  1.00  0.00    -0.093 SA
BRANCH  15  16
HETATM   16  C3  UNL     1     -26.644   6.109 -13.541  1.00  0.00     0.147 A 
HETATM   17  N1  UNL     1     -27.401   5.377 -12.710  1.00  0.00    -0.340 N 
HETATM   18  C2  UNL     1     -27.023   4.120 -12.313  1.00  0.00     0.019 A 
ATOM     19  H1  UNL     1     -28.279   5.764 -12.366  1.00  0.00     0.167 HD
HETATM   20  C1  UNL     1     -27.900   3.369 -11.362  1.00  0.00     0.069 C 
HETATM   21  C22 UNL     1     -25.862   3.548 -12.742  1.00  0.00     0.036 A 
HETATM   22  C21 UNL     1     -25.088   4.337 -13.611  1.00  0.00     0.255 A 
HETATM   23  N3  UNL     1     -25.510   5.558 -13.962  1.00  0.00    -0.303 N 
HETATM   24  O2  UNL     1     -23.997   3.878 -14.049  1.00  0.00    -0.268 OA
ATOM     25  H3  UNL     1     -24.923   6.101 -14.594  1.00  0.00     0.171 HD
BRANCH  21  26
HETATM   26  C23 UNL     1     -25.389   2.209 -12.377  1.00  0.00     0.087 C 
BRANCH  26  27
HETATM   27  C24 UNL     1     -25.713   1.119 -13.301  1.00  0.00    -0.023 A 
HETATM   28  C25 UNL     1     -24.726   0.412 -13.939  1.00  0.00     0.097 A 
HETATM   29  N4  UNL     1     -24.989  -0.580 -14.772  1.00  0.00    -0.362 N 
HETATM   30  C26 UNL     1     -26.266  -0.921 -15.013  1.00  0.00     0.180 A 
ATOM     31  H4  UNL     1     -24.227  -1.083 -15.228  1.00  0.00     0.166 HD
HETATM   32  N5  UNL     1     -27.254  -0.244 -14.402  1.00  0.00    -0.362 N 
HETATM   33  C27 UNL     1     -27.021   0.767 -13.551  1.00  0.00     0.097 A 
ATOM     34  H5  UNL     1     -28.221  -0.510 -14.593  1.00  0.00     0.166 HD
ENDBRANCH  26  27
ENDBRANCH  21  26
ENDBRANCH  15  16
ENDBRANCH  14  15
ENDBRANCH   1  14
BRANCH   2  35
HETATM   35  O1  UNL     1     -25.613   7.843 -17.066  1.00  0.00    -0.379 OA
BRANCH  35  36
HETATM   36  C7  UNL     1     -26.335   7.350 -18.137  1.00  0.00     0.206 C 
BRANCH  36  37
HETATM   37  C8  UNL     1     -27.729   7.111 -17.702  1.00  0.00    -0.035 A 
HETATM   38  C9  UNL     1     -28.072   5.913 -17.125  1.00  0.00     0.009 A 
HETATM   39  C10 UNL     1     -29.384   5.668 -16.707  1.00  0.00     0.001 A 
HETATM   40  C11 UNL     1     -30.346   6.633 -16.872  1.00  0.00     0.000 A 
HETATM   41  C12 UNL     1     -30.015   7.840 -17.450  1.00  0.00     0.001 A 
HETATM   42  C13 UNL     1     -28.710   8.061 -17.856  1.00  0.00     0.009 A 
ENDBRANCH  36  37
ENDBRANCH  35  36
ENDBRANCH   2  35
TORSDOF 8
ENDMDL
MODEL 5
REMARK VINA RESULT: -9.263388493      2.942      5.495
REMARK  8 active torsions:
REMARK  status: ('A' for Active; 'I' for Inactive)
REMARK    1  A    between atoms: C3_5  and  S1_6 
REMARK    2  A    between atoms: S1_6  and  C4_7 
REMARK    3  A    between atoms: C4_7  and  C5_8 
REMARK    4  A    between atoms: C6_9  and  O1_10 
REMARK    5  A    between atoms: O1_10  and  C7_11 
REMARK    6  A    between atoms: C7_11  and  C8_12 
REMARK    7  A    between atoms: C22_33  and  C23_34 
REMARK    8  A    between atoms: C23_34  and  C24_35 
ROOT
HETATM    1  C5  UNL     1     -26.249   7.661 -16.038  1.00  0.00     0.036 C 
HETATM    2  C6  UNL     1     -25.923   8.860 -16.964  1.00  0.00     0.153 C 
HETATM    3  C14 UNL     1     -27.098   9.641 -17.393  1.00  0.00     0.264 C 
HETATM    4  N2  UNL     1     -28.196   8.826 -17.879  1.00  0.00    -0.072 N 
ATOM      5  H21 UNL     1     -28.533   9.140 -18.789  1.00  0.00     0.277 HD
ATOM      6  H22 UNL     1     -29.051   8.978 -17.344  1.00  0.00     0.277 HD
HETATM    7  C15 UNL     1     -27.806   7.428 -17.897  1.00  0.00     0.242 C 
HETATM    8  C16 UNL     1     -27.586   7.092 -16.413  1.00  0.00    -0.007 C 
HETATM    9  C17 UNL     1     -28.755   7.631 -15.643  1.00  0.00     0.014 C 
HETATM   10  C18 UNL     1     -29.883   6.782 -16.267  1.00  0.00     0.038 C 
HETATM   11  C19 UNL     1     -29.258   5.464 -16.582  1.00  0.00     0.171 C 
HETATM   12  F1  UNL     1     -29.823   4.528 -15.706  1.00  0.00    -0.249 F 
HETATM   13  C20 UNL     1     -27.755   5.624 -16.288  1.00  0.00     0.049 C 
ENDROOT
BRANCH   1  14
HETATM   14  C4  UNL     1     -26.160   8.200 -14.658  1.00  0.00     0.090 C 
BRANCH  14  15
HETATM   15  S1  UNL     1     -27.009   7.365 -13.355  1.00  0.00    -0.093 SA
BRANCH  15  16
HETATM   16  C3  UNL     1     -26.544   5.673 -13.092  1.00  0.00     0.147 A 
HETATM   17  N1  UNL     1     -27.281   4.820 -12.364  1.00  0.00    -0.340 N 
HETATM   18  C2  UNL     1     -26.893   3.519 -12.172  1.00  0.00     0.019 A 
ATOM     19  H1  UNL     1     -28.150   5.147 -11.944  1.00  0.00     0.167 HD
HETATM   20  C1  UNL     1     -27.747   2.628 -11.325  1.00  0.00     0.069 C 
HETATM   21  C22 UNL     1     -25.742   3.023 -12.710  1.00  0.00     0.036 A 
HETATM   22  C21 UNL     1     -24.990   3.939 -13.468  1.00  0.00     0.255 A 
HETATM   23  N3  UNL     1     -25.421   5.197 -13.618  1.00  0.00    -0.303 N 
HETATM   24  O2  UNL     1     -23.909   3.556 -13.996  1.00  0.00    -0.268 OA
ATOM     25  H3  UNL     1     -24.849   5.832 -14.174  1.00  0.00     0.171 HD
BRANCH  21  26
HETATM   26  C23 UNL     1     -25.260   1.647 -12.565  1.00  0.00     0.087 C 
BRANCH  26  27
HETATM   27  C24 UNL     1     -25.670   0.690 -13.597  1.00  0.00    -0.023 A 
HETATM   28  C25 UNL     1     -24.756   0.141 -14.459  1.00  0.00     0.097 A 
HETATM   29  N4  UNL     1     -25.097  -0.729 -15.394  1.00  0.00    -0.362 N 
HETATM   30  C26 UNL     1     -26.382  -1.100 -15.517  1.00  0.00     0.180 A 
ATOM     31  H4  UNL     1     -24.388  -1.117 -16.018  1.00  0.00     0.166 HD
HETATM   32  N5  UNL     1     -27.300  -0.576 -14.685  1.00  0.00    -0.362 N 
HETATM   33  C27 UNL     1     -26.987   0.308 -13.725  1.00  0.00     0.097 A 
ATOM     34  H5  UNL     1     -28.274  -0.862 -14.787  1.00  0.00     0.166 HD
ENDBRANCH  26  27
ENDBRANCH  21  26
ENDBRANCH  15  16
ENDBRANCH  14  15
ENDBRANCH   1  14
BRANCH   2  35
HETATM   35  O1  UNL     1     -24.996   9.680 -16.338  1.00  0.00    -0.379 OA
BRANCH  35  36
HETATM   36  C7  UNL     1     -24.820  10.901 -16.962  1.00  0.00     0.206 C 
BRANCH  36  37
HETATM   37  C8  UNL     1     -25.019  11.977 -15.966  1.00  0.00    -0.035 A 
HETATM   38  C9  UNL     1     -24.730  11.751 -14.644  1.00  0.00     0.009 A 
HETATM   39  C10 UNL     1     -24.911  12.755 -13.688  1.00  0.00     0.001 A 
HETATM   40  C11 UNL     1     -25.383  13.986 -14.069  1.00  0.00     0.000 A 
HETATM   41  C12 UNL     1     -25.678  14.226 -15.394  1.00  0.00     0.001 A 
HETATM   42  C13 UNL     1     -25.491  13.217 -16.324  1.00  0.00     0.009 A 
ENDBRANCH  36  37
ENDBRANCH  35  36
ENDBRANCH   2  35
TORSDOF 8
ENDMDL
