MODEL 1
REMARK VINA RESULT: -7.125970053      0.000      0.000
REMARK  6 active torsions:
REMARK  status: ('A' for Active; 'I' for Inactive)
REMARK    1  A    between atoms: C5_8  and  C6_9 
REMARK    2  A    between atoms: N3_10  and  N4_12 
REMARK    3  A    between atoms: N4_12  and  C7_14 
REMARK    4  A    between atoms: C8_17  and  N6_18 
REMARK    5  A    between atoms: C9_23  and  O1_24 
REMARK    6  A    between atoms: O1_24  and  C10_25 
ROOT
HETATM    1  C7  UNL     1      19.469 -36.611  -6.742  1.00  0.00     0.161 A 
HETATM    2  N5  UNL     1      20.500 -37.377  -7.141  1.00  0.00    -0.174 N 
ATOM      3  H5  UNL     1      20.440 -38.394  -7.089  1.00  0.00     0.186 HD
HETATM    4  C8  UNL     1      21.611 -36.779  -7.610  1.00  0.00     0.679 A 
HETATM    5  N7  UNL     1      21.733 -35.442  -7.697  1.00  0.00    -0.169 N 
ATOM      6  H7  UNL     1      22.597 -35.038  -8.060  1.00  0.00     0.186 HD
HETATM    7  C9  UNL     1      20.735 -34.633  -7.312  1.00  0.00     0.188 A 
HETATM    8  C16 UNL     1      19.580 -35.242  -6.825  1.00  0.00     0.131 A 
HETATM    9 CL2  UNL     1      18.264 -34.240  -6.317  1.00  0.00    -0.076 Cl
ENDROOT
BRANCH   1  10
HETATM   10  N4  UNL     1      18.417 -37.204  -6.297  1.00  0.00    -0.284 N 
ATOM     11  H4  UNL     1      18.209 -37.153  -5.300  1.00  0.00     0.188 HD
BRANCH  10  12
HETATM   12  N3  UNL     1      17.559 -37.906  -7.120  1.00  0.00    -0.309 N 
HETATM   13  C6  UNL     1      17.013 -37.265  -8.117  1.00  0.00     0.122 C 
ATOM     14  H3  UNL     1      17.359 -38.893  -6.955  1.00  0.00     0.186 HD
BRANCH  13  15
HETATM   15  C5  UNL     1      16.112 -37.999  -8.984  1.00  0.00     0.021 A 
HETATM   16  C2  UNL     1      15.897 -37.718 -10.318  1.00  0.00     0.035 A 
HETATM   17  C1  UNL     1      16.559 -36.612 -11.086  1.00  0.00     0.070 C 
HETATM   18  N1  UNL     1      15.004 -38.615 -10.755  1.00  0.00    -0.303 N 
HETATM   19  N2  UNL     1      14.658 -39.436  -9.752  1.00  0.00    -0.307 N 
ATOM     20  H1  UNL     1      14.641 -38.666 -11.707  1.00  0.00     0.186 HD
HETATM   21  C3  UNL     1      13.715 -40.540  -9.820  1.00  0.00     0.177 C 
HETATM   22  C4  UNL     1      15.318 -39.089  -8.645  1.00  0.00     0.124 A 
ENDBRANCH  13  15
ENDBRANCH  10  12
ENDBRANCH   1  10
BRANCH   4  23
HETATM   23  N6  UNL     1      22.590 -37.537  -7.988  1.00  0.00    -0.234 N 
ATOM     24  H62 UNL     1      22.397 -38.485  -8.313  1.00  0.00     0.174 HD
ATOM     25  H61 UNL     1      23.533 -37.152  -7.945  1.00  0.00     0.174 HD
ENDBRANCH   4  23
BRANCH   7  26
HETATM   26  O1  UNL     1      20.885 -33.259  -7.411  1.00  0.00    -0.292 OA
BRANCH  26  27
HETATM   27  C10 UNL     1      20.550 -32.548  -8.549  1.00  0.00     0.078 A 
HETATM   28  C11 UNL     1      21.103 -31.306  -8.737  1.00  0.00     0.039 A 
HETATM   29  C12 UNL     1      20.783 -30.566  -9.875  1.00  0.00     0.026 A 
HETATM   30  C13 UNL     1      19.922 -31.034 -10.834  1.00  0.00     0.034 A 
HETATM   31 CL1  UNL     1      19.521 -30.092 -12.273  1.00  0.00    -0.084 Cl
HETATM   32  C14 UNL     1      19.367 -32.291 -10.638  1.00  0.00     0.026 A 
HETATM   33  C15 UNL     1      19.685 -33.023  -9.510  1.00  0.00     0.039 A 
ENDBRANCH  26  27
ENDBRANCH   7  26
TORSDOF 6
ENDMDL
MODEL 2
REMARK VINA RESULT: -7.055844269      1.053      1.194
REMARK  6 active torsions:
REMARK  status: ('A' for Active; 'I' for Inactive)
REMARK    1  A    between atoms: C5_8  and  C6_9 
REMARK    2  A    between atoms: N3_10  and  N4_12 
REMARK    3  A    between atoms: N4_12  and  C7_14 
REMARK    4  A    between atoms: C8_17  and  N6_18 
REMARK    5  A    between atoms: C9_23  and  O1_24 
REMARK    6  A    between atoms: O1_24  and  C10_25 
ROOT
HETATM    1  C7  UNL     1      19.197 -36.066  -6.189  1.00  0.00     0.161 A 
HETATM    2  N5  UNL     1      20.025 -37.057  -6.563  1.00  0.00    -0.174 N 
ATOM      3  H5  UNL     1      19.803 -38.028  -6.345  1.00  0.00     0.186 HD
HETATM    4  C8  UNL     1      21.152 -36.745  -7.231  1.00  0.00     0.679 A 
HETATM    5  N7  UNL     1      21.485 -35.479  -7.541  1.00  0.00    -0.169 N 
ATOM      6  H7  UNL     1      22.351 -35.296  -8.048  1.00  0.00     0.186 HD
HETATM    7  C9  UNL     1      20.694 -34.454  -7.191  1.00  0.00     0.188 A 
HETATM    8  C16 UNL     1      19.525 -34.765  -6.499  1.00  0.00     0.131 A 
HETATM    9 CL2  UNL     1      18.471 -33.477  -6.027  1.00  0.00    -0.076 Cl
ENDROOT
BRANCH   1  10
HETATM   10  N4  UNL     1      18.125 -36.386  -5.552  1.00  0.00    -0.284 N 
ATOM     11  H4  UNL     1      17.945 -35.955  -4.645  1.00  0.00     0.188 HD
BRANCH  10  12
HETATM   12  N3  UNL     1      17.210 -37.292  -6.051  1.00  0.00    -0.309 N 
HETATM   13  C6  UNL     1      16.450 -36.906  -7.039  1.00  0.00     0.122 C 
ATOM     14  H3  UNL     1      17.132 -38.231  -5.661  1.00  0.00     0.186 HD
BRANCH  13  15
HETATM   15  C5  UNL     1      15.489 -37.854  -7.565  1.00  0.00     0.021 A 
HETATM   16  C2  UNL     1      15.502 -38.360  -8.849  1.00  0.00     0.035 A 
HETATM   17  C1  UNL     1      16.510 -38.014  -9.905  1.00  0.00     0.070 C 
HETATM   18  N1  UNL     1      14.458 -39.195  -8.938  1.00  0.00    -0.303 N 
HETATM   19  N2  UNL     1      13.802 -39.227  -7.769  1.00  0.00    -0.307 N 
ATOM     20  H1  UNL     1      14.201 -39.726  -9.770  1.00  0.00     0.186 HD
HETATM   21  C3  UNL     1      12.617 -40.009  -7.459  1.00  0.00     0.177 C 
HETATM   22  C4  UNL     1      14.405 -38.415  -6.898  1.00  0.00     0.124 A 
ENDBRANCH  13  15
ENDBRANCH  10  12
ENDBRANCH   1  10
BRANCH   4  23
HETATM   23  N6  UNL     1      21.934 -37.716  -7.581  1.00  0.00    -0.234 N 
ATOM     24  H62 UNL     1      21.610 -38.680  -7.495  1.00  0.00     0.174 HD
ATOM     25  H61 UNL     1      22.860 -37.477  -7.934  1.00  0.00     0.174 HD
ENDBRANCH   4  23
BRANCH   7  26
HETATM   26  O1  UNL     1      21.058 -33.158  -7.521  1.00  0.00    -0.292 OA
BRANCH  26  27
HETATM   27  C10 UNL     1      20.617 -32.525  -8.668  1.00  0.00     0.078 A 
HETATM   28  C11 UNL     1      21.114 -31.280  -8.967  1.00  0.00     0.039 A 
HETATM   29  C12 UNL     1      20.687 -30.617 -10.117  1.00  0.00     0.026 A 
HETATM   30  C13 UNL     1      19.774 -31.165 -10.981  1.00  0.00     0.034 A 
HETATM   31 CL1  UNL     1      19.237 -30.320 -12.436  1.00  0.00    -0.084 Cl
HETATM   32  C14 UNL     1      19.276 -32.423 -10.673  1.00  0.00     0.026 A 
HETATM   33  C15 UNL     1      19.700 -33.079  -9.533  1.00  0.00     0.039 A 
ENDBRANCH  26  27
ENDBRANCH   7  26
TORSDOF 6
ENDMDL
MODEL 3
REMARK VINA RESULT: -6.830310319      0.893      1.828
REMARK  6 active torsions:
REMARK  status: ('A' for Active; 'I' for Inactive)
REMARK    1  A    between atoms: C5_8  and  C6_9 
REMARK    2  A    between atoms: N3_10  and  N4_12 
REMARK    3  A    between atoms: N4_12  and  C7_14 
REMARK    4  A    between atoms: C8_17  and  N6_18 
REMARK    5  A    between atoms: C9_23  and  O1_24 
REMARK    6  A    between atoms: O1_24  and  C10_25 
ROOT
HETATM    1  C7  UNL     1      19.799 -36.514  -6.587  1.00  0.00     0.161 A 
HETATM    2  N5  UNL     1      20.774 -37.267  -7.125  1.00  0.00    -0.174 N 
ATOM      3  H5  UNL     1      20.750 -38.283  -7.042  1.00  0.00     0.186 HD
HETATM    4  C8  UNL     1      21.783 -36.655  -7.776  1.00  0.00     0.679 A 
HETATM    5  N7  UNL     1      21.855 -35.319  -7.910  1.00  0.00    -0.169 N 
ATOM      6  H7  UNL     1      22.640 -34.906  -8.412  1.00  0.00     0.186 HD
HETATM    7  C9  UNL     1      20.908 -34.523  -7.391  1.00  0.00     0.188 A 
HETATM    8  C16 UNL     1      19.859 -35.145  -6.716  1.00  0.00     0.131 A 
HETATM    9 CL2  UNL     1      18.612 -34.160  -6.030  1.00  0.00    -0.076 Cl
ENDROOT
BRANCH   1  10
HETATM   10  N4  UNL     1      18.845 -37.118  -5.969  1.00  0.00    -0.284 N 
ATOM     11  H4  UNL     1      18.772 -37.015  -4.957  1.00  0.00     0.188 HD
BRANCH  10  12
HETATM   12  N3  UNL     1      17.916 -37.901  -6.626  1.00  0.00    -0.309 N 
HETATM   13  C6  UNL     1      16.883 -37.303  -7.155  1.00  0.00     0.122 C 
ATOM     14  H3  UNL     1      18.034 -38.912  -6.697  1.00  0.00     0.186 HD
BRANCH  13  15
HETATM   15  C5  UNL     1      15.907 -38.121  -7.846  1.00  0.00     0.021 A 
HETATM   16  C2  UNL     1      14.904 -38.842  -7.229  1.00  0.00     0.035 A 
HETATM   17  C1  UNL     1      14.662 -38.896  -5.749  1.00  0.00     0.070 C 
HETATM   18  N1  UNL     1      14.224 -39.457  -8.206  1.00  0.00    -0.303 N 
HETATM   19  N2  UNL     1      14.761 -39.148  -9.396  1.00  0.00    -0.307 N 
ATOM     20  H1  UNL     1      13.420 -40.068  -8.066  1.00  0.00     0.186 HD
HETATM   21  C3  UNL     1      14.312 -39.614 -10.697  1.00  0.00     0.177 C 
HETATM   22  C4  UNL     1      15.798 -38.329  -9.217  1.00  0.00     0.124 A 
ENDBRANCH  13  15
ENDBRANCH  10  12
ENDBRANCH   1  10
BRANCH   4  23
HETATM   23  N6  UNL     1      22.710 -37.401  -8.285  1.00  0.00    -0.234 N 
ATOM     24  H62 UNL     1      22.636 -37.705  -9.256  1.00  0.00     0.174 HD
ATOM     25  H61 UNL     1      23.492 -37.662  -7.686  1.00  0.00     0.174 HD
ENDBRANCH   4  23
BRANCH   7  26
HETATM   26  O1  UNL     1      21.004 -33.148  -7.542  1.00  0.00    -0.292 OA
BRANCH  26  27
HETATM   27  C10 UNL     1      20.592 -32.490  -8.686  1.00  0.00     0.078 A 
HETATM   28  C11 UNL     1      19.674 -33.101  -9.505  1.00  0.00     0.039 A 
HETATM   29  C12 UNL     1      19.241 -32.461 -10.665  1.00  0.00     0.026 A 
HETATM   30  C13 UNL     1      19.701 -31.222 -11.033  1.00  0.00     0.034 A 
HETATM   31 CL1  UNL     1      19.147 -30.418 -12.505  1.00  0.00    -0.084 Cl
HETATM   32  C14 UNL     1      20.627 -30.610 -10.202  1.00  0.00     0.026 A 
HETATM   33  C15 UNL     1      21.056 -31.246  -9.052  1.00  0.00     0.039 A 
ENDBRANCH  26  27
ENDBRANCH   7  26
TORSDOF 6
ENDMDL
MODEL 4
REMARK VINA RESULT: -6.682548032      1.267      2.126
REMARK  6 active torsions:
REMARK  status: ('A' for Active; 'I' for Inactive)
REMARK    1  A    between atoms: C5_8  and  C6_9 
REMARK    2  A    between atoms: N3_10  and  N4_12 
REMARK    3  A    between atoms: N4_12  and  C7_14 
REMARK    4  A    between atoms: C8_17  and  N6_18 
REMARK    5  A    between atoms: C9_23  and  O1_24 
REMARK    6  A    between atoms: O1_24  and  C10_25 
ROOT
HETATM    1  C7  UNL     1      18.593 -36.480  -6.713  1.00  0.00     0.161 A 
HETATM    2  N5  UNL     1      19.445 -37.452  -7.082  1.00  0.00    -0.174 N 
ATOM      3  H5  UNL     1      19.157 -38.430  -7.060  1.00  0.00     0.186 HD
HETATM    4  C8  UNL     1      20.686 -37.112  -7.481  1.00  0.00     0.679 A 
HETATM    5  N7  UNL     1      21.108 -35.835  -7.527  1.00  0.00    -0.169 N 
ATOM      6  H7  UNL     1      22.058 -35.631  -7.837  1.00  0.00     0.186 HD
HETATM    7  C9  UNL     1      20.298 -34.828  -7.170  1.00  0.00     0.188 A 
HETATM    8  C16 UNL     1      19.012 -35.169  -6.755  1.00  0.00     0.131 A 
HETATM    9 CL2  UNL     1      17.928 -33.904  -6.285  1.00  0.00    -0.076 Cl
ENDROOT
BRANCH   1  10
HETATM   10  N4  UNL     1      17.412 -36.827  -6.335  1.00  0.00    -0.284 N 
ATOM     11  H4  UNL     1      17.160 -36.719  -5.352  1.00  0.00     0.188 HD
BRANCH  10  12
HETATM   12  N3  UNL     1      16.475 -37.339  -7.210  1.00  0.00    -0.309 N 
HETATM   13  C6  UNL     1      15.677 -38.272  -6.768  1.00  0.00     0.122 C 
ATOM     14  H3  UNL     1      16.409 -36.999  -8.170  1.00  0.00     0.186 HD
BRANCH  13  15
HETATM   15  C5  UNL     1      14.692 -38.812  -7.684  1.00  0.00     0.021 A 
HETATM   16  C2  UNL     1      13.400 -39.154  -7.340  1.00  0.00     0.035 A 
HETATM   17  C1  UNL     1      12.806 -39.023  -5.968  1.00  0.00     0.070 C 
HETATM   18  N1  UNL     1      12.819 -39.610  -8.458  1.00  0.00    -0.303 N 
HETATM   19  N2  UNL     1      13.693 -39.564  -9.475  1.00  0.00    -0.307 N 
ATOM     20  H1  UNL     1      11.857 -39.941  -8.526  1.00  0.00     0.186 HD
HETATM   21  C3  UNL     1      13.448 -39.970 -10.848  1.00  0.00     0.177 C 
HETATM   22  C4  UNL     1      14.857 -39.079  -9.039  1.00  0.00     0.124 A 
ENDBRANCH  13  15
ENDBRANCH  10  12
ENDBRANCH   1  10
BRANCH   4  23
HETATM   23  N6  UNL     1      21.488 -38.065  -7.832  1.00  0.00    -0.234 N 
ATOM     24  H62 UNL     1      22.208 -38.383  -7.182  1.00  0.00     0.174 HD
ATOM     25  H61 UNL     1      21.369 -38.469  -8.760  1.00  0.00     0.174 HD
ENDBRANCH   4  23
BRANCH   7  26
HETATM   26  O1  UNL     1      20.756 -33.521  -7.225  1.00  0.00    -0.292 OA
BRANCH  26  27
HETATM   27  C10 UNL     1      20.540 -32.697  -8.314  1.00  0.00     0.078 A 
HETATM   28  C11 UNL     1      19.734 -33.145  -9.331  1.00  0.00     0.039 A 
HETATM   29  C12 UNL     1      19.499 -32.336 -10.442  1.00  0.00     0.026 A 
HETATM   30  C13 UNL     1      20.049 -31.086 -10.566  1.00  0.00     0.034 A 
HETATM   31 CL1  UNL     1      19.747 -30.067 -11.976  1.00  0.00    -0.084 Cl
HETATM   32  C14 UNL     1      20.862 -30.639  -9.535  1.00  0.00     0.026 A 
HETATM   33  C15 UNL     1      21.095 -31.442  -8.435  1.00  0.00     0.039 A 
ENDBRANCH  26  27
ENDBRANCH   7  26
TORSDOF 6
ENDMDL
MODEL 5
REMARK VINA RESULT: -6.539732696      1.802      2.353
REMARK  6 active torsions:
REMARK  status: ('A' for Active; 'I' for Inactive)
REMARK    1  A    between atoms: C5_8  and  C6_9 
REMARK    2  A    between atoms: N3_10  and  N4_12 
REMARK    3  A    between atoms: N4_12  and  C7_14 
REMARK    4  A    between atoms: C8_17  and  N6_18 
REMARK    5  A    between atoms: C9_23  and  O1_24 
REMARK    6  A    between atoms: O1_24  and  C10_25 
ROOT
HETATM    1  C7  UNL     1      19.073 -36.085  -6.302  1.00  0.00     0.161 A 
HETATM    2  N5  UNL     1      19.894 -37.075  -6.693  1.00  0.00    -0.174 N 
ATOM      3  H5  UNL     1      19.656 -38.050  -6.508  1.00  0.00     0.186 HD
HETATM    4  C8  UNL     1      21.037 -36.758  -7.331  1.00  0.00     0.679 A 
HETATM    5  N7  UNL     1      21.391 -35.488  -7.595  1.00  0.00    -0.169 N 
ATOM      6  H7  UNL     1      22.268 -35.301  -8.082  1.00  0.00     0.186 HD
HETATM    7  C9  UNL     1      20.608 -34.463  -7.227  1.00  0.00     0.188 A 
HETATM    8  C16 UNL     1      19.422 -34.780  -6.566  1.00  0.00     0.131 A 
HETATM    9 CL2  UNL     1      18.377 -33.493  -6.071  1.00  0.00    -0.076 Cl
ENDROOT
BRANCH   1  10
HETATM   10  N4  UNL     1      17.986 -36.411  -5.694  1.00  0.00    -0.284 N 
ATOM     11  H4  UNL     1      17.558 -35.738  -5.057  1.00  0.00     0.188 HD
BRANCH  10  12
HETATM   12  N3  UNL     1      17.377 -37.637  -5.871  1.00  0.00    -0.309 N 
HETATM   13  C6  UNL     1      16.073 -37.666  -5.925  1.00  0.00     0.122 C 
ATOM     14  H3  UNL     1      17.927 -38.492  -5.957  1.00  0.00     0.186 HD
BRANCH  13  15
HETATM   15  C5  UNL     1      15.431 -38.952  -6.111  1.00  0.00     0.021 A 
HETATM   16  C2  UNL     1      15.015 -39.457  -7.327  1.00  0.00     0.035 A 
HETATM   17  C1  UNL     1      15.160 -38.761  -8.648  1.00  0.00     0.070 C 
HETATM   18  N1  UNL     1      14.476 -40.657  -7.073  1.00  0.00    -0.303 N 
HETATM   19  N2  UNL     1      14.540 -40.915  -5.759  1.00  0.00    -0.307 N 
ATOM     20  H1  UNL     1      14.077 -41.280  -7.775  1.00  0.00     0.186 HD
HETATM   21  C3  UNL     1      14.062 -42.111  -5.085  1.00  0.00     0.177 C 
HETATM   22  C4  UNL     1      15.121 -39.890  -5.132  1.00  0.00     0.124 A 
ENDBRANCH  13  15
ENDBRANCH  10  12
ENDBRANCH   1  10
BRANCH   4  23
HETATM   23  N6  UNL     1      21.811 -37.729  -7.697  1.00  0.00    -0.234 N 
ATOM     24  H62 UNL     1      21.404 -38.586  -8.070  1.00  0.00     0.174 HD
ATOM     25  H61 UNL     1      22.818 -37.597  -7.596  1.00  0.00     0.174 HD
ENDBRANCH   4  23
BRANCH   7  26
HETATM   26  O1  UNL     1      20.994 -33.163  -7.510  1.00  0.00    -0.292 OA
BRANCH  26  27
HETATM   27  C10 UNL     1      20.599 -32.496  -8.655  1.00  0.00     0.078 A 
HETATM   28  C11 UNL     1      19.675 -33.091  -9.478  1.00  0.00     0.039 A 
HETATM   29  C12 UNL     1      19.258 -32.442 -10.640  1.00  0.00     0.026 A 
HETATM   30  C13 UNL     1      19.741 -31.211 -11.004  1.00  0.00     0.034 A 
HETATM   31 CL1  UNL     1      19.208 -30.395 -12.478  1.00  0.00    -0.084 Cl
HETATM   32  C14 UNL     1      20.673 -30.616 -10.167  1.00  0.00     0.026 A 
HETATM   33  C15 UNL     1      21.085 -31.259  -9.016  1.00  0.00     0.039 A 
ENDBRANCH  26  27
ENDBRANCH   7  26
TORSDOF 6
ENDMDL
