MODEL 1
REMARK VINA RESULT: -6.960246274      0.000      0.000
REMARK  7 active torsions:
REMARK  status: ('A' for Active; 'I' for Inactive)
REMARK    1  A    between atoms: O1_1  and  C1_3 
REMARK    2  A    between atoms: C3_6  and  N1_7 
REMARK    3  A    between atoms: N1_7  and  C4_9 
REMARK    4  A    between atoms: C4_9  and  O2_10 
REMARK    5  A    between atoms: C4_9  and  C5_12 
REMARK    6  A    between atoms: N2_14  and  C7_15 
REMARK    7  A    between atoms: C7_15  and  C8_16 
ROOT
HETATM    1  C5  UNL     1      19.940 -33.112  -9.254  1.00  0.00     0.026 A 
HETATM    2  C6  UNL     1      19.049 -33.953  -9.892  1.00  0.00     0.105 A 
HETATM    3  N2  UNL     1      18.577 -33.338 -11.014  1.00  0.00    -0.340 N 
HETATM    4  C12 UNL     1      19.131 -32.127 -11.126  1.00  0.00     0.124 A 
HETATM    5 CL1  UNL     1      18.878 -30.916 -12.375  1.00  0.00    -0.063 Cl
HETATM    6  C13 UNL     1      19.975 -31.972 -10.047  1.00  0.00     0.061 A 
HETATM    7 BR1  UNL     1      21.042 -30.444  -9.667  1.00  0.00    -0.047 Br
ENDROOT
BRANCH   1   8
HETATM    8  C4  UNL     1      20.709 -33.351  -7.992  1.00  0.00     0.257 C 
BRANCH   8   9
HETATM    9  N1  UNL     1      20.216 -34.554  -7.410  1.00  0.00    -0.340 N 
ATOM     10  H1  UNL     1      19.340 -34.510  -6.889  1.00  0.00     0.164 HD
BRANCH   9  11
HETATM   11  C3  UNL     1      20.816 -35.706  -7.501  1.00  0.00     0.148 A 
HETATM   12  S1  UNL     1      20.458 -36.942  -8.615  1.00  0.00    -0.062 SA
HETATM   13  C2  UNL     1      21.630 -38.083  -8.117  1.00  0.00     0.109 A 
HETATM   14  C1  UNL     1      22.241 -37.418  -7.090  1.00  0.00     0.148 A 
HETATM   15  N3  UNL     1      21.821 -36.223  -6.794  1.00  0.00    -0.317 N 
ATOM     16  H3  UNL     1      22.251 -35.694  -6.036  1.00  0.00     0.170 HD
BRANCH  14  17
HETATM   17  O1  UNL     1      23.308 -38.050  -6.391  1.00  0.00    -0.346 OA
ATOM     18  H1  UNL     1      23.108 -38.617  -5.655  1.00  0.00     0.219 HD
ENDBRANCH  14  17
ENDBRANCH   9  11
ENDBRANCH   8   9
BRANCH   8  19
HETATM   19  O2  UNL     1      22.057 -33.523  -8.289  1.00  0.00    -0.372 OA
ATOM     20  H2  UNL     1      22.426 -32.679  -8.520  1.00  0.00     0.212 HD
ENDBRANCH   8  19
ENDBRANCH   1   8
BRANCH   3  21
HETATM   21  C7  UNL     1      17.616 -33.889 -11.966  1.00  0.00     0.194 C 
BRANCH  21  22
HETATM   22  C8  UNL     1      17.590 -35.375 -11.912  1.00  0.00     0.070 A 
HETATM   23  C9  UNL     1      16.612 -36.193 -11.387  1.00  0.00     0.036 A 
HETATM   24  C10 UNL     1      17.015 -37.485 -11.558  1.00  0.00     0.027 A 
HETATM   25  C11 UNL     1      18.242 -37.418 -12.192  1.00  0.00     0.142 A 
HETATM   26  O3  UNL     1      18.525 -36.171 -12.371  1.00  0.00    -0.325 OA
ENDBRANCH  21  22
ENDBRANCH   3  21
TORSDOF 7
ENDMDL
MODEL 2
REMARK VINA RESULT: -6.875835353      1.038      1.170
REMARK  7 active torsions:
REMARK  status: ('A' for Active; 'I' for Inactive)
REMARK    1  A    between atoms: O1_1  and  C1_3 
REMARK    2  A    between atoms: C3_6  and  N1_7 
REMARK    3  A    between atoms: N1_7  and  C4_9 
REMARK    4  A    between atoms: C4_9  and  O2_10 
REMARK    5  A    between atoms: C4_9  and  C5_12 
REMARK    6  A    between atoms: N2_14  and  C7_15 
REMARK    7  A    between atoms: C7_15  and  C8_16 
ROOT
HETATM    1  C5  UNL     1      19.958 -33.123  -9.344  1.00  0.00     0.026 A 
HETATM    2  C6  UNL     1      19.089 -34.011  -9.947  1.00  0.00     0.105 A 
HETATM    3  N2  UNL     1      18.556 -33.432 -11.060  1.00  0.00    -0.340 N 
HETATM    4  C12 UNL     1      19.049 -32.198 -11.200  1.00  0.00     0.124 A 
HETATM    5 CL1  UNL     1      18.704 -31.014 -12.453  1.00  0.00    -0.063 Cl
HETATM    6  C13 UNL     1      19.915 -31.991 -10.148  1.00  0.00     0.061 A 
HETATM    7 BR1  UNL     1      20.920 -30.411  -9.815  1.00  0.00    -0.047 Br
ENDROOT
BRANCH   1   8
HETATM    8  C4  UNL     1      20.773 -33.311  -8.103  1.00  0.00     0.257 C 
BRANCH   8   9
HETATM    9  N1  UNL     1      20.589 -34.655  -7.667  1.00  0.00    -0.340 N 
ATOM     10  H1  UNL     1      19.672 -34.920  -7.306  1.00  0.00     0.164 HD
BRANCH   9  11
HETATM   11  C3  UNL     1      21.519 -35.566  -7.701  1.00  0.00     0.148 A 
HETATM   12  S1  UNL     1      21.387 -37.115  -8.393  1.00  0.00    -0.062 SA
HETATM   13  C2  UNL     1      22.961 -37.685  -8.047  1.00  0.00     0.109 A 
HETATM   14  C1  UNL     1      23.505 -36.612  -7.398  1.00  0.00     0.148 A 
HETATM   15  N3  UNL     1      22.767 -35.553  -7.233  1.00  0.00    -0.317 N 
ATOM     16  H3  UNL     1      23.136 -34.732  -6.755  1.00  0.00     0.170 HD
BRANCH  14  17
HETATM   17  O1  UNL     1      24.848 -36.689  -6.933  1.00  0.00    -0.346 OA
ATOM     18  H1  UNL     1      25.209 -35.964  -6.436  1.00  0.00     0.219 HD
ENDBRANCH  14  17
ENDBRANCH   9  11
ENDBRANCH   8   9
BRANCH   8  19
HETATM   19  O2  UNL     1      22.120 -33.121  -8.393  1.00  0.00    -0.372 OA
ATOM     20  H2  UNL     1      22.233 -33.155  -9.335  1.00  0.00     0.212 HD
ENDBRANCH   8  19
ENDBRANCH   1   8
BRANCH   3  21
HETATM   21  C7  UNL     1      17.595 -34.038 -11.978  1.00  0.00     0.194 C 
BRANCH  21  22
HETATM   22  C8  UNL     1      17.112 -35.350 -11.469  1.00  0.00     0.070 A 
HETATM   23  C9  UNL     1      16.902 -36.515 -12.176  1.00  0.00     0.036 A 
HETATM   24  C10 UNL     1      16.458 -37.459 -11.299  1.00  0.00     0.027 A 
HETATM   25  C11 UNL     1      16.410 -36.838 -10.064  1.00  0.00     0.142 A 
HETATM   26  O3  UNL     1      16.800 -35.616 -10.224  1.00  0.00    -0.325 OA
ENDBRANCH  21  22
ENDBRANCH   3  21
TORSDOF 7
ENDMDL
MODEL 3
REMARK VINA RESULT: -6.759787043      2.070      2.265
REMARK  7 active torsions:
REMARK  status: ('A' for Active; 'I' for Inactive)
REMARK    1  A    between atoms: O1_1  and  C1_3 
REMARK    2  A    between atoms: C3_6  and  N1_7 
REMARK    3  A    between atoms: N1_7  and  C4_9 
REMARK    4  A    between atoms: C4_9  and  O2_10 
REMARK    5  A    between atoms: C4_9  and  C5_12 
REMARK    6  A    between atoms: N2_14  and  C7_15 
REMARK    7  A    between atoms: C7_15  and  C8_16 
ROOT
HETATM    1  C5  UNL     1      20.096 -32.915  -9.279  1.00  0.00     0.026 A 
HETATM    2  C6  UNL     1      19.237 -33.857  -9.809  1.00  0.00     0.105 A 
HETATM    3  N2  UNL     1      18.661 -33.354 -10.939  1.00  0.00    -0.340 N 
HETATM    4  C12 UNL     1      19.117 -32.118 -11.159  1.00  0.00     0.124 A 
HETATM    5 CL1  UNL     1      18.711 -31.015 -12.466  1.00  0.00    -0.063 Cl
HETATM    6  C13 UNL     1      20.004 -31.831 -10.143  1.00  0.00     0.061 A 
HETATM    7 BR1  UNL     1      20.974 -30.210  -9.924  1.00  0.00    -0.047 Br
ENDROOT
BRANCH   1   8
HETATM    8  C4  UNL     1      20.946 -33.013  -8.051  1.00  0.00     0.257 C 
BRANCH   8   9
HETATM    9  N1  UNL     1      20.072 -33.092  -6.928  1.00  0.00    -0.340 N 
ATOM     10  H1  UNL     1      19.986 -32.271  -6.328  1.00  0.00     0.164 HD
BRANCH   9  11
HETATM   11  C3  UNL     1      19.375 -34.148  -6.621  1.00  0.00     0.148 A 
HETATM   12  S1  UNL     1      17.686 -34.216  -6.418  1.00  0.00    -0.062 SA
HETATM   13  C2  UNL     1      17.541 -35.878  -6.040  1.00  0.00     0.109 A 
HETATM   14  C1  UNL     1      18.844 -36.287  -6.095  1.00  0.00     0.148 A 
HETATM   15  N3  UNL     1      19.755 -35.405  -6.389  1.00  0.00    -0.317 N 
ATOM     16  H3  UNL     1      20.737 -35.670  -6.441  1.00  0.00     0.170 HD
BRANCH  14  17
HETATM   17  O1  UNL     1      19.156 -37.650  -5.833  1.00  0.00    -0.346 OA
ATOM     18  H1  UNL     1      20.066 -37.910  -5.748  1.00  0.00     0.219 HD
ENDBRANCH  14  17
ENDBRANCH   9  11
ENDBRANCH   8   9
BRANCH   8  19
HETATM   19  O2  UNL     1      21.709 -34.174  -8.100  1.00  0.00    -0.372 OA
ATOM     20  H2  UNL     1      22.258 -34.143  -8.874  1.00  0.00     0.212 HD
ENDBRANCH   8  19
ENDBRANCH   1   8
BRANCH   3  21
HETATM   21  C7  UNL     1      17.694 -34.034 -11.796  1.00  0.00     0.194 C 
BRANCH  21  22
HETATM   22  C8  UNL     1      17.181 -35.276 -11.157  1.00  0.00     0.070 A 
HETATM   23  C9  UNL     1      16.841 -36.468 -11.758  1.00  0.00     0.036 A 
HETATM   24  C10 UNL     1      16.419 -37.321 -10.782  1.00  0.00     0.027 A 
HETATM   25  C11 UNL     1      16.517 -36.617  -9.596  1.00  0.00     0.142 A 
HETATM   26  O3  UNL     1      16.963 -35.437  -9.874  1.00  0.00    -0.325 OA
ENDBRANCH  21  22
ENDBRANCH   3  21
TORSDOF 7
ENDMDL
MODEL 4
REMARK VINA RESULT: -6.743564943      2.932      4.177
REMARK  7 active torsions:
REMARK  status: ('A' for Active; 'I' for Inactive)
REMARK    1  A    between atoms: O1_1  and  C1_3 
REMARK    2  A    between atoms: C3_6  and  N1_7 
REMARK    3  A    between atoms: N1_7  and  C4_9 
REMARK    4  A    between atoms: C4_9  and  O2_10 
REMARK    5  A    between atoms: C4_9  and  C5_12 
REMARK    6  A    between atoms: N2_14  and  C7_15 
REMARK    7  A    between atoms: C7_15  and  C8_16 
ROOT
HETATM    1  C5  UNL     1      17.841 -35.029  -8.633  1.00  0.00     0.026 A 
HETATM    2  C6  UNL     1      18.183 -33.973  -9.455  1.00  0.00     0.105 A 
HETATM    3  N2  UNL     1      17.741 -34.227 -10.720  1.00  0.00    -0.340 N 
HETATM    4  C12 UNL     1      17.124 -35.413 -10.747  1.00  0.00     0.124 A 
HETATM    5 CL1  UNL     1      16.370 -36.227 -12.110  1.00  0.00    -0.063 Cl
HETATM    6  C13 UNL     1      17.178 -35.921  -9.466  1.00  0.00     0.061 A 
HETATM    7 BR1  UNL     1      16.463 -37.586  -8.888  1.00  0.00    -0.047 Br
ENDROOT
BRANCH   1   8
HETATM    8  C4  UNL     1      18.113 -35.200  -7.171  1.00  0.00     0.257 C 
BRANCH   8   9
HETATM    9  N1  UNL     1      19.401 -34.652  -6.906  1.00  0.00    -0.340 N 
ATOM     10  H1  UNL     1      19.450 -33.719  -6.494  1.00  0.00     0.164 HD
BRANCH   9  11
HETATM   11  C3  UNL     1      20.521 -35.268  -7.157  1.00  0.00     0.148 A 
HETATM   12  S1  UNL     1      21.691 -34.804  -8.302  1.00  0.00    -0.062 SA
HETATM   13  C2  UNL     1      22.816 -36.066  -8.044  1.00  0.00     0.109 A 
HETATM   14  C1  UNL     1      22.198 -36.788  -7.061  1.00  0.00     0.148 A 
HETATM   15  N3  UNL     1      21.044 -36.373  -6.625  1.00  0.00    -0.317 N 
ATOM     16  H3  UNL     1      20.552 -36.883  -5.893  1.00  0.00     0.170 HD
BRANCH  14  17
HETATM   17  O1  UNL     1      22.833 -37.956  -6.553  1.00  0.00    -0.346 OA
ATOM     18  H1  UNL     1      22.864 -38.095  -5.614  1.00  0.00     0.219 HD
ENDBRANCH  14  17
ENDBRANCH   9  11
ENDBRANCH   8   9
BRANCH   8  19
HETATM   19  O2  UNL     1      17.171 -34.491  -6.433  1.00  0.00    -0.372 OA
ATOM     20  H2  UNL     1      17.191 -33.583  -6.711  1.00  0.00     0.212 HD
ENDBRANCH   8  19
ENDBRANCH   1   8
BRANCH   3  21
HETATM   21  C7  UNL     1      17.899 -33.362 -11.885  1.00  0.00     0.194 C 
BRANCH  21  22
HETATM   22  C8  UNL     1      18.768 -32.194 -11.579  1.00  0.00     0.070 A 
HETATM   23  C9  UNL     1      18.803 -30.968 -12.207  1.00  0.00     0.036 A 
HETATM   24  C10 UNL     1      19.754 -30.210 -11.590  1.00  0.00     0.027 A 
HETATM   25  C11 UNL     1      20.279 -31.005 -10.587  1.00  0.00     0.142 A 
HETATM   26  O3  UNL     1      19.670 -32.144 -10.628  1.00  0.00    -0.325 OA
ENDBRANCH  21  22
ENDBRANCH   3  21
TORSDOF 7
ENDMDL
MODEL 5
REMARK VINA RESULT: -6.694988686      3.265      4.538
REMARK  7 active torsions:
REMARK  status: ('A' for Active; 'I' for Inactive)
REMARK    1  A    between atoms: O1_1  and  C1_3 
REMARK    2  A    between atoms: C3_6  and  N1_7 
REMARK    3  A    between atoms: N1_7  and  C4_9 
REMARK    4  A    between atoms: C4_9  and  O2_10 
REMARK    5  A    between atoms: C4_9  and  C5_12 
REMARK    6  A    between atoms: N2_14  and  C7_15 
REMARK    7  A    between atoms: C7_15  and  C8_16 
ROOT
HETATM    1  C5  UNL     1      21.106 -35.835  -7.546  1.00  0.00     0.026 A 
HETATM    2  C6  UNL     1      21.335 -34.839  -8.475  1.00  0.00     0.105 A 
HETATM    3  N2  UNL     1      20.506 -33.786  -8.219  1.00  0.00    -0.340 N 
HETATM    4  C12 UNL     1      19.747 -34.065  -7.155  1.00  0.00     0.124 A 
HETATM    5 CL1  UNL     1      18.514 -33.069  -6.395  1.00  0.00    -0.063 Cl
HETATM    6  C13 UNL     1      20.105 -35.327  -6.728  1.00  0.00     0.061 A 
HETATM    7 BR1  UNL     1      19.363 -36.263  -5.247  1.00  0.00    -0.047 Br
ENDROOT
BRANCH   1   8
HETATM    8  C4  UNL     1      21.771 -37.170  -7.425  1.00  0.00     0.257 C 
BRANCH   8   9
HETATM    9  N1  UNL     1      22.551 -37.370  -8.602  1.00  0.00    -0.340 N 
ATOM     10  H1  UNL     1      22.947 -36.548  -9.059  1.00  0.00     0.164 HD
BRANCH   9  11
HETATM   11  C3  UNL     1      22.788 -38.537  -9.128  1.00  0.00     0.148 A 
HETATM   12  S1  UNL     1      22.651 -40.042  -8.344  1.00  0.00    -0.062 SA
HETATM   13  C2  UNL     1      23.114 -41.051  -9.644  1.00  0.00     0.109 A 
HETATM   14  C1  UNL     1      23.354 -40.135 -10.630  1.00  0.00     0.148 A 
HETATM   15  N3  UNL     1      23.185 -38.875 -10.355  1.00  0.00    -0.317 N 
ATOM     16  H3  UNL     1      23.352 -38.161 -11.063  1.00  0.00     0.170 HD
BRANCH  14  17
HETATM   17  O1  UNL     1      23.775 -40.588 -11.912  1.00  0.00    -0.346 OA
ATOM     18  H1  UNL     1      23.902 -39.956 -12.609  1.00  0.00     0.219 HD
ENDBRANCH  14  17
ENDBRANCH   9  11
ENDBRANCH   8   9
BRANCH   8  19
HETATM   19  O2  UNL     1      22.623 -37.172  -6.326  1.00  0.00    -0.372 OA
ATOM     20  H2  UNL     1      22.101 -37.276  -5.539  1.00  0.00     0.212 HD
ENDBRANCH   8  19
ENDBRANCH   1   8
BRANCH   3  21
HETATM   21  C7  UNL     1      20.435 -32.536  -8.969  1.00  0.00     0.194 C 
BRANCH  21  22
HETATM   22  C8  UNL     1      19.490 -32.643 -10.113  1.00  0.00     0.070 A 
HETATM   23  C9  UNL     1      18.519 -33.595 -10.332  1.00  0.00     0.036 A 
HETATM   24  C10 UNL     1      17.897 -33.294 -11.508  1.00  0.00     0.027 A 
HETATM   25  C11 UNL     1      18.514 -32.149 -11.979  1.00  0.00     0.142 A 
HETATM   26  O3  UNL     1      19.429 -31.817 -11.131  1.00  0.00    -0.325 OA
ENDBRANCH  21  22
ENDBRANCH   3  21
TORSDOF 7
ENDMDL
