MODEL 1
REMARK VINA RESULT: -8.094802672      0.000      0.000
REMARK  5 active torsions:
REMARK  status: ('A' for Active; 'I' for Inactive)
REMARK    1  A    between atoms: C2_2  and  N1_4 
REMARK    2  A    between atoms: C2_2  and  O1_8 
REMARK    3  A    between atoms: O1_8  and  C4_9 
REMARK    4  A    between atoms: C7_12  and  N2_13 
REMARK    5  A    between atoms: C10_18  and  C12_20 
ROOT
HETATM    1  N2  UNL     1      21.407 -26.137  -8.451  1.00  0.00    -0.276 N 
HETATM    2  C8  UNL     1      21.707 -27.083  -9.509  1.00  0.00     0.368 C 
HETATM    3  O2  UNL     1      21.961 -26.776 -10.703  1.00  0.00    -0.238 OA
HETATM    4  O3  UNL     1      21.662 -28.380  -8.954  1.00  0.00    -0.301 OA
HETATM    5  C9  UNL     1      21.637 -28.164  -7.531  1.00  0.00     0.218 C 
HETATM    6  C10 UNL     1      20.649 -26.968  -7.536  1.00  0.00     0.105 C 
HETATM    7  C11 UNL     1      20.466 -26.373  -6.194  1.00  0.00     0.048 C 
ENDROOT
BRANCH   1   8
HETATM    8  C7  UNL     1      21.845 -24.795  -8.415  1.00  0.00     0.041 A 
HETATM    9  C6  UNL     1      22.769 -24.299  -7.516  1.00  0.00     0.032 A 
HETATM   10  C5  UNL     1      23.162 -22.983  -7.491  1.00  0.00     0.039 A 
HETATM   11  C4  UNL     1      22.638 -22.045  -8.391  1.00  0.00     0.072 A 
HETATM   12  C17 UNL     1      21.717 -22.524  -9.290  1.00  0.00     0.039 A 
HETATM   13  C16 UNL     1      21.328 -23.846  -9.313  1.00  0.00     0.032 A 
BRANCH  11  14
HETATM   14  O1  UNL     1      23.043 -20.735  -8.348  1.00  0.00    -0.313 OA
BRANCH  14  15
HETATM   15  C2  UNL     1      24.110 -20.086  -8.900  1.00  0.00     0.221 C 
HETATM   16  C1  UNL     1      23.929 -18.593  -8.534  1.00  0.00     0.078 C 
HETATM   17  C3  UNL     1      25.483 -20.514  -8.470  1.00  0.00     0.078 C 
BRANCH  15  18
HETATM   18  N1  UNL     1      23.983 -20.108 -10.368  1.00  0.00    -0.047 N 
ATOM     19  H13 UNL     1      23.417 -20.876 -10.730  1.00  0.00     0.278 HD
ATOM     20  H12 UNL     1      23.406 -19.358 -10.751  1.00  0.00     0.278 HD
ATOM     21  H11 UNL     1      24.948 -20.105 -10.697  1.00  0.00     0.278 HD
ENDBRANCH  15  18
ENDBRANCH  14  15
ENDBRANCH  11  14
ENDBRANCH   1   8
BRANCH   6  22
HETATM   22  C12 UNL     1      19.387 -27.503  -8.120  1.00  0.00     0.065 A 
HETATM   23  N3  UNL     1      19.057 -28.828  -8.253  1.00  0.00    -0.343 N 
HETATM   24  C13 UNL     1      17.856 -28.961  -8.827  1.00  0.00     0.140 A 
ATOM     25  H3  UNL     1      19.646 -29.605  -7.956  1.00  0.00     0.167 HD
HETATM   26  N4  UNL     1      17.165 -30.173  -9.134  1.00  0.00    -0.081 NA
HETATM   27  C14 UNL     1      17.356 -27.721  -9.089  1.00  0.00     0.099 A 
HETATM   28 CL1  UNL     1      15.828 -27.353  -9.827  1.00  0.00    -0.079 Cl
HETATM   29  C15 UNL     1      18.312 -26.815  -8.645  1.00  0.00     0.084 A 
HETATM   30 CL2  UNL     1      18.089 -25.099  -8.767  1.00  0.00    -0.080 Cl
ENDBRANCH   6  22
TORSDOF 5
ENDMDL
MODEL 2
REMARK VINA RESULT: -7.788178291      1.206      1.286
REMARK  5 active torsions:
REMARK  status: ('A' for Active; 'I' for Inactive)
REMARK    1  A    between atoms: C2_2  and  N1_4 
REMARK    2  A    between atoms: C2_2  and  O1_8 
REMARK    3  A    between atoms: O1_8  and  C4_9 
REMARK    4  A    between atoms: C7_12  and  N2_13 
REMARK    5  A    between atoms: C10_18  and  C12_20 
ROOT
HETATM    1  N2  UNL     1      20.767 -27.107  -8.605  1.00  0.00    -0.276 N 
HETATM    2  C8  UNL     1      21.018 -27.829  -9.838  1.00  0.00     0.368 C 
HETATM    3  O2  UNL     1      21.245 -27.295 -10.955  1.00  0.00    -0.238 OA
HETATM    4  O3  UNL     1      20.961 -29.209  -9.549  1.00  0.00    -0.301 OA
HETATM    5  C9  UNL     1      20.979 -29.279  -8.112  1.00  0.00     0.218 C 
HETATM    6  C10 UNL     1      20.017 -28.092  -7.850  1.00  0.00     0.105 C 
HETATM    7  C11 UNL     1      19.883 -27.772  -6.411  1.00  0.00     0.048 C 
ENDROOT
BRANCH   1   8
HETATM    8  C7  UNL     1      21.233 -25.805  -8.318  1.00  0.00     0.041 A 
HETATM    9  C6  UNL     1      22.242 -25.518  -7.419  1.00  0.00     0.032 A 
HETATM   10  C5  UNL     1      22.663 -24.239  -7.143  1.00  0.00     0.039 A 
HETATM   11  C4  UNL     1      22.081 -23.128  -7.769  1.00  0.00     0.072 A 
HETATM   12  C17 UNL     1      21.076 -23.399  -8.664  1.00  0.00     0.039 A 
HETATM   13  C16 UNL     1      20.659 -24.683  -8.938  1.00  0.00     0.032 A 
BRANCH  11  14
HETATM   14  O1  UNL     1      22.515 -21.859  -7.478  1.00  0.00    -0.313 OA
BRANCH  14  15
HETATM   15  C2  UNL     1      23.316 -20.986  -8.157  1.00  0.00     0.221 C 
HETATM   16  C1  UNL     1      23.352 -19.697  -7.300  1.00  0.00     0.078 C 
HETATM   17  C3  UNL     1      24.729 -21.409  -8.431  1.00  0.00     0.078 C 
BRANCH  15  18
HETATM   18  N1  UNL     1      22.636 -20.567  -9.395  1.00  0.00    -0.047 N 
ATOM     19  H13 UNL     1      21.707 -20.172  -9.251  1.00  0.00     0.278 HD
ATOM     20  H12 UNL     1      23.039 -19.741  -9.838  1.00  0.00     0.278 HD
ATOM     21  H11 UNL     1      22.651 -21.405  -9.976  1.00  0.00     0.278 HD
ENDBRANCH  15  18
ENDBRANCH  14  15
ENDBRANCH  11  14
ENDBRANCH   1   8
BRANCH   6  22
HETATM   22  C12 UNL     1      18.729 -28.481  -8.487  1.00  0.00     0.065 A 
HETATM   23  N3  UNL     1      18.328 -29.759  -8.784  1.00  0.00    -0.343 N 
HETATM   24  C13 UNL     1      17.122 -29.755  -9.363  1.00  0.00     0.140 A 
ATOM     25  H3  UNL     1      18.875 -30.598  -8.591  1.00  0.00     0.167 HD
HETATM   26  N4  UNL     1      16.368 -30.881  -9.815  1.00  0.00    -0.081 NA
HETATM   27  C14 UNL     1      16.690 -28.467  -9.464  1.00  0.00     0.099 A 
HETATM   28 CL1  UNL     1      15.183 -27.929 -10.140  1.00  0.00    -0.079 Cl
HETATM   29  C15 UNL     1      17.692 -27.677  -8.916  1.00  0.00     0.084 A 
HETATM   30 CL2  UNL     1      17.561 -25.949  -8.820  1.00  0.00    -0.080 Cl
ENDBRANCH   6  22
TORSDOF 5
ENDMDL
MODEL 3
REMARK VINA RESULT: -7.569500166      3.301      7.625
REMARK  5 active torsions:
REMARK  status: ('A' for Active; 'I' for Inactive)
REMARK    1  A    between atoms: C2_2  and  N1_4 
REMARK    2  A    between atoms: C2_2  and  O1_8 
REMARK    3  A    between atoms: O1_8  and  C4_9 
REMARK    4  A    between atoms: C7_12  and  N2_13 
REMARK    5  A    between atoms: C10_18  and  C12_20 
ROOT
HETATM    1  N2  UNL     1      20.434 -25.319  -7.360  1.00  0.00    -0.276 N 
HETATM    2  C8  UNL     1      20.654 -24.688  -6.073  1.00  0.00     0.368 C 
HETATM    3  O2  UNL     1      19.795 -24.022  -5.438  1.00  0.00    -0.238 OA
HETATM    4  O3  UNL     1      21.981 -24.961  -5.680  1.00  0.00    -0.301 OA
HETATM    5  C9  UNL     1      22.423 -25.989  -6.584  1.00  0.00     0.218 C 
HETATM    6  C10 UNL     1      21.789 -25.397  -7.870  1.00  0.00     0.105 C 
HETATM    7  C11 UNL     1      21.939 -26.287  -9.043  1.00  0.00     0.048 C 
ENDROOT
BRANCH   1   8
HETATM    8  C7  UNL     1      19.181 -25.745  -7.851  1.00  0.00     0.041 A 
HETATM    9  C6  UNL     1      18.781 -27.066  -7.929  1.00  0.00     0.032 A 
HETATM   10  C5  UNL     1      17.563 -27.455  -8.430  1.00  0.00     0.039 A 
HETATM   11  C4  UNL     1      16.633 -26.518  -8.902  1.00  0.00     0.072 A 
HETATM   12  C17 UNL     1      17.018 -25.201  -8.832  1.00  0.00     0.039 A 
HETATM   13  C16 UNL     1      18.240 -24.817  -8.327  1.00  0.00     0.032 A 
BRANCH  11  14
HETATM   14  O1  UNL     1      15.423 -26.927  -9.400  1.00  0.00    -0.313 OA
BRANCH  14  15
HETATM   15  C2  UNL     1      14.140 -26.557  -9.113  1.00  0.00     0.221 C 
HETATM   16  C1  UNL     1      13.743 -25.538 -10.209  1.00  0.00     0.078 C 
HETATM   17  C3  UNL     1      13.097 -27.634  -9.072  1.00  0.00     0.078 C 
BRANCH  15  18
HETATM   18  N1  UNL     1      14.132 -25.761  -7.873  1.00  0.00    -0.047 N 
ATOM     19  H13 UNL     1      15.050 -25.647  -7.441  1.00  0.00     0.278 HD
ATOM     20  H12 UNL     1      13.953 -24.766  -8.012  1.00  0.00     0.278 HD
ATOM     21  H11 UNL     1      13.447 -26.234  -7.284  1.00  0.00     0.278 HD
ENDBRANCH  15  18
ENDBRANCH  14  15
ENDBRANCH  11  14
ENDBRANCH   1   8
BRANCH   6  22
HETATM   22  C12 UNL     1      22.438 -24.069  -8.053  1.00  0.00     0.065 A 
HETATM   23  N3  UNL     1      23.552 -23.617  -7.393  1.00  0.00    -0.343 N 
HETATM   24  C13 UNL     1      23.864 -22.376  -7.785  1.00  0.00     0.140 A 
ATOM     25  H3  UNL     1      24.072 -24.152  -6.698  1.00  0.00     0.167 HD
HETATM   26  N4  UNL     1      24.951 -21.566  -7.334  1.00  0.00    -0.081 NA
HETATM   27  C14 UNL     1      22.960 -21.974  -8.722  1.00  0.00     0.099 A 
HETATM   28 CL1  UNL     1      22.930 -20.443  -9.542  1.00  0.00    -0.079 Cl
HETATM   29  C15 UNL     1      22.075 -23.031  -8.887  1.00  0.00     0.084 A 
HETATM   30 CL2  UNL     1      20.751 -22.964 -10.007  1.00  0.00    -0.080 Cl
ENDBRANCH   6  22
TORSDOF 5
ENDMDL
MODEL 4
REMARK VINA RESULT: -7.539069249      2.361      2.990
REMARK  5 active torsions:
REMARK  status: ('A' for Active; 'I' for Inactive)
REMARK    1  A    between atoms: C2_2  and  N1_4 
REMARK    2  A    between atoms: C2_2  and  O1_8 
REMARK    3  A    between atoms: O1_8  and  C4_9 
REMARK    4  A    between atoms: C7_12  and  N2_13 
REMARK    5  A    between atoms: C10_18  and  C12_20 
ROOT
HETATM    1  N2  UNL     1      20.990 -25.909  -7.297  1.00  0.00    -0.276 N 
HETATM    2  C8  UNL     1      21.561 -26.668  -6.200  1.00  0.00     0.368 C 
HETATM    3  O2  UNL     1      22.736 -26.540  -5.766  1.00  0.00    -0.238 OA
HETATM    4  O3  UNL     1      20.570 -27.554  -5.727  1.00  0.00    -0.301 OA
HETATM    5  C9  UNL     1      19.352 -27.097  -6.341  1.00  0.00     0.218 C 
HETATM    6  C10 UNL     1      19.944 -26.807  -7.746  1.00  0.00     0.105 C 
HETATM    7  C11 UNL     1      18.964 -26.178  -8.659  1.00  0.00     0.048 C 
ENDROOT
BRANCH   1   8
HETATM    8  C7  UNL     1      21.404 -24.618  -7.691  1.00  0.00     0.041 A 
HETATM    9  C6  UNL     1      21.609 -24.231  -9.002  1.00  0.00     0.032 A 
HETATM   10  C5  UNL     1      22.031 -22.972  -9.357  1.00  0.00     0.039 A 
HETATM   11  C4  UNL     1      22.286 -21.987  -8.392  1.00  0.00     0.072 A 
HETATM   12  C17 UNL     1      22.087 -22.359  -7.086  1.00  0.00     0.039 A 
HETATM   13  C16 UNL     1      21.661 -23.621  -6.735  1.00  0.00     0.032 A 
BRANCH  11  14
HETATM   14  O1  UNL     1      22.708 -20.737  -8.768  1.00  0.00    -0.313 OA
BRANCH  14  15
HETATM   15  C2  UNL     1      23.948 -20.229  -9.032  1.00  0.00     0.221 C 
HETATM   16  C1  UNL     1      23.960 -18.810  -8.412  1.00  0.00     0.078 C 
HETATM   17  C3  UNL     1      25.134 -20.983  -8.508  1.00  0.00     0.078 C 
BRANCH  15  18
HETATM   18  N1  UNL     1      24.072 -19.982 -10.480  1.00  0.00    -0.047 N 
ATOM     19  H13 UNL     1      24.271 -19.013 -10.725  1.00  0.00     0.278 HD
ATOM     20  H12 UNL     1      24.912 -20.377 -10.903  1.00  0.00     0.278 HD
ATOM     21  H11 UNL     1      23.198 -20.343 -10.864  1.00  0.00     0.278 HD
ENDBRANCH  15  18
ENDBRANCH  14  15
ENDBRANCH  11  14
ENDBRANCH   1   8
BRANCH   6  22
HETATM   22  C12 UNL     1      20.450 -28.118  -8.238  1.00  0.00     0.065 A 
HETATM   23  N3  UNL     1      20.043 -29.355  -7.805  1.00  0.00    -0.343 N 
HETATM   24  C13 UNL     1      20.707 -30.323  -8.447  1.00  0.00     0.140 A 
ATOM     25  H3  UNL     1      19.331 -29.515  -7.092  1.00  0.00     0.167 HD
HETATM   26  N4  UNL     1      20.567 -31.735  -8.279  1.00  0.00    -0.081 NA
HETATM   27  C14 UNL     1      21.575 -29.749  -9.326  1.00  0.00     0.099 A 
HETATM   28 CL1  UNL     1      22.664 -30.576 -10.397  1.00  0.00    -0.079 Cl
HETATM   29  C15 UNL     1      21.411 -28.376  -9.194  1.00  0.00     0.084 A 
HETATM   30 CL2  UNL     1      22.316 -27.240 -10.143  1.00  0.00    -0.080 Cl
ENDBRANCH   6  22
TORSDOF 5
ENDMDL
MODEL 5
REMARK VINA RESULT: -7.447509029      2.472      2.774
REMARK  5 active torsions:
REMARK  status: ('A' for Active; 'I' for Inactive)
REMARK    1  A    between atoms: C2_2  and  N1_4 
REMARK    2  A    between atoms: C2_2  and  O1_8 
REMARK    3  A    between atoms: O1_8  and  C4_9 
REMARK    4  A    between atoms: C7_12  and  N2_13 
REMARK    5  A    between atoms: C10_18  and  C12_20 
ROOT
HETATM    1  N2  UNL     1      21.900 -24.983  -7.211  1.00  0.00    -0.276 N 
HETATM    2  C8  UNL     1      22.633 -25.882  -6.339  1.00  0.00     0.368 C 
HETATM    3  O2  UNL     1      23.881 -26.041  -6.350  1.00  0.00    -0.238 OA
HETATM    4  O3  UNL     1      21.699 -26.523  -5.498  1.00  0.00    -0.301 OA
HETATM    5  C9  UNL     1      20.480 -25.780  -5.676  1.00  0.00     0.218 C 
HETATM    6  C10 UNL     1      20.588 -25.601  -7.213  1.00  0.00     0.105 C 
HETATM    7  C11 UNL     1      19.519 -24.738  -7.763  1.00  0.00     0.048 C 
ENDROOT
BRANCH   1   8
HETATM    8  C7  UNL     1      22.429 -23.814  -7.801  1.00  0.00     0.041 A 
HETATM    9  C6  UNL     1      23.566 -23.164  -7.360  1.00  0.00     0.032 A 
HETATM   10  C5  UNL     1      24.048 -22.016  -7.941  1.00  0.00     0.039 A 
HETATM   11  C4  UNL     1      23.403 -21.423  -9.035  1.00  0.00     0.072 A 
HETATM   12  C17 UNL     1      22.271 -22.058  -9.482  1.00  0.00     0.039 A 
HETATM   13  C16 UNL     1      21.793 -23.211  -8.898  1.00  0.00     0.032 A 
BRANCH  11  14
HETATM   14  O1  UNL     1      23.900 -20.275  -9.599  1.00  0.00    -0.313 OA
BRANCH  14  15
HETATM   15  C2  UNL     1      23.400 -19.008  -9.693  1.00  0.00     0.221 C 
HETATM   16  C1  UNL     1      23.016 -18.600  -8.250  1.00  0.00     0.078 C 
HETATM   17  C3  UNL     1      24.296 -17.947 -10.261  1.00  0.00     0.078 C 
BRANCH  15  18
HETATM   18  N1  UNL     1      22.109 -19.050 -10.403  1.00  0.00    -0.047 N 
ATOM     19  H13 UNL     1      21.510 -19.833 -10.140  1.00  0.00     0.278 HD
ATOM     20  H12 UNL     1      21.455 -18.316 -10.129  1.00  0.00     0.278 HD
ATOM     21  H11 UNL     1      22.372 -19.033 -11.388  1.00  0.00     0.278 HD
ENDBRANCH  15  18
ENDBRANCH  14  15
ENDBRANCH  11  14
ENDBRANCH   1   8
BRANCH   6  22
HETATM   22  C12 UNL     1      20.576 -26.981  -7.772  1.00  0.00     0.065 A 
HETATM   23  N3  UNL     1      20.014 -28.086  -7.184  1.00  0.00    -0.343 N 
HETATM   24  C13 UNL     1      20.191 -29.170  -7.947  1.00  0.00     0.140 A 
ATOM     25  H3  UNL     1      19.527 -28.081  -6.287  1.00  0.00     0.167 HD
HETATM   26  N4  UNL     1      19.753 -30.504  -7.682  1.00  0.00    -0.081 NA
HETATM   27  C14 UNL     1      20.879 -28.809  -9.066  1.00  0.00     0.099 A 
HETATM   28 CL1  UNL     1      21.357 -29.852 -10.370  1.00  0.00    -0.079 Cl
HETATM   29  C15 UNL     1      21.115 -27.445  -8.954  1.00  0.00     0.084 A 
HETATM   30 CL2  UNL     1      21.959 -26.547 -10.176  1.00  0.00    -0.080 Cl
ENDBRANCH   6  22
TORSDOF 5
ENDMDL
