MODEL 1
REMARK VINA RESULT: -7.983403830      0.000      0.000
REMARK  7 active torsions:
REMARK  status: ('A' for Active; 'I' for Inactive)
REMARK    1  A    between atoms: C2_2  and  C5_5 
REMARK    2  A    between atoms: C5_5  and  C6_6 
REMARK    3  A    between atoms: C5_5  and  C7_11 
REMARK    4  A    between atoms: C6_6  and  N1_7 
REMARK    5  A    between atoms: C7_11  and  N2_12 
REMARK    6  A    between atoms: N2_12  and  C8_14 
REMARK    7  A    between atoms: C13_24  and  C14_25 
ROOT
HETATM    1  C8  UNL     1      22.016 -24.005  -7.767  1.00  0.00     0.701 A 
HETATM    2  N3  UNL     1      23.095 -24.232  -7.024  1.00  0.00    -0.177 N 
ATOM      3  H3  UNL     1      23.878 -23.582  -7.082  1.00  0.00     0.185 HD
HETATM    4  C9  UNL     1      23.190 -25.294  -6.194  1.00  0.00     0.145 A 
HETATM    5 CL1  UNL     1      24.617 -25.569  -5.227  1.00  0.00    -0.062 Cl
HETATM    6  C10 UNL     1      22.128 -26.177  -6.111  1.00  0.00     0.116 A 
HETATM    7  N4  UNL     1      22.178 -27.309  -5.254  1.00  0.00    -0.097 NA
HETATM    8  C11 UNL     1      21.011 -25.945  -6.879  1.00  0.00     0.126 A 
HETATM    9  C12 UNL     1      19.812 -26.624  -7.024  1.00  0.00     0.096 A 
HETATM   10 CL2  UNL     1      19.362 -28.087  -6.191  1.00  0.00    -0.079 Cl
HETATM   11  C13 UNL     1      19.048 -25.943  -7.935  1.00  0.00     0.107 A 
HETATM   12  N5  UNL     1      19.809 -24.894  -8.296  1.00  0.00    -0.275 N 
ATOM     13  H5  UNL     1      19.516 -24.188  -8.972  1.00  0.00     0.188 HD
HETATM   14  N6  UNL     1      20.976 -24.881  -7.680  1.00  0.00    -0.082 N 
ENDROOT
BRANCH   1  15
HETATM   15  N2  UNL     1      21.869 -23.026  -8.573  1.00  0.00    -0.224 N 
ATOM     16  H2  UNL     1      21.357 -23.217  -9.434  1.00  0.00     0.177 HD
BRANCH  15  17
HETATM   17  C7  UNL     1      22.342 -21.702  -8.398  1.00  0.00     0.145 C 
BRANCH  17  18
HETATM   18  C5  UNL     1      23.652 -21.525  -9.112  1.00  0.00     0.037 C 
BRANCH  18  19
HETATM   19  C2  UNL     1      24.666 -20.968  -8.140  1.00  0.00    -0.045 C 
HETATM   20  C1  UNL     1      25.466 -22.026  -7.444  1.00  0.00     0.015 C 
HETATM   21  C3  UNL     1      23.858 -20.239  -7.058  1.00  0.00     0.015 C 
HETATM   22  C4  UNL     1      25.590 -19.965  -8.750  1.00  0.00     0.015 C 
ENDBRANCH  18  19
BRANCH  18  23
HETATM   23  C6  UNL     1      23.510 -20.635 -10.328  1.00  0.00     0.236 C 
BRANCH  23  24
HETATM   24  N1  UNL     1      22.254 -19.953 -10.409  1.00  0.00    -0.079 N 
ATOM     25  H13 UNL     1      21.485 -20.597 -10.223  1.00  0.00     0.274 HD
ATOM     26  H12 UNL     1      22.141 -19.316  -9.620  1.00  0.00     0.274 HD
ATOM     27  H11 UNL     1      22.104 -19.460 -11.290  1.00  0.00     0.274 HD
ENDBRANCH  23  24
ENDBRANCH  18  23
ENDBRANCH  17  18
ENDBRANCH  15  17
ENDBRANCH   1  15
BRANCH  11  28
HETATM   28  C14 UNL     1      17.707 -26.239  -8.438  1.00  0.00     0.104 A 
HETATM   29  C15 UNL     1      17.309 -27.215  -9.286  1.00  0.00     0.041 A 
HETATM   30  C16 UNL     1      15.935 -27.071  -9.447  1.00  0.00     0.027 A 
HETATM   31  C17 UNL     1      15.565 -26.006  -8.683  1.00  0.00     0.142 A 
HETATM   32  O1  UNL     1      16.629 -25.551  -8.112  1.00  0.00    -0.320 OA
ENDBRANCH  11  28
TORSDOF 7
ENDMDL
MODEL 2
REMARK VINA RESULT: -7.663202844      4.080      7.240
REMARK  7 active torsions:
REMARK  status: ('A' for Active; 'I' for Inactive)
REMARK    1  A    between atoms: C2_2  and  C5_5 
REMARK    2  A    between atoms: C5_5  and  C6_6 
REMARK    3  A    between atoms: C5_5  and  C7_11 
REMARK    4  A    between atoms: C6_6  and  N1_7 
REMARK    5  A    between atoms: C7_11  and  N2_12 
REMARK    6  A    between atoms: N2_12  and  C8_14 
REMARK    7  A    between atoms: C13_24  and  C14_25 
ROOT
HETATM    1  C8  UNL     1      18.625 -26.436  -7.387  1.00  0.00     0.701 A 
HETATM    2  N3  UNL     1      18.827 -25.248  -6.825  1.00  0.00    -0.177 N 
ATOM      3  H3  UNL     1      18.034 -24.616  -6.714  1.00  0.00     0.185 HD
HETATM    4  C9  UNL     1      20.044 -24.849  -6.396  1.00  0.00     0.145 A 
HETATM    5 CL1  UNL     1      20.282 -23.283  -5.662  1.00  0.00    -0.062 Cl
HETATM    6  C10 UNL     1      21.121 -25.705  -6.544  1.00  0.00     0.116 A 
HETATM    7  N4  UNL     1      22.422 -25.332  -6.110  1.00  0.00    -0.097 NA
HETATM    8  C11 UNL     1      20.915 -26.935  -7.125  1.00  0.00     0.126 A 
HETATM    9  C12 UNL     1      21.764 -27.991  -7.411  1.00  0.00     0.096 A 
HETATM   10 CL2  UNL     1      23.473 -28.046  -7.078  1.00  0.00    -0.079 Cl
HETATM   11  C13 UNL     1      21.021 -28.981  -8.001  1.00  0.00     0.107 A 
HETATM   12  N5  UNL     1      19.772 -28.485  -8.044  1.00  0.00    -0.275 N 
ATOM     13  H5  UNL     1      18.975 -28.990  -8.431  1.00  0.00     0.188 HD
HETATM   14  N6  UNL     1      19.692 -27.273  -7.528  1.00  0.00    -0.082 N 
ENDROOT
BRANCH   1  15
HETATM   15  N2  UNL     1      17.503 -26.868  -7.816  1.00  0.00    -0.224 N 
ATOM     16  H2  UNL     1      17.080 -27.635  -7.295  1.00  0.00     0.177 HD
BRANCH  15  17
HETATM   17  C7  UNL     1      16.784 -26.394  -8.941  1.00  0.00     0.145 C 
BRANCH  17  18
HETATM   18  C5  UNL     1      15.407 -25.960  -8.525  1.00  0.00     0.037 C 
BRANCH  18  19
HETATM   19  C2  UNL     1      14.397 -26.564  -9.475  1.00  0.00    -0.045 C 
HETATM   20  C1  UNL     1      13.749 -25.555 -10.372  1.00  0.00     0.015 C 
HETATM   21  C3  UNL     1      13.287 -27.152  -8.594  1.00  0.00     0.015 C 
HETATM   22  C4  UNL     1      14.946 -27.683 -10.297  1.00  0.00     0.015 C 
ENDBRANCH  18  19
BRANCH  18  23
HETATM   23  C6  UNL     1      15.285 -24.453  -8.480  1.00  0.00     0.236 C 
BRANCH  23  24
HETATM   24  N1  UNL     1      15.629 -23.876  -7.216  1.00  0.00    -0.079 N 
ATOM     25  H13 UNL     1      16.415 -24.373  -6.799  1.00  0.00     0.274 HD
ATOM     26  H12 UNL     1      16.055 -22.958  -7.346  1.00  0.00     0.274 HD
ATOM     27  H11 UNL     1      14.851 -23.819  -6.559  1.00  0.00     0.274 HD
ENDBRANCH  23  24
ENDBRANCH  18  23
ENDBRANCH  17  18
ENDBRANCH  15  17
ENDBRANCH   1  15
BRANCH  11  28
HETATM   28  C14 UNL     1      21.436 -30.295  -8.492  1.00  0.00     0.104 A 
HETATM   29  C15 UNL     1      22.377 -30.605  -9.412  1.00  0.00     0.041 A 
HETATM   30  C16 UNL     1      22.390 -31.991  -9.522  1.00  0.00     0.027 A 
HETATM   31  C17 UNL     1      21.448 -32.458  -8.655  1.00  0.00     0.142 A 
HETATM   32  O1  UNL     1      20.917 -31.435  -8.075  1.00  0.00    -0.320 OA
ENDBRANCH  11  28
TORSDOF 7
ENDMDL
MODEL 3
REMARK VINA RESULT: -7.562240617      2.434      7.079
REMARK  7 active torsions:
REMARK  status: ('A' for Active; 'I' for Inactive)
REMARK    1  A    between atoms: C2_2  and  C5_5 
REMARK    2  A    between atoms: C5_5  and  C6_6 
REMARK    3  A    between atoms: C5_5  and  C7_11 
REMARK    4  A    between atoms: C6_6  and  N1_7 
REMARK    5  A    between atoms: C7_11  and  N2_12 
REMARK    6  A    between atoms: N2_12  and  C8_14 
REMARK    7  A    between atoms: C13_24  and  C14_25 
ROOT
HETATM    1  C8  UNL     1      20.657 -24.406  -7.642  1.00  0.00     0.701 A 
HETATM    2  N3  UNL     1      20.855 -25.514  -6.934  1.00  0.00    -0.177 N 
ATOM      3  H3  UNL     1      20.079 -26.166  -6.815  1.00  0.00     0.185 HD
HETATM    4  C9  UNL     1      22.045 -25.807  -6.366  1.00  0.00     0.145 A 
HETATM    5 CL1  UNL     1      22.278 -27.268  -5.441  1.00  0.00    -0.062 Cl
HETATM    6  C10 UNL     1      23.099 -24.924  -6.527  1.00  0.00     0.116 A 
HETATM    7  N4  UNL     1      24.371 -25.185  -5.950  1.00  0.00    -0.097 NA
HETATM    8  C11 UNL     1      22.898 -23.778  -7.260  1.00  0.00     0.126 A 
HETATM    9  C12 UNL     1      23.727 -22.720  -7.594  1.00  0.00     0.096 A 
HETATM   10 CL2  UNL     1      25.399 -22.549  -7.134  1.00  0.00    -0.079 Cl
HETATM   11  C13 UNL     1      22.999 -21.835  -8.348  1.00  0.00     0.107 A 
HETATM   12  N5  UNL     1      21.779 -22.392  -8.435  1.00  0.00    -0.275 N 
ATOM     13  H5  UNL     1      20.999 -21.970  -8.940  1.00  0.00     0.188 HD
HETATM   14  N6  UNL     1      21.701 -23.543  -7.795  1.00  0.00    -0.082 N 
ENDROOT
BRANCH   1  15
HETATM   15  N2  UNL     1      19.557 -24.072  -8.197  1.00  0.00    -0.224 N 
ATOM     16  H2  UNL     1      19.187 -23.152  -7.956  1.00  0.00     0.177 HD
BRANCH  15  17
HETATM   17  C7  UNL     1      18.796 -24.842  -9.110  1.00  0.00     0.145 C 
BRANCH  17  18
HETATM   18  C5  UNL     1      17.756 -25.636  -8.372  1.00  0.00     0.037 C 
BRANCH  18  19
HETATM   19  C2  UNL     1      17.724 -27.039  -8.934  1.00  0.00    -0.045 C 
HETATM   20  C1  UNL     1      18.539 -28.015  -8.141  1.00  0.00     0.015 C 
HETATM   21  C3  UNL     1      18.366 -26.953 -10.325  1.00  0.00     0.015 C 
HETATM   22  C4  UNL     1      16.343 -27.578  -9.118  1.00  0.00     0.015 C 
ENDBRANCH  18  19
BRANCH  18  23
HETATM   23  C6  UNL     1      16.394 -24.982  -8.451  1.00  0.00     0.236 C 
BRANCH  23  24
HETATM   24  N1  UNL     1      15.985 -24.335  -7.241  1.00  0.00    -0.079 N 
ATOM     25  H13 UNL     1      15.507 -24.994  -6.628  1.00  0.00     0.274 HD
ATOM     26  H12 UNL     1      16.795 -24.116  -6.661  1.00  0.00     0.274 HD
ATOM     27  H11 UNL     1      15.415 -23.502  -7.387  1.00  0.00     0.274 HD
ENDBRANCH  23  24
ENDBRANCH  18  23
ENDBRANCH  17  18
ENDBRANCH  15  17
ENDBRANCH   1  15
BRANCH  11  28
HETATM   28  C14 UNL     1      23.405 -20.564  -8.947  1.00  0.00     0.104 A 
HETATM   29  C15 UNL     1      24.192 -20.339 -10.023  1.00  0.00     0.041 A 
HETATM   30  C16 UNL     1      24.269 -18.960 -10.183  1.00  0.00     0.027 A 
HETATM   31  C17 UNL     1      23.519 -18.412  -9.187  1.00  0.00     0.142 A 
HETATM   32  O1  UNL     1      23.033 -19.383  -8.490  1.00  0.00    -0.320 OA
ENDBRANCH  11  28
TORSDOF 7
ENDMDL
MODEL 4
REMARK VINA RESULT: -7.521664185      3.132      4.688
REMARK  7 active torsions:
REMARK  status: ('A' for Active; 'I' for Inactive)
REMARK    1  A    between atoms: C2_2  and  C5_5 
REMARK    2  A    between atoms: C5_5  and  C6_6 
REMARK    3  A    between atoms: C5_5  and  C7_11 
REMARK    4  A    between atoms: C6_6  and  N1_7 
REMARK    5  A    between atoms: C7_11  and  N2_12 
REMARK    6  A    between atoms: N2_12  and  C8_14 
REMARK    7  A    between atoms: C13_24  and  C14_25 
ROOT
HETATM    1  C8  UNL     1      21.376 -22.913 -10.765  1.00  0.00     0.701 A 
HETATM    2  N3  UNL     1      20.971 -23.129 -12.013  1.00  0.00    -0.177 N 
ATOM      3  H3  UNL     1      20.909 -22.338 -12.654  1.00  0.00     0.185 HD
HETATM    4  C9  UNL     1      20.637 -24.359 -12.461  1.00  0.00     0.145 A 
HETATM    5 CL1  UNL     1      20.108 -24.616 -14.105  1.00  0.00    -0.062 Cl
HETATM    6  C10 UNL     1      20.721 -25.434 -11.594  1.00  0.00     0.116 A 
HETATM    7  N4  UNL     1      20.381 -26.748 -12.017  1.00  0.00    -0.097 NA
HETATM    8  C11 UNL     1      21.140 -25.214 -10.303  1.00  0.00     0.126 A 
HETATM    9  C12 UNL     1      21.323 -26.056  -9.218  1.00  0.00     0.096 A 
HETATM   10 CL2  UNL     1      21.047 -27.776  -9.205  1.00  0.00    -0.079 Cl
HETATM   11  C13 UNL     1      21.759 -25.296  -8.163  1.00  0.00     0.107 A 
HETATM   12  N5  UNL     1      21.819 -24.045  -8.651  1.00  0.00    -0.275 N 
ATOM     13  H5  UNL     1      22.113 -23.236  -8.103  1.00  0.00     0.188 HD
HETATM   14  N6  UNL     1      21.455 -23.978  -9.918  1.00  0.00    -0.082 N 
ENDROOT
BRANCH   1  15
HETATM   15  N2  UNL     1      21.699 -21.777 -10.281  1.00  0.00    -0.224 N 
ATOM     16  H2  UNL     1      21.443 -20.957 -10.832  1.00  0.00     0.177 HD
BRANCH  15  17
HETATM   17  C7  UNL     1      22.373 -21.533  -9.059  1.00  0.00     0.145 C 
BRANCH  17  18
HETATM   18  C5  UNL     1      23.803 -21.157  -9.328  1.00  0.00     0.037 C 
BRANCH  18  19
HETATM   19  C2  UNL     1      24.583 -21.254  -8.037  1.00  0.00    -0.045 C 
HETATM   20  C1  UNL     1      24.547 -22.620  -7.423  1.00  0.00     0.015 C 
HETATM   21  C3  UNL     1      23.889 -20.306  -7.050  1.00  0.00     0.015 C 
HETATM   22  C4  UNL     1      26.001 -20.800  -8.160  1.00  0.00     0.015 C 
ENDBRANCH  18  19
BRANCH  18  23
HETATM   23  C6  UNL     1      23.913 -19.774  -9.932  1.00  0.00     0.236 C 
BRANCH  23  24
HETATM   24  N1  UNL     1      24.876 -19.672 -10.986  1.00  0.00    -0.079 N 
ATOM     25  H13 UNL     1      25.009 -20.576 -11.437  1.00  0.00     0.274 HD
ATOM     26  H12 UNL     1      24.494 -19.142 -11.770  1.00  0.00     0.274 HD
ATOM     27  H11 UNL     1      25.772 -19.281 -10.694  1.00  0.00     0.274 HD
ENDBRANCH  23  24
ENDBRANCH  18  23
ENDBRANCH  17  18
ENDBRANCH  15  17
ENDBRANCH   1  15
BRANCH  11  28
HETATM   28  C14 UNL     1      22.096 -25.699  -6.798  1.00  0.00     0.104 A 
HETATM   29  C15 UNL     1      21.277 -25.903  -5.741  1.00  0.00     0.041 A 
HETATM   30  C16 UNL     1      22.087 -26.274  -4.673  1.00  0.00     0.027 A 
HETATM   31  C17 UNL     1      23.367 -26.276  -5.138  1.00  0.00     0.142 A 
HETATM   32  O1  UNL     1      23.326 -25.935  -6.383  1.00  0.00    -0.320 OA
ENDBRANCH  11  28
TORSDOF 7
ENDMDL
MODEL 5
REMARK VINA RESULT: -7.500568271      3.371      5.370
REMARK  7 active torsions:
REMARK  status: ('A' for Active; 'I' for Inactive)
REMARK    1  A    between atoms: C2_2  and  C5_5 
REMARK    2  A    between atoms: C5_5  and  C6_6 
REMARK    3  A    between atoms: C5_5  and  C7_11 
REMARK    4  A    between atoms: C6_6  and  N1_7 
REMARK    5  A    between atoms: C7_11  and  N2_12 
REMARK    6  A    between atoms: N2_12  and  C8_14 
REMARK    7  A    between atoms: C13_24  and  C14_25 
ROOT
HETATM    1  C8  UNL     1      19.611 -25.142  -8.041  1.00  0.00     0.701 A 
HETATM    2  N3  UNL     1      18.505 -24.404  -8.055  1.00  0.00    -0.177 N 
ATOM      3  H3  UNL     1      18.585 -23.396  -7.915  1.00  0.00     0.185 HD
HETATM    4  C9  UNL     1      17.280 -24.940  -8.248  1.00  0.00     0.145 A 
HETATM    5 CL1  UNL     1      15.844 -23.948  -8.263  1.00  0.00    -0.062 Cl
HETATM    6  C10 UNL     1      17.170 -26.306  -8.439  1.00  0.00     0.116 A 
HETATM    7  N4  UNL     1      15.904 -26.919  -8.646  1.00  0.00    -0.097 NA
HETATM    8  C11 UNL     1      18.312 -27.072  -8.425  1.00  0.00     0.126 A 
HETATM    9  C12 UNL     1      18.532 -28.431  -8.579  1.00  0.00     0.096 A 
HETATM   10 CL2  UNL     1      17.308 -29.638  -8.860  1.00  0.00    -0.079 Cl
HETATM   11  C13 UNL     1      19.881 -28.654  -8.471  1.00  0.00     0.107 A 
HETATM   12  N5  UNL     1      20.408 -27.436  -8.260  1.00  0.00    -0.275 N 
ATOM     13  H5  UNL     1      21.406 -27.264  -8.137  1.00  0.00     0.188 HD
HETATM   14  N6  UNL     1      19.491 -26.486  -8.230  1.00  0.00    -0.082 N 
ENDROOT
BRANCH   1  15
HETATM   15  N2  UNL     1      20.793 -24.696  -7.857  1.00  0.00    -0.224 N 
ATOM     16  H2  UNL     1      21.277 -24.337  -8.680  1.00  0.00     0.177 HD
BRANCH  15  17
HETATM   17  C7  UNL     1      21.503 -24.647  -6.632  1.00  0.00     0.145 C 
BRANCH  17  18
HETATM   18  C5  UNL     1      22.923 -25.091  -6.843  1.00  0.00     0.037 C 
BRANCH  18  19
HETATM   19  C2  UNL     1      23.252 -26.167  -5.834  1.00  0.00    -0.045 C 
HETATM   20  C1  UNL     1      23.353 -27.535  -6.436  1.00  0.00     0.015 C 
HETATM   21  C3  UNL     1      22.073 -26.200  -4.851  1.00  0.00     0.015 C 
HETATM   22  C4  UNL     1      24.482 -25.881  -5.036  1.00  0.00     0.015 C 
ENDBRANCH  18  19
BRANCH  18  23
HETATM   23  C6  UNL     1      23.891 -23.932  -6.745  1.00  0.00     0.236 C 
BRANCH  23  24
HETATM   24  N1  UNL     1      23.637 -22.878  -7.681  1.00  0.00    -0.079 N 
ATOM     25  H13 UNL     1      23.065 -23.217  -8.454  1.00  0.00     0.274 HD
ATOM     26  H12 UNL     1      22.997 -22.191  -7.281  1.00  0.00     0.274 HD
ATOM     27  H11 UNL     1      24.479 -22.421  -8.031  1.00  0.00     0.274 HD
ENDBRANCH  23  24
ENDBRANCH  18  23
ENDBRANCH  17  18
ENDBRANCH  15  17
ENDBRANCH   1  15
BRANCH  11  28
HETATM   28  C14 UNL     1      20.630 -29.907  -8.557  1.00  0.00     0.104 A 
HETATM   29  C15 UNL     1      21.788 -30.167  -9.207  1.00  0.00     0.041 A 
HETATM   30  C16 UNL     1      22.083 -31.507  -8.979  1.00  0.00     0.027 A 
HETATM   31  C17 UNL     1      21.082 -31.998  -8.197  1.00  0.00     0.142 A 
HETATM   32  O1  UNL     1      20.256 -31.031  -7.975  1.00  0.00    -0.320 OA
ENDBRANCH  11  28
TORSDOF 7
ENDMDL
