MODEL 1
REMARK VINA RESULT: -8.934948322      0.000      0.000
REMARK  4 active torsions:
REMARK  status: ('A' for Active; 'I' for Inactive)
REMARK    1  A    between atoms: O1_2  and  C2_3 
REMARK    2  A    between atoms: C4_12  and  S1_13 
REMARK    3  A    between atoms: S1_13  and  C5_16 
REMARK    4  A    between atoms: C9_21  and  C10_22 
ROOT
HETATM    1  S1  UNL     1      18.679 -26.704  -9.658  1.00  0.00     0.215 S 
HETATM    2  O2  UNL     1      18.471 -26.990 -11.112  1.00  0.00    -0.217 OA
HETATM    3  O3  UNL     1      19.165 -27.970  -8.970  1.00  0.00    -0.217 OA
ENDROOT
BRANCH   1   4
HETATM    4  C4  UNL     1      17.093 -26.301  -8.986  1.00  0.00     0.176 A 
HETATM    5  N3  UNL     1      16.933 -25.123  -8.398  1.00  0.00    -0.179 N 
HETATM    6  C3  UNL     1      15.725 -24.769  -7.866  1.00  0.00     0.678 A 
ATOM      7  H3  UNL     1      17.719 -24.475  -8.343  1.00  0.00     0.185 HD
HETATM    8  N1  UNL     1      14.709 -25.618  -7.940  1.00  0.00    -0.169 N 
HETATM    9  N2  UNL     1      15.594 -23.637  -7.309  1.00  0.00    -0.234 N 
HETATM   10  C2  UNL     1      14.824 -26.833  -8.530  1.00  0.00     0.184 A 
ATOM     11  H1  UNL     1      13.811 -25.347  -7.541  1.00  0.00     0.186 HD
HETATM   12  C17 UNL     1      16.060 -27.182  -9.071  1.00  0.00     0.136 A 
HETATM   13  N4  UNL     1      16.235 -28.435  -9.697  1.00  0.00    -0.095 NA
ATOM     14  H22 UNL     1      14.693 -23.374  -6.911  1.00  0.00     0.174 HD
ATOM     15  H21 UNL     1      16.376 -22.985  -7.251  1.00  0.00     0.174 HD
BRANCH  10  16
HETATM   16  O1  UNL     1      13.758 -27.703  -8.601  1.00  0.00    -0.339 OA
HETATM   17  C1  UNL     1      12.573 -27.405  -9.310  1.00  0.00     0.211 C 
ENDBRANCH  10  16
ENDBRANCH   1   4
BRANCH   1  18
HETATM   18  C5  UNL     1      19.779 -25.434  -9.331  1.00  0.00     0.122 C 
HETATM   19  C6  UNL     1      20.462 -25.143  -8.287  1.00  0.00    -0.027 C 
HETATM   20  C7  UNL     1      21.387 -23.882  -8.337  1.00  0.00     0.201 C 
HETATM   21  C14 UNL     1      20.740 -25.573  -6.926  1.00  0.00    -0.016 C 
HETATM   22  F1  UNL     1      21.649 -23.525  -9.614  1.00  0.00    -0.245 F 
HETATM   23  C8  UNL     1      22.613 -24.356  -7.586  1.00  0.00     0.048 C 
HETATM   24  C9  UNL     1      22.236 -25.708  -7.009  1.00  0.00     0.008 C 
HETATM   25  C15 UNL     1      20.333 -24.410  -6.025  1.00  0.00     0.020 C 
HETATM   26  C16 UNL     1      20.030 -26.778  -6.486  1.00  0.00     0.020 C 
BRANCH  24  27
HETATM   27  C10 UNL     1      23.007 -26.071  -5.835  1.00  0.00    -0.047 C 
HETATM   28  C11 UNL     1      23.585 -27.480  -6.134  1.00  0.00     0.015 C 
HETATM   29  C12 UNL     1      24.253 -25.245  -5.547  1.00  0.00     0.015 C 
HETATM   30  C13 UNL     1      22.290 -26.219  -4.541  1.00  0.00     0.015 C 
ENDBRANCH  24  27
ENDBRANCH   1  18
TORSDOF 4
ENDMDL
MODEL 2
REMARK VINA RESULT: -8.815851105      5.406      7.989
REMARK  4 active torsions:
REMARK  status: ('A' for Active; 'I' for Inactive)
REMARK    1  A    between atoms: O1_2  and  C2_3 
REMARK    2  A    between atoms: C4_12  and  S1_13 
REMARK    3  A    between atoms: S1_13  and  C5_16 
REMARK    4  A    between atoms: C9_21  and  C10_22 
ROOT
HETATM    1  S1  UNL     1      22.539 -23.217  -7.823  1.00  0.00     0.215 S 
HETATM    2  O2  UNL     1      21.995 -23.464  -9.194  1.00  0.00    -0.217 OA
HETATM    3  O3  UNL     1      21.510 -22.442  -7.015  1.00  0.00    -0.217 OA
ENDROOT
BRANCH   1   4
HETATM    4  C4  UNL     1      23.961 -22.181  -8.018  1.00  0.00     0.176 A 
HETATM    5  N3  UNL     1      25.031 -22.427  -7.273  1.00  0.00    -0.179 N 
HETATM    6  C3  UNL     1      26.152 -21.653  -7.391  1.00  0.00     0.678 A 
ATOM      7  H3  UNL     1      25.017 -23.199  -6.607  1.00  0.00     0.185 HD
HETATM    8  N1  UNL     1      26.161 -20.651  -8.259  1.00  0.00    -0.169 N 
HETATM    9  N2  UNL     1      27.164 -21.905  -6.670  1.00  0.00    -0.234 N 
HETATM   10  C2  UNL     1      25.092 -20.361  -9.041  1.00  0.00     0.184 A 
ATOM     11  H1  UNL     1      27.001 -20.078  -8.341  1.00  0.00     0.186 HD
HETATM   12  C17 UNL     1      23.955 -21.157  -8.913  1.00  0.00     0.136 A 
HETATM   13  N4  UNL     1      22.814 -20.901  -9.703  1.00  0.00    -0.095 NA
ATOM     14  H22 UNL     1      28.000 -21.328  -6.757  1.00  0.00     0.174 HD
ATOM     15  H21 UNL     1      27.157 -22.676  -6.002  1.00  0.00     0.174 HD
BRANCH  10  16
HETATM   16  O1  UNL     1      25.117 -19.317  -9.939  1.00  0.00    -0.339 OA
HETATM   17  C1  UNL     1      25.877 -19.351 -11.129  1.00  0.00     0.211 C 
ENDBRANCH  10  16
ENDBRANCH   1   4
BRANCH   1  18
HETATM   18  C5  UNL     1      22.974 -24.631  -6.963  1.00  0.00     0.122 C 
HETATM   19  C6  UNL     1      22.476 -25.812  -6.953  1.00  0.00    -0.027 C 
HETATM   20  C7  UNL     1      23.139 -26.885  -6.027  1.00  0.00     0.201 C 
HETATM   21  C14 UNL     1      21.420 -26.630  -7.527  1.00  0.00    -0.016 C 
HETATM   22  F1  UNL     1      24.396 -26.521  -5.689  1.00  0.00    -0.245 F 
HETATM   23  C8  UNL     1      23.088 -28.127  -6.890  1.00  0.00     0.048 C 
HETATM   24  C9  UNL     1      22.254 -27.744  -8.099  1.00  0.00     0.008 C 
HETATM   25  C15 UNL     1      20.574 -27.112  -6.351  1.00  0.00     0.020 C 
HETATM   26  C16 UNL     1      20.546 -25.952  -8.488  1.00  0.00     0.020 C 
BRANCH  24  27
HETATM   27  C10 UNL     1      21.620 -28.878  -8.746  1.00  0.00    -0.047 C 
HETATM   28  C11 UNL     1      22.709 -29.982  -8.816  1.00  0.00     0.015 C 
HETATM   29  C12 UNL     1      20.491 -29.562  -7.987  1.00  0.00     0.015 C 
HETATM   30  C13 UNL     1      21.149 -28.716 -10.146  1.00  0.00     0.015 C 
ENDBRANCH  24  27
ENDBRANCH   1  18
TORSDOF 4
ENDMDL
MODEL 3
REMARK VINA RESULT: -8.233332306      3.483      5.130
REMARK  4 active torsions:
REMARK  status: ('A' for Active; 'I' for Inactive)
REMARK    1  A    between atoms: O1_2  and  C2_3 
REMARK    2  A    between atoms: C4_12  and  S1_13 
REMARK    3  A    between atoms: S1_13  and  C5_16 
REMARK    4  A    between atoms: C9_21  and  C10_22 
ROOT
HETATM    1  S1  UNL     1      21.907 -27.525  -7.736  1.00  0.00     0.215 S 
HETATM    2  O2  UNL     1      23.389 -27.661  -7.883  1.00  0.00    -0.217 OA
HETATM    3  O3  UNL     1      21.551 -27.556  -6.258  1.00  0.00    -0.217 OA
ENDROOT
BRANCH   1   4
HETATM    4  C4  UNL     1      21.187 -28.953  -8.494  1.00  0.00     0.176 A 
HETATM    5  N3  UNL     1      21.993 -29.891  -8.974  1.00  0.00    -0.179 N 
HETATM    6  C3  UNL     1      21.481 -31.011  -9.567  1.00  0.00     0.678 A 
ATOM      7  H3  UNL     1      23.004 -29.775  -8.901  1.00  0.00     0.185 HD
HETATM    8  N1  UNL     1      20.166 -31.154  -9.660  1.00  0.00    -0.169 N 
HETATM    9  N2  UNL     1      22.270 -31.896 -10.018  1.00  0.00    -0.234 N 
HETATM   10  C2  UNL     1      19.303 -30.222  -9.184  1.00  0.00     0.184 A 
ATOM     11  H1  UNL     1      19.791 -31.992 -10.103  1.00  0.00     0.186 HD
HETATM   12  C17 UNL     1      19.836 -29.085  -8.581  1.00  0.00     0.136 A 
HETATM   13  N4  UNL     1      18.982 -28.084  -8.069  1.00  0.00    -0.095 NA
ATOM     14  H22 UNL     1      21.888 -32.731 -10.461  1.00  0.00     0.174 HD
ATOM     15  H21 UNL     1      23.281 -31.786  -9.947  1.00  0.00     0.174 HD
BRANCH  10  16
HETATM   16  O1  UNL     1      17.939 -30.385  -9.287  1.00  0.00    -0.339 OA
HETATM   17  C1  UNL     1      17.290 -30.646 -10.516  1.00  0.00     0.211 C 
ENDBRANCH  10  16
ENDBRANCH   1   4
BRANCH   1  18
HETATM   18  C5  UNL     1      21.247 -26.110  -8.439  1.00  0.00     0.122 C 
HETATM   19  C6  UNL     1      21.432 -24.867  -8.191  1.00  0.00    -0.027 C 
HETATM   20  C7  UNL     1      20.648 -23.818  -9.046  1.00  0.00     0.201 C 
HETATM   21  C14 UNL     1      22.165 -23.953  -7.329  1.00  0.00    -0.016 C 
HETATM   22  F1  UNL     1      20.206 -24.367 -10.200  1.00  0.00    -0.245 F 
HETATM   23  C8  UNL     1      21.686 -22.737  -9.258  1.00  0.00     0.048 C 
HETATM   24  C9  UNL     1      22.859 -23.127  -8.377  1.00  0.00     0.008 C 
HETATM   25  C15 UNL     1      21.110 -23.138  -6.584  1.00  0.00     0.020 C 
HETATM   26  C16 UNL     1      23.051 -24.583  -6.347  1.00  0.00     0.020 C 
BRANCH  24  27
HETATM   27  C10 UNL     1      23.692 -22.003  -7.994  1.00  0.00    -0.047 C 
HETATM   28  C11 UNL     1      23.912 -21.183  -9.293  1.00  0.00     0.015 C 
HETATM   29  C12 UNL     1      23.078 -20.981  -7.047  1.00  0.00     0.015 C 
HETATM   30  C13 UNL     1      25.059 -22.283  -7.483  1.00  0.00     0.015 C 
ENDBRANCH  24  27
ENDBRANCH   1  18
TORSDOF 4
ENDMDL
MODEL 4
REMARK VINA RESULT: -8.212680616      1.773      2.622
REMARK  4 active torsions:
REMARK  status: ('A' for Active; 'I' for Inactive)
REMARK    1  A    between atoms: O1_2  and  C2_3 
REMARK    2  A    between atoms: C4_12  and  S1_13 
REMARK    3  A    between atoms: S1_13  and  C5_16 
REMARK    4  A    between atoms: C9_21  and  C10_22 
ROOT
HETATM    1  S1  UNL     1      17.300 -24.856  -8.178  1.00  0.00     0.215 S 
HETATM    2  O2  UNL     1      17.260 -24.969  -6.687  1.00  0.00    -0.217 OA
HETATM    3  O3  UNL     1      16.560 -23.595  -8.597  1.00  0.00    -0.217 OA
ENDROOT
BRANCH   1   4
HETATM    4  C4  UNL     1      16.405 -26.242  -8.817  1.00  0.00     0.176 A 
HETATM    5  N3  UNL     1      17.064 -27.151  -9.523  1.00  0.00    -0.179 N 
HETATM    6  C3  UNL     1      16.414 -28.239 -10.036  1.00  0.00     0.678 A 
ATOM      7  H3  UNL     1      18.065 -27.038  -9.685  1.00  0.00     0.185 HD
HETATM    8  N1  UNL     1      15.113 -28.378  -9.822  1.00  0.00    -0.169 N 
HETATM    9  N2  UNL     1      17.064 -29.097 -10.707  1.00  0.00    -0.234 N 
HETATM   10  C2  UNL     1      14.397 -27.475  -9.108  1.00  0.00     0.184 A 
ATOM     11  H1  UNL     1      14.634 -29.192 -10.208  1.00  0.00     0.186 HD
HETATM   12  C17 UNL     1      15.071 -26.371  -8.590  1.00  0.00     0.136 A 
HETATM   13  N4  UNL     1      14.373 -25.400  -7.838  1.00  0.00    -0.095 NA
ATOM     14  H22 UNL     1      16.578 -29.908 -11.090  1.00  0.00     0.174 HD
ATOM     15  H21 UNL     1      18.064 -28.989 -10.872  1.00  0.00     0.174 HD
BRANCH  10  16
HETATM   16  O1  UNL     1      13.045 -27.634  -8.894  1.00  0.00    -0.339 OA
HETATM   17  C1  UNL     1      12.159 -28.085  -9.899  1.00  0.00     0.211 C 
ENDBRANCH  10  16
ENDBRANCH   1   4
BRANCH   1  18
HETATM   18  C5  UNL     1      18.873 -24.830  -8.850  1.00  0.00     0.122 C 
HETATM   19  C6  UNL     1      20.031 -24.721  -8.312  1.00  0.00    -0.027 C 
HETATM   20  C7  UNL     1      21.285 -24.736  -9.246  1.00  0.00     0.201 C 
HETATM   21  C14 UNL     1      20.705 -24.572  -7.032  1.00  0.00    -0.016 C 
HETATM   22  F1  UNL     1      20.987 -25.280 -10.447  1.00  0.00    -0.245 F 
HETATM   23  C8  UNL     1      22.271 -25.559  -8.446  1.00  0.00     0.048 C 
HETATM   24  C9  UNL     1      21.618 -25.766  -7.091  1.00  0.00     0.008 C 
HETATM   25  C15 UNL     1      21.488 -23.264  -7.118  1.00  0.00     0.020 C 
HETATM   26  C16 UNL     1      19.829 -24.517  -5.858  1.00  0.00     0.020 C 
BRANCH  24  27
HETATM   27  C10 UNL     1      22.568 -26.018  -6.024  1.00  0.00    -0.047 C 
HETATM   28  C11 UNL     1      23.231 -27.379  -6.368  1.00  0.00     0.015 C 
HETATM   29  C12 UNL     1      23.759 -25.075  -5.925  1.00  0.00     0.015 C 
HETATM   30  C13 UNL     1      22.046 -26.185  -4.643  1.00  0.00     0.015 C 
ENDBRANCH  24  27
ENDBRANCH   1  18
TORSDOF 4
ENDMDL
MODEL 5
REMARK VINA RESULT: -8.172831065      2.073      2.583
REMARK  4 active torsions:
REMARK  status: ('A' for Active; 'I' for Inactive)
REMARK    1  A    between atoms: O1_2  and  C2_3 
REMARK    2  A    between atoms: C4_12  and  S1_13 
REMARK    3  A    between atoms: S1_13  and  C5_16 
REMARK    4  A    between atoms: C9_21  and  C10_22 
ROOT
HETATM    1  S1  UNL     1      17.236 -24.828  -8.115  1.00  0.00     0.215 S 
HETATM    2  O2  UNL     1      17.228 -25.038  -6.634  1.00  0.00    -0.217 OA
HETATM    3  O3  UNL     1      16.570 -23.497  -8.429  1.00  0.00    -0.217 OA
ENDROOT
BRANCH   1   4
HETATM    4  C4  UNL     1      16.236 -26.109  -8.816  1.00  0.00     0.176 A 
HETATM    5  N3  UNL     1      15.014 -25.803  -9.233  1.00  0.00    -0.179 N 
HETATM    6  C3  UNL     1      14.207 -26.761  -9.781  1.00  0.00     0.678 A 
ATOM      7  H3  UNL     1      14.674 -24.846  -9.143  1.00  0.00     0.185 HD
HETATM    8  N1  UNL     1      14.656 -28.003  -9.892  1.00  0.00    -0.169 N 
HETATM    9  N2  UNL     1      13.043 -26.447 -10.174  1.00  0.00    -0.234 N 
HETATM   10  C2  UNL     1      15.897 -28.363  -9.480  1.00  0.00     0.184 A 
ATOM     11  H1  UNL     1      14.049 -28.712 -10.302  1.00  0.00     0.186 HD
HETATM   12  C17 UNL     1      16.711 -27.378  -8.923  1.00  0.00     0.136 A 
HETATM   13  N4  UNL     1      18.012 -27.698  -8.478  1.00  0.00    -0.095 NA
ATOM     14  H22 UNL     1      12.441 -27.162 -10.583  1.00  0.00     0.174 HD
ATOM     15  H21 UNL     1      12.697 -25.492 -10.088  1.00  0.00     0.174 HD
BRANCH  10  16
HETATM   16  O1  UNL     1      16.350 -29.658  -9.603  1.00  0.00    -0.339 OA
HETATM   17  C1  UNL     1      15.482 -30.774  -9.620  1.00  0.00     0.211 C 
ENDBRANCH  10  16
ENDBRANCH   1   4
BRANCH   1  18
HETATM   18  C5  UNL     1      18.790 -24.857  -8.832  1.00  0.00     0.122 C 
HETATM   19  C6  UNL     1      19.964 -24.755  -8.330  1.00  0.00    -0.027 C 
HETATM   20  C7  UNL     1      21.191 -24.827  -9.298  1.00  0.00     0.201 C 
HETATM   21  C14 UNL     1      20.678 -24.576  -7.075  1.00  0.00    -0.016 C 
HETATM   22  F1  UNL     1      20.847 -25.405 -10.471  1.00  0.00    -0.245 F 
HETATM   23  C8  UNL     1      22.183 -25.642  -8.498  1.00  0.00     0.048 C 
HETATM   24  C9  UNL     1      21.565 -25.790  -7.119  1.00  0.00     0.008 C 
HETATM   25  C15 UNL     1      21.484 -23.288  -7.229  1.00  0.00     0.020 C 
HETATM   26  C16 UNL     1      19.837 -24.463  -5.880  1.00  0.00     0.020 C 
BRANCH  24  27
HETATM   27  C10 UNL     1      22.540 -26.025  -6.071  1.00  0.00    -0.047 C 
HETATM   28  C11 UNL     1      23.205 -27.385  -6.417  1.00  0.00     0.015 C 
HETATM   29  C12 UNL     1      23.726 -25.073  -6.008  1.00  0.00     0.015 C 
HETATM   30  C13 UNL     1      22.050 -26.182  -4.677  1.00  0.00     0.015 C 
ENDBRANCH  24  27
ENDBRANCH   1  18
TORSDOF 4
ENDMDL
