MODEL 1
REMARK VINA RESULT: -5.987921378      0.000      0.000
REMARK  4 active torsions:
REMARK  status: ('A' for Active; 'I' for Inactive)
REMARK    1  A    between atoms: C2_2  and  N1_3 
REMARK    2  A    between atoms: C4_5  and  N2_6 
REMARK    3  A    between atoms: C6_8  and  C7_9 
REMARK    4  A    between atoms: C8_12  and  C9_13 
ROOT
HETATM    1  N2  UNL     1      12.252  34.818  14.363  1.00  0.00     0.121 N 
HETATM    2  C5  UNL     1      13.352  34.459  13.532  1.00  0.00     0.291 C 
HETATM    3  C6  UNL     1      13.329  35.522  12.433  1.00  0.00     0.122 C 
HETATM    4  C8  UNL     1      12.137  36.390  12.723  1.00  0.00     0.045 C 
HETATM    5  C15 UNL     1      11.257  35.442  13.484  1.00  0.00     0.177 C 
HETATM    6  C16 UNL     1      10.121  36.022  14.196  1.00  0.00     0.055 C 
HETATM    7  C17 UNL     1       8.921  35.137  14.233  1.00  0.00     0.111 C 
HETATM    8  S1  UNL     1       9.213  33.800  13.129  1.00  0.00     0.017 S 
HETATM    9  O3  UNL     1       9.392  32.375  14.014  1.00  0.00    -0.258 OA
HETATM   10  C18 UNL     1      10.808  34.381  12.520  1.00  0.00     0.151 C 
ENDROOT
BRANCH   1  11
HETATM   11  C4  UNL     1      12.656  35.547  15.494  1.00  0.00     0.374 C 
HETATM   12  C3  UNL     1      11.867  35.406  16.782  1.00  0.00     0.160 C 
HETATM   13  N1  UNL     1      12.980  35.444  17.710  1.00  0.00    -0.206 NA
HETATM   14  S2  UNL     1      13.807  34.556  16.494  1.00  0.00     0.245 S 
HETATM   15  O4  UNL     1      13.496  33.093  16.480  1.00  0.00    -0.209 OA
HETATM   16  O5  UNL     1      15.216  34.950  16.436  1.00  0.00    -0.209 OA
BRANCH  13  17
HETATM   17  C2  UNL     1      13.513  36.786  17.831  1.00  0.00     0.103 C 
HETATM   18  C1  UNL     1      14.202  37.040  19.162  1.00  0.00     0.021 C 
ENDBRANCH  13  17
ENDBRANCH   1  11
BRANCH   3  19
HETATM   19  C7  UNL     1      14.618  36.137  12.227  1.00  0.00     0.179 C 
HETATM   20  O1  UNL     1      14.899  37.353  12.316  1.00  0.00    -0.648 OA
HETATM   21  O2  UNL     1      15.742  35.340  11.888  1.00  0.00    -0.648 OA
ENDBRANCH   3  19
BRANCH   4  22
HETATM   22  C9  UNL     1      11.664  37.006  11.501  1.00  0.00    -0.007 C 
HETATM   23  C10 UNL     1      12.237  36.249  10.318  1.00  0.00     0.005 C 
HETATM   24  C11 UNL     1      12.609  37.190   9.183  1.00  0.00     0.000 C 
HETATM   25  C12 UNL     1      11.418  37.978   8.774  1.00  0.00     0.000 C 
HETATM   26  C13 UNL     1      10.922  38.732   9.962  1.00  0.00     0.000 C 
HETATM   27  C14 UNL     1      11.766  38.443  11.222  1.00  0.00     0.005 C 
ENDBRANCH   4  22
TORSDOF 4
ENDMDL
MODEL 2
REMARK VINA RESULT: -5.735559065      3.508      6.879
REMARK  4 active torsions:
REMARK  status: ('A' for Active; 'I' for Inactive)
REMARK    1  A    between atoms: C2_2  and  N1_3 
REMARK    2  A    between atoms: C4_5  and  N2_6 
REMARK    3  A    between atoms: C6_8  and  C7_9 
REMARK    4  A    between atoms: C8_12  and  C9_13 
ROOT
HETATM    1  N2  UNL     1      10.045  33.625  13.526  1.00  0.00     0.121 N 
HETATM    2  C5  UNL     1       9.401  32.911  14.577  1.00  0.00     0.291 C 
HETATM    3  C6  UNL     1      10.086  33.440  15.838  1.00  0.00     0.122 C 
HETATM    4  C8  UNL     1      11.135  34.405  15.363  1.00  0.00     0.045 C 
HETATM    5  C15 UNL     1      11.414  33.886  13.982  1.00  0.00     0.177 C 
HETATM    6  C16 UNL     1      12.178  34.756  13.091  1.00  0.00     0.055 C 
HETATM    7  C17 UNL     1      13.076  34.018  12.157  1.00  0.00     0.111 C 
HETATM    8  S1  UNL     1      13.112  32.337  12.673  1.00  0.00     0.017 S 
HETATM    9  O3  UNL     1      12.331  31.384  11.521  1.00  0.00    -0.258 OA
HETATM   10  C18 UNL     1      12.080  32.548  14.136  1.00  0.00     0.151 C 
ENDROOT
BRANCH   1  11
HETATM   11  C4  UNL     1       9.291  34.729  13.094  1.00  0.00     0.374 C 
HETATM   12  C3  UNL     1       9.147  34.986  11.606  1.00  0.00     0.160 C 
HETATM   13  N1  UNL     1       7.765  35.425  11.605  1.00  0.00    -0.206 NA
HETATM   14  S2  UNL     1       7.561  34.234  12.827  1.00  0.00     0.245 S 
HETATM   15  O4  UNL     1       7.417  32.839  12.308  1.00  0.00    -0.209 OA
HETATM   16  O5  UNL     1       6.598  34.687  13.832  1.00  0.00    -0.209 OA
BRANCH  13  17
HETATM   17  C2  UNL     1       7.643  36.761  12.153  1.00  0.00     0.103 C 
HETATM   18  C1  UNL     1       6.473  37.541  11.577  1.00  0.00     0.021 C 
ENDBRANCH  13  17
ENDBRANCH   1  11
BRANCH   3  19
HETATM   19  C7  UNL     1       9.144  33.859  16.848  1.00  0.00     0.179 C 
HETATM   20  O1  UNL     1       8.793  33.221  17.866  1.00  0.00    -0.648 OA
HETATM   21  O2  UNL     1       8.508  35.123  16.748  1.00  0.00    -0.648 OA
ENDBRANCH   3  19
BRANCH   4  22
HETATM   22  C9  UNL     1      12.202  34.497  16.339  1.00  0.00    -0.007 C 
HETATM   23  C10 UNL     1      12.102  33.315  17.285  1.00  0.00     0.005 C 
HETATM   24  C11 UNL     1      12.440  33.715  18.712  1.00  0.00     0.000 C 
HETATM   25  C12 UNL     1      13.801  34.309  18.757  1.00  0.00     0.000 C 
HETATM   26  C13 UNL     1      13.831  35.487  17.843  1.00  0.00     0.000 C 
HETATM   27  C14 UNL     1      12.477  35.700  17.132  1.00  0.00     0.005 C 
ENDBRANCH   4  22
TORSDOF 4
ENDMDL
MODEL 3
REMARK VINA RESULT: -5.731979046      3.231      4.980
REMARK  4 active torsions:
REMARK  status: ('A' for Active; 'I' for Inactive)
REMARK    1  A    between atoms: C2_2  and  N1_3 
REMARK    2  A    between atoms: C4_5  and  N2_6 
REMARK    3  A    between atoms: C6_8  and  C7_9 
REMARK    4  A    between atoms: C8_12  and  C9_13 
ROOT
HETATM    1  N2  UNL     1      11.768  33.798  14.430  1.00  0.00     0.121 N 
HETATM    2  C5  UNL     1      11.218  35.026  13.965  1.00  0.00     0.291 C 
HETATM    3  C6  UNL     1       9.752  34.681  13.700  1.00  0.00     0.122 C 
HETATM    4  C8  UNL     1       9.613  33.216  14.000  1.00  0.00     0.045 C 
HETATM    5  C15 UNL     1      11.013  32.729  13.767  1.00  0.00     0.177 C 
HETATM    6  C16 UNL     1      11.337  31.389  14.251  1.00  0.00     0.055 C 
HETATM    7  C17 UNL     1      12.314  30.661  13.391  1.00  0.00     0.111 C 
HETATM    8  S1  UNL     1      12.510  31.587  11.909  1.00  0.00     0.017 S 
HETATM    9  O3  UNL     1      14.063  32.243  11.864  1.00  0.00    -0.258 OA
HETATM   10  C18 UNL     1      11.289  32.856  12.296  1.00  0.00     0.151 C 
ENDROOT
BRANCH   1  11
HETATM   11  C4  UNL     1      11.852  33.749  15.831  1.00  0.00     0.374 C 
HETATM   12  C3  UNL     1      12.853  32.811  16.478  1.00  0.00     0.160 C 
HETATM   13  N1  UNL     1      13.263  33.669  17.573  1.00  0.00    -0.206 NA
HETATM   14  S2  UNL     1      13.101  34.934  16.421  1.00  0.00     0.245 S 
HETATM   15  O4  UNL     1      14.266  35.076  15.494  1.00  0.00    -0.209 OA
HETATM   16  O5  UNL     1      12.589  36.148  17.057  1.00  0.00    -0.209 OA
BRANCH  13  17
HETATM   17  C2  UNL     1      12.231  33.750  18.586  1.00  0.00     0.103 C 
HETATM   18  C1  UNL     1      12.783  33.908  19.994  1.00  0.00     0.021 C 
ENDBRANCH  13  17
ENDBRANCH   1  11
BRANCH   3  19
HETATM   19  C7  UNL     1       8.841  35.619  14.312  1.00  0.00     0.179 C 
HETATM   20  O1  UNL     1       8.675  35.823  15.535  1.00  0.00    -0.648 OA
HETATM   21  O2  UNL     1       8.012  36.437  13.503  1.00  0.00    -0.648 OA
ENDBRANCH   3  19
BRANCH   4  22
HETATM   22  C9  UNL     1       8.510  32.658  13.244  1.00  0.00    -0.007 C 
HETATM   23  C10 UNL     1       8.444  33.347  11.894  1.00  0.00     0.005 C 
HETATM   24  C11 UNL     1       7.006  33.575  11.456  1.00  0.00     0.000 C 
HETATM   25  C12 UNL     1       6.282  32.277  11.418  1.00  0.00     0.000 C 
HETATM   26  C13 UNL     1       6.344  31.665  12.777  1.00  0.00     0.000 C 
HETATM   27  C14 UNL     1       7.144  32.538  13.767  1.00  0.00     0.005 C 
ENDBRANCH   4  22
TORSDOF 4
ENDMDL
MODEL 4
REMARK VINA RESULT: -5.618125848      2.886      6.053
REMARK  4 active torsions:
REMARK  status: ('A' for Active; 'I' for Inactive)
REMARK    1  A    between atoms: C2_2  and  N1_3 
REMARK    2  A    between atoms: C4_5  and  N2_6 
REMARK    3  A    between atoms: C6_8  and  C7_9 
REMARK    4  A    between atoms: C8_12  and  C9_13 
ROOT
HETATM    1  N2  UNL     1      12.373  35.236  12.276  1.00  0.00     0.121 N 
HETATM    2  C5  UNL     1      13.103  35.786  13.368  1.00  0.00     0.291 C 
HETATM    3  C6  UNL     1      12.482  35.108  14.590  1.00  0.00     0.122 C 
HETATM    4  C8  UNL     1      11.375  34.240  14.061  1.00  0.00     0.045 C 
HETATM    5  C15 UNL     1      11.027  34.947  12.783  1.00  0.00     0.177 C 
HETATM    6  C16 UNL     1      10.181  34.223  11.836  1.00  0.00     0.055 C 
HETATM    7  C17 UNL     1       9.251  35.101  11.071  1.00  0.00     0.111 C 
HETATM    8  S1  UNL     1       9.301  36.698  11.807  1.00  0.00     0.017 S 
HETATM    9  O3  UNL     1      10.038  37.779  10.744  1.00  0.00    -0.258 OA
HETATM   10  C18 UNL     1      10.415  36.267  13.157  1.00  0.00     0.151 C 
ENDROOT
BRANCH   1  11
HETATM   11  C4  UNL     1      13.062  34.183  11.651  1.00  0.00     0.374 C 
HETATM   12  C3  UNL     1      12.708  33.815  10.223  1.00  0.00     0.160 C 
HETATM   13  N1  UNL     1      14.047  33.524   9.747  1.00  0.00    -0.206 NA
HETATM   14  S2  UNL     1      14.511  34.831  10.761  1.00  0.00     0.245 S 
HETATM   15  O4  UNL     1      14.283  36.184  10.165  1.00  0.00    -0.209 OA
HETATM   16  O5  UNL     1      15.814  34.570  11.373  1.00  0.00    -0.209 OA
BRANCH  13  17
HETATM   17  C2  UNL     1      14.523  32.260  10.272  1.00  0.00     0.103 C 
HETATM   18  C1  UNL     1      15.048  31.323   9.197  1.00  0.00     0.021 C 
ENDBRANCH  13  17
ENDBRANCH   1  11
BRANCH   3  19
HETATM   19  C7  UNL     1      13.471  34.534  15.470  1.00  0.00     0.179 C 
HETATM   20  O1  UNL     1      14.305  35.148  16.173  1.00  0.00    -0.648 OA
HETATM   21  O2  UNL     1      13.569  33.126  15.611  1.00  0.00    -0.648 OA
ENDBRANCH   3  19
BRANCH   4  22
HETATM   22  C9  UNL     1      10.370  34.042  15.084  1.00  0.00    -0.007 C 
HETATM   23  C10 UNL     1      10.771  34.822  16.322  1.00  0.00     0.005 C 
HETATM   24  C11 UNL     1      10.435  34.058  17.593  1.00  0.00     0.000 C 
HETATM   25  C12 UNL     1       8.983  33.744  17.620  1.00  0.00     0.000 C 
HETATM   26  C13 UNL     1       8.653  32.944  16.405  1.00  0.00     0.000 C 
HETATM   27  C14 UNL     1       9.889  32.722  15.507  1.00  0.00     0.005 C 
ENDBRANCH   4  22
TORSDOF 4
ENDMDL
MODEL 5
REMARK VINA RESULT: -5.573462207      3.082      5.017
REMARK  4 active torsions:
REMARK  status: ('A' for Active; 'I' for Inactive)
REMARK    1  A    between atoms: C2_2  and  N1_3 
REMARK    2  A    between atoms: C4_5  and  N2_6 
REMARK    3  A    between atoms: C6_8  and  C7_9 
REMARK    4  A    between atoms: C8_12  and  C9_13 
ROOT
HETATM    1  N2  UNL     1      11.816  34.300  13.753  1.00  0.00     0.121 N 
HETATM    2  C5  UNL     1      10.760  33.407  13.413  1.00  0.00     0.291 C 
HETATM    3  C6  UNL     1      11.464  32.309  12.616  1.00  0.00     0.122 C 
HETATM    4  C8  UNL     1      12.906  32.725  12.527  1.00  0.00     0.045 C 
HETATM    5  C15 UNL     1      12.795  34.215  12.664  1.00  0.00     0.177 C 
HETATM    6  C16 UNL     1      14.032  34.949  12.923  1.00  0.00     0.055 C 
HETATM    7  C17 UNL     1      14.071  36.300  12.293  1.00  0.00     0.111 C 
HETATM    8  S1  UNL     1      12.701  36.413  11.195  1.00  0.00     0.017 S 
HETATM    9  O3  UNL     1      11.590  37.527  11.803  1.00  0.00    -0.258 OA
HETATM   10  C18 UNL     1      12.110  34.726  11.429  1.00  0.00     0.151 C 
ENDROOT
BRANCH   1  11
HETATM   11  C4  UNL     1      12.289  34.090  15.059  1.00  0.00     0.374 C 
HETATM   12  C3  UNL     1      12.903  35.253  15.816  1.00  0.00     0.160 C 
HETATM   13  N1  UNL     1      12.370  34.948  17.130  1.00  0.00    -0.206 NA
HETATM   14  S2  UNL     1      10.973  34.449  16.263  1.00  0.00     0.245 S 
HETATM   15  O4  UNL     1      10.076  35.569  15.842  1.00  0.00    -0.209 OA
HETATM   16  O5  UNL     1      10.354  33.290  16.906  1.00  0.00    -0.209 OA
BRANCH  13  17
HETATM   17  C2  UNL     1      13.052  33.814  17.719  1.00  0.00     0.103 C 
HETATM   18  C1  UNL     1      13.076  33.851  19.238  1.00  0.00     0.021 C 
ENDBRANCH  13  17
ENDBRANCH   1  11
BRANCH   3  19
HETATM   19  C7  UNL     1      11.138  30.984  13.085  1.00  0.00     0.179 C 
HETATM   20  O1  UNL     1      10.499  30.100  12.471  1.00  0.00    -0.648 OA
HETATM   21  O2  UNL     1      11.555  30.561  14.373  1.00  0.00    -0.648 OA
ENDBRANCH   3  19
BRANCH   4  22
HETATM   22  C9  UNL     1      13.518  32.142  11.351  1.00  0.00    -0.007 C 
HETATM   23  C10 UNL     1      13.945  30.722  11.675  1.00  0.00     0.005 C 
HETATM   24  C11 UNL     1      15.270  30.376  11.014  1.00  0.00     0.000 C 
HETATM   25  C12 UNL     1      15.162  30.568   9.545  1.00  0.00     0.000 C 
HETATM   26  C13 UNL     1      14.781  31.987   9.283  1.00  0.00     0.000 C 
HETATM   27  C14 UNL     1      14.595  32.785  10.591  1.00  0.00     0.005 C 
ENDBRANCH   4  22
TORSDOF 4
ENDMDL
