MODEL 1
REMARK VINA RESULT: -6.106125955      0.000      0.000
REMARK  4 active torsions:
REMARK  status: ('A' for Active; 'I' for Inactive)
REMARK    1  A    between atoms: C2_2  and  N1_3 
REMARK    2  A    between atoms: N2_13  and  C10_14 
REMARK    3  A    between atoms: C10_14  and  C11_15 
REMARK    4  A    between atoms: C11_15  and  C12_16 
ROOT
HETATM    1  N1  UNL     1      10.245  35.024  15.753  1.00  0.00    -0.347 N 
HETATM    2  C3  UNL     1      11.112  36.156  15.464  1.00  0.00     0.152 C 
HETATM    3  C4  UNL     1      11.297  36.277  13.972  1.00  0.00     0.187 C 
HETATM    4  O1  UNL     1      12.522  36.864  13.647  1.00  0.00    -0.387 OA
HETATM    5  C5  UNL     1      12.452  37.257  12.317  1.00  0.00     0.193 C 
HETATM    6  C6  UNL     1      13.820  37.466  11.708  1.00  0.00     0.193 C 
HETATM    7  O2  UNL     1      14.124  36.510  10.741  1.00  0.00    -0.389 OA
HETATM    8  C7  UNL     1      14.742  35.416  11.388  1.00  0.00     0.169 C 
HETATM    9  C8  UNL     1      14.956  34.278  10.415  1.00  0.00     0.046 C 
HETATM   10  C9  UNL     1      13.690  33.470  10.305  1.00  0.00     0.128 C 
HETATM   11  N2  UNL     1      13.933  32.041  10.380  1.00  0.00    -0.352 N 
HETATM   12  C13 UNL     1      13.480  31.240  11.463  1.00  0.00     0.219 C 
HETATM   13  O3  UNL     1      13.162  30.049  11.214  1.00  0.00    -0.273 OA
HETATM   14  C14 UNL     1      13.358  31.710  12.858  1.00  0.00     0.103 C 
HETATM   15  C15 UNL     1      11.936  31.986  13.255  1.00  0.00     0.010 C 
HETATM   16  C16 UNL     1      11.799  31.929  14.764  1.00  0.00     0.004 C 
HETATM   17  C17 UNL     1      12.856  32.820  15.357  1.00  0.00     0.028 C 
HETATM   18  C18 UNL     1      12.686  33.085  16.793  1.00  0.00    -0.015 C 
HETATM   19  C19 UNL     1      11.671  33.628  17.392  1.00  0.00     0.002 C 
HETATM   20  C20 UNL     1      11.775  33.775  18.905  1.00  0.00     0.054 C 
HETATM   21  C21 UNL     1      10.427  34.118  16.820  1.00  0.00     0.249 C 
HETATM   22  O4  UNL     1       9.319  33.693  17.328  1.00  0.00    -0.268 OA
ENDROOT
BRANCH  11  23
HETATM   23  C10 UNL     1      14.679  31.457   9.265  1.00  0.00     0.131 C 
BRANCH  23  24
HETATM   24  C11 UNL     1      13.800  31.326   8.038  1.00  0.00     0.064 C 
BRANCH  24  25
HETATM   25  C12 UNL     1      13.842  29.890   7.633  1.00  0.00     0.054 C 
HETATM   26  N3  UNL     1      14.186  29.026   8.503  1.00  0.00    -0.411 N 
ATOM     27  H32 UNL     1      14.424  29.325   9.449  1.00  0.00     0.155 HD
ATOM     28  H31 UNL     1      14.214  28.046   8.226  1.00  0.00     0.155 HD
ENDBRANCH  24  25
ENDBRANCH  23  24
ENDBRANCH  11  23
BRANCH   1  29
HETATM   29  C2  UNL     1       9.123  34.899  14.835  1.00  0.00     0.121 C 
HETATM   30  C1  UNL     1       8.013  35.871  15.130  1.00  0.00     0.026 C 
ENDBRANCH   1  29
TORSDOF 4
ENDMDL
MODEL 2
REMARK VINA RESULT: -6.024639378      3.407      6.841
REMARK  4 active torsions:
REMARK  status: ('A' for Active; 'I' for Inactive)
REMARK    1  A    between atoms: C2_2  and  N1_3 
REMARK    2  A    between atoms: N2_13  and  C10_14 
REMARK    3  A    between atoms: C10_14  and  C11_15 
REMARK    4  A    between atoms: C11_15  and  C12_16 
ROOT
HETATM    1  N1  UNL     1       7.429  33.385  12.415  1.00  0.00    -0.347 N 
HETATM    2  C3  UNL     1       8.387  34.038  11.535  1.00  0.00     0.152 C 
HETATM    3  C4  UNL     1       9.767  33.492  11.805  1.00  0.00     0.187 C 
HETATM    4  O1  UNL     1      10.762  34.428  11.512  1.00  0.00    -0.387 OA
HETATM    5  C5  UNL     1      11.967  33.741  11.443  1.00  0.00     0.193 C 
HETATM    6  C6  UNL     1      13.158  34.658  11.603  1.00  0.00     0.193 C 
HETATM    7  O2  UNL     1      13.841  34.440  12.797  1.00  0.00    -0.389 OA
HETATM    8  C7  UNL     1      13.261  35.263  13.789  1.00  0.00     0.169 C 
HETATM    9  C8  UNL     1      13.856  34.958  15.146  1.00  0.00     0.046 C 
HETATM   10  C9  UNL     1      13.148  33.774  15.747  1.00  0.00     0.128 C 
HETATM   11  N2  UNL     1      12.787  33.987  17.136  1.00  0.00    -0.352 N 
HETATM   12  C13 UNL     1      11.438  34.086  17.574  1.00  0.00     0.219 C 
HETATM   13  O3  UNL     1      11.166  33.657  18.725  1.00  0.00    -0.273 OA
HETATM   14  C14 UNL     1      10.338  34.656  16.771  1.00  0.00     0.103 C 
HETATM   15  C15 UNL     1       9.439  33.603  16.188  1.00  0.00     0.010 C 
HETATM   16  C16 UNL     1       8.084  34.201  15.861  1.00  0.00     0.004 C 
HETATM   17  C17 UNL     1       8.314  35.435  15.031  1.00  0.00     0.028 C 
HETATM   18  C18 UNL     1       7.098  35.977  14.407  1.00  0.00    -0.015 C 
HETATM   19  C19 UNL     1       6.288  35.385  13.585  1.00  0.00     0.002 C 
HETATM   20  C20 UNL     1       5.097  36.202  13.098  1.00  0.00     0.054 C 
HETATM   21  C21 UNL     1       6.351  34.032  13.056  1.00  0.00     0.249 C 
HETATM   22  O4  UNL     1       5.300  33.289  13.168  1.00  0.00    -0.268 OA
ENDROOT
BRANCH  11  23
HETATM   23  C10 UNL     1      13.900  34.096  18.080  1.00  0.00     0.131 C 
BRANCH  23  24
HETATM   24  C11 UNL     1      14.027  35.511  18.604  1.00  0.00     0.064 C 
BRANCH  24  25
HETATM   25  C12 UNL     1      13.910  35.431  20.090  1.00  0.00     0.054 C 
HETATM   26  N3  UNL     1      13.511  34.338  20.605  1.00  0.00    -0.411 N 
ATOM     27  H32 UNL     1      13.281  33.546  20.004  1.00  0.00     0.155 HD
ATOM     28  H31 UNL     1      13.431  34.282  21.620  1.00  0.00     0.155 HD
ENDBRANCH  24  25
ENDBRANCH  23  24
ENDBRANCH  11  23
BRANCH   1  29
HETATM   29  C2  UNL     1       7.664  31.958  12.577  1.00  0.00     0.121 C 
HETATM   30  C1  UNL     1       7.091  31.139  11.453  1.00  0.00     0.026 C 
ENDBRANCH   1  29
TORSDOF 4
ENDMDL
MODEL 3
REMARK VINA RESULT: -5.755026211      3.506      4.591
REMARK  4 active torsions:
REMARK  status: ('A' for Active; 'I' for Inactive)
REMARK    1  A    between atoms: C2_2  and  N1_3 
REMARK    2  A    between atoms: N2_13  and  C10_14 
REMARK    3  A    between atoms: C10_14  and  C11_15 
REMARK    4  A    between atoms: C11_15  and  C12_16 
ROOT
HETATM    1  N1  UNL     1       9.229  33.775  13.960  1.00  0.00    -0.347 N 
HETATM    2  C3  UNL     1       8.469  34.997  13.742  1.00  0.00     0.152 C 
HETATM    3  C4  UNL     1       8.757  35.525  12.359  1.00  0.00     0.187 C 
HETATM    4  O1  UNL     1       8.610  36.913  12.292  1.00  0.00    -0.387 OA
HETATM    5  C5  UNL     1       8.540  37.257  10.948  1.00  0.00     0.193 C 
HETATM    6  C6  UNL     1       8.851  38.717  10.714  1.00  0.00     0.193 C 
HETATM    7  O2  UNL     1      10.053  38.903  10.035  1.00  0.00    -0.389 OA
HETATM    8  C7  UNL     1      11.088  38.989  10.995  1.00  0.00     0.169 C 
HETATM    9  C8  UNL     1      12.438  39.034  10.315  1.00  0.00     0.046 C 
HETATM   10  C9  UNL     1      12.883  37.633   9.994  1.00  0.00     0.128 C 
HETATM   11  N2  UNL     1      14.265  37.389  10.363  1.00  0.00    -0.352 N 
HETATM   12  C13 UNL     1      14.638  36.485  11.395  1.00  0.00     0.219 C 
HETATM   13  O3  UNL     1      15.726  35.867  11.264  1.00  0.00    -0.273 OA
HETATM   14  C14 UNL     1      13.837  36.223  12.607  1.00  0.00     0.103 C 
HETATM   15  C15 UNL     1      13.107  34.912  12.549  1.00  0.00     0.010 C 
HETATM   16  C16 UNL     1      12.768  34.443  13.951  1.00  0.00     0.004 C 
HETATM   17  C17 UNL     1      12.075  35.576  14.659  1.00  0.00     0.028 C 
HETATM   18  C18 UNL     1      11.443  35.195  15.930  1.00  0.00    -0.015 C 
HETATM   19  C19 UNL     1      10.525  34.301  16.131  1.00  0.00     0.002 C 
HETATM   20  C20 UNL     1      10.057  34.120  17.570  1.00  0.00     0.054 C 
HETATM   21  C21 UNL     1       9.871  33.429  15.168  1.00  0.00     0.249 C 
HETATM   22  O4  UNL     1       9.855  32.161  15.413  1.00  0.00    -0.268 OA
ENDROOT
BRANCH  11  23
HETATM   23  C10 UNL     1      15.273  38.132   9.606  1.00  0.00     0.131 C 
BRANCH  23  24
HETATM   24  C11 UNL     1      15.200  37.791   8.132  1.00  0.00     0.064 C 
BRANCH  24  25
HETATM   25  C12 UNL     1      16.501  37.154   7.773  1.00  0.00     0.054 C 
HETATM   26  N3  UNL     1      16.885  36.145   8.448  1.00  0.00    -0.411 N 
ATOM     27  H32 UNL     1      16.306  35.793   9.210  1.00  0.00     0.155 HD
ATOM     28  H31 UNL     1      17.774  35.710   8.203  1.00  0.00     0.155 HD
ENDBRANCH  24  25
ENDBRANCH  23  24
ENDBRANCH  11  23
BRANCH   1  29
HETATM   29  C2  UNL     1       9.265  32.895  12.802  1.00  0.00     0.121 C 
HETATM   30  C1  UNL     1       8.010  32.080  12.646  1.00  0.00     0.026 C 
ENDBRANCH   1  29
TORSDOF 4
ENDMDL
MODEL 4
REMARK VINA RESULT: -5.733485895      3.573      7.363
REMARK  4 active torsions:
REMARK  status: ('A' for Active; 'I' for Inactive)
REMARK    1  A    between atoms: C2_2  and  N1_3 
REMARK    2  A    between atoms: N2_13  and  C10_14 
REMARK    3  A    between atoms: C10_14  and  C11_15 
REMARK    4  A    between atoms: C11_15  and  C12_16 
ROOT
HETATM    1  N1  UNL     1      12.638  33.614  15.204  1.00  0.00    -0.347 N 
HETATM    2  C3  UNL     1      12.282  32.241  14.879  1.00  0.00     0.152 C 
HETATM    3  C4  UNL     1      11.568  32.209  13.551  1.00  0.00     0.187 C 
HETATM    4  O1  UNL     1      10.681  31.134  13.465  1.00  0.00    -0.387 OA
HETATM    5  C5  UNL     1      10.353  30.976  12.124  1.00  0.00     0.193 C 
HETATM    6  C6  UNL     1       9.077  30.187  11.936  1.00  0.00     0.193 C 
HETATM    7  O2  UNL     1       8.038  30.967  11.434  1.00  0.00    -0.389 OA
HETATM    8  C7  UNL     1       7.350  31.536  12.530  1.00  0.00     0.169 C 
HETATM    9  C8  UNL     1       6.306  32.519  12.049  1.00  0.00     0.046 C 
HETATM   10  C9  UNL     1       6.956  33.852  11.794  1.00  0.00     0.128 C 
HETATM   11  N2  UNL     1       6.200  34.957  12.355  1.00  0.00    -0.352 N 
HETATM   12  C13 UNL     1       6.683  35.753  13.429  1.00  0.00     0.219 C 
HETATM   13  O3  UNL     1       6.347  36.965  13.453  1.00  0.00    -0.273 OA
HETATM   14  C14 UNL     1       7.550  35.254  14.516  1.00  0.00     0.103 C 
HETATM   15  C15 UNL     1       8.982  35.674  14.355  1.00  0.00     0.010 C 
HETATM   16  C16 UNL     1       9.691  35.626  15.695  1.00  0.00     0.004 C 
HETATM   17  C17 UNL     1       9.443  34.269  16.298  1.00  0.00     0.028 C 
HETATM   18  C18 UNL     1      10.281  33.967  17.467  1.00  0.00    -0.015 C 
HETATM   19  C19 UNL     1      11.577  33.935  17.536  1.00  0.00     0.002 C 
HETATM   20  C20 UNL     1      12.175  33.589  18.895  1.00  0.00     0.054 C 
HETATM   21  C21 UNL     1      12.555  34.188  16.490  1.00  0.00     0.249 C 
HETATM   22  O4  UNL     1      13.489  35.047  16.731  1.00  0.00    -0.268 OA
ENDROOT
BRANCH  11  23
HETATM   23  C10 UNL     1       4.894  35.215  11.747  1.00  0.00     0.131 C 
BRANCH  23  24
HETATM   24  C11 UNL     1       3.781  35.016  12.756  1.00  0.00     0.064 C 
BRANCH  24  25
HETATM   25  C12 UNL     1       2.981  36.275  12.766  1.00  0.00     0.054 C 
HETATM   26  N3  UNL     1       3.523  37.339  12.324  1.00  0.00    -0.411 N 
ATOM     27  H32 UNL     1       4.482  37.314  11.975  1.00  0.00     0.155 HD
ATOM     28  H31 UNL     1       2.977  38.200  12.331  1.00  0.00     0.155 HD
ENDBRANCH  24  25
ENDBRANCH  23  24
ENDBRANCH  11  23
BRANCH   1  29
HETATM   29  C2  UNL     1      13.121  34.377  14.062  1.00  0.00     0.121 C 
HETATM   30  C1  UNL     1      12.530  35.759  13.988  1.00  0.00     0.026 C 
ENDBRANCH   1  29
TORSDOF 4
ENDMDL
MODEL 5
REMARK VINA RESULT: -5.706690729      3.198      6.785
REMARK  4 active torsions:
REMARK  status: ('A' for Active; 'I' for Inactive)
REMARK    1  A    between atoms: C2_2  and  N1_3 
REMARK    2  A    between atoms: N2_13  and  C10_14 
REMARK    3  A    between atoms: C10_14  and  C11_15 
REMARK    4  A    between atoms: C11_15  and  C12_16 
ROOT
HETATM    1  N1  UNL     1       8.001  32.109  12.263  1.00  0.00    -0.347 N 
HETATM    2  C3  UNL     1       8.745  32.958  11.345  1.00  0.00     0.152 C 
HETATM    3  C4  UNL     1      10.223  32.793  11.597  1.00  0.00     0.187 C 
HETATM    4  O1  UNL     1      10.938  33.944  11.258  1.00  0.00    -0.387 OA
HETATM    5  C5  UNL     1      12.279  33.588  11.178  1.00  0.00     0.193 C 
HETATM    6  C6  UNL     1      13.196  34.785  11.287  1.00  0.00     0.193 C 
HETATM    7  O2  UNL     1      13.931  34.786  12.470  1.00  0.00    -0.389 OA
HETATM    8  C7  UNL     1      13.175  35.462  13.454  1.00  0.00     0.169 C 
HETATM    9  C8  UNL     1      13.850  35.362  14.804  1.00  0.00     0.046 C 
HETATM   10  C9  UNL     1      13.480  34.054  15.451  1.00  0.00     0.128 C 
HETATM   11  N2  UNL     1      13.098  34.209  16.842  1.00  0.00    -0.352 N 
HETATM   12  C13 UNL     1      11.777  33.971  17.308  1.00  0.00     0.219 C 
HETATM   13  O3  UNL     1      11.643  33.523  18.476  1.00  0.00    -0.273 OA
HETATM   14  C14 UNL     1      10.554  34.215  16.517  1.00  0.00     0.103 C 
HETATM   15  C15 UNL     1       9.947  32.950  15.982  1.00  0.00     0.010 C 
HETATM   16  C16 UNL     1       8.479  33.169  15.672  1.00  0.00     0.004 C 
HETATM   17  C17 UNL     1       8.370  34.395  14.806  1.00  0.00     0.028 C 
HETATM   18  C18 UNL     1       7.046  34.588  14.197  1.00  0.00    -0.015 C 
HETATM   19  C19 UNL     1       6.403  33.782  13.409  1.00  0.00     0.002 C 
HETATM   20  C20 UNL     1       5.034  34.252  12.930  1.00  0.00     0.054 C 
HETATM   21  C21 UNL     1       6.803  32.476  12.913  1.00  0.00     0.249 C 
HETATM   22  O4  UNL     1       5.981  31.492  13.068  1.00  0.00    -0.268 OA
ENDROOT
BRANCH  11  23
HETATM   23  C10 UNL     1      14.161  34.629  17.757  1.00  0.00     0.131 C 
BRANCH  23  24
HETATM   24  C11 UNL     1      13.868  35.999  18.331  1.00  0.00     0.064 C 
BRANCH  24  25
HETATM   25  C12 UNL     1      14.097  35.906  19.803  1.00  0.00     0.054 C 
HETATM   26  N3  UNL     1      13.619  34.903  20.426  1.00  0.00    -0.411 N 
ATOM     27  H32 UNL     1      13.095  34.192  19.917  1.00  0.00     0.155 HD
ATOM     28  H31 UNL     1      13.775  34.839  21.431  1.00  0.00     0.155 HD
ENDBRANCH  24  25
ENDBRANCH  23  24
ENDBRANCH  11  23
BRANCH   1  29
HETATM   29  C2  UNL     1       8.598  30.795  12.456  1.00  0.00     0.121 C 
HETATM   30  C1  UNL     1       8.253  29.828  11.357  1.00  0.00     0.026 C 
ENDBRANCH   1  29
TORSDOF 4
ENDMDL
