MODEL 1
REMARK VINA RESULT: -8.117005911      0.000      0.000
REMARK  4 active torsions:
REMARK  status: ('A' for Active; 'I' for Inactive)
REMARK    1  A    between atoms: C5_6  and  C6_7 
REMARK    2  A    between atoms: C6_7  and  N1_8 
REMARK    3  A    between atoms: C12_14  and  N2_15 
REMARK    4  A    between atoms: C19_25  and  C20_26 
ROOT
HETATM    1  N1  UNL     1      11.058  33.986  15.433  1.00  0.00    -0.064 N 
HETATM    2  C7  UNL     1      11.137  33.119  14.318  1.00  0.00     0.238 C 
HETATM    3  C8  UNL     1       9.751  32.554  13.998  1.00  0.00     0.034 C 
HETATM    4  C9  UNL     1       8.707  33.592  14.451  1.00  0.00     0.024 C 
HETATM    5  C10 UNL     1       8.745  33.442  15.983  1.00  0.00     0.034 C 
HETATM    6  C11 UNL     1      10.167  33.351  16.423  1.00  0.00     0.238 C 
HETATM    7  C12 UNL     1       9.256  34.920  14.033  1.00  0.00     0.253 C 
HETATM    8  C17 UNL     1      10.330  35.239  15.078  1.00  0.00     0.273 C 
ENDROOT
BRANCH   1   9
HETATM    9  C6  UNL     1      12.229  34.408  16.080  1.00  0.00     0.254 C 
BRANCH   9  10
HETATM   10  C5  UNL     1      12.264  34.848  17.477  1.00  0.00     0.137 C 
HETATM   11  C4  UNL     1      13.386  34.433  18.336  1.00  0.00     0.166 C 
HETATM   12  S1  UNL     1      12.934  33.935  20.057  1.00  0.00    -0.131 SA
HETATM   13  N3  UNL     1      13.746  35.836  18.656  1.00  0.00    -0.321 N 
HETATM   14  C2  UNL     1      13.866  35.229  20.948  1.00  0.00     0.033 C 
HETATM   15  C1  UNL     1      14.765  34.606  21.972  1.00  0.00     0.029 C 
HETATM   16  C3  UNL     1      12.913  36.238  21.523  1.00  0.00     0.029 C 
HETATM   17  C19 UNL     1      14.665  35.832  19.786  1.00  0.00     0.207 C 
HETATM   18  C18 UNL     1      12.902  36.219  17.585  1.00  0.00     0.230 C 
HETATM   19  O2  UNL     1      12.770  37.311  16.982  1.00  0.00    -0.273 OA
BRANCH  17  20
HETATM   20  C20 UNL     1      15.044  37.226  20.064  1.00  0.00     0.198 C 
HETATM   21  O3  UNL     1      14.634  38.191  19.400  1.00  0.00    -0.646 OA
HETATM   22  O4  UNL     1      15.914  37.487  21.135  1.00  0.00    -0.646 OA
ENDBRANCH  17  20
ENDBRANCH   9  10
ENDBRANCH   1   9
BRANCH   7  23
HETATM   23  N2  UNL     1       8.377  35.977  13.805  1.00  0.00     0.099 N 
HETATM   24  C13 UNL     1       8.089  36.138  12.394  1.00  0.00     0.299 C 
HETATM   25  C14 UNL     1       7.033  37.213  12.169  1.00  0.00     0.198 C 
HETATM   26  O1  UNL     1       5.808  36.777  12.664  1.00  0.00    -0.388 OA
HETATM   27  C15 UNL     1       5.937  35.814  13.657  1.00  0.00     0.198 C 
HETATM   28  C16 UNL     1       7.176  36.105  14.522  1.00  0.00     0.299 C 
ENDBRANCH   7  23
TORSDOF 4
ENDMDL
MODEL 2
REMARK VINA RESULT: -7.874348303      2.559      4.166
REMARK  4 active torsions:
REMARK  status: ('A' for Active; 'I' for Inactive)
REMARK    1  A    between atoms: C5_6  and  C6_7 
REMARK    2  A    between atoms: C6_7  and  N1_8 
REMARK    3  A    between atoms: C12_14  and  N2_15 
REMARK    4  A    between atoms: C19_25  and  C20_26 
ROOT
HETATM    1  N1  UNL     1      11.374  33.841  15.291  1.00  0.00    -0.064 N 
HETATM    2  C7  UNL     1      10.354  33.209  16.039  1.00  0.00     0.238 C 
HETATM    3  C8  UNL     1       9.173  32.870  15.126  1.00  0.00     0.034 C 
HETATM    4  C9  UNL     1       9.728  32.647  13.706  1.00  0.00     0.024 C 
HETATM    5  C10 UNL     1      10.051  34.084  13.256  1.00  0.00     0.034 C 
HETATM    6  C11 UNL     1      10.723  34.800  14.379  1.00  0.00     0.238 C 
HETATM    7  C12 UNL     1      10.982  31.851  13.888  1.00  0.00     0.253 C 
HETATM    8  C17 UNL     1      12.023  32.874  14.358  1.00  0.00     0.273 C 
ENDROOT
BRANCH   1   9
HETATM    9  C6  UNL     1      12.431  34.487  15.950  1.00  0.00     0.254 C 
BRANCH   9  10
HETATM   10  C5  UNL     1      12.386  34.869  17.363  1.00  0.00     0.137 C 
HETATM   11  C4  UNL     1      13.453  34.411  18.269  1.00  0.00     0.166 C 
HETATM   12  S1  UNL     1      12.898  33.846  19.938  1.00  0.00    -0.131 SA
HETATM   13  N3  UNL     1      13.800  35.797  18.668  1.00  0.00    -0.321 N 
HETATM   14  C2  UNL     1      13.781  35.095  20.935  1.00  0.00     0.033 C 
HETATM   15  C1  UNL     1      14.616  34.424  21.984  1.00  0.00     0.029 C 
HETATM   16  C3  UNL     1      12.801  36.086  21.495  1.00  0.00     0.029 C 
HETATM   17  C19 UNL     1      14.650  35.740  19.848  1.00  0.00     0.207 C 
HETATM   18  C18 UNL     1      13.022  36.230  17.566  1.00  0.00     0.230 C 
HETATM   19  O2  UNL     1      12.930  37.347  17.002  1.00  0.00    -0.273 OA
BRANCH  17  20
HETATM   20  C20 UNL     1      15.018  37.119  20.206  1.00  0.00     0.198 C 
HETATM   21  O3  UNL     1      14.696  38.109  19.531  1.00  0.00    -0.646 OA
HETATM   22  O4  UNL     1      15.772  37.335  21.370  1.00  0.00    -0.646 OA
ENDBRANCH  17  20
ENDBRANCH   9  10
ENDBRANCH   1   9
BRANCH   7  23
HETATM   23  N2  UNL     1      11.434  31.046  12.844  1.00  0.00     0.099 N 
HETATM   24  C13 UNL     1      12.880  31.048  12.755  1.00  0.00     0.299 C 
HETATM   25  C14 UNL     1      13.365  30.068  11.694  1.00  0.00     0.198 C 
HETATM   26  O1  UNL     1      13.105  28.765  12.106  1.00  0.00    -0.388 OA
HETATM   27  C15 UNL     1      12.060  28.684  13.018  1.00  0.00     0.198 C 
HETATM   28  C16 UNL     1      10.980  29.727  12.682  1.00  0.00     0.299 C 
ENDBRANCH   7  23
TORSDOF 4
ENDMDL
MODEL 3
REMARK VINA RESULT: -7.685129087      2.187      2.653
REMARK  4 active torsions:
REMARK  status: ('A' for Active; 'I' for Inactive)
REMARK    1  A    between atoms: C5_6  and  C6_7 
REMARK    2  A    between atoms: C6_7  and  N1_8 
REMARK    3  A    between atoms: C12_14  and  N2_15 
REMARK    4  A    between atoms: C19_25  and  C20_26 
ROOT
HETATM    1  N1  UNL     1      11.246  34.609  15.100  1.00  0.00    -0.064 N 
HETATM    2  C7  UNL     1      10.777  33.445  14.447  1.00  0.00     0.238 C 
HETATM    3  C8  UNL     1       9.384  33.698  13.866  1.00  0.00     0.034 C 
HETATM    4  C9  UNL     1       9.280  35.201  13.541  1.00  0.00     0.024 C 
HETATM    5  C10 UNL     1       9.138  35.826  14.941  1.00  0.00     0.034 C 
HETATM    6  C11 UNL     1      10.115  35.174  15.860  1.00  0.00     0.238 C 
HETATM    7  C12 UNL     1      10.592  35.568  12.924  1.00  0.00     0.253 C 
HETATM    8  C17 UNL     1      11.557  35.681  14.110  1.00  0.00     0.273 C 
ENDROOT
BRANCH   1   9
HETATM    9  C6  UNL     1      12.369  34.541  15.939  1.00  0.00     0.254 C 
BRANCH   9  10
HETATM   10  C5  UNL     1      12.337  34.902  17.358  1.00  0.00     0.137 C 
HETATM   11  C4  UNL     1      13.416  34.435  18.245  1.00  0.00     0.166 C 
HETATM   12  S1  UNL     1      12.881  33.843  19.911  1.00  0.00    -0.131 SA
HETATM   13  N3  UNL     1      13.762  35.817  18.661  1.00  0.00    -0.321 N 
HETATM   14  C2  UNL     1      13.771  35.081  20.918  1.00  0.00     0.033 C 
HETATM   15  C1  UNL     1      14.619  34.399  21.947  1.00  0.00     0.029 C 
HETATM   16  C3  UNL     1      12.792  36.060  21.502  1.00  0.00     0.029 C 
HETATM   17  C19 UNL     1      14.625  35.746  19.831  1.00  0.00     0.207 C 
HETATM   18  C18 UNL     1      12.971  36.263  17.574  1.00  0.00     0.230 C 
HETATM   19  O2  UNL     1      12.868  37.388  17.027  1.00  0.00    -0.273 OA
BRANCH  17  20
HETATM   20  C20 UNL     1      14.992  37.121  20.205  1.00  0.00     0.198 C 
HETATM   21  O3  UNL     1      14.655  38.120  19.551  1.00  0.00    -0.646 OA
HETATM   22  O4  UNL     1      15.762  37.322  21.361  1.00  0.00    -0.646 OA
ENDBRANCH  17  20
ENDBRANCH   9  10
ENDBRANCH   1   9
BRANCH   7  23
HETATM   23  N2  UNL     1      10.655  36.658  12.057  1.00  0.00     0.099 N 
HETATM   24  C13 UNL     1      11.912  37.368  12.183  1.00  0.00     0.299 C 
HETATM   25  C14 UNL     1      12.019  38.479  11.145  1.00  0.00     0.198 C 
HETATM   26  O1  UNL     1      12.130  37.923   9.874  1.00  0.00    -0.388 OA
HETATM   27  C15 UNL     1      11.594  36.644   9.794  1.00  0.00     0.198 C 
HETATM   28  C16 UNL     1      10.349  36.532  10.693  1.00  0.00     0.299 C 
ENDBRANCH   7  23
TORSDOF 4
ENDMDL
MODEL 4
REMARK VINA RESULT: -7.641445451      1.096      1.377
REMARK  4 active torsions:
REMARK  status: ('A' for Active; 'I' for Inactive)
REMARK    1  A    between atoms: C5_6  and  C6_7 
REMARK    2  A    between atoms: C6_7  and  N1_8 
REMARK    3  A    between atoms: C12_14  and  N2_15 
REMARK    4  A    between atoms: C19_25  and  C20_26 
ROOT
HETATM    1  N1  UNL     1      11.878  34.201  14.820  1.00  0.00    -0.064 N 
HETATM    2  C7  UNL     1      12.077  34.127  13.421  1.00  0.00     0.238 C 
HETATM    3  C8  UNL     1      11.231  32.995  12.834  1.00  0.00     0.034 C 
HETATM    4  C9  UNL     1       9.990  32.825  13.731  1.00  0.00     0.024 C 
HETATM    5  C10 UNL     1      10.583  32.140  14.977  1.00  0.00     0.034 C 
HETATM    6  C11 UNL     1      11.861  32.819  15.336  1.00  0.00     0.238 C 
HETATM    7  C12 UNL     1       9.535  34.213  14.052  1.00  0.00     0.253 C 
HETATM    8  C17 UNL     1      10.507  34.696  15.134  1.00  0.00     0.273 C 
ENDROOT
BRANCH   1   9
HETATM    9  C6  UNL     1      12.743  34.971  15.613  1.00  0.00     0.254 C 
BRANCH   9  10
HETATM   10  C5  UNL     1      12.580  35.132  17.060  1.00  0.00     0.137 C 
HETATM   11  C4  UNL     1      13.604  34.585  17.966  1.00  0.00     0.166 C 
HETATM   12  S1  UNL     1      12.965  33.751  19.485  1.00  0.00    -0.131 SA
HETATM   13  N3  UNL     1      13.852  35.907  18.591  1.00  0.00    -0.321 N 
HETATM   14  C2  UNL     1      13.712  34.868  20.721  1.00  0.00     0.033 C 
HETATM   15  C1  UNL     1      14.505  34.080  21.719  1.00  0.00     0.029 C 
HETATM   16  C3  UNL     1      12.646  35.723  21.346  1.00  0.00     0.029 C 
HETATM   17  C19 UNL     1      14.620  35.706  19.811  1.00  0.00     0.207 C 
HETATM   18  C18 UNL     1      13.131  36.471  17.510  1.00  0.00     0.230 C 
HETATM   19  O2  UNL     1      13.021  37.656  17.113  1.00  0.00    -0.273 OA
BRANCH  17  20
HETATM   20  C20 UNL     1      14.892  37.027  20.397  1.00  0.00     0.198 C 
HETATM   21  O3  UNL     1      14.641  38.096  19.818  1.00  0.00    -0.646 OA
HETATM   22  O4  UNL     1      15.465  37.093  21.677  1.00  0.00    -0.646 OA
ENDBRANCH  17  20
ENDBRANCH   9  10
ENDBRANCH   1   9
BRANCH   7  23
HETATM   23  N2  UNL     1       8.197  34.433  14.374  1.00  0.00     0.099 N 
HETATM   24  C13 UNL     1       7.701  35.661  13.785  1.00  0.00     0.299 C 
HETATM   25  C14 UNL     1       6.208  35.825  14.039  1.00  0.00     0.198 C 
HETATM   26  O1  UNL     1       5.502  34.860  13.328  1.00  0.00    -0.388 OA
HETATM   27  C15 UNL     1       6.263  33.734  13.043  1.00  0.00     0.198 C 
HETATM   28  C16 UNL     1       7.225  33.434  14.206  1.00  0.00     0.299 C 
ENDBRANCH   7  23
TORSDOF 4
ENDMDL
MODEL 5
REMARK VINA RESULT: -7.601259513      2.573      4.270
REMARK  4 active torsions:
REMARK  status: ('A' for Active; 'I' for Inactive)
REMARK    1  A    between atoms: C5_6  and  C6_7 
REMARK    2  A    between atoms: C6_7  and  N1_8 
REMARK    3  A    between atoms: C12_14  and  N2_15 
REMARK    4  A    between atoms: C19_25  and  C20_26 
ROOT
HETATM    1  N1  UNL     1      11.632  34.192  15.012  1.00  0.00    -0.064 N 
HETATM    2  C7  UNL     1      10.876  33.220  15.708  1.00  0.00     0.238 C 
HETATM    3  C8  UNL     1       9.813  32.624  14.782  1.00  0.00     0.034 C 
HETATM    4  C9  UNL     1      10.351  32.705  13.341  1.00  0.00     0.024 C 
HETATM    5  C10 UNL     1      10.213  34.207  13.027  1.00  0.00     0.034 C 
HETATM    6  C11 UNL     1      10.688  34.989  14.205  1.00  0.00     0.238 C 
HETATM    7  C12 UNL     1      11.790  32.309  13.428  1.00  0.00     0.253 C 
HETATM    8  C17 UNL     1      12.499  33.550  13.982  1.00  0.00     0.273 C 
ENDROOT
BRANCH   1   9
HETATM    9  C6  UNL     1      12.476  35.064  15.717  1.00  0.00     0.254 C 
BRANCH   9  10
HETATM   10  C5  UNL     1      12.409  35.250  17.168  1.00  0.00     0.137 C 
HETATM   11  C4  UNL     1      13.460  34.668  18.019  1.00  0.00     0.166 C 
HETATM   12  S1  UNL     1      12.878  33.885  19.587  1.00  0.00    -0.131 SA
HETATM   13  N3  UNL     1      13.806  35.985  18.608  1.00  0.00    -0.321 N 
HETATM   14  C2  UNL     1      13.750  34.982  20.758  1.00  0.00     0.033 C 
HETATM   15  C1  UNL     1      14.566  34.171  21.718  1.00  0.00     0.029 C 
HETATM   16  C3  UNL     1      12.765  35.894  21.432  1.00  0.00     0.029 C 
HETATM   17  C19 UNL     1      14.638  35.764  19.782  1.00  0.00     0.207 C 
HETATM   18  C18 UNL     1      13.047  36.568  17.563  1.00  0.00     0.230 C 
HETATM   19  O2  UNL     1      12.967  37.752  17.154  1.00  0.00    -0.273 OA
BRANCH  17  20
HETATM   20  C20 UNL     1      15.005  37.080  20.329  1.00  0.00     0.198 C 
HETATM   21  O3  UNL     1      14.798  38.149  19.735  1.00  0.00    -0.646 OA
HETATM   22  O4  UNL     1      15.622  37.137  21.588  1.00  0.00    -0.646 OA
ENDBRANCH  17  20
ENDBRANCH   9  10
ENDBRANCH   1   9
BRANCH   7  23
HETATM   23  N2  UNL     1      12.417  31.771  12.306  1.00  0.00     0.099 N 
HETATM   24  C13 UNL     1      13.614  32.510  11.958  1.00  0.00     0.299 C 
HETATM   25  C14 UNL     1      14.357  31.839  10.809  1.00  0.00     0.198 C 
HETATM   26  O1  UNL     1      14.884  30.624  11.237  1.00  0.00    -0.388 OA
HETATM   27  C15 UNL     1      14.199  30.089  12.320  1.00  0.00     0.198 C 
HETATM   28  C16 UNL     1      12.696  30.399  12.204  1.00  0.00     0.299 C 
ENDBRANCH   7  23
TORSDOF 4
ENDMDL
