MODEL 1
REMARK VINA RESULT: -6.816486838      0.000      0.000
REMARK  4 active torsions:
REMARK  status: ('A' for Active; 'I' for Inactive)
REMARK    1  A    between atoms: C2_2  and  N1_3 
REMARK    2  A    between atoms: C2_2  and  C14_17 
REMARK       I    between atoms: N1_3  and  C3_5 
REMARK    3  A    between atoms: C3_5  and  C4_7 
REMARK       I    between atoms: C14_17  and  N2_19 
REMARK    4  A    between atoms: N2_19  and  C16_21 
ROOT
HETATM    1  C1  UNL     1      12.962  33.108  14.020  1.00  0.00     0.042 C 
HETATM    2  C2  UNL     1      13.120  34.608  13.996  1.00  0.00     0.172 C 
ENDROOT
BRANCH   2   3
HETATM    3  N1  UNL     1      13.937  34.967  12.885  1.00  0.00    -0.348 N 
HETATM    4  C3  UNL     1      13.800  36.248  12.297  1.00  0.00     0.223 C 
HETATM    5  O1  UNL     1      12.947  37.029  12.792  1.00  0.00    -0.273 OA
ATOM      6  H1  UNL     1      14.618  34.305  12.514  1.00  0.00     0.163 HD
BRANCH   4   7
HETATM    7  C4  UNL     1      14.613  36.696  11.139  1.00  0.00     0.086 C 
HETATM    8  C5  UNL     1      15.193  35.590  10.332  1.00  0.00    -0.001 C 
HETATM    9  C6  UNL     1      16.167  36.241   9.337  1.00  0.00     0.010 C 
HETATM   10  C10 UNL     1      14.173  34.860   9.489  1.00  0.00     0.010 C 
HETATM   11  C7  UNL     1      15.419  37.223   8.465  1.00  0.00    -0.013 C 
HETATM   12  C8  UNL     1      14.405  36.478   7.640  1.00  0.00     0.009 C 
HETATM   13  C13 UNL     1      14.748  38.298   9.287  1.00  0.00     0.010 C 
HETATM   14  C9  UNL     1      13.449  35.805   8.577  1.00  0.00    -0.013 C 
HETATM   15  C11 UNL     1      12.785  36.866   9.429  1.00  0.00     0.010 C 
HETATM   16  C12 UNL     1      13.801  37.585  10.260  1.00  0.00    -0.001 C 
ENDBRANCH   4   7
ENDBRANCH   2   3
BRANCH   2  17
HETATM   17  C14 UNL     1      13.679  35.053  15.298  1.00  0.00     0.242 C 
HETATM   18  O2  UNL     1      14.927  34.971  15.426  1.00  0.00    -0.271 OA
HETATM   19  N2  UNL     1      12.904  35.552  16.372  1.00  0.00    -0.350 N 
HETATM   20  C15 UNL     1      11.449  35.656  16.222  1.00  0.00     0.153 C 
BRANCH  19  21
HETATM   21  C16 UNL     1      13.542  35.954  17.607  1.00  0.00     0.088 C 
HETATM   22  C17 UNL     1      13.376  34.922  18.698  1.00  0.00     0.040 C 
HETATM   23  C18 UNL     1      14.007  35.398  19.961  1.00  0.00     0.142 C 
HETATM   24  S1  UNL     1      15.013  36.844  19.760  1.00  0.00     0.144 S 
HETATM   25  O3  UNL     1      15.281  37.411  21.125  1.00  0.00    -0.228 OA
HETATM   26  O4  UNL     1      16.336  36.540  19.136  1.00  0.00    -0.228 OA
HETATM   27  C19 UNL     1      14.082  38.035  18.843  1.00  0.00     0.142 C 
HETATM   28  C20 UNL     1      13.026  37.315  18.027  1.00  0.00     0.040 C 
ENDBRANCH  19  21
ENDBRANCH   2  17
TORSDOF 4
ENDMDL
MODEL 2
REMARK VINA RESULT: -6.812051554      3.212      5.492
REMARK  4 active torsions:
REMARK  status: ('A' for Active; 'I' for Inactive)
REMARK    1  A    between atoms: C2_2  and  N1_3 
REMARK    2  A    between atoms: C2_2  and  C14_17 
REMARK       I    between atoms: N1_3  and  C3_5 
REMARK    3  A    between atoms: C3_5  and  C4_7 
REMARK       I    between atoms: C14_17  and  N2_19 
REMARK    4  A    between atoms: N2_19  and  C16_21 
ROOT
HETATM    1  C1  UNL     1      13.615  34.111  12.941  1.00  0.00     0.042 C 
HETATM    2  C2  UNL     1      12.750  33.830  14.145  1.00  0.00     0.172 C 
ENDROOT
BRANCH   2   3
HETATM    3  N1  UNL     1      11.400  34.160  13.830  1.00  0.00    -0.348 N 
HETATM    4  C3  UNL     1      10.432  33.131  13.726  1.00  0.00     0.223 C 
HETATM    5  O1  UNL     1      10.814  31.949  13.921  1.00  0.00    -0.273 OA
ATOM      6  H1  UNL     1      11.132  35.132  13.681  1.00  0.00     0.163 HD
BRANCH   4   7
HETATM    7  C4  UNL     1       9.008  33.393  13.402  1.00  0.00     0.086 C 
HETATM    8  C5  UNL     1       8.093  33.345  14.574  1.00  0.00    -0.001 C 
HETATM    9  C6  UNL     1       6.664  33.413  14.013  1.00  0.00     0.010 C 
HETATM   10  C10 UNL     1       8.229  34.535  15.495  1.00  0.00     0.010 C 
HETATM   11  C7  UNL     1       6.486  34.694  13.231  1.00  0.00    -0.013 C 
HETATM   12  C8  UNL     1       6.633  35.866  14.163  1.00  0.00     0.009 C 
HETATM   13  C13 UNL     1       7.476  34.793  12.095  1.00  0.00     0.010 C 
HETATM   14  C9  UNL     1       8.010  35.820  14.752  1.00  0.00    -0.013 C 
HETATM   15  C11 UNL     1       9.017  35.892  13.625  1.00  0.00     0.010 C 
HETATM   16  C12 UNL     1       8.875  34.710  12.717  1.00  0.00    -0.001 C 
ENDBRANCH   4   7
ENDBRANCH   2   3
BRANCH   2  17
HETATM   17  C14 UNL     1      13.281  34.591  15.304  1.00  0.00     0.242 C 
HETATM   18  O2  UNL     1      14.159  35.455  15.050  1.00  0.00    -0.271 OA
HETATM   19  N2  UNL     1      12.862  34.404  16.644  1.00  0.00    -0.350 N 
HETATM   20  C15 UNL     1      11.833  33.403  16.942  1.00  0.00     0.153 C 
BRANCH  19  21
HETATM   21  C16 UNL     1      13.446  35.191  17.708  1.00  0.00     0.088 C 
HETATM   22  C17 UNL     1      13.417  34.469  19.035  1.00  0.00     0.040 C 
HETATM   23  C18 UNL     1      13.985  35.334  20.108  1.00  0.00     0.142 C 
HETATM   24  S1  UNL     1      14.796  36.790  19.501  1.00  0.00     0.144 S 
HETATM   25  O3  UNL     1      14.992  37.723  20.662  1.00  0.00    -0.228 OA
HETATM   26  O4  UNL     1      16.145  36.498  18.930  1.00  0.00    -0.228 OA
HETATM   27  C19 UNL     1      13.717  37.574  18.340  1.00  0.00     0.142 C 
HETATM   28  C20 UNL     1      12.760  36.540  17.778  1.00  0.00     0.040 C 
ENDBRANCH  19  21
ENDBRANCH   2  17
TORSDOF 4
ENDMDL
MODEL 3
REMARK VINA RESULT: -6.790352566      1.080      1.875
REMARK  4 active torsions:
REMARK  status: ('A' for Active; 'I' for Inactive)
REMARK    1  A    between atoms: C2_2  and  N1_3 
REMARK    2  A    between atoms: C2_2  and  C14_17 
REMARK       I    between atoms: N1_3  and  C3_5 
REMARK    3  A    between atoms: C3_5  and  C4_7 
REMARK       I    between atoms: C14_17  and  N2_19 
REMARK    4  A    between atoms: N2_19  and  C16_21 
ROOT
HETATM    1  C1  UNL     1      12.271  32.343  14.805  1.00  0.00     0.042 C 
HETATM    2  C2  UNL     1      12.463  33.836  14.686  1.00  0.00     0.172 C 
ENDROOT
BRANCH   2   3
HETATM    3  N1  UNL     1      13.184  34.114  13.489  1.00  0.00    -0.348 N 
HETATM    4  C3  UNL     1      12.531  34.756  12.409  1.00  0.00     0.223 C 
HETATM    5  O1  UNL     1      11.320  35.060  12.557  1.00  0.00    -0.273 OA
ATOM      6  H1  UNL     1      14.166  33.852  13.411  1.00  0.00     0.163 HD
BRANCH   4   7
HETATM    7  C4  UNL     1      13.213  35.080  11.131  1.00  0.00     0.086 C 
HETATM    8  C5  UNL     1      12.454  36.005  10.248  1.00  0.00    -0.001 C 
HETATM    9  C6  UNL     1      13.202  36.038   8.906  1.00  0.00     0.010 C 
HETATM   10  C10 UNL     1      12.439  37.434  10.743  1.00  0.00     0.010 C 
HETATM   11  C7  UNL     1      14.617  36.523   9.125  1.00  0.00    -0.013 C 
HETATM   12  C8  UNL     1      14.579  37.942   9.624  1.00  0.00     0.009 C 
HETATM   13  C13 UNL     1      15.364  35.639  10.095  1.00  0.00     0.010 C 
HETATM   14  C9  UNL     1      13.833  37.958  10.923  1.00  0.00    -0.013 C 
HETATM   15  C11 UNL     1      14.554  37.056  11.901  1.00  0.00     0.010 C 
HETATM   16  C12 UNL     1      14.565  35.644  11.404  1.00  0.00    -0.001 C 
ENDBRANCH   4   7
ENDBRANCH   2   3
BRANCH   2  17
HETATM   17  C14 UNL     1      13.148  34.329  15.908  1.00  0.00     0.242 C 
HETATM   18  O2  UNL     1      14.020  33.571  16.403  1.00  0.00    -0.271 OA
HETATM   19  N2  UNL     1      12.882  35.574  16.527  1.00  0.00    -0.350 N 
HETATM   20  C15 UNL     1      11.870  36.464  15.947  1.00  0.00     0.153 C 
BRANCH  19  21
HETATM   21  C16 UNL     1      13.598  35.964  17.722  1.00  0.00     0.088 C 
HETATM   22  C17 UNL     1      13.527  34.908  18.800  1.00  0.00     0.040 C 
HETATM   23  C18 UNL     1      14.239  35.371  20.026  1.00  0.00     0.142 C 
HETATM   24  S1  UNL     1      15.204  36.839  19.783  1.00  0.00     0.144 S 
HETATM   25  O3  UNL     1      15.559  37.384  21.137  1.00  0.00    -0.228 OA
HETATM   26  O4  UNL     1      16.484  36.570  19.061  1.00  0.00    -0.228 OA
HETATM   27  C19 UNL     1      14.191  38.030  18.958  1.00  0.00     0.142 C 
HETATM   28  C20 UNL     1      13.092  37.307  18.204  1.00  0.00     0.040 C 
ENDBRANCH  19  21
ENDBRANCH   2  17
TORSDOF 4
ENDMDL
MODEL 4
REMARK VINA RESULT: -6.676049330      3.021      3.761
REMARK  4 active torsions:
REMARK  status: ('A' for Active; 'I' for Inactive)
REMARK    1  A    between atoms: C2_2  and  N1_3 
REMARK    2  A    between atoms: C2_2  and  C14_17 
REMARK       I    between atoms: N1_3  and  C3_5 
REMARK    3  A    between atoms: C3_5  and  C4_7 
REMARK       I    between atoms: C14_17  and  N2_19 
REMARK    4  A    between atoms: N2_19  and  C16_21 
ROOT
HETATM    1  C1  UNL     1      11.209  32.372  15.123  1.00  0.00     0.042 C 
HETATM    2  C2  UNL     1      12.293  33.301  14.633  1.00  0.00     0.172 C 
ENDROOT
BRANCH   2   3
HETATM    3  N1  UNL     1      13.177  32.570  13.787  1.00  0.00    -0.348 N 
HETATM    4  C3  UNL     1      13.278  32.910  12.416  1.00  0.00     0.223 C 
HETATM    5  O1  UNL     1      12.569  33.860  11.997  1.00  0.00    -0.273 OA
ATOM      6  H1  UNL     1      13.735  31.807  14.168  1.00  0.00     0.163 HD
BRANCH   4   7
HETATM    7  C4  UNL     1      14.175  32.198  11.472  1.00  0.00     0.086 C 
HETATM    8  C5  UNL     1      14.302  30.738  11.730  1.00  0.00    -0.001 C 
HETATM    9  C6  UNL     1      15.425  30.231  10.811  1.00  0.00     0.010 C 
HETATM   10  C10 UNL     1      13.072  29.949  11.346  1.00  0.00     0.010 C 
HETATM   11  C7  UNL     1      15.065  30.504   9.369  1.00  0.00    -0.013 C 
HETATM   12  C8  UNL     1      13.834  29.716   9.010  1.00  0.00     0.009 C 
HETATM   13  C13 UNL     1      14.841  31.977   9.122  1.00  0.00     0.010 C 
HETATM   14  C9  UNL     1      12.718  30.165   9.904  1.00  0.00    -0.013 C 
HETATM   15  C11 UNL     1      12.497  31.646   9.690  1.00  0.00     0.010 C 
HETATM   16  C12 UNL     1      13.720  32.421  10.070  1.00  0.00    -0.001 C 
ENDBRANCH   4   7
ENDBRANCH   2   3
BRANCH   2  17
HETATM   17  C14 UNL     1      12.974  33.904  15.806  1.00  0.00     0.242 C 
HETATM   18  O2  UNL     1      13.923  33.244  16.301  1.00  0.00    -0.271 OA
HETATM   19  N2  UNL     1      12.624  35.150  16.381  1.00  0.00    -0.350 N 
HETATM   20  C15 UNL     1      11.523  35.926  15.800  1.00  0.00     0.153 C 
BRANCH  19  21
HETATM   21  C16 UNL     1      13.344  35.652  17.531  1.00  0.00     0.088 C 
HETATM   22  C17 UNL     1      13.274  34.705  18.706  1.00  0.00     0.040 C 
HETATM   23  C18 UNL     1      13.990  35.283  19.879  1.00  0.00     0.142 C 
HETATM   24  S1  UNL     1      14.957  36.719  19.493  1.00  0.00     0.144 S 
HETATM   25  O3  UNL     1      15.316  37.392  20.788  1.00  0.00    -0.228 OA
HETATM   26  O4  UNL     1      16.234  36.379  18.798  1.00  0.00    -0.228 OA
HETATM   27  C19 UNL     1      13.944  37.827  18.560  1.00  0.00     0.142 C 
HETATM   28  C20 UNL     1      12.842  37.037  17.882  1.00  0.00     0.040 C 
ENDBRANCH  19  21
ENDBRANCH   2  17
TORSDOF 4
ENDMDL
MODEL 5
REMARK VINA RESULT: -6.542256624      3.640      8.021
REMARK  4 active torsions:
REMARK  status: ('A' for Active; 'I' for Inactive)
REMARK    1  A    between atoms: C2_2  and  N1_3 
REMARK    2  A    between atoms: C2_2  and  C14_17 
REMARK       I    between atoms: N1_3  and  C3_5 
REMARK    3  A    between atoms: C3_5  and  C4_7 
REMARK       I    between atoms: C14_17  and  N2_19 
REMARK    4  A    between atoms: N2_19  and  C16_21 
ROOT
HETATM    1  C1  UNL     1      13.518  32.136  11.425  1.00  0.00     0.042 C 
HETATM    2  C2  UNL     1      13.381  33.358  12.299  1.00  0.00     0.172 C 
ENDROOT
BRANCH   2   3
HETATM    3  N1  UNL     1      12.263  33.183  13.164  1.00  0.00    -0.348 N 
HETATM    4  C3  UNL     1      12.399  33.444  14.550  1.00  0.00     0.223 C 
HETATM    5  O1  UNL     1      13.523  33.829  14.963  1.00  0.00    -0.273 OA
ATOM      6  H1  UNL     1      11.368  32.870  12.788  1.00  0.00     0.163 HD
BRANCH   4   7
HETATM    7  C4  UNL     1      11.283  33.285  15.515  1.00  0.00     0.086 C 
HETATM    8  C5  UNL     1      11.266  34.297  16.605  1.00  0.00    -0.001 C 
HETATM    9  C6  UNL     1      10.196  33.838  17.607  1.00  0.00     0.010 C 
HETATM   10  C10 UNL     1      10.835  35.671  16.146  1.00  0.00     0.010 C 
HETATM   11  C7  UNL     1       8.855  33.754  16.916  1.00  0.00    -0.013 C 
HETATM   12  C8  UNL     1       8.448  35.129  16.460  1.00  0.00     0.009 C 
HETATM   13  C13 UNL     1       8.891  32.798  15.747  1.00  0.00     0.010 C 
HETATM   14  C9  UNL     1       9.483  35.624  15.497  1.00  0.00    -0.013 C 
HETATM   15  C11 UNL     1       9.553  34.663  14.330  1.00  0.00     0.010 C 
HETATM   16  C12 UNL     1       9.979  33.305  14.793  1.00  0.00    -0.001 C 
ENDBRANCH   4   7
ENDBRANCH   2   3
BRANCH   2  17
HETATM   17  C14 UNL     1      13.264  34.557  11.431  1.00  0.00     0.242 C 
HETATM   18  O2  UNL     1      12.413  34.496  10.507  1.00  0.00    -0.271 OA
HETATM   19  N2  UNL     1      14.036  35.734  11.584  1.00  0.00    -0.350 N 
HETATM   20  C15 UNL     1      15.023  35.811  12.666  1.00  0.00     0.153 C 
BRANCH  19  21
HETATM   21  C16 UNL     1      13.853  36.850  10.681  1.00  0.00     0.088 C 
HETATM   22  C17 UNL     1      15.148  37.275  10.029  1.00  0.00     0.040 C 
HETATM   23  C18 UNL     1      14.920  38.453   9.145  1.00  0.00     0.142 C 
HETATM   24  S1  UNL     1      13.208  38.819   8.866  1.00  0.00     0.144 S 
HETATM   25  O3  UNL     1      13.123  40.200   8.280  1.00  0.00    -0.228 OA
HETATM   26  O4  UNL     1      12.573  37.882   7.891  1.00  0.00    -0.228 OA
HETATM   27  C19 UNL     1      12.388  38.835  10.433  1.00  0.00     0.142 C 
HETATM   28  C20 UNL     1      13.181  37.993  11.413  1.00  0.00     0.040 C 
ENDBRANCH  19  21
ENDBRANCH   2  17
TORSDOF 4
ENDMDL
