MODEL 1
REMARK VINA RESULT: -6.151845559      0.000      0.000
REMARK  7 active torsions:
REMARK  status: ('A' for Active; 'I' for Inactive)
REMARK    1  A    between atoms: C2_2  and  N1_3 
REMARK    2  A    between atoms: N1_3  and  C4_5 
REMARK    3  A    between atoms: C4_5  and  C5_6 
REMARK    4  A    between atoms: C6_7  and  C7_8 
REMARK    5  A    between atoms: C7_8  and  C8_9 
REMARK    6  A    between atoms: C7_8  and  C16_25 
REMARK    7  A    between atoms: C10_14  and  N3_16 
REMARK       I    between atoms: N3_16  and  C12_18 
ROOT
HETATM    1  C8  UNL     1      11.986  32.627  14.842  1.00  0.00     0.193 C 
HETATM    2  N2  UNL     1      13.335  32.383  14.398  1.00  0.00    -0.343 N 
ATOM      3  H2  UNL     1      14.044  33.117  14.408  1.00  0.00     0.163 HD
HETATM    4  C9  UNL     1      13.632  31.046  13.938  1.00  0.00     0.267 C 
HETATM    5  O1  UNL     1      14.739  30.541  14.218  1.00  0.00    -0.269 OA
HETATM    6  C10 UNL     1      12.605  30.335  13.154  1.00  0.00     0.189 C 
HETATM    7  C11 UNL     1      12.260  28.990  13.737  1.00  0.00     0.074 C 
HETATM    8  N4  UNL     1      11.423  31.141  12.904  1.00  0.00    -0.320 N 
HETATM    9  C14 UNL     1      10.523  30.706  11.872  1.00  0.00     0.155 C 
HETATM   10  C15 UNL     1      11.143  32.318  13.633  1.00  0.00     0.245 C 
HETATM   11  O3  UNL     1      10.238  33.071  13.296  1.00  0.00    -0.271 OA
ENDROOT
BRANCH   1  12
HETATM   12  C7  UNL     1      11.722  34.020  15.243  1.00  0.00     0.104 C 
BRANCH  12  13
HETATM   13  C6  UNL     1      11.948  34.048  16.744  1.00  0.00    -0.097 C 
HETATM   14  C5  UNL     1      12.179  34.084  17.944  1.00  0.00    -0.076 C 
BRANCH  14  15
HETATM   15  C4  UNL     1      12.512  34.147  19.363  1.00  0.00     0.365 C 
BRANCH  15  16
HETATM   16  N1  UNL     1      13.824  34.655  19.580  1.00  0.00     0.094 N 
HETATM   17  C3  UNL     1      14.170  34.598  20.967  1.00  0.00     0.310 C 
BRANCH  16  18
HETATM   18  C2  UNL     1      13.995  35.925  18.952  1.00  0.00     0.268 C 
HETATM   19  C1  UNL     1      14.190  37.048  19.961  1.00  0.00     0.037 C 
ENDBRANCH  16  18
ENDBRANCH  15  16
ENDBRANCH  14  15
ENDBRANCH  12  13
BRANCH  12  20
HETATM   20  C16 UNL     1      12.587  35.106  14.703  1.00  0.00    -0.035 C 
HETATM   21  C17 UNL     1      12.006  36.442  15.254  1.00  0.00     0.016 C 
HETATM   22  C18 UNL     1      13.974  35.029  15.298  1.00  0.00     0.016 C 
HETATM   23  C19 UNL     1      12.706  35.271  13.241  1.00  0.00     0.016 C 
ENDBRANCH  12  20
ENDBRANCH   1  12
BRANCH   6  24
HETATM   24  N3  UNL     1      13.181  30.103  11.818  1.00  0.00    -0.327 N 
HETATM   25  C12 UNL     1      13.781  31.163  11.074  1.00  0.00     0.215 C 
HETATM   26  C13 UNL     1      14.375  30.997   9.741  1.00  0.00     0.117 C 
HETATM   27  O2  UNL     1      13.819  32.332  11.571  1.00  0.00    -0.274 OA
ATOM     28  H3  UNL     1      13.152  29.166  11.418  1.00  0.00     0.165 HD
ENDBRANCH   6  24
TORSDOF 7
ENDMDL
MODEL 2
REMARK VINA RESULT: -6.134004371      2.381      3.886
REMARK  7 active torsions:
REMARK  status: ('A' for Active; 'I' for Inactive)
REMARK    1  A    between atoms: C2_2  and  N1_3 
REMARK    2  A    between atoms: N1_3  and  C4_5 
REMARK    3  A    between atoms: C4_5  and  C5_6 
REMARK    4  A    between atoms: C6_7  and  C7_8 
REMARK    5  A    between atoms: C7_8  and  C8_9 
REMARK    6  A    between atoms: C7_8  and  C16_25 
REMARK    7  A    between atoms: C10_14  and  N3_16 
REMARK       I    between atoms: N3_16  and  C12_18 
ROOT
HETATM    1  C8  UNL     1      12.280  34.317  14.834  1.00  0.00     0.193 C 
HETATM    2  N2  UNL     1      11.643  35.373  14.088  1.00  0.00    -0.343 N 
ATOM      3  H2  UNL     1      10.667  35.627  14.245  1.00  0.00     0.163 HD
HETATM    4  C9  UNL     1      12.457  36.051  13.106  1.00  0.00     0.267 C 
HETATM    5  O1  UNL     1      12.328  37.284  12.960  1.00  0.00    -0.269 OA
HETATM    6  C10 UNL     1      13.409  35.248  12.316  1.00  0.00     0.189 C 
HETATM    7  C11 UNL     1      14.817  35.779  12.394  1.00  0.00     0.074 C 
HETATM    8  N4  UNL     1      13.342  33.830  12.617  1.00  0.00    -0.320 N 
HETATM    9  C14 UNL     1      13.946  32.918  11.685  1.00  0.00     0.155 C 
HETATM   10  C15 UNL     1      12.711  33.333  13.779  1.00  0.00     0.245 C 
HETATM   11  O3  UNL     1      12.516  32.133  13.930  1.00  0.00    -0.271 OA
ENDROOT
BRANCH   1  12
HETATM   12  C7  UNL     1      11.390  33.620  15.778  1.00  0.00     0.104 C 
BRANCH  12  13
HETATM   13  C6  UNL     1      11.980  33.889  17.150  1.00  0.00    -0.097 C 
HETATM   14  C5  UNL     1      12.502  34.099  18.237  1.00  0.00    -0.076 C 
BRANCH  14  15
HETATM   15  C4  UNL     1      13.180  34.346  19.504  1.00  0.00     0.365 C 
BRANCH  15  16
HETATM   16  N1  UNL     1      13.695  35.671  19.583  1.00  0.00     0.094 N 
HETATM   17  C3  UNL     1      14.632  35.918  18.530  1.00  0.00     0.310 C 
BRANCH  16  18
HETATM   18  C2  UNL     1      14.154  35.968  20.901  1.00  0.00     0.268 C 
HETATM   19  C1  UNL     1      13.171  36.834  21.674  1.00  0.00     0.037 C 
ENDBRANCH  16  18
ENDBRANCH  15  16
ENDBRANCH  14  15
ENDBRANCH  12  13
BRANCH  12  20
HETATM   20  C16 UNL     1       9.965  34.046  15.882  1.00  0.00    -0.035 C 
HETATM   21  C17 UNL     1       9.199  33.283  14.760  1.00  0.00     0.016 C 
HETATM   22  C18 UNL     1       9.350  33.540  17.165  1.00  0.00     0.016 C 
HETATM   23  C19 UNL     1       9.629  35.475  15.724  1.00  0.00     0.016 C 
ENDBRANCH  12  20
ENDBRANCH   1  12
BRANCH   6  24
HETATM   24  N3  UNL     1      12.978  35.347  10.910  1.00  0.00    -0.327 N 
HETATM   25  C12 UNL     1      11.630  35.075  10.527  1.00  0.00     0.215 C 
HETATM   26  C13 UNL     1      11.137  35.158   9.146  1.00  0.00     0.117 C 
HETATM   27  O2  UNL     1      10.783  34.741  11.413  1.00  0.00    -0.274 OA
ATOM     28  H3  UNL     1      13.656  35.614  10.197  1.00  0.00     0.165 HD
ENDBRANCH   6  24
TORSDOF 7
ENDMDL
MODEL 3
REMARK VINA RESULT: -6.133986614      1.969      3.393
REMARK  7 active torsions:
REMARK  status: ('A' for Active; 'I' for Inactive)
REMARK    1  A    between atoms: C2_2  and  N1_3 
REMARK    2  A    between atoms: N1_3  and  C4_5 
REMARK    3  A    between atoms: C4_5  and  C5_6 
REMARK    4  A    between atoms: C6_7  and  C7_8 
REMARK    5  A    between atoms: C7_8  and  C8_9 
REMARK    6  A    between atoms: C7_8  and  C16_25 
REMARK    7  A    between atoms: C10_14  and  N3_16 
REMARK       I    between atoms: N3_16  and  C12_18 
ROOT
HETATM    1  C8  UNL     1      12.619  33.927  14.761  1.00  0.00     0.193 C 
HETATM    2  N2  UNL     1      11.746  34.486  13.760  1.00  0.00    -0.343 N 
ATOM      3  H2  UNL     1      10.770  34.705  13.961  1.00  0.00     0.163 HD
HETATM    4  C9  UNL     1      12.325  34.720  12.457  1.00  0.00     0.267 C 
HETATM    5  O1  UNL     1      11.997  35.745  11.825  1.00  0.00    -0.269 OA
HETATM    6  C10 UNL     1      13.282  33.729  11.932  1.00  0.00     0.189 C 
HETATM    7  C11 UNL     1      14.595  34.350  11.530  1.00  0.00     0.074 C 
HETATM    8  N4  UNL     1      13.464  32.592  12.815  1.00  0.00    -0.320 N 
HETATM    9  C14 UNL     1      14.079  31.413  12.271  1.00  0.00     0.155 C 
HETATM   10  C15 UNL     1      13.060  32.614  14.169  1.00  0.00     0.245 C 
HETATM   11  O3  UNL     1      13.065  31.594  14.848  1.00  0.00    -0.271 OA
ENDROOT
BRANCH   1  12
HETATM   12  C7  UNL     1      11.964  33.652  16.052  1.00  0.00     0.104 C 
BRANCH  12  13
HETATM   13  C6  UNL     1      12.788  34.404  17.081  1.00  0.00    -0.097 C 
HETATM   14  C5  UNL     1      13.489  34.975  17.904  1.00  0.00    -0.076 C 
BRANCH  14  15
HETATM   15  C4  UNL     1      14.371  35.617  18.872  1.00  0.00     0.365 C 
BRANCH  15  16
HETATM   16  N1  UNL     1      13.870  36.880  19.295  1.00  0.00     0.094 N 
HETATM   17  C3  UNL     1      14.245  37.911  18.377  1.00  0.00     0.310 C 
BRANCH  16  18
HETATM   18  C2  UNL     1      14.184  37.128  20.664  1.00  0.00     0.268 C 
HETATM   19  C1  UNL     1      14.833  35.926  21.335  1.00  0.00     0.037 C 
ENDBRANCH  16  18
ENDBRANCH  15  16
ENDBRANCH  14  15
ENDBRANCH  12  13
BRANCH  12  20
HETATM   20  C16 UNL     1      10.563  34.115  16.267  1.00  0.00    -0.035 C 
HETATM   21  C17 UNL     1       9.652  33.136  15.469  1.00  0.00     0.016 C 
HETATM   22  C18 UNL     1      10.153  33.918  17.708  1.00  0.00     0.016 C 
HETATM   23  C19 UNL     1      10.185  35.479  15.847  1.00  0.00     0.016 C 
ENDBRANCH  12  20
ENDBRANCH   1  12
BRANCH   6  24
HETATM   24  N3  UNL     1      12.674  33.159  10.717  1.00  0.00    -0.327 N 
HETATM   25  C12 UNL     1      11.350  32.623  10.732  1.00  0.00     0.215 C 
HETATM   26  C13 UNL     1      10.686  32.044   9.557  1.00  0.00     0.117 C 
HETATM   27  O2  UNL     1      10.682  32.638  11.812  1.00  0.00    -0.274 OA
ATOM     28  H3  UNL     1      13.209  33.145   9.849  1.00  0.00     0.165 HD
ENDBRANCH   6  24
TORSDOF 7
ENDMDL
MODEL 4
REMARK VINA RESULT: -6.015502488      1.826      3.117
REMARK  7 active torsions:
REMARK  status: ('A' for Active; 'I' for Inactive)
REMARK    1  A    between atoms: C2_2  and  N1_3 
REMARK    2  A    between atoms: N1_3  and  C4_5 
REMARK    3  A    between atoms: C4_5  and  C5_6 
REMARK    4  A    between atoms: C6_7  and  C7_8 
REMARK    5  A    between atoms: C7_8  and  C8_9 
REMARK    6  A    between atoms: C7_8  and  C16_25 
REMARK    7  A    between atoms: C10_14  and  N3_16 
REMARK       I    between atoms: N3_16  and  C12_18 
ROOT
HETATM    1  C8  UNL     1      12.487  33.456  14.259  1.00  0.00     0.193 C 
HETATM    2  N2  UNL     1      11.522  33.616  13.201  1.00  0.00    -0.343 N 
ATOM      3  H2  UNL     1      10.531  33.760  13.397  1.00  0.00     0.163 HD
HETATM    4  C9  UNL     1      12.030  33.561  11.849  1.00  0.00     0.267 C 
HETATM    5  O1  UNL     1      11.551  34.331  10.991  1.00  0.00    -0.269 OA
HETATM    6  C10 UNL     1      13.097  32.589  11.546  1.00  0.00     0.189 C 
HETATM    7  C11 UNL     1      14.303  33.234  10.915  1.00  0.00     0.074 C 
HETATM    8  N4  UNL     1      13.452  31.761  12.684  1.00  0.00    -0.320 N 
HETATM    9  C14 UNL     1      14.203  30.563  12.432  1.00  0.00     0.155 C 
HETATM   10  C15 UNL     1      13.083  32.096  14.006  1.00  0.00     0.245 C 
HETATM   11  O3  UNL     1      13.243  31.305  14.927  1.00  0.00    -0.271 OA
ENDROOT
BRANCH   1  12
HETATM   12  C7  UNL     1      11.909  33.460  15.613  1.00  0.00     0.104 C 
BRANCH  12  13
HETATM   13  C6  UNL     1      12.828  34.347  16.433  1.00  0.00    -0.097 C 
HETATM   14  C5  UNL     1      13.609  35.032  17.079  1.00  0.00    -0.076 C 
BRANCH  14  15
HETATM   15  C4  UNL     1      14.586  35.817  17.824  1.00  0.00     0.365 C 
BRANCH  15  16
HETATM   16  N1  UNL     1      14.036  36.359  19.019  1.00  0.00     0.094 N 
HETATM   17  C3  UNL     1      14.729  37.548  19.407  1.00  0.00     0.310 C 
BRANCH  16  18
HETATM   18  C2  UNL     1      13.910  35.359  20.029  1.00  0.00     0.268 C 
HETATM   19  C1  UNL     1      14.698  35.702  21.284  1.00  0.00     0.037 C 
ENDBRANCH  16  18
ENDBRANCH  15  16
ENDBRANCH  14  15
ENDBRANCH  12  13
BRANCH  12  20
HETATM   20  C16 UNL     1      10.545  34.027  15.818  1.00  0.00    -0.035 C 
HETATM   21  C17 UNL     1      10.316  34.068  17.358  1.00  0.00     0.016 C 
HETATM   22  C18 UNL     1      10.502  35.477  15.395  1.00  0.00     0.016 C 
HETATM   23  C19 UNL     1       9.382  33.328  15.238  1.00  0.00     0.016 C 
ENDBRANCH  12  20
ENDBRANCH   1  12
BRANCH   6  24
HETATM   24  N3  UNL     1      12.538  31.644  10.563  1.00  0.00    -0.327 N 
HETATM   25  C12 UNL     1      11.301  30.970  10.801  1.00  0.00     0.215 C 
HETATM   26  C13 UNL     1      10.690  30.020   9.862  1.00  0.00     0.117 C 
HETATM   27  O2  UNL     1      10.669  31.189  11.881  1.00  0.00    -0.274 OA
ATOM     28  H3  UNL     1      13.044  31.467   9.696  1.00  0.00     0.165 HD
ENDBRANCH   6  24
TORSDOF 7
ENDMDL
MODEL 5
REMARK VINA RESULT: -6.006659083      1.921      3.248
REMARK  7 active torsions:
REMARK  status: ('A' for Active; 'I' for Inactive)
REMARK    1  A    between atoms: C2_2  and  N1_3 
REMARK    2  A    between atoms: N1_3  and  C4_5 
REMARK    3  A    between atoms: C4_5  and  C5_6 
REMARK    4  A    between atoms: C6_7  and  C7_8 
REMARK    5  A    between atoms: C7_8  and  C8_9 
REMARK    6  A    between atoms: C7_8  and  C16_25 
REMARK    7  A    between atoms: C10_14  and  N3_16 
REMARK       I    between atoms: N3_16  and  C12_18 
ROOT
HETATM    1  C8  UNL     1      12.800  33.916  14.661  1.00  0.00     0.193 C 
HETATM    2  N2  UNL     1      11.903  34.440  13.663  1.00  0.00    -0.343 N 
ATOM      3  H2  UNL     1      10.943  34.703  13.889  1.00  0.00     0.163 HD
HETATM    4  C9  UNL     1      12.433  34.575  12.325  1.00  0.00     0.267 C 
HETATM    5  O1  UNL     1      12.109  35.569  11.643  1.00  0.00    -0.269 OA
HETATM    6  C10 UNL     1      13.338  33.523  11.826  1.00  0.00     0.189 C 
HETATM    7  C11 UNL     1      14.650  34.075  11.333  1.00  0.00     0.074 C 
HETATM    8  N4  UNL     1      13.523  32.437  12.771  1.00  0.00    -0.320 N 
HETATM    9  C14 UNL     1      14.078  31.207  12.278  1.00  0.00     0.155 C 
HETATM   10  C15 UNL     1      13.176  32.556  14.135  1.00  0.00     0.245 C 
HETATM   11  O3  UNL     1      13.180  31.581  14.877  1.00  0.00    -0.271 OA
ENDROOT
BRANCH   1  12
HETATM   12  C7  UNL     1      12.192  33.743  15.992  1.00  0.00     0.104 C 
BRANCH  12  13
HETATM   13  C6  UNL     1      12.895  34.752  16.881  1.00  0.00    -0.097 C 
HETATM   14  C5  UNL     1      13.495  35.573  17.561  1.00  0.00    -0.076 C 
BRANCH  14  15
HETATM   15  C4  UNL     1      14.247  36.564  18.323  1.00  0.00     0.365 C 
BRANCH  15  16
HETATM   16  N1  UNL     1      14.533  36.117  19.643  1.00  0.00     0.094 N 
HETATM   17  C3  UNL     1      13.861  34.886  19.922  1.00  0.00     0.310 C 
BRANCH  16  18
HETATM   18  C2  UNL     1      14.333  37.161  20.595  1.00  0.00     0.268 C 
HETATM   19  C1  UNL     1      13.222  36.837  21.583  1.00  0.00     0.037 C 
ENDBRANCH  16  18
ENDBRANCH  15  16
ENDBRANCH  14  15
ENDBRANCH  12  13
BRANCH  12  20
HETATM   20  C16 UNL     1      10.738  34.023  16.167  1.00  0.00    -0.035 C 
HETATM   21  C17 UNL     1      10.460  33.943  17.697  1.00  0.00     0.016 C 
HETATM   22  C18 UNL     1      10.424  35.455  15.804  1.00  0.00     0.016 C 
HETATM   23  C19 UNL     1       9.753  33.139  15.513  1.00  0.00     0.016 C 
ENDBRANCH  12  20
ENDBRANCH   1  12
BRANCH   6  24
HETATM   24  N3  UNL     1      12.662  32.898  10.675  1.00  0.00    -0.327 N 
HETATM   25  C12 UNL     1      11.320  32.419  10.773  1.00  0.00     0.215 C 
HETATM   26  C13 UNL     1      10.591  31.790   9.664  1.00  0.00     0.117 C 
HETATM   27  O2  UNL     1      10.695  32.531  11.873  1.00  0.00    -0.274 OA
ATOM     28  H3  UNL     1      13.162  32.807   9.791  1.00  0.00     0.165 HD
ENDBRANCH   6  24
TORSDOF 7
ENDMDL
