MODEL 1
REMARK VINA RESULT: -6.949513924      0.000      0.000
REMARK  6 active torsions:
REMARK  status: ('A' for Active; 'I' for Inactive)
REMARK       I    between atoms: C3_5  and  N3_7 
REMARK    1  A    between atoms: N4_10  and  C6_11 
REMARK    2  A    between atoms: C6_11  and  C7_13 
REMARK    3  A    between atoms: C7_13  and  C8_14 
REMARK    4  A    between atoms: C8_14  and  N5_15 
REMARK    5  A    between atoms: C8_14  and  C9_19 
REMARK    6  A    between atoms: C9_19  and  N6_20 
ROOT
HETATM    1  C1  UNL     1      16.048  30.532   9.334  1.00  0.00     0.037 C 
HETATM    2  C2  UNL     1      15.338  30.843  10.273  1.00  0.00     0.001 C 
HETATM    3  N1  UNL     1      14.521  31.215  11.339  1.00  0.00    -0.290 N 
ATOM      4  H1  UNL     1      14.557  32.165  11.707  1.00  0.00     0.178 HD
HETATM    5  C3  UNL     1      13.713  30.338  11.861  1.00  0.00     0.198 C 
HETATM    6  N2  UNL     1      13.695  29.009  11.309  1.00  0.00    -0.063 NA
HETATM    7  N3  UNL     1      12.886  30.707  12.938  1.00  0.00    -0.352 N 
HETATM    8  C4  UNL     1      11.466  30.582  12.867  1.00  0.00     0.145 C 
HETATM    9  C5  UNL     1      10.839  31.936  13.122  1.00  0.00     0.143 C 
HETATM   10  N4  UNL     1      11.408  32.569  14.258  1.00  0.00    -0.372 N 
HETATM   11  C17 UNL     1      12.787  32.472  14.613  1.00  0.00     0.143 C 
HETATM   12  C18 UNL     1      13.446  31.227  14.155  1.00  0.00     0.145 C 
ENDROOT
BRANCH  10  13
HETATM   13  C6  UNL     1      10.563  33.392  15.081  1.00  0.00     0.077 C 
HETATM   14  S1  UNL     1       8.956  33.367  14.719  1.00  0.00    -0.066 SA
BRANCH  13  15
HETATM   15  C7  UNL     1      11.061  34.256  16.153  1.00  0.00     0.103 C 
BRANCH  15  16
HETATM   16  C8  UNL     1      11.905  35.428  15.745  1.00  0.00     0.217 C 
BRANCH  16  17
HETATM   17  N5  UNL     1      11.099  36.277  14.839  1.00  0.00    -0.073 N 
ATOM     18  H53 UNL     1      10.107  36.283  15.080  1.00  0.00     0.274 HD
ATOM     19  H52 UNL     1      11.276  37.273  14.969  1.00  0.00     0.274 HD
ATOM     20  H51 UNL     1      11.271  35.968  13.882  1.00  0.00     0.274 HD
ENDBRANCH  16  17
BRANCH  16  21
HETATM   21  C9  UNL     1      12.632  36.181  16.741  1.00  0.00     0.285 C 
BRANCH  21  22
HETATM   22  N6  UNL     1      13.748  35.782  17.494  1.00  0.00    -0.012 N 
HETATM   23  C10 UNL     1      14.761  35.152  16.669  1.00  0.00     0.289 C 
HETATM   24  C11 UNL     1      14.243  36.770  18.289  1.00  0.00     0.037 C 
HETATM   25  C12 UNL     1      14.725  37.836  19.048  1.00  0.00     0.116 C 
HETATM   26  C13 UNL     1      14.692  37.327  20.535  1.00  0.00     0.040 C 
HETATM   27  C14 UNL     1      13.767  36.120  20.669  1.00  0.00    -0.028 C 
HETATM   28  C15 UNL     1      13.896  34.938  19.869  1.00  0.00    -0.002 C 
HETATM   29  C16 UNL     1      13.314  34.721  18.513  1.00  0.00     0.279 C 
ENDBRANCH  21  22
ENDBRANCH  16  21
ENDBRANCH  15  16
ENDBRANCH  13  15
ENDBRANCH  10  13
TORSDOF 6
ENDMDL
MODEL 2
REMARK VINA RESULT: -6.849218289      4.080      6.034
REMARK  6 active torsions:
REMARK  status: ('A' for Active; 'I' for Inactive)
REMARK       I    between atoms: C3_5  and  N3_7 
REMARK    1  A    between atoms: N4_10  and  C6_11 
REMARK    2  A    between atoms: C6_11  and  C7_13 
REMARK    3  A    between atoms: C7_13  and  C8_14 
REMARK    4  A    between atoms: C8_14  and  N5_15 
REMARK    5  A    between atoms: C8_14  and  C9_19 
REMARK    6  A    between atoms: C9_19  and  N6_20 
ROOT
HETATM    1  C1  UNL     1       6.690  40.614   9.762  1.00  0.00     0.037 C 
HETATM    2  C2  UNL     1       7.176  39.667  10.353  1.00  0.00     0.001 C 
HETATM    3  N1  UNL     1       7.742  38.594  11.038  1.00  0.00    -0.290 N 
ATOM      4  H1  UNL     1       8.743  38.580  11.236  1.00  0.00     0.178 HD
HETATM    5  C3  UNL     1       6.982  37.610  11.425  1.00  0.00     0.198 C 
HETATM    6  N2  UNL     1       5.577  37.672  11.125  1.00  0.00    -0.063 NA
HETATM    7  N3  UNL     1       7.548  36.523  12.118  1.00  0.00    -0.352 N 
HETATM    8  C4  UNL     1       7.091  36.145  13.416  1.00  0.00     0.145 C 
HETATM    9  C5  UNL     1       8.259  36.177  14.378  1.00  0.00     0.143 C 
HETATM   10  N4  UNL     1       9.396  35.518  13.841  1.00  0.00    -0.372 N 
HETATM   11  C17 UNL     1       9.756  35.555  12.460  1.00  0.00     0.143 C 
HETATM   12  C18 UNL     1       8.613  35.752  11.539  1.00  0.00     0.145 C 
ENDROOT
BRANCH  10  13
HETATM   13  C6  UNL     1      10.263  34.803  14.737  1.00  0.00     0.077 C 
HETATM   14  S1  UNL     1      10.520  33.215  14.381  1.00  0.00    -0.066 SA
BRANCH  13  15
HETATM   15  C7  UNL     1      10.863  35.393  15.935  1.00  0.00     0.103 C 
BRANCH  15  16
HETATM   16  C8  UNL     1      12.253  35.943  15.799  1.00  0.00     0.217 C 
BRANCH  16  17
HETATM   17  N5  UNL     1      12.263  36.877  14.650  1.00  0.00    -0.073 N 
ATOM     18  H53 UNL     1      12.131  36.405  13.756  1.00  0.00     0.274 HD
ATOM     19  H52 UNL     1      11.434  37.469  14.616  1.00  0.00     0.274 HD
ATOM     20  H51 UNL     1      13.130  37.414  14.690  1.00  0.00     0.274 HD
ENDBRANCH  16  17
BRANCH  16  21
HETATM   21  C9  UNL     1      12.950  36.450  16.958  1.00  0.00     0.285 C 
BRANCH  21  22
HETATM   22  N6  UNL     1      13.953  35.826  17.716  1.00  0.00    -0.012 N 
HETATM   23  C10 UNL     1      14.927  35.155  16.877  1.00  0.00     0.289 C 
HETATM   24  C11 UNL     1      14.519  36.648  18.643  1.00  0.00     0.037 C 
HETATM   25  C12 UNL     1      15.084  37.552  19.542  1.00  0.00     0.116 C 
HETATM   26  C13 UNL     1      14.888  36.897  20.958  1.00  0.00     0.040 C 
HETATM   27  C14 UNL     1      13.807  35.820  20.906  1.00  0.00    -0.028 C 
HETATM   28  C15 UNL     1      13.834  34.723  19.985  1.00  0.00    -0.002 C 
HETATM   29  C16 UNL     1      13.319  34.732  18.585  1.00  0.00     0.279 C 
ENDBRANCH  21  22
ENDBRANCH  16  21
ENDBRANCH  15  16
ENDBRANCH  13  15
ENDBRANCH  10  13
TORSDOF 6
ENDMDL
MODEL 3
REMARK VINA RESULT: -6.809304671      2.048      7.183
REMARK  6 active torsions:
REMARK  status: ('A' for Active; 'I' for Inactive)
REMARK       I    between atoms: C3_5  and  N3_7 
REMARK    1  A    between atoms: N4_10  and  C6_11 
REMARK    2  A    between atoms: C6_11  and  C7_13 
REMARK    3  A    between atoms: C7_13  and  C8_14 
REMARK    4  A    between atoms: C8_14  and  N5_15 
REMARK    5  A    between atoms: C8_14  and  C9_19 
REMARK    6  A    between atoms: C9_19  and  N6_20 
ROOT
HETATM    1  C1  UNL     1      15.094  37.272  21.078  1.00  0.00     0.037 C 
HETATM    2  C2  UNL     1      14.378  36.747  20.245  1.00  0.00     0.001 C 
HETATM    3  N1  UNL     1      13.545  36.157  19.296  1.00  0.00    -0.290 N 
ATOM      4  H1  UNL     1      12.554  36.022  19.494  1.00  0.00     0.178 HD
HETATM    5  C3  UNL     1      14.044  35.781  18.154  1.00  0.00     0.198 C 
HETATM    6  N2  UNL     1      15.448  35.991  17.918  1.00  0.00    -0.063 NA
HETATM    7  N3  UNL     1      13.209  35.185  17.191  1.00  0.00    -0.352 N 
HETATM    8  C4  UNL     1      13.070  35.732  15.880  1.00  0.00     0.145 C 
HETATM    9  C5  UNL     1      11.608  36.029  15.623  1.00  0.00     0.143 C 
HETATM   10  N4  UNL     1      10.781  34.935  15.992  1.00  0.00    -0.372 N 
HETATM   11  C17 UNL     1      11.032  34.095  17.118  1.00  0.00     0.143 C 
HETATM   12  C18 UNL     1      12.461  33.996  17.496  1.00  0.00     0.145 C 
ENDROOT
BRANCH  10  13
HETATM   13  C6  UNL     1       9.598  34.677  15.217  1.00  0.00     0.077 C 
HETATM   14  S1  UNL     1       8.677  35.991  14.845  1.00  0.00    -0.066 SA
BRANCH  13  15
HETATM   15  C7  UNL     1       9.168  33.339  14.806  1.00  0.00     0.103 C 
BRANCH  15  16
HETATM   16  C8  UNL     1       9.626  32.863  13.458  1.00  0.00     0.217 C 
BRANCH  16  17
HETATM   17  N5  UNL     1       8.426  32.505  12.668  1.00  0.00    -0.073 N 
ATOM     18  H53 UNL     1       8.604  32.491  11.664  1.00  0.00     0.274 HD
ATOM     19  H52 UNL     1       8.161  31.526  12.774  1.00  0.00     0.274 HD
ATOM     20  H51 UNL     1       7.677  33.147  12.928  1.00  0.00     0.274 HD
ENDBRANCH  16  17
BRANCH  16  21
HETATM   21  C9  UNL     1      10.599  33.625  12.711  1.00  0.00     0.285 C 
BRANCH  21  22
HETATM   22  N6  UNL     1      11.966  33.360  12.532  1.00  0.00    -0.012 N 
HETATM   23  C10 UNL     1      12.721  34.567  12.258  1.00  0.00     0.289 C 
HETATM   24  C11 UNL     1      12.504  32.606  13.530  1.00  0.00     0.037 C 
HETATM   25  C12 UNL     1      13.001  31.868  14.604  1.00  0.00     0.116 C 
HETATM   26  C13 UNL     1      13.605  30.567  13.961  1.00  0.00     0.040 C 
HETATM   27  C14 UNL     1      13.051  30.356  12.554  1.00  0.00    -0.028 C 
HETATM   28  C15 UNL     1      13.119  31.351  11.525  1.00  0.00    -0.002 C 
HETATM   29  C16 UNL     1      12.147  32.460  11.302  1.00  0.00     0.279 C 
ENDBRANCH  21  22
ENDBRANCH  16  21
ENDBRANCH  15  16
ENDBRANCH  13  15
ENDBRANCH  10  13
TORSDOF 6
ENDMDL
MODEL 4
REMARK VINA RESULT: -6.740257324      5.365      6.323
REMARK  6 active torsions:
REMARK  status: ('A' for Active; 'I' for Inactive)
REMARK       I    between atoms: C3_5  and  N3_7 
REMARK    1  A    between atoms: N4_10  and  C6_11 
REMARK    2  A    between atoms: C6_11  and  C7_13 
REMARK    3  A    between atoms: C7_13  and  C8_14 
REMARK    4  A    between atoms: C8_14  and  N5_15 
REMARK    5  A    between atoms: C8_14  and  C9_19 
REMARK    6  A    between atoms: C9_19  and  N6_20 
ROOT
HETATM    1  C1  UNL     1      18.019  40.893   7.395  1.00  0.00     0.037 C 
HETATM    2  C2  UNL     1      17.293  40.114   7.985  1.00  0.00     0.001 C 
HETATM    3  N1  UNL     1      16.471  39.225   8.674  1.00  0.00    -0.290 N 
ATOM      4  H1  UNL     1      16.868  38.588   9.366  1.00  0.00     0.178 HD
HETATM    5  C3  UNL     1      15.193  39.215   8.429  1.00  0.00     0.198 C 
HETATM    6  N2  UNL     1      14.677  40.131   7.447  1.00  0.00    -0.063 NA
HETATM    7  N3  UNL     1      14.357  38.320   9.123  1.00  0.00    -0.352 N 
HETATM    8  C4  UNL     1      13.250  38.778   9.898  1.00  0.00     0.145 C 
HETATM    9  C5  UNL     1      13.409  38.289  11.321  1.00  0.00     0.143 C 
HETATM   10  N4  UNL     1      13.742  36.909  11.364  1.00  0.00    -0.372 N 
HETATM   11  C17 UNL     1      14.589  36.267  10.412  1.00  0.00     0.143 C 
HETATM   12  C18 UNL     1      14.591  36.902   9.075  1.00  0.00     0.145 C 
ENDROOT
BRANCH  10  13
HETATM   13  C6  UNL     1      13.234  36.114  12.449  1.00  0.00     0.077 C 
HETATM   14  S1  UNL     1      11.660  36.374  12.861  1.00  0.00    -0.066 SA
BRANCH  13  15
HETATM   15  C7  UNL     1      14.042  35.155  13.206  1.00  0.00     0.103 C 
BRANCH  15  16
HETATM   16  C8  UNL     1      13.425  34.576  14.446  1.00  0.00     0.217 C 
BRANCH  16  17
HETATM   17  N5  UNL     1      13.225  33.126  14.221  1.00  0.00    -0.073 N 
ATOM     18  H53 UNL     1      12.251  32.886  14.032  1.00  0.00     0.274 HD
ATOM     19  H52 UNL     1      13.618  32.806  13.336  1.00  0.00     0.274 HD
ATOM     20  H51 UNL     1      13.606  32.628  15.026  1.00  0.00     0.274 HD
ENDBRANCH  16  17
BRANCH  16  21
HETATM   21  C9  UNL     1      13.978  34.884  15.744  1.00  0.00     0.285 C 
BRANCH  21  22
HETATM   22  N6  UNL     1      13.373  35.570  16.810  1.00  0.00    -0.012 N 
HETATM   23  C10 UNL     1      12.799  36.832  16.386  1.00  0.00     0.289 C 
HETATM   24  C11 UNL     1      12.507  34.800  17.524  1.00  0.00     0.037 C 
HETATM   25  C12 UNL     1      11.604  33.970  18.187  1.00  0.00     0.116 C 
HETATM   26  C13 UNL     1      12.090  33.949  19.682  1.00  0.00     0.040 C 
HETATM   27  C14 UNL     1      13.540  34.415  19.782  1.00  0.00    -0.028 C 
HETATM   28  C15 UNL     1      14.002  35.664  19.254  1.00  0.00    -0.002 C 
HETATM   29  C16 UNL     1      14.443  35.922  17.852  1.00  0.00     0.279 C 
ENDBRANCH  21  22
ENDBRANCH  16  21
ENDBRANCH  15  16
ENDBRANCH  13  15
ENDBRANCH  10  13
TORSDOF 6
ENDMDL
MODEL 5
REMARK VINA RESULT: -6.735355874      3.823      7.030
REMARK  6 active torsions:
REMARK  status: ('A' for Active; 'I' for Inactive)
REMARK       I    between atoms: C3_5  and  N3_7 
REMARK    1  A    between atoms: N4_10  and  C6_11 
REMARK    2  A    between atoms: C6_11  and  C7_13 
REMARK    3  A    between atoms: C7_13  and  C8_14 
REMARK    4  A    between atoms: C8_14  and  N5_15 
REMARK    5  A    between atoms: C8_14  and  C9_19 
REMARK    6  A    between atoms: C9_19  and  N6_20 
ROOT
HETATM    1  C1  UNL     1      14.959  36.134  21.064  1.00  0.00     0.037 C 
HETATM    2  C2  UNL     1      14.515  36.150  19.931  1.00  0.00     0.001 C 
HETATM    3  N1  UNL     1      14.020  36.178  18.629  1.00  0.00    -0.290 N 
ATOM      4  H1  UNL     1      14.090  37.028  18.069  1.00  0.00     0.178 HD
HETATM    5  C3  UNL     1      13.469  35.108  18.132  1.00  0.00     0.198 C 
HETATM    6  N2  UNL     1      13.393  33.932  18.956  1.00  0.00    -0.063 NA
HETATM    7  N3  UNL     1      12.969  35.129  16.817  1.00  0.00    -0.352 N 
HETATM    8  C4  UNL     1      13.429  34.210  15.826  1.00  0.00     0.145 C 
HETATM    9  C5  UNL     1      13.975  34.989  14.648  1.00  0.00     0.143 C 
HETATM   10  N4  UNL     1      13.088  36.025  14.252  1.00  0.00    -0.372 N 
HETATM   11  C17 UNL     1      12.306  36.793  15.166  1.00  0.00     0.143 C 
HETATM   12  C18 UNL     1      11.969  36.084  16.422  1.00  0.00     0.145 C 
ENDROOT
BRANCH  10  13
HETATM   13  C6  UNL     1      12.998  36.355  12.855  1.00  0.00     0.077 C 
HETATM   14  S1  UNL     1      14.243  35.837  11.909  1.00  0.00    -0.066 SA
BRANCH  13  15
HETATM   15  C7  UNL     1      11.912  37.144  12.272  1.00  0.00     0.103 C 
BRANCH  15  16
HETATM   16  C8  UNL     1      10.681  36.399  11.849  1.00  0.00     0.217 C 
BRANCH  16  17
HETATM   17  N5  UNL     1      10.716  36.259  10.375  1.00  0.00    -0.073 N 
ATOM     18  H53 UNL     1      10.289  37.050   9.893  1.00  0.00     0.274 HD
ATOM     19  H52 UNL     1      11.656  36.357   9.992  1.00  0.00     0.274 HD
ATOM     20  H51 UNL     1      10.283  35.367  10.133  1.00  0.00     0.274 HD
ENDBRANCH  16  17
BRANCH  16  21
HETATM   21  C9  UNL     1      10.296  35.185  12.531  1.00  0.00     0.285 C 
BRANCH  21  22
HETATM   22  N6  UNL     1       9.089  34.898  13.189  1.00  0.00    -0.012 N 
HETATM   23  C10 UNL     1       8.055  34.476  12.265  1.00  0.00     0.289 C 
HETATM   24  C11 UNL     1       9.239  34.055  14.247  1.00  0.00     0.037 C 
HETATM   25  C12 UNL     1       9.456  33.157  15.292  1.00  0.00     0.116 C 
HETATM   26  C13 UNL     1       8.918  33.886  16.577  1.00  0.00     0.040 C 
HETATM   27  C14 UNL     1       8.802  35.389  16.332  1.00  0.00    -0.028 C 
HETATM   28  C15 UNL     1       8.062  35.952  15.242  1.00  0.00    -0.002 C 
HETATM   29  C16 UNL     1       8.565  36.177  13.855  1.00  0.00     0.279 C 
ENDBRANCH  21  22
ENDBRANCH  16  21
ENDBRANCH  15  16
ENDBRANCH  13  15
ENDBRANCH  10  13
TORSDOF 6
ENDMDL
