MODEL 1
REMARK VINA RESULT: -6.886662655      0.000      0.000
REMARK  7 active torsions:
REMARK  status: ('A' for Active; 'I' for Inactive)
REMARK    1  A    between atoms: C2_2  and  C3_3 
REMARK    2  A    between atoms: C13_16  and  O3_17 
REMARK    3  A    between atoms: N2_20  and  C15_21 
REMARK    4  A    between atoms: N2_20  and  C17_23 
REMARK    5  A    between atoms: C17_23  and  C18_24 
REMARK    6  A    between atoms: C19_25  and  C20_26 
REMARK    7  A    between atoms: C20_26  and  O4_27 
ROOT
HETATM    1  C3  UNL     1      13.365  35.956  19.900  1.00  0.00     0.165 C 
HETATM    2  O1  UNL     1      14.073  37.172  19.745  1.00  0.00    -0.291 OA
HETATM    3  C4  UNL     1      14.038  37.546  18.384  1.00  0.00     0.460 C 
HETATM    4  O2  UNL     1      14.021  38.683  17.883  1.00  0.00    -0.231 OA
HETATM    5  N1  UNL     1      14.027  36.262  17.722  1.00  0.00     0.023 N 
HETATM    6  C5  UNL     1      15.352  35.743  17.869  1.00  0.00     0.286 C 
HETATM    7  C6  UNL     1      13.693  36.401  16.307  1.00  0.00     0.253 C 
HETATM    8  C7  UNL     1      13.519  35.045  15.725  1.00  0.00     0.068 C 
HETATM    9  C8  UNL     1      12.139  34.470  15.787  1.00  0.00     0.135 C 
HETATM   10  C9  UNL     1      11.784  33.889  17.110  1.00  0.00     0.041 C 
HETATM   11  C10 UNL     1      12.818  34.172  18.211  1.00  0.00     0.039 C 
HETATM   12  C11 UNL     1      13.026  35.597  18.486  1.00  0.00     0.231 C 
HETATM   13  C12 UNL     1      11.088  35.534  15.481  1.00  0.00     0.072 C 
HETATM   14  C13 UNL     1      11.371  35.789  14.029  1.00  0.00     0.146 C 
HETATM   15  C14 UNL     1      11.316  34.306  13.606  1.00  0.00     0.271 C 
HETATM   16  N2  UNL     1      11.886  33.545  14.656  1.00  0.00    -0.046 N 
ENDROOT
BRANCH  16  17
HETATM   17  C15 UNL     1      10.855  32.569  15.075  1.00  0.00     0.235 C 
HETATM   18  C16 UNL     1       9.560  32.763  14.315  1.00  0.00     0.035 C 
ENDBRANCH  16  17
BRANCH  16  19
HETATM   19  C17 UNL     1      13.031  32.758  14.330  1.00  0.00     0.332 C 
BRANCH  19  20
HETATM   20  C18 UNL     1      12.734  31.332  14.089  1.00  0.00    -0.076 C 
HETATM   21  C19 UNL     1      12.512  30.165  13.884  1.00  0.00    -0.079 C 
BRANCH  21  22
HETATM   22  C20 UNL     1      12.241  28.764  13.611  1.00  0.00     0.257 C 
BRANCH  22  23
HETATM   23  O4  UNL     1      12.995  27.955  14.490  1.00  0.00    -0.389 OA
ATOM     24  H4  UNL     1      13.762  27.622  14.039  1.00  0.00     0.210 HD
ENDBRANCH  22  23
ENDBRANCH  21  22
ENDBRANCH  19  20
ENDBRANCH  16  19
BRANCH  14  25
HETATM   25  O3  UNL     1      10.362  36.509  13.394  1.00  0.00    -0.394 OA
ATOM     26  H3  UNL     1      10.692  37.120  12.746  1.00  0.00     0.210 HD
ENDBRANCH  14  25
BRANCH   1  27
HETATM   27  C2  UNL     1      14.095  34.926  20.666  1.00  0.00     0.030 C 
HETATM   28  C1  UNL     1      15.051  35.646  21.616  1.00  0.00     0.007 C 
ENDBRANCH   1  27
TORSDOF 7
ENDMDL
MODEL 2
REMARK VINA RESULT: -6.503971017      2.662      7.243
REMARK  7 active torsions:
REMARK  status: ('A' for Active; 'I' for Inactive)
REMARK    1  A    between atoms: C2_2  and  C3_3 
REMARK    2  A    between atoms: C13_16  and  O3_17 
REMARK    3  A    between atoms: N2_20  and  C15_21 
REMARK    4  A    between atoms: N2_20  and  C17_23 
REMARK    5  A    between atoms: C17_23  and  C18_24 
REMARK    6  A    between atoms: C19_25  and  C20_26 
REMARK    7  A    between atoms: C20_26  and  O4_27 
ROOT
HETATM    1  C3  UNL     1       7.345  34.961  12.785  1.00  0.00     0.165 C 
HETATM    2  O1  UNL     1       7.679  34.850  11.414  1.00  0.00    -0.291 OA
HETATM    3  C4  UNL     1       9.057  34.564  11.305  1.00  0.00     0.460 C 
HETATM    4  O2  UNL     1       9.653  33.890  10.448  1.00  0.00    -0.231 OA
HETATM    5  N1  UNL     1       9.597  35.261  12.449  1.00  0.00     0.023 N 
HETATM    6  C5  UNL     1       9.539  36.651  12.114  1.00  0.00     0.286 C 
HETATM    7  C6  UNL     1      10.978  34.862  12.706  1.00  0.00     0.253 C 
HETATM    8  C7  UNL     1      11.416  35.468  13.990  1.00  0.00     0.068 C 
HETATM    9  C8  UNL     1      11.164  34.660  15.224  1.00  0.00     0.135 C 
HETATM   10  C9  UNL     1       9.765  34.740  15.725  1.00  0.00     0.041 C 
HETATM   11  C10 UNL     1       8.804  35.467  14.772  1.00  0.00     0.039 C 
HETATM   12  C11 UNL     1       8.679  34.839  13.452  1.00  0.00     0.231 C 
HETATM   13  C12 UNL     1      11.456  33.182  14.979  1.00  0.00     0.072 C 
HETATM   14  C13 UNL     1      12.946  33.223  14.803  1.00  0.00     0.146 C 
HETATM   15  C14 UNL     1      13.228  34.005  16.103  1.00  0.00     0.271 C 
HETATM   16  N2  UNL     1      12.177  34.939  16.271  1.00  0.00    -0.046 N 
ENDROOT
BRANCH  16  17
HETATM   17  C15 UNL     1      11.570  34.657  17.591  1.00  0.00     0.235 C 
HETATM   18  C16 UNL     1      12.437  33.731  18.418  1.00  0.00     0.035 C 
ENDBRANCH  16  17
BRANCH  16  19
HETATM   19  C17 UNL     1      12.545  36.317  16.318  1.00  0.00     0.332 C 
BRANCH  19  20
HETATM   20  C18 UNL     1      13.543  36.639  17.357  1.00  0.00    -0.076 C 
HETATM   21  C19 UNL     1      14.347  36.921  18.210  1.00  0.00    -0.079 C 
BRANCH  21  22
HETATM   22  C20 UNL     1      15.327  37.279  19.221  1.00  0.00     0.257 C 
BRANCH  22  23
HETATM   23  O4  UNL     1      16.629  37.135  18.692  1.00  0.00    -0.389 OA
ATOM     24  H4  UNL     1      17.166  37.871  18.961  1.00  0.00     0.210 HD
ENDBRANCH  22  23
ENDBRANCH  21  22
ENDBRANCH  19  20
ENDBRANCH  16  19
BRANCH  14  25
HETATM   25  O3  UNL     1      13.539  31.963  14.860  1.00  0.00    -0.394 OA
ATOM     26  H3  UNL     1      14.320  31.894  14.324  1.00  0.00     0.210 HD
ENDBRANCH  14  25
BRANCH   1  27
HETATM   27  C2  UNL     1       6.568  36.171  13.120  1.00  0.00     0.030 C 
HETATM   28  C1  UNL     1       5.746  36.550  11.889  1.00  0.00     0.007 C 
ENDBRANCH   1  27
TORSDOF 7
ENDMDL
MODEL 3
REMARK VINA RESULT: -6.466727882      1.796      2.061
REMARK  7 active torsions:
REMARK  status: ('A' for Active; 'I' for Inactive)
REMARK    1  A    between atoms: C2_2  and  C3_3 
REMARK    2  A    between atoms: C13_16  and  O3_17 
REMARK    3  A    between atoms: N2_20  and  C15_21 
REMARK    4  A    between atoms: N2_20  and  C17_23 
REMARK    5  A    between atoms: C17_23  and  C18_24 
REMARK    6  A    between atoms: C19_25  and  C20_26 
REMARK    7  A    between atoms: C20_26  and  O4_27 
ROOT
HETATM    1  C3  UNL     1      13.370  35.971  19.977  1.00  0.00     0.165 C 
HETATM    2  O1  UNL     1      14.145  37.142  19.798  1.00  0.00    -0.291 OA
HETATM    3  C4  UNL     1      14.088  37.520  18.440  1.00  0.00     0.460 C 
HETATM    4  O2  UNL     1      14.124  38.657  17.940  1.00  0.00    -0.231 OA
HETATM    5  N1  UNL     1      13.978  36.241  17.778  1.00  0.00     0.023 N 
HETATM    6  C5  UNL     1      15.274  35.643  17.882  1.00  0.00     0.286 C 
HETATM    7  C6  UNL     1      13.608  36.402  16.375  1.00  0.00     0.253 C 
HETATM    8  C7  UNL     1      13.333  35.061  15.799  1.00  0.00     0.068 C 
HETATM    9  C8  UNL     1      11.924  34.570  15.906  1.00  0.00     0.135 C 
HETATM   10  C9  UNL     1      11.578  34.009  17.240  1.00  0.00     0.041 C 
HETATM   11  C10 UNL     1      12.662  34.226  18.306  1.00  0.00     0.039 C 
HETATM   12  C11 UNL     1      12.965  35.636  18.575  1.00  0.00     0.231 C 
HETATM   13  C12 UNL     1      10.930  35.696  15.635  1.00  0.00     0.072 C 
HETATM   14  C13 UNL     1      11.181  35.936  14.174  1.00  0.00     0.146 C 
HETATM   15  C14 UNL     1      11.023  34.460  13.752  1.00  0.00     0.271 C 
HETATM   16  N2  UNL     1      11.579  33.664  14.784  1.00  0.00    -0.046 N 
ENDROOT
BRANCH  16  17
HETATM   17  C15 UNL     1      10.505  32.751  15.236  1.00  0.00     0.235 C 
HETATM   18  C16 UNL     1       9.304  32.802  14.316  1.00  0.00     0.035 C 
ENDBRANCH  16  17
BRANCH  16  19
HETATM   19  C17 UNL     1      12.664  32.810  14.420  1.00  0.00     0.332 C 
BRANCH  19  20
HETATM   20  C18 UNL     1      13.183  33.041  13.058  1.00  0.00    -0.076 C 
HETATM   21  C19 UNL     1      13.627  33.228  11.952  1.00  0.00    -0.079 C 
BRANCH  21  22
HETATM   22  C20 UNL     1      14.171  33.476  10.628  1.00  0.00     0.257 C 
BRANCH  22  23
HETATM   23  O4  UNL     1      15.512  33.906  10.739  1.00  0.00    -0.389 OA
ATOM     24  H4  UNL     1      15.688  34.575  10.088  1.00  0.00     0.210 HD
ENDBRANCH  22  23
ENDBRANCH  21  22
ENDBRANCH  19  20
ENDBRANCH  16  19
BRANCH  14  25
HETATM   25  O3  UNL     1      10.196  36.717  13.572  1.00  0.00    -0.394 OA
ATOM     26  H3  UNL     1      10.244  36.709  12.623  1.00  0.00     0.210 HD
ENDBRANCH  14  25
BRANCH   1  27
HETATM   27  C2  UNL     1      14.062  34.897  20.718  1.00  0.00     0.030 C 
HETATM   28  C1  UNL     1      15.071  35.558  21.656  1.00  0.00     0.007 C 
ENDBRANCH   1  27
TORSDOF 7
ENDMDL
MODEL 4
REMARK VINA RESULT: -6.246789675      2.474      6.874
REMARK  7 active torsions:
REMARK  status: ('A' for Active; 'I' for Inactive)
REMARK    1  A    between atoms: C2_2  and  C3_3 
REMARK    2  A    between atoms: C13_16  and  O3_17 
REMARK    3  A    between atoms: N2_20  and  C15_21 
REMARK    4  A    between atoms: N2_20  and  C17_23 
REMARK    5  A    between atoms: C17_23  and  C18_24 
REMARK    6  A    between atoms: C19_25  and  C20_26 
REMARK    7  A    between atoms: C20_26  and  O4_27 
ROOT
HETATM    1  C3  UNL     1       9.369  33.531  12.387  1.00  0.00     0.165 C 
HETATM    2  O1  UNL     1       8.109  34.167  12.495  1.00  0.00    -0.291 OA
HETATM    3  C4  UNL     1       8.197  35.187  13.466  1.00  0.00     0.460 C 
HETATM    4  O2  UNL     1       7.601  36.276  13.517  1.00  0.00    -0.231 OA
HETATM    5  N1  UNL     1       9.161  34.636  14.390  1.00  0.00     0.023 N 
HETATM    6  C5  UNL     1       8.470  33.596  15.090  1.00  0.00     0.286 C 
HETATM    7  C6  UNL     1       9.631  35.649  15.330  1.00  0.00     0.253 C 
HETATM    8  C7  UNL     1      10.745  35.077  16.130  1.00  0.00     0.068 C 
HETATM    9  C8  UNL     1      12.121  35.247  15.566  1.00  0.00     0.135 C 
HETATM   10  C9  UNL     1      12.461  34.274  14.494  1.00  0.00     0.041 C 
HETATM   11  C10 UNL     1      11.272  33.419  14.030  1.00  0.00     0.039 C 
HETATM   12  C11 UNL     1      10.157  34.193  13.475  1.00  0.00     0.231 C 
HETATM   13  C12 UNL     1      12.297  36.639  14.966  1.00  0.00     0.072 C 
HETATM   14  C13 UNL     1      12.245  37.482  16.207  1.00  0.00     0.146 C 
HETATM   15  C14 UNL     1      13.315  36.679  16.977  1.00  0.00     0.271 C 
HETATM   16  N2  UNL     1      13.141  35.314  16.641  1.00  0.00    -0.046 N 
ENDROOT
BRANCH  16  17
HETATM   17  C15 UNL     1      14.432  34.850  16.085  1.00  0.00     0.235 C 
HETATM   18  C16 UNL     1      15.606  35.407  16.861  1.00  0.00     0.035 C 
ENDBRANCH  16  17
BRANCH  16  19
HETATM   19  C17 UNL     1      12.857  34.420  17.717  1.00  0.00     0.332 C 
BRANCH  19  20
HETATM   20  C18 UNL     1      13.373  34.869  19.025  1.00  0.00    -0.076 C 
HETATM   21  C19 UNL     1      13.815  35.227  20.089  1.00  0.00    -0.079 C 
BRANCH  21  22
HETATM   22  C20 UNL     1      14.347  35.633  21.378  1.00  0.00     0.257 C 
BRANCH  22  23
HETATM   23  O4  UNL     1      15.661  36.124  21.216  1.00  0.00    -0.389 OA
ATOM     24  H4  UNL     1      16.153  35.991  22.018  1.00  0.00     0.210 HD
ENDBRANCH  22  23
ENDBRANCH  21  22
ENDBRANCH  19  20
ENDBRANCH  16  19
BRANCH  14  25
HETATM   25  O3  UNL     1      12.680  38.789  15.999  1.00  0.00    -0.394 OA
ATOM     26  H3  UNL     1      13.083  39.174  16.768  1.00  0.00     0.210 HD
ENDBRANCH  14  25
BRANCH   1  27
HETATM   27  C2  UNL     1       9.308  32.057  12.445  1.00  0.00     0.030 C 
HETATM   28  C1  UNL     1       7.975  31.624  11.836  1.00  0.00     0.007 C 
ENDBRANCH   1  27
TORSDOF 7
ENDMDL
MODEL 5
REMARK VINA RESULT: -5.929708022      2.343      7.524
REMARK  7 active torsions:
REMARK  status: ('A' for Active; 'I' for Inactive)
REMARK    1  A    between atoms: C2_2  and  C3_3 
REMARK    2  A    between atoms: C13_16  and  O3_17 
REMARK    3  A    between atoms: N2_20  and  C15_21 
REMARK    4  A    between atoms: N2_20  and  C17_23 
REMARK    5  A    between atoms: C17_23  and  C18_24 
REMARK    6  A    between atoms: C19_25  and  C20_26 
REMARK    7  A    between atoms: C20_26  and  O4_27 
ROOT
HETATM    1  C3  UNL     1      13.464  30.865  10.642  1.00  0.00     0.165 C 
HETATM    2  O1  UNL     1      12.943  29.584  10.943  1.00  0.00    -0.291 OA
HETATM    3  C4  UNL     1      12.171  29.674  12.122  1.00  0.00     0.460 C 
HETATM    4  O2  UNL     1      11.159  29.032  12.447  1.00  0.00    -0.231 OA
HETATM    5  N1  UNL     1      12.865  30.708  12.854  1.00  0.00     0.023 N 
HETATM    6  C5  UNL     1      14.075  30.102  13.319  1.00  0.00     0.286 C 
HETATM    7  C6  UNL     1      12.070  31.178  13.985  1.00  0.00     0.253 C 
HETATM    8  C7  UNL     1      12.747  32.356  14.586  1.00  0.00     0.068 C 
HETATM    9  C8  UNL     1      12.374  33.692  14.025  1.00  0.00     0.135 C 
HETATM   10  C9  UNL     1      13.053  34.022  12.743  1.00  0.00     0.041 C 
HETATM   11  C10 UNL     1      13.844  32.852  12.140  1.00  0.00     0.039 C 
HETATM   12  C11 UNL     1      13.028  31.676  11.823  1.00  0.00     0.231 C 
HETATM   13  C12 UNL     1      10.873  33.773  13.759  1.00  0.00     0.072 C 
HETATM   14  C13 UNL     1      10.344  33.745  15.163  1.00  0.00     0.146 C 
HETATM   15  C14 UNL     1      11.240  34.888  15.683  1.00  0.00     0.271 C 
HETATM   16  N2  UNL     1      12.499  34.761  15.045  1.00  0.00    -0.046 N 
ENDROOT
BRANCH  16  17
HETATM   17  C15 UNL     1      12.748  36.043  14.348  1.00  0.00     0.235 C 
HETATM   18  C16 UNL     1      11.662  37.057  14.637  1.00  0.00     0.035 C 
ENDBRANCH  16  17
BRANCH  16  19
HETATM   19  C17 UNL     1      13.631  34.574  15.894  1.00  0.00     0.332 C 
BRANCH  19  20
HETATM   20  C18 UNL     1      13.794  35.622  16.921  1.00  0.00    -0.076 C 
HETATM   21  C19 UNL     1      13.949  36.475  17.759  1.00  0.00    -0.079 C 
BRANCH  21  22
HETATM   22  C20 UNL     1      14.142  37.484  18.787  1.00  0.00     0.257 C 
BRANCH  22  23
HETATM   23  O4  UNL     1      14.425  38.729  18.183  1.00  0.00    -0.389 OA
ATOM     24  H4  UNL     1      13.613  39.187  18.001  1.00  0.00     0.210 HD
ENDBRANCH  22  23
ENDBRANCH  21  22
ENDBRANCH  19  20
ENDBRANCH  16  19
BRANCH  14  25
HETATM   25  O3  UNL     1       9.001  34.108  15.249  1.00  0.00    -0.394 OA
ATOM     26  H3  UNL     1       8.413  33.363  15.251  1.00  0.00     0.210 HD
ENDBRANCH  14  25
BRANCH   1  27
HETATM   27  C2  UNL     1      14.913  30.875  10.358  1.00  0.00     0.030 C 
HETATM   28  C1  UNL     1      15.136  30.103   9.058  1.00  0.00     0.007 C 
ENDBRANCH   1  27
TORSDOF 7
ENDMDL
