MODEL 1
REMARK VINA RESULT: -8.038971963      0.000      0.000
REMARK  5 active torsions:
REMARK  status: ('A' for Active; 'I' for Inactive)
REMARK    1  A    between atoms: C3_5  and  N2_6 
REMARK    2  A    between atoms: C4_7  and  N3_8 
REMARK    3  A    between atoms: N3_8  and  N4_10 
REMARK    4  A    between atoms: C7_17  and  N6_18 
REMARK    5  A    between atoms: C8_21  and  N7_22 
ROOT
HETATM    1  N2  UNL     1     -13.846  67.246  20.879  1.00  0.00     0.043 N 
HETATM    2  C4  UNL     1     -13.059  67.900  20.004  1.00  0.00     0.719 A 
HETATM    3  N5  UNL     1     -12.058  67.253  19.366  1.00  0.00    -0.191 N 
ATOM      4  H5  UNL     1     -11.453  67.733  18.701  1.00  0.00     0.184 HD
HETATM    5  C5  UNL     1     -11.896  65.950  19.648  1.00  0.00     0.059 A 
HETATM    6  C6  UNL     1     -10.808  65.207  18.965  1.00  0.00     0.071 C 
HETATM    7  C7  UNL     1     -12.672  65.235  20.533  1.00  0.00     0.170 A 
HETATM    8  C8  UNL     1     -13.684  65.929  21.164  1.00  0.00     0.176 A 
ENDROOT
BRANCH   1   9
HETATM    9  C3  UNL     1     -14.885  67.978  21.520  1.00  0.00     0.721 A 
HETATM   10  N1  UNL     1     -14.842  68.411  22.783  1.00  0.00    -0.177 N 
HETATM   11  C2  UNL     1     -15.985  69.062  23.060  1.00  0.00     0.108 A 
ATOM     12  H1  UNL     1     -14.067  68.270  23.432  1.00  0.00     0.185 HD
HETATM   13  C1  UNL     1     -16.329  69.692  24.350  1.00  0.00     0.091 C 
HETATM   14  N9  UNL     1     -16.750  69.036  21.963  1.00  0.00    -0.275 N 
HETATM   15  N8  UNL     1     -16.071  68.377  21.039  1.00  0.00    -0.130 N 
ATOM     16  H9  UNL     1     -17.678  69.446  21.859  1.00  0.00     0.189 HD
ATOM     17  H8  UNL     1     -16.403  68.198  20.092  1.00  0.00     0.205 HD
ENDBRANCH   1   9
BRANCH   2  18
HETATM   18  N3  UNL     1     -13.249  69.169  19.759  1.00  0.00    -0.137 N 
ATOM     19  H3  UNL     1     -13.626  69.759  20.499  1.00  0.00     0.205 HD
BRANCH  18  20
HETATM   20  N4  UNL     1     -12.960  69.740  18.540  1.00  0.00    -0.331 N 
ATOM     21  H42 UNL     1     -11.986  69.970  18.342  1.00  0.00     0.177 HD
ATOM     22  H41 UNL     1     -13.678  69.936  17.841  1.00  0.00     0.177 HD
ENDBRANCH  18  20
ENDBRANCH   2  18
BRANCH   8  23
HETATM   23  N7  UNL     1     -14.470  65.343  22.015  1.00  0.00    -0.382 N 
ATOM     24  H72 UNL     1     -15.379  64.981  21.729  1.00  0.00     0.157 HD
ATOM     25  H71 UNL     1     -14.184  65.236  22.988  1.00  0.00     0.157 HD
ENDBRANCH   8  23
BRANCH   7  26
HETATM   26  N6  UNL     1     -12.480  63.857  20.818  1.00  0.00    -0.110 N 
HETATM   27  O1  UNL     1     -12.097  63.554  21.961  1.00  0.00    -0.532 OA
HETATM   28  O2  UNL     1     -12.695  62.858  19.906  1.00  0.00    -0.532 OA
ENDBRANCH   7  26
TORSDOF 5
ENDMDL
MODEL 2
REMARK VINA RESULT: -7.832197998      0.716      1.070
REMARK  5 active torsions:
REMARK  status: ('A' for Active; 'I' for Inactive)
REMARK    1  A    between atoms: C3_5  and  N2_6 
REMARK    2  A    between atoms: C4_7  and  N3_8 
REMARK    3  A    between atoms: N3_8  and  N4_10 
REMARK    4  A    between atoms: C7_17  and  N6_18 
REMARK    5  A    between atoms: C8_21  and  N7_22 
ROOT
HETATM    1  N2  UNL     1     -13.789  67.340  20.922  1.00  0.00     0.043 N 
HETATM    2  C4  UNL     1     -13.037  67.961  19.992  1.00  0.00     0.719 A 
HETATM    3  N5  UNL     1     -12.099  67.275  19.301  1.00  0.00    -0.191 N 
ATOM      4  H5  UNL     1     -11.521  67.729  18.594  1.00  0.00     0.184 HD
HETATM    5  C5  UNL     1     -11.962  65.970  19.587  1.00  0.00     0.059 A 
HETATM    6  C6  UNL     1     -10.943  65.186  18.846  1.00  0.00     0.071 C 
HETATM    7  C7  UNL     1     -12.704  65.289  20.526  1.00  0.00     0.170 A 
HETATM    8  C8  UNL     1     -13.652  66.022  21.211  1.00  0.00     0.176 A 
ENDROOT
BRANCH   1   9
HETATM    9  C3  UNL     1     -14.762  68.112  21.618  1.00  0.00     0.721 A 
HETATM   10  N1  UNL     1     -15.776  68.759  21.037  1.00  0.00    -0.177 N 
HETATM   11  C2  UNL     1     -16.497  69.382  21.987  1.00  0.00     0.108 A 
ATOM     12  H1  UNL     1     -15.972  68.777  20.036  1.00  0.00     0.185 HD
HETATM   13  C1  UNL     1     -17.700  70.204  21.757  1.00  0.00     0.091 C 
HETATM   14  N9  UNL     1     -15.929  69.124  23.170  1.00  0.00    -0.275 N 
HETATM   15  N8  UNL     1     -14.881  68.353  22.931  1.00  0.00    -0.130 N 
ATOM     16  H9  UNL     1     -16.244  69.456  24.081  1.00  0.00     0.189 HD
ATOM     17  H8  UNL     1     -14.250  67.993  23.647  1.00  0.00     0.205 HD
ENDBRANCH   1   9
BRANCH   2  18
HETATM   18  N3  UNL     1     -13.202  69.232  19.745  1.00  0.00    -0.137 N 
ATOM     19  H3  UNL     1     -13.547  69.836  20.491  1.00  0.00     0.205 HD
BRANCH  18  20
HETATM   20  N4  UNL     1     -12.927  69.791  18.517  1.00  0.00    -0.331 N 
ATOM     21  H42 UNL     1     -13.698  69.885  17.856  1.00  0.00     0.177 HD
ATOM     22  H41 UNL     1     -11.994  70.106  18.253  1.00  0.00     0.177 HD
ENDBRANCH  18  20
ENDBRANCH   2  18
BRANCH   8  23
HETATM   23  N7  UNL     1     -14.402  65.470  22.116  1.00  0.00    -0.382 N 
ATOM     24  H72 UNL     1     -15.339  65.136  21.891  1.00  0.00     0.157 HD
ATOM     25  H71 UNL     1     -14.059  65.361  23.070  1.00  0.00     0.157 HD
ENDBRANCH   8  23
BRANCH   7  26
HETATM   26  N6  UNL     1     -12.539  63.908  20.815  1.00  0.00    -0.110 N 
HETATM   27  O1  UNL     1     -12.129  63.603  21.947  1.00  0.00    -0.532 OA
HETATM   28  O2  UNL     1     -12.807  62.910  19.917  1.00  0.00    -0.532 OA
ENDBRANCH   7  26
TORSDOF 5
ENDMDL
MODEL 3
REMARK VINA RESULT: -7.238861205      1.648      1.930
REMARK  5 active torsions:
REMARK  status: ('A' for Active; 'I' for Inactive)
REMARK    1  A    between atoms: C3_5  and  N2_6 
REMARK    2  A    between atoms: C4_7  and  N3_8 
REMARK    3  A    between atoms: N3_8  and  N4_10 
REMARK    4  A    between atoms: C7_17  and  N6_18 
REMARK    5  A    between atoms: C8_21  and  N7_22 
ROOT
HETATM    1  N2  UNL     1     -15.000  68.279  20.648  1.00  0.00     0.043 N 
HETATM    2  C4  UNL     1     -14.941  68.866  19.437  1.00  0.00     0.719 A 
HETATM    3  N5  UNL     1     -14.123  68.378  18.478  1.00  0.00    -0.191 N 
ATOM      4  H5  UNL     1     -14.066  68.810  17.557  1.00  0.00     0.184 HD
HETATM    5  C5  UNL     1     -13.388  67.299  18.794  1.00  0.00     0.059 A 
HETATM    6  C6  UNL     1     -12.479  66.735  17.765  1.00  0.00     0.071 C 
HETATM    7  C7  UNL     1     -13.410  66.662  20.015  1.00  0.00     0.170 A 
HETATM    8  C8  UNL     1     -14.259  67.188  20.968  1.00  0.00     0.176 A 
ENDROOT
BRANCH   1   9
HETATM    9  C3  UNL     1     -15.881  68.835  21.618  1.00  0.00     0.721 A 
HETATM   10  N1  UNL     1     -15.566  69.043  22.899  1.00  0.00    -0.177 N 
HETATM   11  C2  UNL     1     -16.627  69.579  23.528  1.00  0.00     0.108 A 
ATOM     12  H1  UNL     1     -14.666  68.831  23.331  1.00  0.00     0.185 HD
HETATM   13  C1  UNL     1     -16.686  69.957  24.953  1.00  0.00     0.091 C 
HETATM   14  N9  UNL     1     -17.614  69.706  22.634  1.00  0.00    -0.275 N 
HETATM   15  N8  UNL     1     -17.147  69.253  21.483  1.00  0.00    -0.130 N 
ATOM     16  H9  UNL     1     -18.546  70.081  22.807  1.00  0.00     0.189 HD
ATOM     17  H8  UNL     1     -17.677  69.225  20.612  1.00  0.00     0.205 HD
ENDBRANCH   1   9
BRANCH   2  18
HETATM   18  N3  UNL     1     -15.672  69.915  19.171  1.00  0.00    -0.137 N 
ATOM     19  H3  UNL     1     -16.530  70.061  19.702  1.00  0.00     0.205 HD
BRANCH  18  20
HETATM   20  N4  UNL     1     -15.330  70.831  18.202  1.00  0.00    -0.331 N 
ATOM     21  H42 UNL     1     -14.855  71.683  18.501  1.00  0.00     0.177 HD
ATOM     22  H41 UNL     1     -15.533  70.686  17.213  1.00  0.00     0.177 HD
ENDBRANCH  18  20
ENDBRANCH   2  18
BRANCH   8  23
HETATM   23  N7  UNL     1     -14.352  66.658  22.149  1.00  0.00    -0.382 N 
ATOM     24  H72 UNL     1     -14.387  65.647  22.271  1.00  0.00     0.157 HD
ATOM     25  H71 UNL     1     -14.388  67.253  22.977  1.00  0.00     0.157 HD
ENDBRANCH   8  23
BRANCH   7  26
HETATM   26  N6  UNL     1     -12.621  65.523  20.327  1.00  0.00    -0.110 N 
HETATM   27  O1  UNL     1     -13.175  64.411  20.283  1.00  0.00    -0.532 OA
HETATM   28  O2  UNL     1     -11.297  65.590  20.669  1.00  0.00    -0.532 OA
ENDBRANCH   7  26
TORSDOF 5
ENDMDL
MODEL 4
REMARK VINA RESULT: -7.152143760      3.028      5.344
REMARK  5 active torsions:
REMARK  status: ('A' for Active; 'I' for Inactive)
REMARK    1  A    between atoms: C3_5  and  N2_6 
REMARK    2  A    between atoms: C4_7  and  N3_8 
REMARK    3  A    between atoms: N3_8  and  N4_10 
REMARK    4  A    between atoms: C7_17  and  N6_18 
REMARK    5  A    between atoms: C8_21  and  N7_22 
ROOT
HETATM    1  N2  UNL     1     -14.554  66.542  21.009  1.00  0.00     0.043 N 
HETATM    2  C4  UNL     1     -14.697  67.074  19.779  1.00  0.00     0.719 A 
HETATM    3  N5  UNL     1     -15.285  68.280  19.620  1.00  0.00    -0.191 N 
ATOM      4  H5  UNL     1     -15.402  68.698  18.697  1.00  0.00     0.184 HD
HETATM    5  C5  UNL     1     -15.709  68.905  20.731  1.00  0.00     0.059 A 
HETATM    6  C6  UNL     1     -16.358  70.233  20.593  1.00  0.00     0.071 C 
HETATM    7  C7  UNL     1     -15.587  68.407  22.008  1.00  0.00     0.170 A 
HETATM    8  C8  UNL     1     -14.980  67.173  22.131  1.00  0.00     0.176 A 
ENDROOT
BRANCH   1   9
HETATM    9  C3  UNL     1     -13.926  65.269  21.117  1.00  0.00     0.721 A 
HETATM   10  N1  UNL     1     -12.626  65.042  20.908  1.00  0.00    -0.177 N 
HETATM   11  C2  UNL     1     -12.376  63.734  21.095  1.00  0.00     0.108 A 
ATOM     12  H1  UNL     1     -11.936  65.747  20.649  1.00  0.00     0.185 HD
HETATM   13  C1  UNL     1     -11.061  63.079  20.961  1.00  0.00     0.091 C 
HETATM   14  N9  UNL     1     -13.528  63.138  21.424  1.00  0.00    -0.275 N 
HETATM   15  N8  UNL     1     -14.456  64.079  21.434  1.00  0.00    -0.130 N 
ATOM     16  H9  UNL     1     -13.663  62.148  21.627  1.00  0.00     0.189 HD
ATOM     17  H8  UNL     1     -15.440  63.922  21.651  1.00  0.00     0.205 HD
ENDBRANCH   1   9
BRANCH   2  18
HETATM   18  N3  UNL     1     -14.272  66.433  18.724  1.00  0.00    -0.137 N 
ATOM     19  H3  UNL     1     -13.707  65.594  18.856  1.00  0.00     0.205 HD
BRANCH  18  20
HETATM   20  N4  UNL     1     -14.555  66.845  17.442  1.00  0.00    -0.331 N 
ATOM     21  H42 UNL     1     -14.155  67.730  17.129  1.00  0.00     0.177 HD
ATOM     22  H41 UNL     1     -15.140  66.303  16.807  1.00  0.00     0.177 HD
ENDBRANCH  18  20
ENDBRANCH   2  18
BRANCH   8  23
HETATM   23  N7  UNL     1     -14.819  66.618  23.294  1.00  0.00    -0.382 N 
ATOM     24  H72 UNL     1     -13.926  66.673  23.784  1.00  0.00     0.157 HD
ATOM     25  H71 UNL     1     -15.590  66.118  23.736  1.00  0.00     0.157 HD
ENDBRANCH   8  23
BRANCH   7  26
HETATM   26  N6  UNL     1     -16.046  69.084  23.169  1.00  0.00    -0.110 N 
HETATM   27  O1  UNL     1     -15.227  69.276  24.084  1.00  0.00    -0.532 OA
HETATM   28  O2  UNL     1     -17.331  69.532  23.326  1.00  0.00    -0.532 OA
ENDBRANCH   7  26
TORSDOF 5
ENDMDL
MODEL 5
REMARK VINA RESULT: -7.061813998      2.954      5.399
REMARK  5 active torsions:
REMARK  status: ('A' for Active; 'I' for Inactive)
REMARK    1  A    between atoms: C3_5  and  N2_6 
REMARK    2  A    between atoms: C4_7  and  N3_8 
REMARK    3  A    between atoms: N3_8  and  N4_10 
REMARK    4  A    between atoms: C7_17  and  N6_18 
REMARK    5  A    between atoms: C8_21  and  N7_22 
ROOT
HETATM    1  N2  UNL     1     -14.226  67.434  20.416  1.00  0.00     0.043 N 
HETATM    2  C4  UNL     1     -14.569  68.108  19.301  1.00  0.00     0.719 A 
HETATM    3  N5  UNL     1     -15.488  69.097  19.355  1.00  0.00    -0.191 N 
ATOM      4  H5  UNL     1     -15.759  69.617  18.521  1.00  0.00     0.184 HD
HETATM    5  C5  UNL     1     -16.028  69.365  20.555  1.00  0.00     0.059 A 
HETATM    6  C6  UNL     1     -17.040  70.447  20.651  1.00  0.00     0.071 C 
HETATM    7  C7  UNL     1     -15.714  68.707  21.723  1.00  0.00     0.170 A 
HETATM    8  C8  UNL     1     -14.770  67.704  21.629  1.00  0.00     0.176 A 
ENDROOT
BRANCH   1   9
HETATM    9  C3  UNL     1     -13.251  66.403  20.301  1.00  0.00     0.721 A 
HETATM   10  N1  UNL     1     -13.516  65.096  20.371  1.00  0.00    -0.177 N 
HETATM   11  C2  UNL     1     -12.369  64.409  20.223  1.00  0.00     0.108 A 
ATOM     12  H1  UNL     1     -14.439  64.685  20.514  1.00  0.00     0.185 HD
HETATM   13  C1  UNL     1     -12.234  62.940  20.238  1.00  0.00     0.091 C 
HETATM   14  N9  UNL     1     -11.379  65.294  20.059  1.00  0.00    -0.275 N 
HETATM   15  N8  UNL     1     -11.928  66.496  20.108  1.00  0.00    -0.130 N 
ATOM     16  H9  UNL     1     -10.391  65.082  19.922  1.00  0.00     0.189 HD
ATOM     17  H8  UNL     1     -11.416  67.372  20.012  1.00  0.00     0.205 HD
ENDBRANCH   1   9
BRANCH   2  18
HETATM   18  N3  UNL     1     -14.020  67.815  18.153  1.00  0.00    -0.137 N 
ATOM     19  H3  UNL     1     -13.159  68.293  17.886  1.00  0.00     0.205 HD
BRANCH  18  20
HETATM   20  N4  UNL     1     -14.557  66.888  17.289  1.00  0.00    -0.331 N 
ATOM     21  H42 UNL     1     -15.572  66.864  17.190  1.00  0.00     0.177 HD
ATOM     22  H41 UNL     1     -13.982  66.237  16.755  1.00  0.00     0.177 HD
ENDBRANCH  18  20
ENDBRANCH   2  18
BRANCH   8  23
HETATM   23  N7  UNL     1     -14.406  67.026  22.675  1.00  0.00    -0.382 N 
ATOM     24  H72 UNL     1     -14.527  66.014  22.714  1.00  0.00     0.157 HD
ATOM     25  H71 UNL     1     -13.990  67.502  23.475  1.00  0.00     0.157 HD
ENDBRANCH   8  23
BRANCH   7  26
HETATM   26  N6  UNL     1     -16.301  69.006  22.981  1.00  0.00    -0.110 N 
HETATM   27  O1  UNL     1     -17.541  69.080  23.033  1.00  0.00    -0.532 OA
HETATM   28  O2  UNL     1     -15.577  69.213  24.125  1.00  0.00    -0.532 OA
ENDBRANCH   7  26
TORSDOF 5
ENDMDL
