MODEL 1
REMARK VINA RESULT: -6.971079256      0.000      0.000
REMARK  11 active torsions:
REMARK  status: ('A' for Active; 'I' for Inactive)
REMARK    1  A    between atoms: O1_2  and  C2_3 
REMARK    2  A    between atoms: C2_3  and  C3_4 
REMARK    3  A    between atoms: C4_8  and  C5_9 
REMARK    4  A    between atoms: C5_9  and  C6_10 
REMARK    5  A    between atoms: C6_10  and  C7_11 
REMARK    6  A    between atoms: C7_11  and  C8_12 
REMARK    7  A    between atoms: C8_12  and  C9_13 
REMARK    8  A    between atoms: C9_13  and  C10_14 
REMARK    9  A    between atoms: C10_14  and  C11_15 
REMARK   10  A    between atoms: C11_15  and  N2_16 
REMARK   11  A    between atoms: N3_20  and  O2_21 
ROOT
HETATM    1  C3  UNL     1      21.765   4.439  31.936  1.00  0.00     0.352 C 
HETATM    2  N1  UNL     1      22.924   4.725  31.045  1.00  0.00    -0.033 N 
ATOM      3  H11 UNL     1      22.861   5.322  30.221  1.00  0.00     0.281 HD
ATOM      4  H12 UNL     1      23.339   4.029  30.426  1.00  0.00     0.281 HD
HETATM    5  C4  UNL     1      23.554   5.161  32.318  1.00  0.00     0.289 C 
HETATM    6  N3  UNL     1      22.159   5.646  32.615  1.00  0.00    -0.133 NA
ENDROOT
BRANCH   5   7
HETATM    7  C5  UNL     1      24.547   6.256  32.187  1.00  0.00     0.051 C 
BRANCH   7   8
HETATM    8  C6  UNL     1      25.482   6.385  33.343  1.00  0.00     0.003 C 
BRANCH   8   9
HETATM    9  C7  UNL     1      24.942   7.280  34.436  1.00  0.00     0.000 C 
BRANCH   9  10
HETATM   10  C8  UNL     1      25.038   8.735  34.085  1.00  0.00     0.000 C 
BRANCH  10  11
HETATM   11  C9  UNL     1      24.009   9.580  34.757  1.00  0.00     0.002 C 
BRANCH  11  12
HETATM   12  C10 UNL     1      24.097  10.988  34.238  1.00  0.00     0.027 C 
BRANCH  12  13
HETATM   13  C11 UNL     1      25.498  11.541  34.271  1.00  0.00     0.229 C 
BRANCH  13  14
HETATM   14  N2  UNL     1      25.890  12.108  32.993  1.00  0.00    -0.079 N 
ATOM     15  H23 UNL     1      25.965  11.386  32.275  1.00  0.00     0.274 HD
ATOM     16  H22 UNL     1      25.136  12.661  32.586  1.00  0.00     0.274 HD
ATOM     17  H21 UNL     1      26.751  12.650  33.063  1.00  0.00     0.274 HD
ENDBRANCH  13  14
ENDBRANCH  12  13
ENDBRANCH  11  12
ENDBRANCH  10  11
ENDBRANCH   9  10
ENDBRANCH   8   9
ENDBRANCH   7   8
ENDBRANCH   5   7
BRANCH   6  18
HETATM   18  O2  UNL     1      21.892   5.726  33.914  1.00  0.00    -0.309 OA
ATOM     19  H2  UNL     1      22.142   6.527  34.359  1.00  0.00     0.237 HD
ENDBRANCH   6  18
BRANCH   1  20
HETATM   20  C2  UNL     1      20.453   4.311  31.301  1.00  0.00     0.269 C 
HETATM   21  C12 UNL     1      19.905   5.732  31.131  1.00  0.00     0.074 C 
HETATM   22  C13 UNL     1      19.358   5.858  29.938  1.00  0.00     0.032 C 
HETATM   23  C14 UNL     1      19.509   4.543  29.255  1.00  0.00     0.236 C 
HETATM   24  N4  UNL     1      20.725   4.044  29.867  1.00  0.00    -0.039 N 
ATOM     25  H42 UNL     1      21.593   4.441  29.505  1.00  0.00     0.281 HD
ATOM     26  H41 UNL     1      20.967   3.080  29.638  1.00  0.00     0.281 HD
BRANCH  20  27
HETATM   27  O1  UNL     1      19.466   3.567  31.779  1.00  0.00    -0.357 OA
HETATM   28  C1  UNL     1      19.137   3.431  33.063  1.00  0.00     0.205 C 
ENDBRANCH  20  27
ENDBRANCH   1  20
TORSDOF 11
ENDMDL
MODEL 2
REMARK VINA RESULT: -6.922670917      1.633      2.513
REMARK  11 active torsions:
REMARK  status: ('A' for Active; 'I' for Inactive)
REMARK    1  A    between atoms: O1_2  and  C2_3 
REMARK    2  A    between atoms: C2_3  and  C3_4 
REMARK    3  A    between atoms: C4_8  and  C5_9 
REMARK    4  A    between atoms: C5_9  and  C6_10 
REMARK    5  A    between atoms: C6_10  and  C7_11 
REMARK    6  A    between atoms: C7_11  and  C8_12 
REMARK    7  A    between atoms: C8_12  and  C9_13 
REMARK    8  A    between atoms: C9_13  and  C10_14 
REMARK    9  A    between atoms: C10_14  and  C11_15 
REMARK   10  A    between atoms: C11_15  and  N2_16 
REMARK   11  A    between atoms: N3_20  and  O2_21 
ROOT
HETATM    1  C3  UNL     1      21.349   5.254  33.275  1.00  0.00     0.352 C 
HETATM    2  N1  UNL     1      21.867   4.965  34.641  1.00  0.00    -0.033 N 
ATOM      3  H11 UNL     1      22.023   4.020  34.991  1.00  0.00     0.281 HD
ATOM      4  H12 UNL     1      21.323   5.115  35.490  1.00  0.00     0.281 HD
HETATM    5  C4  UNL     1      22.968   5.864  34.210  1.00  0.00     0.289 C 
HETATM    6  N3  UNL     1      22.732   5.194  32.882  1.00  0.00    -0.133 NA
ENDROOT
BRANCH   5   7
HETATM    7  C5  UNL     1      24.296   5.562  34.799  1.00  0.00     0.051 C 
BRANCH   7   8
HETATM    8  C6  UNL     1      25.098   6.765  35.169  1.00  0.00     0.003 C 
BRANCH   8   9
HETATM    9  C7  UNL     1      24.880   7.926  34.224  1.00  0.00     0.000 C 
BRANCH   9  10
HETATM   10  C8  UNL     1      24.270   9.114  34.906  1.00  0.00     0.000 C 
BRANCH  10  11
HETATM   11  C9  UNL     1      24.297  10.356  34.080  1.00  0.00     0.002 C 
BRANCH  11  12
HETATM   12  C10 UNL     1      24.734  11.516  34.930  1.00  0.00     0.027 C 
BRANCH  12  13
HETATM   13  C11 UNL     1      25.939  12.231  34.377  1.00  0.00     0.229 C 
BRANCH  13  14
HETATM   14  N2  UNL     1      26.045  12.085  32.936  1.00  0.00    -0.079 N 
ATOM     15  H23 UNL     1      27.012  12.179  32.624  1.00  0.00     0.274 HD
ATOM     16  H22 UNL     1      25.876  11.121  32.647  1.00  0.00     0.274 HD
ATOM     17  H21 UNL     1      25.431  12.733  32.441  1.00  0.00     0.274 HD
ENDBRANCH  13  14
ENDBRANCH  12  13
ENDBRANCH  11  12
ENDBRANCH  10  11
ENDBRANCH   9  10
ENDBRANCH   8   9
ENDBRANCH   7   8
ENDBRANCH   5   7
BRANCH   6  18
HETATM   18  O2  UNL     1      23.100   5.935  31.843  1.00  0.00    -0.309 OA
ATOM     19  H2  UNL     1      23.975   5.797  31.500  1.00  0.00     0.237 HD
ENDBRANCH   6  18
BRANCH   1  20
HETATM   20  C2  UNL     1      20.356   4.329  32.730  1.00  0.00     0.269 C 
HETATM   21  C12 UNL     1      20.324   3.115  33.666  1.00  0.00     0.074 C 
HETATM   22  C13 UNL     1      19.075   2.752  33.881  1.00  0.00     0.032 C 
HETATM   23  C14 UNL     1      18.215   3.693  33.110  1.00  0.00     0.236 C 
HETATM   24  N4  UNL     1      19.034   4.889  33.109  1.00  0.00    -0.039 N 
ATOM     25  H42 UNL     1      19.020   5.431  33.972  1.00  0.00     0.281 HD
ATOM     26  H41 UNL     1      18.696   5.651  32.520  1.00  0.00     0.281 HD
BRANCH  20  27
HETATM   27  O1  UNL     1      20.375   3.864  31.489  1.00  0.00    -0.357 OA
HETATM   28  C1  UNL     1      20.243   4.589  30.378  1.00  0.00     0.205 C 
ENDBRANCH  20  27
ENDBRANCH   1  20
TORSDOF 11
ENDMDL
MODEL 3
REMARK VINA RESULT: -6.843481384      1.074      1.475
REMARK  11 active torsions:
REMARK  status: ('A' for Active; 'I' for Inactive)
REMARK    1  A    between atoms: O1_2  and  C2_3 
REMARK    2  A    between atoms: C2_3  and  C3_4 
REMARK    3  A    between atoms: C4_8  and  C5_9 
REMARK    4  A    between atoms: C5_9  and  C6_10 
REMARK    5  A    between atoms: C6_10  and  C7_11 
REMARK    6  A    between atoms: C7_11  and  C8_12 
REMARK    7  A    between atoms: C8_12  and  C9_13 
REMARK    8  A    between atoms: C9_13  and  C10_14 
REMARK    9  A    between atoms: C10_14  and  C11_15 
REMARK   10  A    between atoms: C11_15  and  N2_16 
REMARK   11  A    between atoms: N3_20  and  O2_21 
ROOT
HETATM    1  C3  UNL     1      22.201   4.505  31.690  1.00  0.00     0.352 C 
HETATM    2  N1  UNL     1      23.556   4.756  31.126  1.00  0.00    -0.033 N 
ATOM      3  H11 UNL     1      23.724   5.362  30.323  1.00  0.00     0.281 HD
ATOM      4  H12 UNL     1      24.090   4.050  30.618  1.00  0.00     0.281 HD
HETATM    5  C4  UNL     1      23.859   5.156  32.524  1.00  0.00     0.289 C 
HETATM    6  N3  UNL     1      22.452   5.689  32.468  1.00  0.00    -0.133 NA
ENDROOT
BRANCH   5   7
HETATM    7  C5  UNL     1      24.889   6.214  32.667  1.00  0.00     0.051 C 
BRANCH   7   8
HETATM    8  C6  UNL     1      25.516   6.289  34.021  1.00  0.00     0.003 C 
BRANCH   8   9
HETATM    9  C7  UNL     1      24.939   7.399  34.871  1.00  0.00     0.000 C 
BRANCH   9  10
HETATM   10  C8  UNL     1      24.853   8.701  34.133  1.00  0.00     0.000 C 
BRANCH  10  11
HETATM   11  C9  UNL     1      24.031   9.731  34.833  1.00  0.00     0.002 C 
BRANCH  11  12
HETATM   12  C10 UNL     1      24.161  11.048  34.120  1.00  0.00     0.027 C 
BRANCH  12  13
HETATM   13  C11 UNL     1      25.549  11.627  34.200  1.00  0.00     0.229 C 
BRANCH  13  14
HETATM   14  N2  UNL     1      25.986  12.171  32.926  1.00  0.00    -0.079 N 
ATOM     15  H23 UNL     1      26.629  11.535  32.452  1.00  0.00     0.274 HD
ATOM     16  H22 UNL     1      25.227  12.170  32.243  1.00  0.00     0.274 HD
ATOM     17  H21 UNL     1      26.392  13.101  33.027  1.00  0.00     0.274 HD
ENDBRANCH  13  14
ENDBRANCH  12  13
ENDBRANCH  11  12
ENDBRANCH  10  11
ENDBRANCH   9  10
ENDBRANCH   8   9
ENDBRANCH   7   8
ENDBRANCH   5   7
BRANCH   6  18
HETATM   18  O2  UNL     1      21.868   5.767  33.659  1.00  0.00    -0.309 OA
ATOM     19  H2  UNL     1      22.097   6.510  34.207  1.00  0.00     0.237 HD
ENDBRANCH   6  18
BRANCH   1  20
HETATM   20  C2  UNL     1      21.088   4.431  30.743  1.00  0.00     0.269 C 
HETATM   21  C12 UNL     1      19.808   4.313  31.577  1.00  0.00     0.074 C 
HETATM   22  C13 UNL     1      18.874   5.095  31.072  1.00  0.00     0.032 C 
HETATM   23  C14 UNL     1      19.475   5.770  29.888  1.00  0.00     0.236 C 
HETATM   24  N4  UNL     1      20.872   5.821  30.269  1.00  0.00    -0.039 N 
ATOM     25  H42 UNL     1      21.120   6.553  30.933  1.00  0.00     0.281 HD
ATOM     26  H41 UNL     1      21.513   6.140  29.542  1.00  0.00     0.281 HD
BRANCH  20  27
HETATM   27  O1  UNL     1      21.002   3.540  29.766  1.00  0.00    -0.357 OA
HETATM   28  C1  UNL     1      22.015   3.079  29.033  1.00  0.00     0.205 C 
ENDBRANCH  20  27
ENDBRANCH   1  20
TORSDOF 11
ENDMDL
MODEL 4
REMARK VINA RESULT: -6.776011463      1.905      3.079
REMARK  11 active torsions:
REMARK  status: ('A' for Active; 'I' for Inactive)
REMARK    1  A    between atoms: O1_2  and  C2_3 
REMARK    2  A    between atoms: C2_3  and  C3_4 
REMARK    3  A    between atoms: C4_8  and  C5_9 
REMARK    4  A    between atoms: C5_9  and  C6_10 
REMARK    5  A    between atoms: C6_10  and  C7_11 
REMARK    6  A    between atoms: C7_11  and  C8_12 
REMARK    7  A    between atoms: C8_12  and  C9_13 
REMARK    8  A    between atoms: C9_13  and  C10_14 
REMARK    9  A    between atoms: C10_14  and  C11_15 
REMARK   10  A    between atoms: C11_15  and  N2_16 
REMARK   11  A    between atoms: N3_20  and  O2_21 
ROOT
HETATM    1  C3  UNL     1      24.357   5.031  32.579  1.00  0.00     0.352 C 
HETATM    2  N1  UNL     1      24.582   6.502  32.526  1.00  0.00    -0.033 N 
ATOM      3  H11 UNL     1      23.832   7.178  32.377  1.00  0.00     0.281 HD
ATOM      4  H12 UNL     1      25.061   6.968  31.754  1.00  0.00     0.281 HD
HETATM    5  C4  UNL     1      25.212   6.265  33.850  1.00  0.00     0.289 C 
HETATM    6  N3  UNL     1      24.102   5.256  33.978  1.00  0.00    -0.133 NA
ENDROOT
BRANCH   5   7
HETATM    7  C5  UNL     1      25.103   7.391  34.810  1.00  0.00     0.051 C 
BRANCH   7   8
HETATM    8  C6  UNL     1      24.920   8.730  34.176  1.00  0.00     0.003 C 
BRANCH   8   9
HETATM    9  C7  UNL     1      23.937   9.602  34.925  1.00  0.00     0.000 C 
BRANCH   9  10
HETATM   10  C8  UNL     1      24.123  11.060  34.628  1.00  0.00     0.000 C 
BRANCH  10  11
HETATM   11  C9  UNL     1      25.375  11.362  33.877  1.00  0.00     0.002 C 
BRANCH  11  12
HETATM   12  C10 UNL     1      26.163  12.411  34.611  1.00  0.00     0.027 C 
BRANCH  12  13
HETATM   13  C11 UNL     1      26.478  13.614  33.760  1.00  0.00     0.229 C 
BRANCH  13  14
HETATM   14  N2  UNL     1      26.532  14.835  34.544  1.00  0.00    -0.079 N 
ATOM     15  H23 UNL     1      25.667  14.978  35.068  1.00  0.00     0.274 HD
ATOM     16  H22 UNL     1      27.180  14.745  35.327  1.00  0.00     0.274 HD
ATOM     17  H21 UNL     1      26.755  15.648  33.970  1.00  0.00     0.274 HD
ENDBRANCH  13  14
ENDBRANCH  12  13
ENDBRANCH  11  12
ENDBRANCH  10  11
ENDBRANCH   9  10
ENDBRANCH   8   9
ENDBRANCH   7   8
ENDBRANCH   5   7
BRANCH   6  18
HETATM   18  O2  UNL     1      24.384   4.261  34.813  1.00  0.00    -0.309 OA
ATOM     19  H2  UNL     1      25.260   3.896  34.772  1.00  0.00     0.237 HD
ENDBRANCH   6  18
BRANCH   1  20
HETATM   20  C2  UNL     1      23.332   4.481  31.691  1.00  0.00     0.269 C 
HETATM   21  C12 UNL     1      22.172   4.030  32.585  1.00  0.00     0.074 C 
HETATM   22  C13 UNL     1      21.025   4.389  32.042  1.00  0.00     0.032 C 
HETATM   23  C14 UNL     1      21.355   5.093  30.771  1.00  0.00     0.236 C 
HETATM   24  N4  UNL     1      22.654   5.655  31.086  1.00  0.00    -0.039 N 
ATOM     25  H42 UNL     1      22.639   6.497  31.662  1.00  0.00     0.281 HD
ATOM     26  H41 UNL     1      23.144   6.090  30.305  1.00  0.00     0.281 HD
BRANCH  20  27
HETATM   27  O1  UNL     1      23.550   3.512  30.815  1.00  0.00    -0.357 OA
HETATM   28  C1  UNL     1      24.700   2.860  30.636  1.00  0.00     0.205 C 
ENDBRANCH  20  27
ENDBRANCH   1  20
TORSDOF 11
ENDMDL
MODEL 5
REMARK VINA RESULT: -6.680581912      1.601      1.836
REMARK  11 active torsions:
REMARK  status: ('A' for Active; 'I' for Inactive)
REMARK    1  A    between atoms: O1_2  and  C2_3 
REMARK    2  A    between atoms: C2_3  and  C3_4 
REMARK    3  A    between atoms: C4_8  and  C5_9 
REMARK    4  A    between atoms: C5_9  and  C6_10 
REMARK    5  A    between atoms: C6_10  and  C7_11 
REMARK    6  A    between atoms: C7_11  and  C8_12 
REMARK    7  A    between atoms: C8_12  and  C9_13 
REMARK    8  A    between atoms: C9_13  and  C10_14 
REMARK    9  A    between atoms: C10_14  and  C11_15 
REMARK   10  A    between atoms: C11_15  and  N2_16 
REMARK   11  A    between atoms: N3_20  and  O2_21 
ROOT
HETATM    1  C3  UNL     1      21.042   5.218  32.625  1.00  0.00     0.352 C 
HETATM    2  N1  UNL     1      21.369   4.522  33.901  1.00  0.00    -0.033 N 
ATOM      3  H11 UNL     1      21.466   3.510  33.977  1.00  0.00     0.281 HD
ATOM      4  H12 UNL     1      20.715   4.448  34.681  1.00  0.00     0.281 HD
HETATM    5  C4  UNL     1      22.526   5.453  33.895  1.00  0.00     0.289 C 
HETATM    6  N3  UNL     1      22.466   5.206  32.410  1.00  0.00    -0.133 NA
ENDROOT
BRANCH   5   7
HETATM    7  C5  UNL     1      23.759   4.929  34.533  1.00  0.00     0.051 C 
BRANCH   7   8
HETATM    8  C6  UNL     1      24.510   5.932  35.344  1.00  0.00     0.003 C 
BRANCH   8   9
HETATM    9  C7  UNL     1      25.644   6.575  34.577  1.00  0.00     0.000 C 
BRANCH   9  10
HETATM   10  C8  UNL     1      25.227   7.841  33.891  1.00  0.00     0.000 C 
BRANCH  10  11
HETATM   11  C9  UNL     1      24.319   8.694  34.712  1.00  0.00     0.002 C 
BRANCH  11  12
HETATM   12  C10 UNL     1      24.471  10.132  34.300  1.00  0.00     0.027 C 
BRANCH  12  13
HETATM   13  C11 UNL     1      23.450  11.038  34.938  1.00  0.00     0.229 C 
BRANCH  13  14
HETATM   14  N2  UNL     1      23.218  10.701  36.331  1.00  0.00    -0.079 N 
ATOM     15  H23 UNL     1      23.621   9.793  36.565  1.00  0.00     0.274 HD
ATOM     16  H22 UNL     1      23.774  11.288  36.952  1.00  0.00     0.274 HD
ATOM     17  H21 UNL     1      22.228  10.739  36.573  1.00  0.00     0.274 HD
ENDBRANCH  13  14
ENDBRANCH  12  13
ENDBRANCH  11  12
ENDBRANCH  10  11
ENDBRANCH   9  10
ENDBRANCH   8   9
ENDBRANCH   7   8
ENDBRANCH   5   7
BRANCH   6  18
HETATM   18  O2  UNL     1      22.978   6.196  31.688  1.00  0.00    -0.309 OA
ATOM     19  H2  UNL     1      23.408   5.961  30.873  1.00  0.00     0.237 HD
ENDBRANCH   6  18
BRANCH   1  20
HETATM   20  C2  UNL     1      20.124   4.538  31.712  1.00  0.00     0.269 C 
HETATM   21  C12 UNL     1      19.261   5.627  31.064  1.00  0.00     0.074 C 
HETATM   22  C13 UNL     1      19.134   5.386  29.774  1.00  0.00     0.032 C 
HETATM   23  C14 UNL     1      19.897   4.137  29.495  1.00  0.00     0.236 C 
HETATM   24  N4  UNL     1      20.928   4.200  30.511  1.00  0.00    -0.039 N 
ATOM     25  H42 UNL     1      21.702   4.833  30.311  1.00  0.00     0.281 HD
ATOM     26  H41 UNL     1      21.512   3.368  30.595  1.00  0.00     0.281 HD
BRANCH  20  27
HETATM   27  O1  UNL     1      19.309   3.558  32.071  1.00  0.00    -0.357 OA
HETATM   28  C1  UNL     1      18.184   3.690  32.775  1.00  0.00     0.205 C 
ENDBRANCH  20  27
ENDBRANCH   1  20
TORSDOF 11
ENDMDL
