MODEL 1
REMARK VINA RESULT: -6.589983378      0.000      0.000
REMARK  13 active torsions:
REMARK  status: ('A' for Active; 'I' for Inactive)
REMARK    1  A    between atoms: C2_2  and  C3_3 
REMARK    2  A    between atoms: C3_3  and  N1_4 
REMARK    3  A    between atoms: N1_4  and  C4_6 
REMARK    4  A    between atoms: C6_13  and  N4_14 
REMARK    5  A    between atoms: N4_14  and  C7_16 
REMARK    6  A    between atoms: C7_16  and  C8_17 
REMARK    7  A    between atoms: C8_17  and  C9_18 
REMARK    8  A    between atoms: C9_18  and  C10_19 
REMARK    9  A    between atoms: C10_19  and  C11_20 
REMARK   10  A    between atoms: C11_20  and  O2_21 
REMARK   11  A    between atoms: O2_21  and  C12_22 
REMARK   12  A    between atoms: C12_22  and  C13_23 
REMARK   13  A    between atoms: C13_23  and  N5_24 
ROOT
HETATM    1  C4  UNL     1      20.919   3.774  29.450  1.00  0.00     0.697 A 
HETATM    2  N2  UNL     1      21.577   2.983  28.572  1.00  0.00    -0.140 N 
ATOM      3  H2  UNL     1      21.086   2.626  27.753  1.00  0.00     0.189 HD
HETATM    4  C5  UNL     1      22.872   2.660  28.764  1.00  0.00     0.352 A 
HETATM    5  O1  UNL     1      23.510   1.931  27.972  1.00  0.00    -0.246 OA
HETATM    6  N3  UNL     1      23.515   3.138  29.855  1.00  0.00    -0.140 N 
ATOM      7  H3  UNL     1      24.495   2.894  30.003  1.00  0.00     0.189 HD
HETATM    8  C6  UNL     1      22.899   3.915  30.735  1.00  0.00     0.696 A 
HETATM    9  N6  UNL     1      21.595   4.227  30.519  1.00  0.00    -0.022 N 
ATOM     10  H6  UNL     1      21.113   4.825  31.191  1.00  0.00     0.203 HD
ENDROOT
BRANCH   8  11
HETATM   11  N4  UNL     1      23.437   4.407  31.792  1.00  0.00    -0.225 N 
ATOM     12  H4  UNL     1      23.841   5.342  31.739  1.00  0.00     0.177 HD
BRANCH  11  13
HETATM   13  C7  UNL     1      23.499   3.702  33.056  1.00  0.00     0.138 C 
BRANCH  13  14
HETATM   14  C8  UNL     1      22.945   4.613  34.127  1.00  0.00     0.020 C 
BRANCH  14  15
HETATM   15  C9  UNL     1      21.491   4.399  34.398  1.00  0.00     0.004 C 
BRANCH  15  16
HETATM   16  C10 UNL     1      21.099   2.960  34.168  1.00  0.00     0.026 C 
BRANCH  16  17
HETATM   17  C11 UNL     1      19.640   2.860  33.754  1.00  0.00     0.167 C 
BRANCH  17  18
HETATM   18  O2  UNL     1      19.398   3.353  32.483  1.00  0.00    -0.389 OA
BRANCH  18  19
HETATM   19  C12 UNL     1      18.089   3.787  32.313  1.00  0.00     0.194 C 
BRANCH  19  20
HETATM   20  C13 UNL     1      17.882   4.987  33.250  1.00  0.00     0.255 C 
BRANCH  20  21
HETATM   21  N5  UNL     1      18.682   6.071  32.690  1.00  0.00    -0.077 N 
ATOM     22  H53 UNL     1      18.599   6.158  31.677  1.00  0.00     0.274 HD
ATOM     23  H52 UNL     1      18.330   6.999  32.922  1.00  0.00     0.274 HD
ATOM     24  H51 UNL     1      19.636   5.904  33.008  1.00  0.00     0.274 HD
ENDBRANCH  20  21
ENDBRANCH  19  20
ENDBRANCH  18  19
ENDBRANCH  17  18
ENDBRANCH  16  17
ENDBRANCH  15  16
ENDBRANCH  14  15
ENDBRANCH  13  14
ENDBRANCH  11  13
ENDBRANCH   8  11
BRANCH   1  25
HETATM   25  N1  UNL     1      19.675   4.057  29.222  1.00  0.00    -0.222 N 
ATOM     26  H1  UNL     1      19.025   3.285  29.073  1.00  0.00     0.178 HD
BRANCH  25  27
HETATM   27  C3  UNL     1      19.162   5.389  29.167  1.00  0.00     0.164 C 
BRANCH  27  28
HETATM   28  C2  UNL     1      17.745   5.314  28.688  1.00  0.00    -0.017 C 
HETATM   29  C1  UNL     1      17.446   5.764  27.490  1.00  0.00     0.008 C 
ENDBRANCH  27  28
ENDBRANCH  25  27
ENDBRANCH   1  25
TORSDOF 13
ENDMDL
MODEL 2
REMARK VINA RESULT: -6.438558633      3.497      5.710
REMARK  13 active torsions:
REMARK  status: ('A' for Active; 'I' for Inactive)
REMARK    1  A    between atoms: C2_2  and  C3_3 
REMARK    2  A    between atoms: C3_3  and  N1_4 
REMARK    3  A    between atoms: N1_4  and  C4_6 
REMARK    4  A    between atoms: C6_13  and  N4_14 
REMARK    5  A    between atoms: N4_14  and  C7_16 
REMARK    6  A    between atoms: C7_16  and  C8_17 
REMARK    7  A    between atoms: C8_17  and  C9_18 
REMARK    8  A    between atoms: C9_18  and  C10_19 
REMARK    9  A    between atoms: C10_19  and  C11_20 
REMARK   10  A    between atoms: C11_20  and  O2_21 
REMARK   11  A    between atoms: O2_21  and  C12_22 
REMARK   12  A    between atoms: C12_22  and  C13_23 
REMARK   13  A    between atoms: C13_23  and  N5_24 
ROOT
HETATM    1  C4  UNL     1      24.801   7.617  33.651  1.00  0.00     0.697 A 
HETATM    2  N2  UNL     1      25.100   7.346  32.362  1.00  0.00    -0.140 N 
ATOM      3  H2  UNL     1      25.482   8.083  31.769  1.00  0.00     0.189 HD
HETATM    4  C5  UNL     1      24.899   6.117  31.845  1.00  0.00     0.352 A 
HETATM    5  O1  UNL     1      25.164   5.832  30.655  1.00  0.00    -0.246 OA
HETATM    6  N3  UNL     1      24.389   5.144  32.638  1.00  0.00    -0.140 N 
ATOM      7  H3  UNL     1      24.236   4.214  32.250  1.00  0.00     0.189 HD
HETATM    8  C6  UNL     1      24.086   5.378  33.907  1.00  0.00     0.696 A 
HETATM    9  N6  UNL     1      24.298   6.623  34.404  1.00  0.00    -0.022 N 
ATOM     10  H6  UNL     1      24.067   6.812  35.380  1.00  0.00     0.203 HD
ENDROOT
BRANCH   8  11
HETATM   11  N4  UNL     1      23.601   4.512  34.723  1.00  0.00    -0.225 N 
ATOM     12  H4  UNL     1      23.362   4.817  35.667  1.00  0.00     0.177 HD
BRANCH  11  13
HETATM   13  C7  UNL     1      23.374   3.125  34.370  1.00  0.00     0.138 C 
BRANCH  13  14
HETATM   14  C8  UNL     1      21.886   2.867  34.422  1.00  0.00     0.020 C 
BRANCH  14  15
HETATM   15  C9  UNL     1      21.066   4.114  34.482  1.00  0.00     0.004 C 
BRANCH  15  16
HETATM   16  C10 UNL     1      19.885   4.037  33.545  1.00  0.00     0.026 C 
BRANCH  16  17
HETATM   17  C11 UNL     1      19.916   5.180  32.543  1.00  0.00     0.167 C 
BRANCH  17  18
HETATM   18  O2  UNL     1      21.193   5.487  32.106  1.00  0.00    -0.389 OA
BRANCH  18  19
HETATM   19  C12 UNL     1      21.316   5.436  30.723  1.00  0.00     0.194 C 
BRANCH  19  20
HETATM   20  C13 UNL     1      21.693   3.993  30.352  1.00  0.00     0.255 C 
BRANCH  20  21
HETATM   21  N5  UNL     1      20.838   3.638  29.225  1.00  0.00    -0.077 N 
ATOM     22  H53 UNL     1      20.699   4.401  28.562  1.00  0.00     0.274 HD
ATOM     23  H52 UNL     1      21.274   2.986  28.572  1.00  0.00     0.274 HD
ATOM     24  H51 UNL     1      19.972   3.289  29.633  1.00  0.00     0.274 HD
ENDBRANCH  20  21
ENDBRANCH  19  20
ENDBRANCH  18  19
ENDBRANCH  17  18
ENDBRANCH  16  17
ENDBRANCH  15  16
ENDBRANCH  14  15
ENDBRANCH  13  14
ENDBRANCH  11  13
ENDBRANCH   8  11
BRANCH   1  25
HETATM   25  N1  UNL     1      25.013   8.813  34.102  1.00  0.00    -0.222 N 
ATOM     26  H1  UNL     1      25.920   9.243  33.919  1.00  0.00     0.178 HD
BRANCH  25  27
HETATM   27  C3  UNL     1      24.049   9.565  34.840  1.00  0.00     0.164 C 
BRANCH  27  28
HETATM   28  C2  UNL     1      24.161  10.996  34.413  1.00  0.00    -0.017 C 
HETATM   29  C1  UNL     1      25.317  11.452  33.986  1.00  0.00     0.008 C 
ENDBRANCH  27  28
ENDBRANCH  25  27
ENDBRANCH   1  25
TORSDOF 13
ENDMDL
MODEL 3
REMARK VINA RESULT: -6.431773774      3.411      5.425
REMARK  13 active torsions:
REMARK  status: ('A' for Active; 'I' for Inactive)
REMARK    1  A    between atoms: C2_2  and  C3_3 
REMARK    2  A    between atoms: C3_3  and  N1_4 
REMARK    3  A    between atoms: N1_4  and  C4_6 
REMARK    4  A    between atoms: C6_13  and  N4_14 
REMARK    5  A    between atoms: N4_14  and  C7_16 
REMARK    6  A    between atoms: C7_16  and  C8_17 
REMARK    7  A    between atoms: C8_17  and  C9_18 
REMARK    8  A    between atoms: C9_18  and  C10_19 
REMARK    9  A    between atoms: C10_19  and  C11_20 
REMARK   10  A    between atoms: C11_20  and  O2_21 
REMARK   11  A    between atoms: O2_21  and  C12_22 
REMARK   12  A    between atoms: C12_22  and  C13_23 
REMARK   13  A    between atoms: C13_23  and  N5_24 
ROOT
HETATM    1  C4  UNL     1      24.819   7.620  33.645  1.00  0.00     0.697 A 
HETATM    2  N2  UNL     1      25.125   7.374  32.352  1.00  0.00    -0.140 N 
ATOM      3  H2  UNL     1      25.490   8.128  31.769  1.00  0.00     0.189 HD
HETATM    4  C5  UNL     1      24.955   6.147  31.819  1.00  0.00     0.352 A 
HETATM    5  O1  UNL     1      25.229   5.885  30.625  1.00  0.00    -0.246 OA
HETATM    6  N3  UNL     1      24.470   5.152  32.597  1.00  0.00    -0.140 N 
ATOM      7  H3  UNL     1      24.340   4.223  32.197  1.00  0.00     0.189 HD
HETATM    8  C6  UNL     1      24.159   5.360  33.869  1.00  0.00     0.696 A 
HETATM    9  N6  UNL     1      24.340   6.604  34.383  1.00  0.00    -0.022 N 
ATOM     10  H6  UNL     1      24.103   6.773  35.361  1.00  0.00     0.203 HD
ENDROOT
BRANCH   8  11
HETATM   11  N4  UNL     1      23.695   4.472  34.672  1.00  0.00    -0.225 N 
ATOM     12  H4  UNL     1      23.495   4.746  35.634  1.00  0.00     0.177 HD
BRANCH  11  13
HETATM   13  C7  UNL     1      23.440   3.100  34.281  1.00  0.00     0.138 C 
BRANCH  13  14
HETATM   14  C8  UNL     1      22.015   2.765  34.652  1.00  0.00     0.020 C 
BRANCH  14  15
HETATM   15  C9  UNL     1      21.008   3.287  33.679  1.00  0.00     0.004 C 
BRANCH  15  16
HETATM   16  C10 UNL     1      19.611   3.212  34.245  1.00  0.00     0.026 C 
BRANCH  16  17
HETATM   17  C11 UNL     1      18.594   2.966  33.142  1.00  0.00     0.167 C 
BRANCH  17  18
HETATM   18  O2  UNL     1      18.984   3.479  31.917  1.00  0.00    -0.389 OA
BRANCH  18  19
HETATM   19  C12 UNL     1      18.204   4.553  31.509  1.00  0.00     0.194 C 
BRANCH  19  20
HETATM   20  C13 UNL     1      19.145   5.753  31.316  1.00  0.00     0.255 C 
BRANCH  20  21
HETATM   21  N5  UNL     1      19.105   6.494  32.572  1.00  0.00    -0.077 N 
ATOM     22  H53 UNL     1      18.919   7.490  32.453  1.00  0.00     0.274 HD
ATOM     23  H52 UNL     1      18.286   6.284  33.143  1.00  0.00     0.274 HD
ATOM     24  H51 UNL     1      19.989   6.296  33.039  1.00  0.00     0.274 HD
ENDBRANCH  20  21
ENDBRANCH  19  20
ENDBRANCH  18  19
ENDBRANCH  17  18
ENDBRANCH  16  17
ENDBRANCH  15  16
ENDBRANCH  14  15
ENDBRANCH  13  14
ENDBRANCH  11  13
ENDBRANCH   8  11
BRANCH   1  25
HETATM   25  N1  UNL     1      25.000   8.815  34.112  1.00  0.00    -0.222 N 
ATOM     26  H1  UNL     1      25.895   9.270  33.934  1.00  0.00     0.178 HD
BRANCH  25  27
HETATM   27  C3  UNL     1      24.017   9.531  34.861  1.00  0.00     0.164 C 
BRANCH  27  28
HETATM   28  C2  UNL     1      24.106  10.974  34.469  1.00  0.00    -0.017 C 
HETATM   29  C1  UNL     1      25.251  11.455  34.039  1.00  0.00     0.008 C 
ENDBRANCH  27  28
ENDBRANCH  25  27
ENDBRANCH   1  25
TORSDOF 13
ENDMDL
MODEL 4
REMARK VINA RESULT: -6.363997055      3.464      5.630
REMARK  13 active torsions:
REMARK  status: ('A' for Active; 'I' for Inactive)
REMARK    1  A    between atoms: C2_2  and  C3_3 
REMARK    2  A    between atoms: C3_3  and  N1_4 
REMARK    3  A    between atoms: N1_4  and  C4_6 
REMARK    4  A    between atoms: C6_13  and  N4_14 
REMARK    5  A    between atoms: N4_14  and  C7_16 
REMARK    6  A    between atoms: C7_16  and  C8_17 
REMARK    7  A    between atoms: C8_17  and  C9_18 
REMARK    8  A    between atoms: C9_18  and  C10_19 
REMARK    9  A    between atoms: C10_19  and  C11_20 
REMARK   10  A    between atoms: C11_20  and  O2_21 
REMARK   11  A    between atoms: O2_21  and  C12_22 
REMARK   12  A    between atoms: C12_22  and  C13_23 
REMARK   13  A    between atoms: C13_23  and  N5_24 
ROOT
HETATM    1  C4  UNL     1      24.819   7.659  33.671  1.00  0.00     0.697 A 
HETATM    2  N2  UNL     1      25.148   7.329  32.403  1.00  0.00    -0.140 N 
ATOM      3  H2  UNL     1      25.587   8.025  31.800  1.00  0.00     0.189 HD
HETATM    4  C5  UNL     1      24.903   6.094  31.921  1.00  0.00     0.352 A 
HETATM    5  O1  UNL     1      25.195   5.755  30.751  1.00  0.00    -0.246 OA
HETATM    6  N3  UNL     1      24.318   5.176  32.726  1.00  0.00    -0.140 N 
ATOM      7  H3  UNL     1      24.132   4.241  32.364  1.00  0.00     0.189 HD
HETATM    8  C6  UNL     1      23.983   5.468  33.975  1.00  0.00     0.696 A 
HETATM    9  N6  UNL     1      24.240   6.719  34.438  1.00  0.00    -0.022 N 
ATOM     10  H6  UNL     1      23.986   6.952  35.398  1.00  0.00     0.203 HD
ENDROOT
BRANCH   8  11
HETATM   11  N4  UNL     1      23.427   4.657  34.801  1.00  0.00    -0.225 N 
ATOM     12  H4  UNL     1      24.020   4.161  35.466  1.00  0.00     0.177 HD
BRANCH  11  13
HETATM   13  C7  UNL     1      21.999   4.410  34.835  1.00  0.00     0.138 C 
BRANCH  13  14
HETATM   14  C8  UNL     1      21.763   2.974  34.432  1.00  0.00     0.020 C 
BRANCH  14  15
HETATM   15  C9  UNL     1      20.338   2.677  34.093  1.00  0.00     0.004 C 
BRANCH  15  16
HETATM   16  C10 UNL     1      19.465   3.893  34.288  1.00  0.00     0.026 C 
BRANCH  16  17
HETATM   17  C11 UNL     1      18.746   4.252  32.998  1.00  0.00     0.167 C 
BRANCH  17  18
HETATM   18  O2  UNL     1      19.270   3.616  31.886  1.00  0.00    -0.389 OA
BRANCH  18  19
HETATM   19  C12 UNL     1      19.736   4.505  30.926  1.00  0.00     0.194 C 
BRANCH  19  20
HETATM   20  C13 UNL     1      21.265   4.358  30.874  1.00  0.00     0.255 C 
BRANCH  20  21
HETATM   21  N5  UNL     1      21.775   5.668  30.485  1.00  0.00    -0.077 N 
ATOM     22  H53 UNL     1      21.052   6.307  30.153  1.00  0.00     0.274 HD
ATOM     23  H52 UNL     1      22.088   6.235  31.273  1.00  0.00     0.274 HD
ATOM     24  H51 UNL     1      22.506   5.487  29.797  1.00  0.00     0.274 HD
ENDBRANCH  20  21
ENDBRANCH  19  20
ENDBRANCH  18  19
ENDBRANCH  17  18
ENDBRANCH  16  17
ENDBRANCH  15  16
ENDBRANCH  14  15
ENDBRANCH  13  14
ENDBRANCH  11  13
ENDBRANCH   8  11
BRANCH   1  25
HETATM   25  N1  UNL     1      25.074   8.859  34.090  1.00  0.00    -0.222 N 
ATOM     26  H1  UNL     1      26.011   9.232  33.936  1.00  0.00     0.178 HD
BRANCH  25  27
HETATM   27  C3  UNL     1      24.120   9.688  34.753  1.00  0.00     0.164 C 
BRANCH  27  28
HETATM   28  C2  UNL     1      24.243  11.070  34.188  1.00  0.00    -0.017 C 
HETATM   29  C1  UNL     1      25.437  11.592  34.020  1.00  0.00     0.008 C 
ENDBRANCH  27  28
ENDBRANCH  25  27
ENDBRANCH   1  25
TORSDOF 13
ENDMDL
MODEL 5
REMARK VINA RESULT: -6.355637204      1.052      1.196
REMARK  13 active torsions:
REMARK  status: ('A' for Active; 'I' for Inactive)
REMARK    1  A    between atoms: C2_2  and  C3_3 
REMARK    2  A    between atoms: C3_3  and  N1_4 
REMARK    3  A    between atoms: N1_4  and  C4_6 
REMARK    4  A    between atoms: C6_13  and  N4_14 
REMARK    5  A    between atoms: N4_14  and  C7_16 
REMARK    6  A    between atoms: C7_16  and  C8_17 
REMARK    7  A    between atoms: C8_17  and  C9_18 
REMARK    8  A    between atoms: C9_18  and  C10_19 
REMARK    9  A    between atoms: C10_19  and  C11_20 
REMARK   10  A    between atoms: C11_20  and  O2_21 
REMARK   11  A    between atoms: O2_21  and  C12_22 
REMARK   12  A    between atoms: C12_22  and  C13_23 
REMARK   13  A    between atoms: C13_23  and  N5_24 
ROOT
HETATM    1  C4  UNL     1      20.943   3.694  29.479  1.00  0.00     0.697 A 
HETATM    2  N2  UNL     1      21.544   2.921  28.548  1.00  0.00    -0.140 N 
ATOM      3  H2  UNL     1      21.000   2.568  27.761  1.00  0.00     0.189 HD
HETATM    4  C5  UNL     1      22.852   2.608  28.645  1.00  0.00     0.352 A 
HETATM    5  O1  UNL     1      23.440   1.894  27.801  1.00  0.00    -0.246 OA
HETATM    6  N3  UNL     1      23.567   3.078  29.694  1.00  0.00    -0.140 N 
ATOM      7  H3  UNL     1      24.556   2.843  29.770  1.00  0.00     0.189 HD
HETATM    8  C6  UNL     1      23.006   3.840  30.624  1.00  0.00     0.696 A 
HETATM    9  N6  UNL     1      21.688   4.141  30.504  1.00  0.00    -0.022 N 
ATOM     10  H6  UNL     1      21.249   4.727  31.216  1.00  0.00     0.203 HD
ENDROOT
BRANCH   8  11
HETATM   11  N4  UNL     1      23.613   4.325  31.647  1.00  0.00    -0.225 N 
ATOM     12  H4  UNL     1      24.618   4.486  31.582  1.00  0.00     0.177 HD
BRANCH  11  13
HETATM   13  C7  UNL     1      22.943   4.655  32.888  1.00  0.00     0.138 C 
BRANCH  13  14
HETATM   14  C8  UNL     1      23.295   3.596  33.907  1.00  0.00     0.020 C 
BRANCH  14  15
HETATM   15  C9  UNL     1      22.104   2.897  34.476  1.00  0.00     0.004 C 
BRANCH  15  16
HETATM   16  C10 UNL     1      20.851   3.721  34.301  1.00  0.00     0.026 C 
BRANCH  16  17
HETATM   17  C11 UNL     1      19.726   2.876  33.725  1.00  0.00     0.167 C 
BRANCH  17  18
HETATM   18  O2  UNL     1      19.273   3.333  32.500  1.00  0.00    -0.389 OA
BRANCH  18  19
HETATM   19  C12 UNL     1      18.131   4.117  32.606  1.00  0.00     0.194 C 
BRANCH  19  20
HETATM   20  C13 UNL     1      16.926   3.207  32.320  1.00  0.00     0.255 C 
BRANCH  20  21
HETATM   21  N5  UNL     1      17.263   2.473  31.105  1.00  0.00    -0.077 N 
ATOM     22  H53 UNL     1      16.517   2.469  30.410  1.00  0.00     0.274 HD
ATOM     23  H52 UNL     1      17.965   2.937  30.530  1.00  0.00     0.274 HD
ATOM     24  H51 UNL     1      17.539   1.541  31.413  1.00  0.00     0.274 HD
ENDBRANCH  20  21
ENDBRANCH  19  20
ENDBRANCH  18  19
ENDBRANCH  17  18
ENDBRANCH  16  17
ENDBRANCH  15  16
ENDBRANCH  14  15
ENDBRANCH  13  14
ENDBRANCH  11  13
ENDBRANCH   8  11
BRANCH   1  25
HETATM   25  N1  UNL     1      19.684   3.969  29.343  1.00  0.00    -0.222 N 
ATOM     26  H1  UNL     1      19.034   3.193  29.215  1.00  0.00     0.178 HD
BRANCH  25  27
HETATM   27  C3  UNL     1      19.154   5.295  29.361  1.00  0.00     0.164 C 
BRANCH  27  28
HETATM   28  C2  UNL     1      18.359   5.487  28.106  1.00  0.00    -0.017 C 
HETATM   29  C1  UNL     1      17.065   5.697  28.190  1.00  0.00     0.008 C 
ENDBRANCH  27  28
ENDBRANCH  25  27
ENDBRANCH   1  25
TORSDOF 13
ENDMDL
