MODEL 1
REMARK VINA RESULT: -7.237900682      0.000      0.000
REMARK  11 active torsions:
REMARK  status: ('A' for Active; 'I' for Inactive)
REMARK    1  A    between atoms: C2_2  and  C3_3 
REMARK    2  A    between atoms: C3_3  and  C4_4 
REMARK    3  A    between atoms: C6_6  and  C7_7 
REMARK    4  A    between atoms: C7_7  and  C8_8 
REMARK    5  A    between atoms: C8_8  and  C9_9 
REMARK    6  A    between atoms: C9_9  and  C10_10 
REMARK    7  A    between atoms: C10_10  and  N1_11 
REMARK    8  A    between atoms: C11_17  and  N3_18 
REMARK    9  A    between atoms: N3_18  and  C12_20 
REMARK   10  A    between atoms: C12_20  and  C13_21 
REMARK   11  A    between atoms: C13_21  and  N4_22 
ROOT
HETATM    1  C4  UNL     1      21.607   4.191  34.128  1.00  0.00     0.032 A 
HETATM    2  C5  UNL     1      22.135   3.793  32.914  1.00  0.00     0.051 A 
HETATM    3  C6  UNL     1      23.430   4.063  32.556  1.00  0.00     0.028 A 
HETATM    4  N2  UNL     1      24.186   4.742  33.436  1.00  0.00    -0.196 N 
ATOM      5  H2  UNL     1      25.153   4.954  33.189  1.00  0.00     0.184 HD
HETATM    6  C11 UNL     1      23.718   5.157  34.639  1.00  0.00     0.678 A 
HETATM    7  N7  UNL     1      22.423   4.866  34.957  1.00  0.00    -0.195 N 
ATOM      8  H7  UNL     1      22.060   5.173  35.860  1.00  0.00     0.184 HD
ENDROOT
BRANCH   6   9
HETATM    9  N3  UNL     1      24.462   5.808  35.470  1.00  0.00    -0.224 N 
ATOM     10  H3  UNL     1      24.537   5.512  36.444  1.00  0.00     0.177 HD
BRANCH   9  11
HETATM   11  C12 UNL     1      25.177   6.951  34.996  1.00  0.00     0.157 C 
BRANCH  11  12
HETATM   12  C13 UNL     1      24.285   8.103  34.621  1.00  0.00     0.142 C 
BRANCH  12  13
HETATM   13  N4  UNL     1      25.002   9.247  34.146  1.00  0.00    -0.365 N 
HETATM   14  C14 UNL     1      24.418  10.404  34.239  1.00  0.00     0.197 C 
HETATM   15  N5  UNL     1      23.126  10.580  34.780  1.00  0.00    -0.067 NA
HETATM   16  N6  UNL     1      25.145  11.528  33.762  1.00  0.00    -0.067 NA
ATOM     17  H4  UNL     1      25.937   9.157  33.750  1.00  0.00     0.161 HD
ENDBRANCH  12  13
ENDBRANCH  11  12
ENDBRANCH   9  11
ENDBRANCH   6   9
BRANCH   3  18
HETATM   18  C7  UNL     1      23.976   3.626  31.245  1.00  0.00     0.057 C 
BRANCH  18  19
HETATM   19  C8  UNL     1      22.950   3.629  30.164  1.00  0.00     0.008 C 
BRANCH  19  20
HETATM   20  C9  UNL     1      23.309   2.569  29.157  1.00  0.00     0.027 C 
BRANCH  20  21
HETATM   21  C10 UNL     1      22.226   2.383  28.117  1.00  0.00     0.229 C 
BRANCH  21  22
HETATM   22  N1  UNL     1      21.052   3.121  28.525  1.00  0.00    -0.079 N 
ATOM     23  H13 UNL     1      20.931   3.129  29.538  1.00  0.00     0.274 HD
ATOM     24  H12 UNL     1      21.157   4.126  28.386  1.00  0.00     0.274 HD
ATOM     25  H11 UNL     1      20.238   2.744  28.039  1.00  0.00     0.274 HD
ENDBRANCH  21  22
ENDBRANCH  20  21
ENDBRANCH  19  20
ENDBRANCH  18  19
ENDBRANCH   3  18
BRANCH   1  26
HETATM   26  C3  UNL     1      20.188   3.885  34.502  1.00  0.00     0.084 C 
BRANCH  26  27
HETATM   27  C2  UNL     1      19.655   2.724  33.765  1.00  0.00    -0.031 C 
HETATM   28  C1  UNL     1      18.399   2.705  33.347  1.00  0.00     0.007 C 
ENDBRANCH  26  27
ENDBRANCH   1  26
TORSDOF 11
ENDMDL
MODEL 2
REMARK VINA RESULT: -7.222065753      1.401      6.590
REMARK  11 active torsions:
REMARK  status: ('A' for Active; 'I' for Inactive)
REMARK    1  A    between atoms: C2_2  and  C3_3 
REMARK    2  A    between atoms: C3_3  and  C4_4 
REMARK    3  A    between atoms: C6_6  and  C7_7 
REMARK    4  A    between atoms: C7_7  and  C8_8 
REMARK    5  A    between atoms: C8_8  and  C9_9 
REMARK    6  A    between atoms: C9_9  and  C10_10 
REMARK    7  A    between atoms: C10_10  and  N1_11 
REMARK    8  A    between atoms: C11_17  and  N3_18 
REMARK    9  A    between atoms: N3_18  and  C12_20 
REMARK   10  A    between atoms: C12_20  and  C13_21 
REMARK   11  A    between atoms: C13_21  and  N4_22 
ROOT
HETATM    1  C4  UNL     1      22.835   4.121  34.087  1.00  0.00     0.032 A 
HETATM    2  C5  UNL     1      23.323   5.207  34.788  1.00  0.00     0.051 A 
HETATM    3  C6  UNL     1      24.213   6.092  34.240  1.00  0.00     0.028 A 
HETATM    4  N2  UNL     1      24.606   5.869  32.974  1.00  0.00    -0.196 N 
ATOM      5  H2  UNL     1      25.269   6.517  32.547  1.00  0.00     0.184 HD
HETATM    6  C11 UNL     1      24.161   4.819  32.241  1.00  0.00     0.678 A 
HETATM    7  N7  UNL     1      23.274   3.961  32.825  1.00  0.00    -0.195 N 
ATOM      8  H7  UNL     1      22.931   3.168  32.283  1.00  0.00     0.184 HD
ENDROOT
BRANCH   6   9
HETATM    9  N3  UNL     1      24.551   4.623  31.026  1.00  0.00    -0.224 N 
ATOM     10  H3  UNL     1      24.725   5.411  30.401  1.00  0.00     0.177 HD
BRANCH   9  11
HETATM   11  C12 UNL     1      24.734   3.279  30.576  1.00  0.00     0.157 C 
BRANCH  11  12
HETATM   12  C13 UNL     1      23.824   2.898  29.440  1.00  0.00     0.142 C 
BRANCH  12  13
HETATM   13  N4  UNL     1      22.529   3.502  29.521  1.00  0.00    -0.365 N 
HETATM   14  C14 UNL     1      21.559   2.935  28.867  1.00  0.00     0.197 C 
HETATM   15  N5  UNL     1      21.725   1.767  28.092  1.00  0.00    -0.067 NA
HETATM   16  N6  UNL     1      20.281   3.550  28.959  1.00  0.00    -0.067 NA
ATOM     17  H4  UNL     1      22.373   4.346  30.071  1.00  0.00     0.161 HD
ENDBRANCH  12  13
ENDBRANCH  11  12
ENDBRANCH   9  11
ENDBRANCH   6   9
BRANCH   3  18
HETATM   18  C7  UNL     1      24.725   7.253  35.014  1.00  0.00     0.057 C 
BRANCH  18  19
HETATM   19  C8  UNL     1      24.765   8.508  34.209  1.00  0.00     0.008 C 
BRANCH  19  20
HETATM   20  C9  UNL     1      23.990   9.572  34.938  1.00  0.00     0.027 C 
BRANCH  20  21
HETATM   21  C10 UNL     1      24.086  10.917  34.251  1.00  0.00     0.229 C 
BRANCH  21  22
HETATM   22  N1  UNL     1      25.424  11.083  33.731  1.00  0.00    -0.079 N 
ATOM     23  H13 UNL     1      25.868  11.939  34.066  1.00  0.00     0.274 HD
ATOM     24  H12 UNL     1      26.083  10.415  34.132  1.00  0.00     0.274 HD
ATOM     25  H11 UNL     1      25.392  11.035  32.713  1.00  0.00     0.274 HD
ENDBRANCH  21  22
ENDBRANCH  20  21
ENDBRANCH  19  20
ENDBRANCH  18  19
ENDBRANCH   3  18
BRANCH   1  26
HETATM   26  C3  UNL     1      21.861   3.163  34.705  1.00  0.00     0.084 C 
BRANCH  26  27
HETATM   27  C2  UNL     1      20.601   3.079  33.943  1.00  0.00    -0.031 C 
HETATM   28  C1  UNL     1      19.512   3.703  34.363  1.00  0.00     0.007 C 
ENDBRANCH  26  27
ENDBRANCH   1  26
TORSDOF 11
ENDMDL
MODEL 3
REMARK VINA RESULT: -7.149464703      2.129      7.048
REMARK  11 active torsions:
REMARK  status: ('A' for Active; 'I' for Inactive)
REMARK    1  A    between atoms: C2_2  and  C3_3 
REMARK    2  A    between atoms: C3_3  and  C4_4 
REMARK    3  A    between atoms: C6_6  and  C7_7 
REMARK    4  A    between atoms: C7_7  and  C8_8 
REMARK    5  A    between atoms: C8_8  and  C9_9 
REMARK    6  A    between atoms: C9_9  and  C10_10 
REMARK    7  A    between atoms: C10_10  and  N1_11 
REMARK    8  A    between atoms: C11_17  and  N3_18 
REMARK    9  A    between atoms: N3_18  and  C12_20 
REMARK   10  A    between atoms: C12_20  and  C13_21 
REMARK   11  A    between atoms: C13_21  and  N4_22 
ROOT
HETATM    1  C4  UNL     1      23.191   3.960  34.023  1.00  0.00     0.032 A 
HETATM    2  C5  UNL     1      23.969   4.996  34.501  1.00  0.00     0.051 A 
HETATM    3  C6  UNL     1      24.254   6.105  33.747  1.00  0.00     0.028 A 
HETATM    4  N2  UNL     1      23.745   6.154  32.504  1.00  0.00    -0.196 N 
ATOM      5  H2  UNL     1      23.945   6.971  31.926  1.00  0.00     0.184 HD
HETATM    6  C11 UNL     1      22.977   5.165  31.985  1.00  0.00     0.678 A 
HETATM    7  N7  UNL     1      22.717   4.079  32.770  1.00  0.00    -0.195 N 
ATOM      8  H7  UNL     1      22.139   3.328  32.390  1.00  0.00     0.184 HD
ENDROOT
BRANCH   6   9
HETATM    9  N3  UNL     1      22.498   5.234  30.788  1.00  0.00    -0.224 N 
ATOM     10  H3  UNL     1      23.042   5.647  30.031  1.00  0.00     0.177 HD
BRANCH   9  11
HETATM   11  C12 UNL     1      21.186   4.718  30.548  1.00  0.00     0.157 C 
BRANCH  11  12
HETATM   12  C13 UNL     1      21.160   3.583  29.561  1.00  0.00     0.142 C 
BRANCH  12  13
HETATM   13  N4  UNL     1      22.405   3.390  28.882  1.00  0.00    -0.365 N 
HETATM   14  C14 UNL     1      22.526   2.333  28.136  1.00  0.00     0.197 C 
HETATM   15  N5  UNL     1      21.498   1.380  27.968  1.00  0.00    -0.067 NA
HETATM   16  N6  UNL     1      23.770   2.158  27.471  1.00  0.00    -0.067 NA
ATOM     17  H4  UNL     1      23.169   4.058  28.980  1.00  0.00     0.161 HD
ENDBRANCH  12  13
ENDBRANCH  11  12
ENDBRANCH   9  11
ENDBRANCH   6   9
BRANCH   3  18
HETATM   18  C7  UNL     1      25.094   7.208  34.282  1.00  0.00     0.057 C 
BRANCH  18  19
HETATM   19  C8  UNL     1      24.287   8.295  34.907  1.00  0.00     0.008 C 
BRANCH  19  20
HETATM   20  C9  UNL     1      24.727   9.613  34.330  1.00  0.00     0.027 C 
BRANCH  20  21
HETATM   21  C10 UNL     1      23.674  10.687  34.497  1.00  0.00     0.229 C 
BRANCH  21  22
HETATM   22  N1  UNL     1      23.430  10.888  35.908  1.00  0.00    -0.079 N 
ATOM     23  H13 UNL     1      24.283  10.820  36.463  1.00  0.00     0.274 HD
ATOM     24  H12 UNL     1      23.194  11.856  36.127  1.00  0.00     0.274 HD
ATOM     25  H11 UNL     1      22.712  10.233  36.216  1.00  0.00     0.274 HD
ENDBRANCH  21  22
ENDBRANCH  20  21
ENDBRANCH  19  20
ENDBRANCH  18  19
ENDBRANCH   3  18
BRANCH   1  26
HETATM   26  C3  UNL     1      22.890   2.756  34.863  1.00  0.00     0.084 C 
BRANCH  26  27
HETATM   27  C2  UNL     1      24.000   1.784  34.863  1.00  0.00    -0.031 C 
HETATM   28  C1  UNL     1      24.022   0.781  35.728  1.00  0.00     0.007 C 
ENDBRANCH  26  27
ENDBRANCH   1  26
TORSDOF 11
ENDMDL
MODEL 4
REMARK VINA RESULT: -7.123899316      2.181      6.418
REMARK  11 active torsions:
REMARK  status: ('A' for Active; 'I' for Inactive)
REMARK    1  A    between atoms: C2_2  and  C3_3 
REMARK    2  A    between atoms: C3_3  and  C4_4 
REMARK    3  A    between atoms: C6_6  and  C7_7 
REMARK    4  A    between atoms: C7_7  and  C8_8 
REMARK    5  A    between atoms: C8_8  and  C9_9 
REMARK    6  A    between atoms: C9_9  and  C10_10 
REMARK    7  A    between atoms: C10_10  and  N1_11 
REMARK    8  A    between atoms: C11_17  and  N3_18 
REMARK    9  A    between atoms: N3_18  and  C12_20 
REMARK   10  A    between atoms: C12_20  and  C13_21 
REMARK   11  A    between atoms: C13_21  and  N4_22 
ROOT
HETATM    1  C4  UNL     1      24.563   6.877  33.651  1.00  0.00     0.032 A 
HETATM    2  C5  UNL     1      23.660   6.162  34.415  1.00  0.00     0.051 A 
HETATM    3  C6  UNL     1      23.126   4.972  33.995  1.00  0.00     0.028 A 
HETATM    4  N2  UNL     1      23.514   4.512  32.792  1.00  0.00    -0.196 N 
ATOM      5  H2  UNL     1      23.128   3.627  32.461  1.00  0.00     0.184 HD
HETATM    6  C11 UNL     1      24.394   5.173  32.002  1.00  0.00     0.678 A 
HETATM    7  N7  UNL     1      24.903   6.355  32.459  1.00  0.00    -0.195 N 
ATOM      8  H7  UNL     1      25.567   6.861  31.873  1.00  0.00     0.184 HD
ENDROOT
BRANCH   6   9
HETATM    9  N3  UNL     1      24.753   4.712  30.850  1.00  0.00    -0.224 N 
ATOM     10  H3  UNL     1      25.044   5.344  30.104  1.00  0.00     0.177 HD
BRANCH   9  11
HETATM   11  C12 UNL     1      24.733   3.298  30.645  1.00  0.00     0.157 C 
BRANCH  11  12
HETATM   12  C13 UNL     1      23.844   2.869  29.510  1.00  0.00     0.142 C 
BRANCH  12  13
HETATM   13  N4  UNL     1      22.554   3.488  29.532  1.00  0.00    -0.365 N 
HETATM   14  C14 UNL     1      21.605   2.927  28.845  1.00  0.00     0.197 C 
HETATM   15  N5  UNL     1      21.788   1.749  28.087  1.00  0.00    -0.067 NA
HETATM   16  N6  UNL     1      20.331   3.557  28.879  1.00  0.00    -0.067 NA
ATOM     17  H4  UNL     1      22.385   4.339  30.068  1.00  0.00     0.161 HD
ENDBRANCH  12  13
ENDBRANCH  11  12
ENDBRANCH   9  11
ENDBRANCH   6   9
BRANCH   3  18
HETATM   18  C7  UNL     1      22.157   4.221  34.834  1.00  0.00     0.057 C 
BRANCH  18  19
HETATM   19  C8  UNL     1      21.376   3.220  34.053  1.00  0.00     0.008 C 
BRANCH  19  20
HETATM   20  C9  UNL     1      19.910   3.454  34.301  1.00  0.00     0.027 C 
BRANCH  20  21
HETATM   21  C10 UNL     1      19.104   3.422  33.020  1.00  0.00     0.229 C 
BRANCH  21  22
HETATM   22  N1  UNL     1      19.952   3.828  31.923  1.00  0.00    -0.079 N 
ATOM     23  H13 UNL     1      19.810   4.805  31.663  1.00  0.00     0.274 HD
ATOM     24  H12 UNL     1      20.933   3.894  32.193  1.00  0.00     0.274 HD
ATOM     25  H11 UNL     1      19.806   3.193  31.138  1.00  0.00     0.274 HD
ENDBRANCH  21  22
ENDBRANCH  20  21
ENDBRANCH  19  20
ENDBRANCH  18  19
ENDBRANCH   3  18
BRANCH   1  26
HETATM   26  C3  UNL     1      25.136   8.177  34.129  1.00  0.00     0.084 C 
BRANCH  26  27
HETATM   27  C2  UNL     1      24.137   9.001  34.835  1.00  0.00    -0.031 C 
HETATM   28  C1  UNL     1      24.013  10.292  34.568  1.00  0.00     0.007 C 
ENDBRANCH  26  27
ENDBRANCH   1  26
TORSDOF 11
ENDMDL
MODEL 5
REMARK VINA RESULT: -7.107478233      1.635      6.552
REMARK  11 active torsions:
REMARK  status: ('A' for Active; 'I' for Inactive)
REMARK    1  A    between atoms: C2_2  and  C3_3 
REMARK    2  A    between atoms: C3_3  and  C4_4 
REMARK    3  A    between atoms: C6_6  and  C7_7 
REMARK    4  A    between atoms: C7_7  and  C8_8 
REMARK    5  A    between atoms: C8_8  and  C9_9 
REMARK    6  A    between atoms: C9_9  and  C10_10 
REMARK    7  A    between atoms: C10_10  and  N1_11 
REMARK    8  A    between atoms: C11_17  and  N3_18 
REMARK    9  A    between atoms: N3_18  and  C12_20 
REMARK   10  A    between atoms: C12_20  and  C13_21 
REMARK   11  A    between atoms: C13_21  and  N4_22 
ROOT
HETATM    1  C4  UNL     1      20.875   4.363  33.925  1.00  0.00     0.032 A 
HETATM    2  C5  UNL     1      22.063   4.598  34.591  1.00  0.00     0.051 A 
HETATM    3  C6  UNL     1      23.167   5.109  33.961  1.00  0.00     0.028 A 
HETATM    4  N2  UNL     1      23.059   5.380  32.648  1.00  0.00    -0.196 N 
ATOM      5  H2  UNL     1      23.870   5.761  32.160  1.00  0.00     0.184 HD
HETATM    6  C11 UNL     1      21.920   5.168  31.946  1.00  0.00     0.678 A 
HETATM    7  N7  UNL     1      20.842   4.658  32.613  1.00  0.00    -0.195 N 
ATOM      8  H7  UNL     1      19.979   4.495  32.095  1.00  0.00     0.184 HD
ENDROOT
BRANCH   6   9
HETATM    9  N3  UNL     1      21.838   5.435  30.685  1.00  0.00    -0.224 N 
ATOM     10  H3  UNL     1      22.566   5.976  30.219  1.00  0.00     0.177 HD
BRANCH   9  11
HETATM   11  C12 UNL     1      20.704   4.956  29.959  1.00  0.00     0.157 C 
BRANCH  11  12
HETATM   12  C13 UNL     1      20.913   3.597  29.349  1.00  0.00     0.142 C 
BRANCH  12  13
HETATM   13  N4  UNL     1      22.229   3.407  28.819  1.00  0.00    -0.365 N 
HETATM   14  C14 UNL     1      22.457   2.316  28.151  1.00  0.00     0.197 C 
HETATM   15  N5  UNL     1      21.477   1.324  27.928  1.00  0.00    -0.067 NA
HETATM   16  N6  UNL     1      23.770   2.146  27.633  1.00  0.00    -0.067 NA
ATOM     17  H4  UNL     1      22.961   4.103  28.960  1.00  0.00     0.161 HD
ENDBRANCH  12  13
ENDBRANCH  11  12
ENDBRANCH   9  11
ENDBRANCH   6   9
BRANCH   3  18
HETATM   18  C7  UNL     1      24.434   5.353  34.698  1.00  0.00     0.057 C 
BRANCH  18  19
HETATM   19  C8  UNL     1      24.441   6.662  35.413  1.00  0.00     0.008 C 
BRANCH  19  20
HETATM   20  C9  UNL     1      24.919   7.727  34.462  1.00  0.00     0.027 C 
BRANCH  20  21
HETATM   21  C10 UNL     1      24.207   9.044  34.680  1.00  0.00     0.229 C 
BRANCH  21  22
HETATM   22  N1  UNL     1      24.876  10.070  33.914  1.00  0.00    -0.079 N 
ATOM     23  H13 UNL     1      25.892  10.008  33.985  1.00  0.00     0.274 HD
ATOM     24  H12 UNL     1      24.794   9.921  32.908  1.00  0.00     0.274 HD
ATOM     25  H11 UNL     1      24.521  10.982  34.202  1.00  0.00     0.274 HD
ENDBRANCH  21  22
ENDBRANCH  20  21
ENDBRANCH  19  20
ENDBRANCH  18  19
ENDBRANCH   3  18
BRANCH   1  26
HETATM   26  C3  UNL     1      19.678   3.804  34.632  1.00  0.00     0.084 C 
BRANCH  26  27
HETATM   27  C2  UNL     1      19.189   2.562  34.005  1.00  0.00    -0.031 C 
HETATM   28  C1  UNL     1      18.081   2.561  33.280  1.00  0.00     0.007 C 
ENDBRANCH  26  27
ENDBRANCH   1  26
TORSDOF 11
ENDMDL
