MODEL 1
REMARK VINA RESULT: -8.918463804      0.000      0.000
REMARK  5 active torsions:
REMARK  status: ('A' for Active; 'I' for Inactive)
REMARK    1  A    between atoms: C2_2  and  C4_4 
REMARK    2  A    between atoms: C2_2  and  C5_7 
REMARK    3  A    between atoms: C4_4  and  O1_5 
REMARK       I    between atoms: N3_13  and  C7_15 
REMARK    4  A    between atoms: C7_15  and  C8_17 
REMARK    5  A    between atoms: C17_27  and  C18_28 
ROOT
HETATM    1  C5  UNL     1       5.186  32.045  24.635  1.00  0.00     0.043 A 
HETATM    2  N1  UNL     1       6.475  32.269  24.989  1.00  0.00    -0.302 N 
ATOM      3  H1  UNL     1       7.116  31.477  25.039  1.00  0.00     0.186 HD
HETATM    4  N2  UNL     1       6.927  33.459  25.270  1.00  0.00    -0.284 N 
ATOM      5  H2  UNL     1       7.904  33.574  25.539  1.00  0.00     0.188 HD
HETATM    6  C6  UNL     1       6.139  34.522  25.211  1.00  0.00     0.133 A 
HETATM    7  N3  UNL     1       6.542  35.661  25.485  1.00  0.00    -0.311 N 
ATOM      8  H3  UNL     1       5.814  36.369  25.391  1.00  0.00     0.170 HD
HETATM    9  C7  UNL     1       7.734  36.184  25.880  1.00  0.00     0.227 C 
HETATM   10  O2  UNL     1       8.611  35.659  26.642  1.00  0.00    -0.273 OA
HETATM   11  C11 UNL     1       4.718  34.438  24.832  1.00  0.00     0.023 A 
HETATM   12  C12 UNL     1       4.061  35.691  24.652  1.00  0.00    -0.032 C 
HETATM   13  C13 UNL     1       3.338  36.088  23.400  1.00  0.00     0.038 C 
HETATM   14  C14 UNL     1       2.478  37.259  23.833  1.00  0.00     0.007 C 
HETATM   15  C15 UNL     1       3.225  37.826  25.058  1.00  0.00     0.042 C 
HETATM   16  C16 UNL     1       3.461  36.475  25.778  1.00  0.00     0.200 C 
HETATM   17  F1  UNL     1       4.222  36.759  26.854  1.00  0.00    -0.245 F 
HETATM   18  C17 UNL     1       4.299  33.185  24.576  1.00  0.00    -0.015 A 
ENDROOT
BRANCH   9  19
HETATM   19  C8  UNL     1       8.100  37.556  25.384  1.00  0.00     0.078 A 
HETATM   20  C9  UNL     1       7.579  37.916  24.023  1.00  0.00     0.015 A 
HETATM   21  C10 UNL     1       7.021  38.541  25.300  1.00  0.00     0.015 A 
ENDBRANCH   9  19
BRANCH  18  22
HETATM   22  C18 UNL     1       2.952  32.772  24.550  1.00  0.00     0.021 C 
HETATM   23  C19 UNL     1       2.603  32.801  26.131  1.00  0.00     0.009 C 
HETATM   24  C20 UNL     1       1.513  31.787  26.400  1.00  0.00     0.001 C 
HETATM   25  C21 UNL     1       0.248  32.479  25.946  1.00  0.00     0.000 C 
HETATM   26  C22 UNL     1       0.461  32.565  24.455  1.00  0.00     0.001 C 
HETATM   27  C23 UNL     1       1.710  33.445  24.155  1.00  0.00     0.009 C 
ENDBRANCH  18  22
BRANCH   1  28
HETATM   28  C2  UNL     1       4.888  30.722  24.276  1.00  0.00     0.018 C 
HETATM   29  C1  UNL     1       4.711  30.625  22.769  1.00  0.00     0.024 C 
HETATM   30  C3  UNL     1       3.987  29.773  24.857  1.00  0.00     0.024 C 
BRANCH  28  31
HETATM   31  C4  UNL     1       6.297  29.917  24.320  1.00  0.00     0.179 C 
BRANCH  31  32
HETATM   32  O1  UNL     1       6.871  30.102  23.093  1.00  0.00    -0.400 OA
ATOM     33  H1  UNL     1       7.337  30.929  23.147  1.00  0.00     0.209 HD
ENDBRANCH  31  32
ENDBRANCH  28  31
ENDBRANCH   1  28
TORSDOF 5
ENDMDL
MODEL 2
REMARK VINA RESULT: -8.897421452      2.023      2.988
REMARK  5 active torsions:
REMARK  status: ('A' for Active; 'I' for Inactive)
REMARK    1  A    between atoms: C2_2  and  C4_4 
REMARK    2  A    between atoms: C2_2  and  C5_7 
REMARK    3  A    between atoms: C4_4  and  O1_5 
REMARK       I    between atoms: N3_13  and  C7_15 
REMARK    4  A    between atoms: C7_15  and  C8_17 
REMARK    5  A    between atoms: C17_27  and  C18_28 
ROOT
HETATM    1  C5  UNL     1       8.079  32.479  23.633  1.00  0.00     0.043 A 
HETATM    2  N1  UNL     1       9.016  33.344  24.094  1.00  0.00    -0.302 N 
ATOM      3  H1  UNL     1      10.001  33.099  23.994  1.00  0.00     0.186 HD
HETATM    4  N2  UNL     1       8.705  34.475  24.661  1.00  0.00    -0.284 N 
ATOM      5  H2  UNL     1       9.448  35.087  24.998  1.00  0.00     0.188 HD
HETATM    6  C6  UNL     1       7.442  34.844  24.808  1.00  0.00     0.133 A 
HETATM    7  N3  UNL     1       7.122  35.909  25.354  1.00  0.00    -0.311 N 
ATOM      8  H3  UNL     1       6.112  36.046  25.388  1.00  0.00     0.170 HD
HETATM    9  C7  UNL     1       7.809  36.938  25.918  1.00  0.00     0.227 C 
HETATM   10  O2  UNL     1       8.896  36.890  26.583  1.00  0.00    -0.273 OA
HETATM   11  C11 UNL     1       6.314  34.016  24.348  1.00  0.00     0.023 A 
HETATM   12  C12 UNL     1       5.032  34.636  24.426  1.00  0.00    -0.032 C 
HETATM   13  C13 UNL     1       4.097  34.782  23.263  1.00  0.00     0.038 C 
HETATM   14  C14 UNL     1       2.759  35.087  23.908  1.00  0.00     0.007 C 
HETATM   15  C15 UNL     1       3.144  35.710  25.266  1.00  0.00     0.042 C 
HETATM   16  C16 UNL     1       4.198  34.648  25.670  1.00  0.00     0.200 C 
HETATM   17  F1  UNL     1       4.746  35.091  26.819  1.00  0.00    -0.245 F 
HETATM   18  C17 UNL     1       6.690  32.849  23.791  1.00  0.00    -0.015 A 
ENDROOT
BRANCH   9  19
HETATM   19  C8  UNL     1       7.249  38.326  25.767  1.00  0.00     0.078 A 
HETATM   20  C9  UNL     1       6.789  38.695  24.387  1.00  0.00     0.015 A 
HETATM   21  C10 UNL     1       5.809  38.437  25.529  1.00  0.00     0.015 A 
ENDBRANCH   9  19
BRANCH  18  22
HETATM   22  C18 UNL     1       5.849  31.734  23.604  1.00  0.00     0.021 C 
HETATM   23  C19 UNL     1       5.909  31.067  25.078  1.00  0.00     0.009 C 
HETATM   24  C20 UNL     1       5.679  29.578  24.940  1.00  0.00     0.001 C 
HETATM   25  C21 UNL     1       4.181  29.453  24.770  1.00  0.00     0.000 C 
HETATM   26  C22 UNL     1       3.968  30.095  23.423  1.00  0.00     0.001 C 
HETATM   27  C23 UNL     1       4.394  31.592  23.482  1.00  0.00     0.009 C 
ENDBRANCH  18  22
BRANCH   1  28
HETATM   28  C2  UNL     1       8.582  31.352  22.967  1.00  0.00     0.018 C 
HETATM   29  C1  UNL     1       7.709  31.033  21.764  1.00  0.00     0.024 C 
HETATM   30  C3  UNL     1       9.062  30.101  23.471  1.00  0.00     0.024 C 
BRANCH  28  31
HETATM   31  C4  UNL     1       9.854  31.874  22.102  1.00  0.00     0.179 C 
BRANCH  31  32
HETATM   32  O1  UNL     1       9.330  32.434  20.970  1.00  0.00    -0.400 OA
ATOM     33  H1  UNL     1       8.649  33.027  21.266  1.00  0.00     0.209 HD
ENDBRANCH  31  32
ENDBRANCH  28  31
ENDBRANCH   1  28
TORSDOF 5
ENDMDL
MODEL 3
REMARK VINA RESULT: -8.887816004      2.623      5.688
REMARK  5 active torsions:
REMARK  status: ('A' for Active; 'I' for Inactive)
REMARK    1  A    between atoms: C2_2  and  C4_4 
REMARK    2  A    between atoms: C2_2  and  C5_7 
REMARK    3  A    between atoms: C4_4  and  O1_5 
REMARK       I    between atoms: N3_13  and  C7_15 
REMARK    4  A    between atoms: C7_15  and  C8_17 
REMARK    5  A    between atoms: C17_27  and  C18_28 
ROOT
HETATM    1  C5  UNL     1       6.235  34.548  25.561  1.00  0.00     0.043 A 
HETATM    2  N1  UNL     1       7.511  34.654  25.114  1.00  0.00    -0.302 N 
ATOM      3  H1  UNL     1       8.063  35.465  25.393  1.00  0.00     0.186 HD
HETATM    4  N2  UNL     1       8.059  33.758  24.342  1.00  0.00    -0.284 N 
ATOM      5  H2  UNL     1       9.020  33.888  24.027  1.00  0.00     0.188 HD
HETATM    6  C6  UNL     1       7.388  32.682  23.959  1.00  0.00     0.133 A 
HETATM    7  N3  UNL     1       7.884  31.823  23.216  1.00  0.00    -0.311 N 
ATOM      8  H3  UNL     1       7.239  31.058  23.015  1.00  0.00     0.170 HD
HETATM    9  C7  UNL     1       9.090  31.666  22.607  1.00  0.00     0.227 C 
HETATM   10  O2  UNL     1       9.851  32.566  22.123  1.00  0.00    -0.273 OA
HETATM   11  C11 UNL     1       5.998  32.423  24.371  1.00  0.00     0.023 A 
HETATM   12  C12 UNL     1       5.485  31.141  24.013  1.00  0.00    -0.032 C 
HETATM   13  C13 UNL     1       4.900  30.168  24.992  1.00  0.00     0.038 C 
HETATM   14  C14 UNL     1       4.133  29.193  24.121  1.00  0.00     0.007 C 
HETATM   15  C15 UNL     1       4.842  29.292  22.754  1.00  0.00     0.042 C 
HETATM   16  C16 UNL     1       4.887  30.839  22.674  1.00  0.00     0.200 C 
HETATM   17  F1  UNL     1       5.592  31.130  21.563  1.00  0.00    -0.245 F 
HETATM   18  C17 UNL     1       5.474  33.390  25.147  1.00  0.00    -0.015 A 
ENDROOT
BRANCH   9  19
HETATM   19  C8  UNL     1       9.628  30.269  22.461  1.00  0.00     0.078 A 
HETATM   20  C9  UNL     1      11.105  30.115  22.681  1.00  0.00     0.015 A 
HETATM   21  C10 UNL     1      10.075  29.600  23.684  1.00  0.00     0.015 A 
ENDBRANCH   9  19
BRANCH  18  22
HETATM   22  C18 UNL     1       4.098  33.585  25.379  1.00  0.00     0.021 C 
HETATM   23  C19 UNL     1       3.609  34.027  23.899  1.00  0.00     0.009 C 
HETATM   24  C20 UNL     1       2.394  34.916  24.042  1.00  0.00     0.001 C 
HETATM   25  C21 UNL     1       1.261  33.949  24.301  1.00  0.00     0.000 C 
HETATM   26  C22 UNL     1       1.619  33.410  25.663  1.00  0.00     0.001 C 
HETATM   27  C23 UNL     1       2.981  32.658  25.587  1.00  0.00     0.009 C 
ENDBRANCH  18  22
BRANCH   1  28
HETATM   28  C2  UNL     1       5.832  35.549  26.457  1.00  0.00     0.018 C 
HETATM   29  C1  UNL     1       6.340  35.224  27.853  1.00  0.00     0.024 C 
HETATM   30  C3  UNL     1       4.572  36.209  26.621  1.00  0.00     0.024 C 
BRANCH  28  31
HETATM   31  C4  UNL     1       6.837  36.801  26.213  1.00  0.00     0.179 C 
BRANCH  31  32
HETATM   32  O1  UNL     1       6.369  37.443  25.100  1.00  0.00    -0.400 OA
ATOM     33  H1  UNL     1       6.910  37.140  24.380  1.00  0.00     0.209 HD
ENDBRANCH  31  32
ENDBRANCH  28  31
ENDBRANCH   1  28
TORSDOF 5
ENDMDL
MODEL 4
REMARK VINA RESULT: -8.658877959      2.707      4.649
REMARK  5 active torsions:
REMARK  status: ('A' for Active; 'I' for Inactive)
REMARK    1  A    between atoms: C2_2  and  C4_4 
REMARK    2  A    between atoms: C2_2  and  C5_7 
REMARK    3  A    between atoms: C4_4  and  O1_5 
REMARK       I    between atoms: N3_13  and  C7_15 
REMARK    4  A    between atoms: C7_15  and  C8_17 
REMARK    5  A    between atoms: C17_27  and  C18_28 
ROOT
HETATM    1  C5  UNL     1       2.805  33.001  25.342  1.00  0.00     0.043 A 
HETATM    2  N1  UNL     1       1.925  34.024  25.223  1.00  0.00    -0.302 N 
ATOM      3  H1  UNL     1       0.934  33.809  25.112  1.00  0.00     0.186 HD
HETATM    4  N2  UNL     1       2.296  35.273  25.243  1.00  0.00    -0.284 N 
ATOM      5  H2  UNL     1       1.594  36.006  25.141  1.00  0.00     0.188 HD
HETATM    6  C6  UNL     1       3.569  35.607  25.393  1.00  0.00     0.133 A 
HETATM    7  N3  UNL     1       3.947  36.787  25.403  1.00  0.00    -0.311 N 
ATOM      8  H3  UNL     1       4.956  36.875  25.527  1.00  0.00     0.170 HD
HETATM    9  C7  UNL     1       3.326  37.991  25.287  1.00  0.00     0.227 C 
HETATM   10  O2  UNL     1       2.316  38.291  24.570  1.00  0.00    -0.273 OA
HETATM   11  C11 UNL     1       4.640  34.607  25.545  1.00  0.00     0.023 A 
HETATM   12  C12 UNL     1       5.925  35.136  25.868  1.00  0.00    -0.032 C 
HETATM   13  C13 UNL     1       6.732  34.713  27.059  1.00  0.00     0.038 C 
HETATM   14  C14 UNL     1       8.131  35.203  26.743  1.00  0.00     0.007 C 
HETATM   15  C15 UNL     1       7.893  36.375  25.767  1.00  0.00     0.042 C 
HETATM   16  C16 UNL     1       6.885  35.649  24.840  1.00  0.00     0.200 C 
HETATM   17  F1  UNL     1       6.463  36.576  23.957  1.00  0.00    -0.245 F 
HETATM   18  C17 UNL     1       4.204  33.335  25.494  1.00  0.00    -0.015 A 
ENDROOT
BRANCH   9  19
HETATM   19  C8  UNL     1       3.871  39.144  26.085  1.00  0.00     0.078 A 
HETATM   20  C9  UNL     1       4.388  38.803  27.452  1.00  0.00     0.015 A 
HETATM   21  C10 UNL     1       5.318  39.176  26.300  1.00  0.00     0.015 A 
ENDBRANCH   9  19
BRANCH  18  22
HETATM   22  C18 UNL     1       5.018  32.210  25.250  1.00  0.00     0.021 C 
HETATM   23  C19 UNL     1       5.398  32.453  23.695  1.00  0.00     0.009 C 
HETATM   24  C20 UNL     1       5.659  31.109  23.051  1.00  0.00     0.001 C 
HETATM   25  C21 UNL     1       7.057  30.750  23.502  1.00  0.00     0.000 C 
HETATM   26  C22 UNL     1       6.859  30.538  24.982  1.00  0.00     0.001 C 
HETATM   27  C23 UNL     1       6.389  31.868  25.643  1.00  0.00     0.009 C 
ENDBRANCH  18  22
BRANCH   1  28
HETATM   28  C2  UNL     1       2.231  31.723  25.394  1.00  0.00     0.018 C 
HETATM   29  C1  UNL     1       1.531  31.527  26.730  1.00  0.00     0.024 C 
HETATM   30  C3  UNL     1       2.751  30.444  25.012  1.00  0.00     0.024 C 
BRANCH  28  31
HETATM   31  C4  UNL     1       0.868  31.807  24.515  1.00  0.00     0.179 C 
BRANCH  31  32
HETATM   32  O1  UNL     1      -0.149  31.954  25.417  1.00  0.00    -0.400 OA
ATOM     33  H1  UNL     1      -0.909  31.548  25.018  1.00  0.00     0.209 HD
ENDBRANCH  31  32
ENDBRANCH  28  31
ENDBRANCH   1  28
TORSDOF 5
ENDMDL
MODEL 5
REMARK VINA RESULT: -8.555625432      2.493      4.614
REMARK  5 active torsions:
REMARK  status: ('A' for Active; 'I' for Inactive)
REMARK    1  A    between atoms: C2_2  and  C4_4 
REMARK    2  A    between atoms: C2_2  and  C5_7 
REMARK    3  A    between atoms: C4_4  and  O1_5 
REMARK       I    between atoms: N3_13  and  C7_15 
REMARK    4  A    between atoms: C7_15  and  C8_17 
REMARK    5  A    between atoms: C17_27  and  C18_28 
ROOT
HETATM    1  C5  UNL     1       3.928  31.786  24.789  1.00  0.00     0.043 A 
HETATM    2  N1  UNL     1       2.798  32.533  24.820  1.00  0.00    -0.302 N 
ATOM      3  H1  UNL     1       1.900  32.073  24.667  1.00  0.00     0.186 HD
HETATM    4  N2  UNL     1       2.814  33.818  25.036  1.00  0.00    -0.284 N 
ATOM      5  H2  UNL     1       1.936  34.337  25.042  1.00  0.00     0.188 HD
HETATM    6  C6  UNL     1       3.952  34.462  25.249  1.00  0.00     0.133 A 
HETATM    7  N3  UNL     1       3.994  35.685  25.445  1.00  0.00    -0.311 N 
ATOM      8  H3  UNL     1       4.943  36.027  25.592  1.00  0.00     0.170 HD
HETATM    9  C7  UNL     1       3.064  36.676  25.510  1.00  0.00     0.227 C 
HETATM   10  O2  UNL     1       1.987  36.791  24.838  1.00  0.00    -0.273 OA
HETATM   11  C11 UNL     1       5.260  33.784  25.256  1.00  0.00     0.023 A 
HETATM   12  C12 UNL     1       6.361  34.590  25.669  1.00  0.00    -0.032 C 
HETATM   13  C13 UNL     1       7.291  34.230  26.789  1.00  0.00     0.038 C 
HETATM   14  C14 UNL     1       8.492  35.129  26.566  1.00  0.00     0.007 C 
HETATM   15  C15 UNL     1       7.912  36.324  25.781  1.00  0.00     0.042 C 
HETATM   16  C16 UNL     1       7.110  35.497  24.743  1.00  0.00     0.200 C 
HETATM   17  F1  UNL     1       6.422  36.395  24.010  1.00  0.00    -0.245 F 
HETATM   18  C17 UNL     1       5.186  32.464  25.004  1.00  0.00    -0.015 A 
ENDROOT
BRANCH   9  19
HETATM   19  C8  UNL     1       3.299  37.799  26.482  1.00  0.00     0.078 A 
HETATM   20  C9  UNL     1       4.376  37.564  27.500  1.00  0.00     0.015 A 
HETATM   21  C10 UNL     1       4.551  38.544  26.343  1.00  0.00     0.015 A 
ENDBRANCH   9  19
BRANCH  18  22
HETATM   22  C18 UNL     1       6.268  31.657  24.598  1.00  0.00     0.021 C 
HETATM   23  C19 UNL     1       6.460  32.166  23.073  1.00  0.00     0.009 C 
HETATM   24  C20 UNL     1       7.048  31.034  22.260  1.00  0.00     0.001 C 
HETATM   25  C21 UNL     1       8.517  31.049  22.619  1.00  0.00     0.000 C 
HETATM   26  C22 UNL     1       8.486  30.629  24.067  1.00  0.00     0.001 C 
HETATM   27  C23 UNL     1       7.702  31.686  24.902  1.00  0.00     0.009 C 
ENDBRANCH  18  22
BRANCH   1  28
HETATM   28  C2  UNL     1       3.727  30.406  24.637  1.00  0.00     0.018 C 
HETATM   29  C1  UNL     1       2.346  30.028  25.150  1.00  0.00     0.024 C 
HETATM   30  C3  UNL     1       4.587  29.296  24.916  1.00  0.00     0.024 C 
BRANCH  28  31
HETATM   31  C4  UNL     1       3.379  30.174  23.067  1.00  0.00     0.179 C 
BRANCH  31  32
HETATM   32  O1  UNL     1       4.114  29.088  22.679  1.00  0.00    -0.400 OA
ATOM     33  H1  UNL     1       5.023  29.361  22.726  1.00  0.00     0.209 HD
ENDBRANCH  31  32
ENDBRANCH  28  31
ENDBRANCH   1  28
TORSDOF 5
ENDMDL
