MODEL 1
REMARK VINA RESULT: -8.115899380      0.000      0.000
REMARK  8 active torsions:
REMARK  status: ('A' for Active; 'I' for Inactive)
REMARK    1  A    between atoms: C2_2  and  C4_4 
REMARK    2  A    between atoms: C9_9  and  C10_10 
REMARK    3  A    between atoms: C13_13  and  O1_14 
REMARK    4  A    between atoms: C15_17  and  C16_18 
REMARK    5  A    between atoms: C16_18  and  C17_19 
REMARK    6  A    between atoms: C16_18  and  O3_23 
REMARK    7  A    between atoms: C17_19  and  C18_20 
REMARK    8  A    between atoms: C18_20  and  O2_21 
ROOT
HETATM    1  C10 UNL     1       3.916  32.865  25.694  1.00  0.00     0.004 C 
HETATM    2  C11 UNL     1       4.720  32.061  25.102  1.00  0.00    -0.069 C 
HETATM    3  C12 UNL     1       4.309  30.599  25.159  1.00  0.00     0.066 C 
HETATM    4  C13 UNL     1       4.620  29.900  23.864  1.00  0.00     0.122 C 
HETATM    5  C14 UNL     1       5.977  30.250  23.347  1.00  0.00     0.040 C 
HETATM    6  C15 UNL     1       6.754  31.045  24.416  1.00  0.00     0.031 C 
HETATM    7  C19 UNL     1       5.955  32.391  24.387  1.00  0.00    -0.018 C 
HETATM    8  C20 UNL     1       6.730  33.565  24.828  1.00  0.00     0.020 C 
HETATM    9  C21 UNL     1       5.599  32.731  22.905  1.00  0.00     0.020 C 
ENDROOT
BRANCH   1  10
HETATM   10  C9  UNL     1       3.848  34.281  25.916  1.00  0.00     0.003 C 
HETATM   11  C8  UNL     1       3.040  35.096  25.214  1.00  0.00    -0.075 C 
HETATM   12  C7  UNL     1       2.128  34.723  24.148  1.00  0.00     0.019 C 
HETATM   13  C22 UNL     1       2.925  36.551  25.419  1.00  0.00     0.035 C 
HETATM   14  C6  UNL     1       0.671  34.787  24.554  1.00  0.00     0.010 C 
HETATM   15  C24 UNL     1       2.285  35.913  23.180  1.00  0.00     0.002 C 
HETATM   16  C5  UNL     1       0.010  35.840  23.701  1.00  0.00     0.010 C 
HETATM   17  C4  UNL     1       0.930  35.917  22.521  1.00  0.00     0.018 C 
HETATM   18  C23 UNL     1       2.554  37.078  24.065  1.00  0.00     0.010 C 
BRANCH  17  19
HETATM   19  C2  UNL     1       0.699  37.084  21.652  1.00  0.00    -0.089 C 
HETATM   20  C1  UNL     1      -0.286  37.929  21.861  1.00  0.00     0.014 C 
HETATM   21  C3  UNL     1       1.630  37.286  20.508  1.00  0.00     0.043 C 
ENDBRANCH  17  19
ENDBRANCH   1  10
BRANCH   4  22
HETATM   22  O1  UNL     1       4.509  28.529  24.103  1.00  0.00    -0.395 OA
ATOM     23  H1  UNL     1       4.567  28.095  23.259  1.00  0.00     0.210 HD
ENDBRANCH   4  22
BRANCH   6  24
HETATM   24  C16 UNL     1       8.169  31.211  23.929  1.00  0.00     0.152 C 
BRANCH  24  25
HETATM   25  C17 UNL     1       8.326  31.081  22.461  1.00  0.00     0.060 C 
BRANCH  25  26
HETATM   26  C18 UNL     1       8.751  32.243  21.661  1.00  0.00     0.166 C 
BRANCH  26  27
HETATM   27  O2  UNL     1       9.964  32.119  21.001  1.00  0.00    -0.401 OA
ATOM     28  H2  UNL     1       9.917  31.950  20.067  1.00  0.00     0.209 HD
ENDBRANCH  26  27
ENDBRANCH  25  26
ENDBRANCH  24  25
BRANCH  24  29
HETATM   29  O3  UNL     1       8.958  30.117  24.419  1.00  0.00    -0.278 OA
HETATM   30 CL1  UNL     1      10.171  29.617  23.383  1.00  0.00     0.062 Cl
ENDBRANCH  24  29
ENDBRANCH   6  24
TORSDOF 8
ENDMDL
MODEL 2
REMARK VINA RESULT: -7.957528391      1.890      3.287
REMARK  8 active torsions:
REMARK  status: ('A' for Active; 'I' for Inactive)
REMARK    1  A    between atoms: C2_2  and  C4_4 
REMARK    2  A    between atoms: C9_9  and  C10_10 
REMARK    3  A    between atoms: C13_13  and  O1_14 
REMARK    4  A    between atoms: C15_17  and  C16_18 
REMARK    5  A    between atoms: C16_18  and  C17_19 
REMARK    6  A    between atoms: C16_18  and  O3_23 
REMARK    7  A    between atoms: C17_19  and  C18_20 
REMARK    8  A    between atoms: C18_20  and  O2_21 
ROOT
HETATM    1  C10 UNL     1       4.354  34.782  24.149  1.00  0.00     0.004 C 
HETATM    2  C11 UNL     1       5.391  34.033  24.240  1.00  0.00    -0.069 C 
HETATM    3  C12 UNL     1       6.713  34.783  24.264  1.00  0.00     0.066 C 
HETATM    4  C13 UNL     1       7.684  34.134  25.213  1.00  0.00     0.122 C 
HETATM    5  C14 UNL     1       7.698  32.647  25.073  1.00  0.00     0.040 C 
HETATM    6  C15 UNL     1       6.883  32.231  23.833  1.00  0.00     0.031 C 
HETATM    7  C19 UNL     1       5.438  32.572  24.331  1.00  0.00    -0.018 C 
HETATM    8  C20 UNL     1       4.371  31.792  23.676  1.00  0.00     0.020 C 
HETATM    9  C21 UNL     1       5.315  32.160  25.832  1.00  0.00     0.020 C 
ENDROOT
BRANCH   1  10
HETATM   10  C9  UNL     1       2.934  34.579  24.095  1.00  0.00     0.003 C 
HETATM   11  C8  UNL     1       2.088  35.460  23.531  1.00  0.00    -0.075 C 
HETATM   12  C7  UNL     1       2.427  36.723  22.902  1.00  0.00     0.019 C 
HETATM   13  C22 UNL     1       0.628  35.285  23.438  1.00  0.00     0.035 C 
HETATM   14  C6  UNL     1       2.291  36.699  21.394  1.00  0.00     0.010 C 
HETATM   15  C24 UNL     1       1.254  37.616  23.355  1.00  0.00     0.002 C 
HETATM   16  C5  UNL     1       1.216  37.688  21.021  1.00  0.00     0.010 C 
HETATM   17  C4  UNL     1       1.191  38.596  22.213  1.00  0.00     0.018 C 
HETATM   18  C23 UNL     1       0.095  36.687  23.447  1.00  0.00     0.010 C 
BRANCH  17  19
HETATM   19  C2  UNL     1       0.023  39.491  22.266  1.00  0.00    -0.089 C 
HETATM   20  C1  UNL     1      -1.080  39.244  21.593  1.00  0.00     0.014 C 
HETATM   21  C3  UNL     1       0.124  40.707  23.118  1.00  0.00     0.043 C 
ENDBRANCH  17  19
ENDBRANCH   1  10
BRANCH   4  22
HETATM   22  O1  UNL     1       8.942  34.678  24.944  1.00  0.00    -0.395 OA
ATOM     23  H1  UNL     1       9.076  34.616  24.006  1.00  0.00     0.210 HD
ENDBRANCH   4  22
BRANCH   6  24
HETATM   24  C16 UNL     1       7.080  30.752  23.626  1.00  0.00     0.152 C 
BRANCH  24  25
HETATM   25  C17 UNL     1       8.414  30.254  24.036  1.00  0.00     0.060 C 
BRANCH  25  26
HETATM   26  C18 UNL     1       9.574  30.440  23.146  1.00  0.00     0.166 C 
BRANCH  26  27
HETATM   27  O2  UNL     1       9.651  29.585  22.058  1.00  0.00    -0.401 OA
ATOM     28  H2  UNL     1       8.910  29.598  21.462  1.00  0.00     0.209 HD
ENDBRANCH  26  27
ENDBRANCH  25  26
ENDBRANCH  24  25
BRANCH  24  29
HETATM   29  O3  UNL     1       7.072  30.478  22.217  1.00  0.00    -0.278 OA
HETATM   30 CL1  UNL     1       7.005  31.836  21.245  1.00  0.00     0.062 Cl
ENDBRANCH  24  29
ENDBRANCH   6  24
TORSDOF 8
ENDMDL
MODEL 3
REMARK VINA RESULT: -7.932519005      4.919      8.536
REMARK  8 active torsions:
REMARK  status: ('A' for Active; 'I' for Inactive)
REMARK    1  A    between atoms: C2_2  and  C4_4 
REMARK    2  A    between atoms: C9_9  and  C10_10 
REMARK    3  A    between atoms: C13_13  and  O1_14 
REMARK    4  A    between atoms: C15_17  and  C16_18 
REMARK    5  A    between atoms: C16_18  and  C17_19 
REMARK    6  A    between atoms: C16_18  and  O3_23 
REMARK    7  A    between atoms: C17_19  and  C18_20 
REMARK    8  A    between atoms: C18_20  and  O2_21 
ROOT
HETATM    1  C10 UNL     1       4.218  38.672  24.478  1.00  0.00     0.004 C 
HETATM    2  C11 UNL     1       3.354  38.651  23.532  1.00  0.00    -0.069 C 
HETATM    3  C12 UNL     1       3.636  39.620  22.395  1.00  0.00     0.066 C 
HETATM    4  C13 UNL     1       3.280  39.011  21.066  1.00  0.00     0.122 C 
HETATM    5  C14 UNL     1       1.964  38.306  21.104  1.00  0.00     0.040 C 
HETATM    6  C15 UNL     1       1.247  38.609  22.435  1.00  0.00     0.031 C 
HETATM    7  C19 UNL     1       2.160  37.809  23.424  1.00  0.00    -0.018 C 
HETATM    8  C20 UNL     1       1.484  37.386  24.665  1.00  0.00     0.020 C 
HETATM    9  C21 UNL     1       2.560  36.457  22.753  1.00  0.00     0.020 C 
ENDROOT
BRANCH   1  10
HETATM   10  C9  UNL     1       4.406  37.980  25.721  1.00  0.00     0.003 C 
HETATM   11  C8  UNL     1       4.939  36.748  25.802  1.00  0.00    -0.075 C 
HETATM   12  C7  UNL     1       5.404  35.919  24.705  1.00  0.00     0.019 C 
HETATM   13  C22 UNL     1       5.166  36.008  27.057  1.00  0.00     0.035 C 
HETATM   14  C6  UNL     1       6.912  35.802  24.637  1.00  0.00     0.010 C 
HETATM   15  C24 UNL     1       4.954  34.518  25.168  1.00  0.00     0.002 C 
HETATM   16  C5  UNL     1       7.263  34.353  24.861  1.00  0.00     0.010 C 
HETATM   17  C4  UNL     1       5.989  33.656  24.493  1.00  0.00     0.018 C 
HETATM   18  C23 UNL     1       5.053  34.568  26.652  1.00  0.00     0.010 C 
BRANCH  17  19
HETATM   19  C2  UNL     1       5.935  32.241  24.900  1.00  0.00    -0.089 C 
HETATM   20  C1  UNL     1       6.986  31.608  25.374  1.00  0.00     0.014 C 
HETATM   21  C3  UNL     1       4.634  31.532  24.760  1.00  0.00     0.043 C 
ENDBRANCH  17  19
ENDBRANCH   1  10
BRANCH   4  22
HETATM   22  O1  UNL     1       3.269  40.049  20.131  1.00  0.00    -0.395 OA
ATOM     23  H1  UNL     1       4.168  40.184  19.856  1.00  0.00     0.210 HD
ENDBRANCH   4  22
BRANCH   6  24
HETATM   24  C16 UNL     1      -0.143  38.037  22.351  1.00  0.00     0.152 C 
BRANCH  24  25
HETATM   25  C17 UNL     1      -0.383  37.196  21.155  1.00  0.00     0.060 C 
BRANCH  25  26
HETATM   26  C18 UNL     1      -0.724  35.771  21.313  1.00  0.00     0.166 C 
BRANCH  26  27
HETATM   27  O2  UNL     1      -1.811  35.319  20.582  1.00  0.00    -0.401 OA
ATOM     28  H2  UNL     1      -2.012  34.393  20.660  1.00  0.00     0.209 HD
ENDBRANCH  26  27
ENDBRANCH  25  26
ENDBRANCH  24  25
BRANCH  24  29
HETATM   29  O3  UNL     1      -1.075  39.111  22.161  1.00  0.00    -0.278 OA
HETATM   30 CL1  UNL     1      -0.498  40.617  22.601  1.00  0.00     0.062 Cl
ENDBRANCH  24  29
ENDBRANCH   6  24
TORSDOF 8
ENDMDL
MODEL 4
REMARK VINA RESULT: -7.900126147      5.223      9.109
REMARK  8 active torsions:
REMARK  status: ('A' for Active; 'I' for Inactive)
REMARK    1  A    between atoms: C2_2  and  C4_4 
REMARK    2  A    between atoms: C9_9  and  C10_10 
REMARK    3  A    between atoms: C13_13  and  O1_14 
REMARK    4  A    between atoms: C15_17  and  C16_18 
REMARK    5  A    between atoms: C16_18  and  C17_19 
REMARK    6  A    between atoms: C16_18  and  O3_23 
REMARK    7  A    between atoms: C17_19  and  C18_20 
REMARK    8  A    between atoms: C18_20  and  O2_21 
ROOT
HETATM    1  C10 UNL     1       2.377  35.750  23.121  1.00  0.00     0.004 C 
HETATM    2  C11 UNL     1       1.911  36.870  22.707  1.00  0.00    -0.069 C 
HETATM    3  C12 UNL     1       2.492  37.349  21.386  1.00  0.00     0.066 C 
HETATM    4  C13 UNL     1       1.437  38.004  20.538  1.00  0.00     0.122 C 
HETATM    5  C14 UNL     1       0.578  38.936  21.329  1.00  0.00     0.040 C 
HETATM    6  C15 UNL     1       1.175  39.128  22.737  1.00  0.00     0.031 C 
HETATM    7  C19 UNL     1       0.897  37.712  23.345  1.00  0.00    -0.018 C 
HETATM    8  C20 UNL     1       0.794  37.694  24.817  1.00  0.00     0.020 C 
HETATM    9  C21 UNL     1      -0.515  37.235  22.880  1.00  0.00     0.020 C 
ENDROOT
BRANCH   1  10
HETATM   10  C9  UNL     1       2.165  34.899  24.257  1.00  0.00     0.003 C 
HETATM   11  C8  UNL     1       3.046  33.960  24.645  1.00  0.00    -0.075 C 
HETATM   12  C7  UNL     1       4.318  33.638  24.022  1.00  0.00     0.019 C 
HETATM   13  C22 UNL     1       2.878  33.077  25.813  1.00  0.00     0.035 C 
HETATM   14  C6  UNL     1       5.515  34.091  24.831  1.00  0.00     0.010 C 
HETATM   15  C24 UNL     1       4.348  32.103  24.163  1.00  0.00     0.002 C 
HETATM   16  C5  UNL     1       6.281  32.857  25.235  1.00  0.00     0.010 C 
HETATM   17  C4  UNL     1       5.833  31.857  24.213  1.00  0.00     0.018 C 
HETATM   18  C23 UNL     1       3.625  31.832  25.435  1.00  0.00     0.010 C 
BRANCH  17  19
HETATM   19  C2  UNL     1       6.191  30.464  24.535  1.00  0.00    -0.089 C 
HETATM   20  C1  UNL     1       7.361  30.140  25.040  1.00  0.00     0.014 C 
HETATM   21  C3  UNL     1       5.172  29.412  24.269  1.00  0.00     0.043 C 
ENDBRANCH  17  19
ENDBRANCH   1  10
BRANCH   4  22
HETATM   22  O1  UNL     1       2.101  38.680  19.511  1.00  0.00    -0.395 OA
ATOM     23  H1  UNL     1       2.109  38.101  18.758  1.00  0.00     0.210 HD
ENDBRANCH   4  22
BRANCH   6  24
HETATM   24  C16 UNL     1       0.388  40.210  23.428  1.00  0.00     0.152 C 
BRANCH  24  25
HETATM   25  C17 UNL     1      -0.511  40.975  22.532  1.00  0.00     0.060 C 
BRANCH  25  26
HETATM   26  C18 UNL     1      -0.626  42.437  22.679  1.00  0.00     0.166 C 
BRANCH  26  27
HETATM   27  O2  UNL     1      -1.351  42.884  23.772  1.00  0.00    -0.401 OA
ATOM     28  H2  UNL     1      -0.847  43.272  24.478  1.00  0.00     0.209 HD
ENDBRANCH  26  27
ENDBRANCH  25  26
ENDBRANCH  24  25
BRANCH  24  29
HETATM   29  O3  UNL     1       1.297  41.222  23.885  1.00  0.00    -0.278 OA
HETATM   30 CL1  UNL     1       2.911  40.793  23.810  1.00  0.00     0.062 Cl
ENDBRANCH  24  29
ENDBRANCH   6  24
TORSDOF 8
ENDMDL
MODEL 5
REMARK VINA RESULT: -7.899151434      1.494      1.825
REMARK  8 active torsions:
REMARK  status: ('A' for Active; 'I' for Inactive)
REMARK    1  A    between atoms: C2_2  and  C4_4 
REMARK    2  A    between atoms: C9_9  and  C10_10 
REMARK    3  A    between atoms: C13_13  and  O1_14 
REMARK    4  A    between atoms: C15_17  and  C16_18 
REMARK    5  A    between atoms: C16_18  and  C17_19 
REMARK    6  A    between atoms: C16_18  and  O3_23 
REMARK    7  A    between atoms: C17_19  and  C18_20 
REMARK    8  A    between atoms: C18_20  and  O2_21 
ROOT
HETATM    1  C10 UNL     1       2.189  32.511  24.974  1.00  0.00     0.004 C 
HETATM    2  C11 UNL     1       3.311  31.962  24.684  1.00  0.00    -0.069 C 
HETATM    3  C12 UNL     1       3.205  30.532  24.180  1.00  0.00     0.066 C 
HETATM    4  C13 UNL     1       4.201  30.272  23.084  1.00  0.00     0.122 C 
HETATM    5  C14 UNL     1       5.551  30.826  23.406  1.00  0.00     0.040 C 
HETATM    6  C15 UNL     1       5.584  31.300  24.873  1.00  0.00     0.031 C 
HETATM    7  C19 UNL     1       4.649  32.552  24.775  1.00  0.00    -0.018 C 
HETATM    8  C20 UNL     1       4.897  33.576  25.807  1.00  0.00     0.020 C 
HETATM    9  C21 UNL     1       4.955  33.304  23.441  1.00  0.00     0.020 C 
ENDROOT
BRANCH   1  10
HETATM   10  C9  UNL     1       1.760  33.790  25.463  1.00  0.00     0.003 C 
HETATM   11  C8  UNL     1       1.379  34.795  24.655  1.00  0.00    -0.075 C 
HETATM   12  C7  UNL     1       1.331  34.785  23.204  1.00  0.00     0.019 C 
HETATM   13  C22 UNL     1       0.915  36.117  25.114  1.00  0.00     0.035 C 
HETATM   14  C6  UNL     1      -0.077  34.743  22.649  1.00  0.00     0.010 C 
HETATM   15  C24 UNL     1       1.808  36.214  22.872  1.00  0.00     0.002 C 
HETATM   16  C5  UNL     1      -0.296  36.019  21.876  1.00  0.00     0.010 C 
HETATM   17  C4  UNL     1       1.106  36.443  21.559  1.00  0.00     0.018 C 
HETATM   18  C23 UNL     1       1.309  37.043  24.001  1.00  0.00     0.010 C 
BRANCH  17  19
HETATM   19  C2  UNL     1       1.221  37.825  21.062  1.00  0.00    -0.089 C 
HETATM   20  C1  UNL     1       2.362  38.327  20.644  1.00  0.00     0.014 C 
HETATM   21  C3  UNL     1      -0.014  38.656  21.043  1.00  0.00     0.043 C 
ENDBRANCH  17  19
ENDBRANCH   1  10
BRANCH   4  22
HETATM   22  O1  UNL     1       4.256  28.888  22.902  1.00  0.00    -0.395 OA
ATOM     23  H1  UNL     1       4.079  28.721  21.983  1.00  0.00     0.210 HD
ENDBRANCH   4  22
BRANCH   6  24
HETATM   24  C16 UNL     1       7.004  31.674  25.204  1.00  0.00     0.152 C 
BRANCH  24  25
HETATM   25  C17 UNL     1       7.738  32.321  24.091  1.00  0.00     0.060 C 
BRANCH  25  26
HETATM   26  C18 UNL     1       8.509  33.553  24.338  1.00  0.00     0.166 C 
BRANCH  26  27
HETATM   27  O2  UNL     1       9.886  33.445  24.217  1.00  0.00    -0.401 OA
ATOM     28  H2  UNL     1      10.371  34.262  24.212  1.00  0.00     0.209 HD
ENDBRANCH  26  27
ENDBRANCH  25  26
ENDBRANCH  24  25
BRANCH  24  29
HETATM   29  O3  UNL     1       7.762  30.473  25.411  1.00  0.00    -0.278 OA
HETATM   30 CL1  UNL     1       8.795  30.079  24.158  1.00  0.00     0.062 Cl
ENDBRANCH  24  29
ENDBRANCH   6  24
TORSDOF 8
ENDMDL
