MODEL 1
REMARK VINA RESULT: -7.881666399      0.000      0.000
REMARK  8 active torsions:
REMARK  status: ('A' for Active; 'I' for Inactive)
REMARK    1  A    between atoms: C3_4  and  N2_5 
REMARK    2  A    between atoms: N2_5  and  C4_7 
REMARK    3  A    between atoms: C4_7  and  N3_9 
REMARK    4  A    between atoms: N3_9  and  C5_11 
REMARK    5  A    between atoms: N4_14  and  C8_15 
REMARK    6  A    between atoms: C8_15  and  C9_16 
REMARK    7  A    between atoms: C9_16  and  C10_17 
REMARK    8  A    between atoms: C17_24  and  C18_25 
ROOT
HETATM    1  C4  UNL     1      -0.282  32.957  25.051  1.00  0.00     0.172 C 
HETATM    2  S1  UNL     1      -1.779  32.817  25.799  1.00  0.00    -0.041 SA
ENDROOT
BRANCH   1   3
HETATM    3  N2  UNL     1       0.823  32.690  25.859  1.00  0.00    -0.332 N 
ATOM      4  H2  UNL     1       0.616  32.649  26.856  1.00  0.00     0.168 HD
BRANCH   3   5
HETATM    5  C3  UNL     1       2.172  32.468  25.537  1.00  0.00     0.051 A 
HETATM    6  C2  UNL     1       3.322  33.034  25.981  1.00  0.00     0.120 A 
HETATM    7  N1  UNL     1       4.378  32.455  25.335  1.00  0.00    -0.361 N 
HETATM    8  C1  UNL     1       5.766  32.805  25.558  1.00  0.00     0.155 C 
HETATM    9  C17 UNL     1       3.942  31.540  24.495  1.00  0.00     0.037 A 
HETATM   10  C16 UNL     1       2.576  31.508  24.581  1.00  0.00     0.058 A 
BRANCH   9  11
HETATM   11  C18 UNL     1       4.704  30.642  23.576  1.00  0.00     0.079 A 
HETATM   12 CL1  UNL     1       5.782  31.476  22.396  1.00  0.00    -0.112 Cl
HETATM   13  C19 UNL     1       4.329  29.262  23.284  1.00  0.00     0.034 A 
HETATM   14  C20 UNL     1       5.387  29.480  24.313  1.00  0.00     0.034 A 
ENDBRANCH   9  11
ENDBRANCH   3   5
ENDBRANCH   1   3
BRANCH   1  15
HETATM   15  N3  UNL     1      -0.357  33.280  23.697  1.00  0.00    -0.362 N 
ATOM     16  H3  UNL     1      -0.333  32.524  23.013  1.00  0.00     0.162 HD
BRANCH  15  17
HETATM   17  C5  UNL     1      -0.470  34.676  23.208  1.00  0.00     0.093 C 
HETATM   18  C6  UNL     1       0.873  35.320  23.351  1.00  0.00     0.070 C 
HETATM   19  C7  UNL     1       1.146  36.357  22.286  1.00  0.00     0.065 C 
HETATM   20  N4  UNL     1      -0.023  36.778  21.671  1.00  0.00    -0.374 N 
HETATM   21  C14 UNL     1      -0.800  35.825  20.986  1.00  0.00     0.065 C 
HETATM   22  C15 UNL     1      -1.025  34.619  21.831  1.00  0.00     0.070 C 
BRANCH  20  23
HETATM   23  C8  UNL     1      -0.230  38.162  21.372  1.00  0.00     0.128 C 
BRANCH  23  24
HETATM   24  C9  UNL     1      -0.540  39.020  22.536  1.00  0.00     0.028 C 
BRANCH  24  25
HETATM   25  C10 UNL     1       0.455  40.130  22.742  1.00  0.00    -0.050 C 
HETATM   26  C11 UNL     1      -0.273  41.490  22.827  1.00  0.00     0.014 C 
HETATM   27  C12 UNL     1       1.471  40.262  21.644  1.00  0.00     0.014 C 
HETATM   28  C13 UNL     1       1.209  39.988  24.073  1.00  0.00     0.014 C 
ENDBRANCH  24  25
ENDBRANCH  23  24
ENDBRANCH  20  23
ENDBRANCH  15  17
ENDBRANCH   1  15
TORSDOF 8
ENDMDL
MODEL 2
REMARK VINA RESULT: -7.856049812      3.693      7.629
REMARK  8 active torsions:
REMARK  status: ('A' for Active; 'I' for Inactive)
REMARK    1  A    between atoms: C3_4  and  N2_5 
REMARK    2  A    between atoms: N2_5  and  C4_7 
REMARK    3  A    between atoms: C4_7  and  N3_9 
REMARK    4  A    between atoms: N3_9  and  C5_11 
REMARK    5  A    between atoms: N4_14  and  C8_15 
REMARK    6  A    between atoms: C8_15  and  C9_16 
REMARK    7  A    between atoms: C9_16  and  C10_17 
REMARK    8  A    between atoms: C17_24  and  C18_25 
ROOT
HETATM    1  C4  UNL     1       4.356  36.760  25.477  1.00  0.00     0.172 C 
HETATM    2  S1  UNL     1       4.059  37.893  26.679  1.00  0.00    -0.041 SA
ENDROOT
BRANCH   1   3
HETATM    3  N2  UNL     1       3.264  36.430  24.675  1.00  0.00    -0.332 N 
ATOM      4  H2  UNL     1       3.166  37.006  23.839  1.00  0.00     0.168 HD
BRANCH   3   5
HETATM    5  C3  UNL     1       2.276  35.442  24.816  1.00  0.00     0.051 A 
HETATM    6  C2  UNL     1       0.949  35.432  24.536  1.00  0.00     0.120 A 
HETATM    7  N1  UNL     1       0.436  34.210  24.871  1.00  0.00    -0.361 N 
HETATM    8  C1  UNL     1      -0.953  33.831  24.706  1.00  0.00     0.155 C 
HETATM    9  C17 UNL     1       1.389  33.442  25.355  1.00  0.00     0.037 A 
HETATM   10  C16 UNL     1       2.554  34.161  25.343  1.00  0.00     0.058 A 
BRANCH   9  11
HETATM   11  C18 UNL     1       1.327  32.033  25.848  1.00  0.00     0.079 A 
HETATM   12 CL1  UNL     1       0.236  31.753  27.257  1.00  0.00    -0.112 Cl
HETATM   13  C19 UNL     1       2.349  31.026  25.580  1.00  0.00     0.034 A 
HETATM   14  C20 UNL     1       1.134  31.015  24.714  1.00  0.00     0.034 A 
ENDBRANCH   9  11
ENDBRANCH   3   5
ENDBRANCH   1   3
BRANCH   1  15
HETATM   15  N3  UNL     1       5.683  36.334  25.419  1.00  0.00    -0.362 N 
ATOM     16  H3  UNL     1       6.420  37.002  25.649  1.00  0.00     0.162 HD
BRANCH  15  17
HETATM   17  C5  UNL     1       6.070  34.953  25.039  1.00  0.00     0.093 C 
HETATM   18  C6  UNL     1       7.435  35.015  24.428  1.00  0.00     0.070 C 
HETATM   19  C7  UNL     1       8.251  33.769  24.686  1.00  0.00     0.065 C 
HETATM   20  N4  UNL     1       7.451  32.702  25.062  1.00  0.00    -0.374 N 
HETATM   21  C14 UNL     1       6.685  32.820  26.236  1.00  0.00     0.065 C 
HETATM   22  C15 UNL     1       5.932  34.106  26.250  1.00  0.00     0.070 C 
BRANCH  20  23
HETATM   23  C8  UNL     1       7.695  31.391  24.541  1.00  0.00     0.128 C 
BRANCH  23  24
HETATM   24  C9  UNL     1       6.518  30.496  24.507  1.00  0.00     0.028 C 
BRANCH  24  25
HETATM   25  C10 UNL     1       5.744  30.575  23.219  1.00  0.00    -0.050 C 
HETATM   26  C11 UNL     1       4.919  31.881  23.172  1.00  0.00     0.014 C 
HETATM   27  C12 UNL     1       4.770  29.451  23.011  1.00  0.00     0.014 C 
HETATM   28  C13 UNL     1       6.669  30.634  21.993  1.00  0.00     0.014 C 
ENDBRANCH  24  25
ENDBRANCH  23  24
ENDBRANCH  20  23
ENDBRANCH  15  17
ENDBRANCH   1  15
TORSDOF 8
ENDMDL
MODEL 3
REMARK VINA RESULT: -7.763172005      3.489      7.705
REMARK  8 active torsions:
REMARK  status: ('A' for Active; 'I' for Inactive)
REMARK    1  A    between atoms: C3_4  and  N2_5 
REMARK    2  A    between atoms: N2_5  and  C4_7 
REMARK    3  A    between atoms: C4_7  and  N3_9 
REMARK    4  A    between atoms: N3_9  and  C5_11 
REMARK    5  A    between atoms: N4_14  and  C8_15 
REMARK    6  A    between atoms: C8_15  and  C9_16 
REMARK    7  A    between atoms: C9_16  and  C10_17 
REMARK    8  A    between atoms: C17_24  and  C18_25 
ROOT
HETATM    1  C4  UNL     1       4.400  36.715  25.310  1.00  0.00     0.172 C 
HETATM    2  S1  UNL     1       4.034  37.708  26.613  1.00  0.00    -0.041 SA
ENDROOT
BRANCH   1   3
HETATM    3  N2  UNL     1       3.375  36.534  24.382  1.00  0.00    -0.332 N 
ATOM      4  H2  UNL     1       3.346  37.237  23.644  1.00  0.00     0.168 HD
BRANCH   3   5
HETATM    5  C3  UNL     1       2.374  35.553  24.288  1.00  0.00     0.051 A 
HETATM    6  C2  UNL     1       1.297  35.423  23.473  1.00  0.00     0.120 A 
HETATM    7  N1  UNL     1       0.630  34.276  23.801  1.00  0.00    -0.361 N 
HETATM    8  C1  UNL     1      -0.569  33.807  23.138  1.00  0.00     0.155 C 
HETATM    9  C17 UNL     1       1.245  33.671  24.797  1.00  0.00     0.037 A 
HETATM   10  C16 UNL     1       2.336  34.425  25.137  1.00  0.00     0.058 A 
BRANCH   9  11
HETATM   11  C18 UNL     1       0.907  32.395  25.497  1.00  0.00     0.079 A 
HETATM   12 CL1  UNL     1      -0.750  32.315  26.204  1.00  0.00    -0.112 Cl
HETATM   13  C19 UNL     1       1.899  31.452  26.002  1.00  0.00     0.034 A 
HETATM   14  C20 UNL     1       1.283  31.151  24.678  1.00  0.00     0.034 A 
ENDBRANCH   9  11
ENDBRANCH   3   5
ENDBRANCH   1   3
BRANCH   1  15
HETATM   15  N3  UNL     1       5.711  36.239  25.315  1.00  0.00    -0.362 N 
ATOM     16  H3  UNL     1       6.463  36.886  25.553  1.00  0.00     0.162 HD
BRANCH  15  17
HETATM   17  C5  UNL     1       6.059  34.835  24.988  1.00  0.00     0.093 C 
HETATM   18  C6  UNL     1       7.407  34.838  24.339  1.00  0.00     0.070 C 
HETATM   19  C7  UNL     1       8.204  33.588  24.632  1.00  0.00     0.065 C 
HETATM   20  N4  UNL     1       7.394  32.557  25.078  1.00  0.00    -0.374 N 
HETATM   21  C14 UNL     1       6.663  32.745  26.265  1.00  0.00     0.065 C 
HETATM   22  C15 UNL     1       5.937  34.046  26.241  1.00  0.00     0.070 C 
BRANCH  20  23
HETATM   23  C8  UNL     1       7.596  31.219  24.612  1.00  0.00     0.128 C 
BRANCH  23  24
HETATM   24  C9  UNL     1       6.407  30.341  24.674  1.00  0.00     0.028 C 
BRANCH  24  25
HETATM   25  C10 UNL     1       5.514  30.459  23.468  1.00  0.00    -0.050 C 
HETATM   26  C11 UNL     1       6.364  30.491  22.177  1.00  0.00     0.014 C 
HETATM   27  C12 UNL     1       4.664  31.697  23.445  1.00  0.00     0.014 C 
HETATM   28  C13 UNL     1       4.588  29.243  23.315  1.00  0.00     0.014 C 
ENDBRANCH  24  25
ENDBRANCH  23  24
ENDBRANCH  20  23
ENDBRANCH  15  17
ENDBRANCH   1  15
TORSDOF 8
ENDMDL
MODEL 4
REMARK VINA RESULT: -7.744625900      3.998      6.344
REMARK  8 active torsions:
REMARK  status: ('A' for Active; 'I' for Inactive)
REMARK    1  A    between atoms: C3_4  and  N2_5 
REMARK    2  A    between atoms: N2_5  and  C4_7 
REMARK    3  A    between atoms: C4_7  and  N3_9 
REMARK    4  A    between atoms: N3_9  and  C5_11 
REMARK    5  A    between atoms: N4_14  and  C8_15 
REMARK    6  A    between atoms: C8_15  and  C9_16 
REMARK    7  A    between atoms: C9_16  and  C10_17 
REMARK    8  A    between atoms: C17_24  and  C18_25 
ROOT
HETATM    1  C4  UNL     1       7.223  36.405  25.583  1.00  0.00     0.172 C 
HETATM    2  S1  UNL     1       8.432  37.567  25.489  1.00  0.00    -0.041 SA
ENDROOT
BRANCH   1   3
HETATM    3  N2  UNL     1       7.652  35.109  25.864  1.00  0.00    -0.332 N 
ATOM      4  H2  UNL     1       7.873  34.942  26.846  1.00  0.00     0.168 HD
BRANCH   3   5
HETATM    5  C3  UNL     1       7.833  33.992  25.031  1.00  0.00     0.051 A 
HETATM    6  C2  UNL     1       8.903  33.538  24.333  1.00  0.00     0.120 A 
HETATM    7  N1  UNL     1       8.546  32.397  23.669  1.00  0.00    -0.361 N 
HETATM    8  C1  UNL     1       9.436  31.629  22.823  1.00  0.00     0.155 C 
HETATM    9  C17 UNL     1       7.286  32.109  23.920  1.00  0.00     0.037 A 
HETATM   10  C16 UNL     1       6.795  33.071  24.763  1.00  0.00     0.058 A 
BRANCH   9  11
HETATM   11  C18 UNL     1       6.449  30.970  23.437  1.00  0.00     0.079 A 
HETATM   12 CL1  UNL     1       5.975  29.768  24.695  1.00  0.00    -0.112 Cl
HETATM   13  C19 UNL     1       6.367  30.550  22.041  1.00  0.00     0.034 A 
HETATM   14  C20 UNL     1       5.276  31.428  22.556  1.00  0.00     0.034 A 
ENDBRANCH   9  11
ENDBRANCH   3   5
ENDBRANCH   1   3
BRANCH   1  15
HETATM   15  N3  UNL     1       5.937  36.915  25.409  1.00  0.00    -0.362 N 
ATOM     16  H3  UNL     1       5.823  37.922  25.290  1.00  0.00     0.162 HD
BRANCH  15  17
HETATM   17  C5  UNL     1       4.726  36.057  25.389  1.00  0.00     0.093 C 
HETATM   18  C6  UNL     1       3.608  36.833  26.011  1.00  0.00     0.070 C 
HETATM   19  C7  UNL     1       2.258  36.492  25.423  1.00  0.00     0.065 C 
HETATM   20  N4  UNL     1       2.283  35.282  24.749  1.00  0.00    -0.374 N 
HETATM   21  C14 UNL     1       3.146  35.148  23.646  1.00  0.00     0.065 C 
HETATM   22  C15 UNL     1       4.518  35.619  23.985  1.00  0.00     0.070 C 
BRANCH  20  23
HETATM   23  C8  UNL     1       1.203  34.353  24.881  1.00  0.00     0.128 C 
BRANCH  23  24
HETATM   24  C9  UNL     1       1.470  32.994  24.360  1.00  0.00     0.028 C 
BRANCH  24  25
HETATM   25  C10 UNL     1       1.937  32.030  25.417  1.00  0.00    -0.050 C 
HETATM   26  C11 UNL     1       2.001  30.598  24.841  1.00  0.00     0.014 C 
HETATM   27  C12 UNL     1       1.050  31.961  26.627  1.00  0.00     0.014 C 
HETATM   28  C13 UNL     1       3.365  32.343  25.891  1.00  0.00     0.014 C 
ENDBRANCH  24  25
ENDBRANCH  23  24
ENDBRANCH  20  23
ENDBRANCH  15  17
ENDBRANCH   1  15
TORSDOF 8
ENDMDL
MODEL 5
REMARK VINA RESULT: -7.725583410      2.382      7.983
REMARK  8 active torsions:
REMARK  status: ('A' for Active; 'I' for Inactive)
REMARK    1  A    between atoms: C3_4  and  N2_5 
REMARK    2  A    between atoms: N2_5  and  C4_7 
REMARK    3  A    between atoms: C4_7  and  N3_9 
REMARK    4  A    between atoms: N3_9  and  C5_11 
REMARK    5  A    between atoms: N4_14  and  C8_15 
REMARK    6  A    between atoms: C8_15  and  C9_16 
REMARK    7  A    between atoms: C9_16  and  C10_17 
REMARK    8  A    between atoms: C17_24  and  C18_25 
ROOT
HETATM    1  C4  UNL     1       0.239  32.065  25.605  1.00  0.00     0.172 C 
HETATM    2  S1  UNL     1       0.248  31.871  27.273  1.00  0.00    -0.041 SA
ENDROOT
BRANCH   1   3
HETATM    3  N2  UNL     1      -0.672  32.998  25.111  1.00  0.00    -0.332 N 
ATOM      4  H2  UNL     1      -1.606  32.931  25.516  1.00  0.00     0.168 HD
BRANCH   3   5
HETATM    5  C3  UNL     1      -0.529  34.014  24.152  1.00  0.00     0.051 A 
HETATM    6  C2  UNL     1      -0.947  34.121  22.866  1.00  0.00     0.120 A 
HETATM    7  N1  UNL     1      -0.536  35.326  22.366  1.00  0.00    -0.361 N 
HETATM    8  C1  UNL     1      -0.805  35.790  21.021  1.00  0.00     0.155 C 
HETATM    9  C17 UNL     1       0.130  35.989  23.289  1.00  0.00     0.037 A 
HETATM   10  C16 UNL     1       0.163  35.217  24.419  1.00  0.00     0.058 A 
BRANCH   9  11
HETATM   11  C18 UNL     1       0.766  37.339  23.227  1.00  0.00     0.079 A 
HETATM   12 CL1  UNL     1       2.105  37.510  22.030  1.00  0.00    -0.112 Cl
HETATM   13  C19 UNL     1       0.691  38.329  24.297  1.00  0.00     0.034 A 
HETATM   14  C20 UNL     1      -0.263  38.478  23.160  1.00  0.00     0.034 A 
ENDBRANCH   9  11
ENDBRANCH   3   5
ENDBRANCH   1   3
BRANCH   1  15
HETATM   15  N3  UNL     1       1.188  31.288  24.942  1.00  0.00    -0.362 N 
ATOM     16  H3  UNL     1       0.869  30.632  24.229  1.00  0.00     0.162 HD
BRANCH  15  17
HETATM   17  C5  UNL     1       2.641  31.374  25.228  1.00  0.00     0.093 C 
HETATM   18  C6  UNL     1       3.250  30.048  24.899  1.00  0.00     0.070 C 
HETATM   19  C7  UNL     1       4.674  30.160  24.406  1.00  0.00     0.065 C 
HETATM   20  N4  UNL     1       5.238  31.380  24.743  1.00  0.00    -0.374 N 
HETATM   21  C14 UNL     1       4.643  32.554  24.245  1.00  0.00     0.065 C 
HETATM   22  C15 UNL     1       3.171  32.542  24.479  1.00  0.00     0.070 C 
BRANCH  20  23
HETATM   23  C8  UNL     1       6.587  31.453  25.214  1.00  0.00     0.128 C 
BRANCH  23  24
HETATM   24  C9  UNL     1       7.517  30.465  24.625  1.00  0.00     0.028 C 
BRANCH  24  25
HETATM   25  C10 UNL     1       8.264  30.989  23.428  1.00  0.00    -0.050 C 
HETATM   26  C11 UNL     1       8.613  32.481  23.628  1.00  0.00     0.014 C 
HETATM   27  C12 UNL     1       7.503  30.902  22.136  1.00  0.00     0.014 C 
HETATM   28  C13 UNL     1       9.613  30.278  23.234  1.00  0.00     0.014 C 
ENDBRANCH  24  25
ENDBRANCH  23  24
ENDBRANCH  20  23
ENDBRANCH  15  17
ENDBRANCH   1  15
TORSDOF 8
ENDMDL
