MODEL 1
REMARK VINA RESULT: -9.547670462      0.000      0.000
REMARK  6 active torsions:
REMARK  status: ('A' for Active; 'I' for Inactive)
REMARK    1  A    between atoms: C2_2  and  C3_3 
REMARK       I    between atoms: C3_3  and  N1_5 
REMARK    2  A    between atoms: C4_7  and  C5_8 
REMARK    3  A    between atoms: C4_7  and  N2_20 
REMARK    4  A    between atoms: C5_8  and  C6_9 
REMARK    5  A    between atoms: C6_9  and  C7_10 
REMARK       I    between atoms: N2_20  and  C16_22 
REMARK       I    between atoms: C16_22  and  N3_24 
REMARK    6  A    between atoms: N3_24  and  C17_26 
ROOT
HETATM    1  C3  UNL     1       2.687  37.422  23.083  1.00  0.00     0.245 C 
HETATM    2  O1  UNL     1       1.661  37.442  23.798  1.00  0.00    -0.268 OA
HETATM    3  N1  UNL     1       3.906  37.026  23.655  1.00  0.00    -0.313 N 
ATOM      4  H1  UNL     1       4.603  37.738  23.872  1.00  0.00     0.170 HD
HETATM    5  C4  UNL     1       4.180  35.769  23.921  1.00  0.00     0.087 C 
ENDROOT
BRANCH   5   6
HETATM    6  C5  UNL     1       5.509  35.533  24.521  1.00  0.00     0.077 C 
BRANCH   6   7
HETATM    7  C6  UNL     1       5.455  34.233  25.319  1.00  0.00     0.014 C 
BRANCH   7   8
HETATM    8  C7  UNL     1       6.442  33.255  24.736  1.00  0.00     0.015 C 
HETATM    9  C8  UNL     1       6.972  32.414  25.862  1.00  0.00     0.173 C 
HETATM   10  O2  UNL     1       7.609  31.263  25.432  1.00  0.00    -0.385 OA
HETATM   11  C9  UNL     1       6.950  30.534  24.485  1.00  0.00     0.129 C 
HETATM   12  C10 UNL     1       5.487  30.319  24.788  1.00  0.00     0.033 C 
HETATM   13  C13 UNL     1       6.863  31.364  23.208  1.00  0.00    -0.017 C 
HETATM   14  C11 UNL     1       4.774  31.545  24.218  1.00  0.00     0.008 C 
HETATM   15  C12 UNL     1       5.861  32.423  23.642  1.00  0.00     0.002 C 
HETATM   16  C14 UNL     1       8.208  31.965  22.894  1.00  0.00     0.018 C 
HETATM   17  C15 UNL     1       6.325  30.519  22.103  1.00  0.00     0.018 C 
ENDBRANCH   7   8
ENDBRANCH   6   7
ENDBRANCH   5   6
BRANCH   5  18
HETATM   18  N2  UNL     1       3.234  34.765  23.631  1.00  0.00    -0.298 N 
HETATM   19  C16 UNL     1       2.264  34.358  24.589  1.00  0.00     0.326 C 
HETATM   20  O3  UNL     1       2.264  34.912  25.700  1.00  0.00    -0.247 OA
HETATM   21  N3  UNL     1       1.315  33.353  24.304  1.00  0.00    -0.309 N 
ATOM     22  H3  UNL     1       1.330  32.926  23.378  1.00  0.00     0.170 HD
ATOM     23  H2  UNL     1       3.245  34.320  22.712  1.00  0.00     0.172 HD
BRANCH  21  24
HETATM   24  C17 UNL     1       0.357  32.909  25.214  1.00  0.00     0.036 A 
HETATM   25  C18 UNL     1       0.836  32.179  26.312  1.00  0.00     0.032 A 
HETATM   26  C19 UNL     1       0.049  31.689  27.309  1.00  0.00     0.044 A 
HETATM   27  C20 UNL     1      -1.310  31.910  27.263  1.00  0.00     0.116 A 
HETATM   28  F1  UNL     1      -2.104  31.422  28.256  1.00  0.00    -0.206 F 
HETATM   29  C21 UNL     1      -1.827  32.616  26.215  1.00  0.00     0.044 A 
HETATM   30  C22 UNL     1      -0.996  33.111  25.201  1.00  0.00     0.032 A 
ENDBRANCH  21  24
ENDBRANCH   5  18
BRANCH   1  31
HETATM   31  C2  UNL     1       2.552  37.817  21.678  1.00  0.00     0.064 C 
HETATM   32  C1  UNL     1       2.218  36.947  20.741  1.00  0.00     0.017 C 
ENDBRANCH   1  31
TORSDOF 6
ENDMDL
MODEL 2
REMARK VINA RESULT: -9.180473267      3.432      7.692
REMARK  6 active torsions:
REMARK  status: ('A' for Active; 'I' for Inactive)
REMARK    1  A    between atoms: C2_2  and  C3_3 
REMARK       I    between atoms: C3_3  and  N1_5 
REMARK    2  A    between atoms: C4_7  and  C5_8 
REMARK    3  A    between atoms: C4_7  and  N2_20 
REMARK    4  A    between atoms: C5_8  and  C6_9 
REMARK    5  A    between atoms: C6_9  and  C7_10 
REMARK       I    between atoms: N2_20  and  C16_22 
REMARK       I    between atoms: C16_22  and  N3_24 
REMARK    6  A    between atoms: N3_24  and  C17_26 
ROOT
HETATM    1  C3  UNL     1      -0.099  32.217  27.116  1.00  0.00     0.245 C 
HETATM    2  O1  UNL     1       1.067  32.270  27.566  1.00  0.00    -0.268 OA
HETATM    3  N1  UNL     1      -0.424  32.972  25.978  1.00  0.00    -0.313 N 
ATOM      4  H1  UNL     1      -0.975  33.822  26.093  1.00  0.00     0.170 HD
HETATM    5  C4  UNL     1      -0.042  32.621  24.772  1.00  0.00     0.087 C 
ENDROOT
BRANCH   5   6
HETATM    6  C5  UNL     1      -0.472  33.531  23.690  1.00  0.00     0.077 C 
BRANCH   6   7
HETATM    7  C6  UNL     1      -0.061  34.952  24.061  1.00  0.00     0.014 C 
BRANCH   7   8
HETATM    8  C7  UNL     1       0.547  35.621  22.855  1.00  0.00     0.015 C 
HETATM    9  C8  UNL     1      -0.507  35.682  21.787  1.00  0.00     0.173 C 
HETATM   10  O2  UNL     1      -0.202  36.569  20.769  1.00  0.00    -0.385 OA
HETATM   11  C9  UNL     1       0.233  37.801  21.161  1.00  0.00     0.129 C 
HETATM   12  C10 UNL     1      -0.600  38.424  22.256  1.00  0.00     0.033 C 
HETATM   13  C13 UNL     1       1.573  37.638  21.873  1.00  0.00    -0.017 C 
HETATM   14  C11 UNL     1      -0.008  37.894  23.562  1.00  0.00     0.008 C 
HETATM   15  C12 UNL     1       1.115  36.967  23.158  1.00  0.00     0.002 C 
HETATM   16  C14 UNL     1       2.476  36.742  21.067  1.00  0.00     0.018 C 
HETATM   17  C15 UNL     1       2.162  38.983  22.135  1.00  0.00     0.018 C 
ENDBRANCH   7   8
ENDBRANCH   6   7
ENDBRANCH   5   6
BRANCH   5  18
HETATM   18  N2  UNL     1       0.721  31.450  24.587  1.00  0.00    -0.298 N 
HETATM   19  C16 UNL     1       2.136  31.499  24.444  1.00  0.00     0.326 C 
HETATM   20  O3  UNL     1       2.695  32.607  24.487  1.00  0.00    -0.247 OA
HETATM   21  N3  UNL     1       2.905  30.329  24.257  1.00  0.00    -0.309 N 
ATOM     22  H3  UNL     1       2.419  29.432  24.240  1.00  0.00     0.170 HD
ATOM     23  H2  UNL     1       0.248  30.546  24.555  1.00  0.00     0.172 HD
BRANCH  21  24
HETATM   24  C17 UNL     1       4.289  30.328  24.096  1.00  0.00     0.036 A 
HETATM   25  C18 UNL     1       4.760  30.379  22.775  1.00  0.00     0.032 A 
HETATM   26  C19 UNL     1       6.076  30.409  22.431  1.00  0.00     0.044 A 
HETATM   27  C20 UNL     1       7.032  30.388  23.424  1.00  0.00     0.116 A 
HETATM   28  F1  UNL     1       8.351  30.416  23.088  1.00  0.00    -0.206 F 
HETATM   29  C21 UNL     1       6.626  30.339  24.726  1.00  0.00     0.044 A 
HETATM   30  C22 UNL     1       5.264  30.310  25.056  1.00  0.00     0.032 A 
ENDBRANCH  21  24
ENDBRANCH   5  18
BRANCH   1  31
HETATM   31  C2  UNL     1      -1.064  31.360  27.811  1.00  0.00     0.064 C 
HETATM   32  C1  UNL     1      -2.356  31.404  27.536  1.00  0.00     0.017 C 
ENDBRANCH   1  31
TORSDOF 6
ENDMDL
MODEL 3
REMARK VINA RESULT: -9.144998436      2.923      5.727
REMARK  6 active torsions:
REMARK  status: ('A' for Active; 'I' for Inactive)
REMARK    1  A    between atoms: C2_2  and  C3_3 
REMARK       I    between atoms: C3_3  and  N1_5 
REMARK    2  A    between atoms: C4_7  and  C5_8 
REMARK    3  A    between atoms: C4_7  and  N2_20 
REMARK    4  A    between atoms: C5_8  and  C6_9 
REMARK    5  A    between atoms: C6_9  and  C7_10 
REMARK       I    between atoms: N2_20  and  C16_22 
REMARK       I    between atoms: C16_22  and  N3_24 
REMARK    6  A    between atoms: N3_24  and  C17_26 
ROOT
HETATM    1  C3  UNL     1      -1.267  32.226  26.207  1.00  0.00     0.245 C 
HETATM    2  O1  UNL     1      -1.972  33.070  25.611  1.00  0.00    -0.268 OA
HETATM    3  N1  UNL     1      -0.289  31.524  25.484  1.00  0.00    -0.313 N 
ATOM      4  H1  UNL     1      -0.466  30.552  25.234  1.00  0.00     0.170 HD
HETATM    5  C4  UNL     1       0.844  32.077  25.119  1.00  0.00     0.087 C 
ENDROOT
BRANCH   5   6
HETATM    6  C5  UNL     1       1.757  31.194  24.365  1.00  0.00     0.077 C 
BRANCH   6   7
HETATM    7  C6  UNL     1       2.719  30.537  25.350  1.00  0.00     0.014 C 
BRANCH   7   8
HETATM    8  C7  UNL     1       4.118  30.603  24.792  1.00  0.00     0.015 C 
HETATM    9  C8  UNL     1       4.014  30.986  23.343  1.00  0.00     0.173 C 
HETATM   10  O2  UNL     1       5.214  31.419  22.806  1.00  0.00    -0.385 OA
HETATM   11  C9  UNL     1       5.909  32.328  23.551  1.00  0.00     0.129 C 
HETATM   12  C10 UNL     1       5.061  33.456  24.086  1.00  0.00     0.033 C 
HETATM   13  C13 UNL     1       6.348  31.654  24.848  1.00  0.00    -0.017 C 
HETATM   14  C11 UNL     1       4.489  32.939  25.405  1.00  0.00     0.008 C 
HETATM   15  C12 UNL     1       5.007  31.527  25.554  1.00  0.00     0.002 C 
HETATM   16  C14 UNL     1       6.951  30.307  24.549  1.00  0.00     0.018 C 
HETATM   17  C15 UNL     1       7.274  32.561  25.587  1.00  0.00     0.018 C 
ENDBRANCH   7   8
ENDBRANCH   6   7
ENDBRANCH   5   6
BRANCH   5  18
HETATM   18  N2  UNL     1       1.113  33.421  25.453  1.00  0.00    -0.298 N 
HETATM   19  C16 UNL     1       0.897  34.476  24.523  1.00  0.00     0.326 C 
HETATM   20  O3  UNL     1       0.459  34.188  23.398  1.00  0.00    -0.247 OA
HETATM   21  N3  UNL     1       1.165  35.822  24.852  1.00  0.00    -0.309 N 
ATOM     22  H3  UNL     1       1.510  36.028  25.790  1.00  0.00     0.170 HD
ATOM     23  H2  UNL     1       1.471  33.642  26.383  1.00  0.00     0.172 HD
BRANCH  21  24
HETATM   24  C17 UNL     1       0.984  36.887  23.971  1.00  0.00     0.036 A 
HETATM   25  C18 UNL     1       2.103  37.258  23.209  1.00  0.00     0.032 A 
HETATM   26  C19 UNL     1       2.104  38.257  22.284  1.00  0.00     0.044 A 
HETATM   27  C20 UNL     1       0.945  38.968  22.061  1.00  0.00     0.116 A 
HETATM   28  F1  UNL     1       0.938  39.969  21.139  1.00  0.00    -0.206 F 
HETATM   29  C21 UNL     1      -0.173  38.646  22.777  1.00  0.00     0.044 A 
HETATM   30  C22 UNL     1      -0.149  37.612  23.723  1.00  0.00     0.032 A 
ENDBRANCH  21  24
ENDBRANCH   5  18
BRANCH   1  31
HETATM   31  C2  UNL     1      -1.505  32.021  27.639  1.00  0.00     0.064 C 
HETATM   32  C1  UNL     1      -2.330  31.086  28.079  1.00  0.00     0.017 C 
ENDBRANCH   1  31
TORSDOF 6
ENDMDL
MODEL 4
REMARK VINA RESULT: -9.108253993      3.224      7.790
REMARK  6 active torsions:
REMARK  status: ('A' for Active; 'I' for Inactive)
REMARK    1  A    between atoms: C2_2  and  C3_3 
REMARK       I    between atoms: C3_3  and  N1_5 
REMARK    2  A    between atoms: C4_7  and  C5_8 
REMARK    3  A    between atoms: C4_7  and  N2_20 
REMARK    4  A    between atoms: C5_8  and  C6_9 
REMARK    5  A    between atoms: C6_9  and  C7_10 
REMARK       I    between atoms: N2_20  and  C16_22 
REMARK       I    between atoms: C16_22  and  N3_24 
REMARK    6  A    between atoms: N3_24  and  C17_26 
ROOT
HETATM    1  C3  UNL     1       1.346  32.296  25.836  1.00  0.00     0.245 C 
HETATM    2  O1  UNL     1       1.342  32.186  27.082  1.00  0.00    -0.268 OA
HETATM    3  N1  UNL     1       1.235  33.574  25.266  1.00  0.00    -0.313 N 
ATOM      4  H1  UNL     1       0.347  33.851  24.849  1.00  0.00     0.170 HD
HETATM    5  C4  UNL     1       2.235  34.425  25.251  1.00  0.00     0.087 C 
ENDROOT
BRANCH   5   6
HETATM    6  C5  UNL     1       1.942  35.724  24.611  1.00  0.00     0.077 C 
BRANCH   6   7
HETATM    7  C6  UNL     1       0.720  35.557  23.713  1.00  0.00     0.014 C 
BRANCH   7   8
HETATM    8  C7  UNL     1       1.034  36.107  22.346  1.00  0.00     0.015 C 
HETATM    9  C8  UNL     1      -0.212  35.998  21.513  1.00  0.00     0.173 C 
HETATM   10  O2  UNL     1      -0.173  36.773  20.368  1.00  0.00    -0.385 OA
HETATM   11  C9  UNL     1       0.249  38.060  20.532  1.00  0.00     0.129 C 
HETATM   12  C10 UNL     1      -0.390  38.769  21.701  1.00  0.00     0.033 C 
HETATM   13  C13 UNL     1       1.711  38.038  20.969  1.00  0.00    -0.017 C 
HETATM   14  C11 UNL     1       0.480  38.419  22.908  1.00  0.00     0.008 C 
HETATM   15  C12 UNL     1       1.561  37.502  22.384  1.00  0.00     0.002 C 
HETATM   16  C14 UNL     1       2.495  37.094  20.095  1.00  0.00     0.018 C 
HETATM   17  C15 UNL     1       2.251  39.429  20.963  1.00  0.00     0.018 C 
ENDBRANCH   7   8
ENDBRANCH   6   7
ENDBRANCH   5   6
BRANCH   5  18
HETATM   18  N2  UNL     1       3.474  34.066  25.821  1.00  0.00    -0.298 N 
HETATM   19  C16 UNL     1       4.491  33.434  25.053  1.00  0.00     0.326 C 
HETATM   20  O3  UNL     1       4.265  33.202  23.854  1.00  0.00    -0.247 OA
HETATM   21  N3  UNL     1       5.733  33.071  25.619  1.00  0.00    -0.309 N 
ATOM     22  H3  UNL     1       5.894  33.287  26.603  1.00  0.00     0.170 HD
ATOM     23  H2  UNL     1       3.645  34.264  26.808  1.00  0.00     0.172 HD
BRANCH  21  24
HETATM   24  C17 UNL     1       6.752  32.437  24.912  1.00  0.00     0.036 A 
HETATM   25  C18 UNL     1       6.792  31.037  25.004  1.00  0.00     0.032 A 
HETATM   26  C19 UNL     1       7.701  30.252  24.363  1.00  0.00     0.044 A 
HETATM   27  C20 UNL     1       8.657  30.844  23.565  1.00  0.00     0.116 A 
HETATM   28  F1  UNL     1       9.571  30.066  22.922  1.00  0.00    -0.206 F 
HETATM   29  C21 UNL     1       8.661  32.203  23.442  1.00  0.00     0.044 A 
HETATM   30  C22 UNL     1       7.714  32.990  24.111  1.00  0.00     0.032 A 
ENDBRANCH  21  24
ENDBRANCH   5  18
BRANCH   1  31
HETATM   31  C2  UNL     1       1.470  31.072  25.039  1.00  0.00     0.064 C 
HETATM   32  C1  UNL     1       2.576  30.347  25.046  1.00  0.00     0.017 C 
ENDBRANCH   1  31
TORSDOF 6
ENDMDL
MODEL 5
REMARK VINA RESULT: -9.045130069      0.732      1.182
REMARK  6 active torsions:
REMARK  status: ('A' for Active; 'I' for Inactive)
REMARK    1  A    between atoms: C2_2  and  C3_3 
REMARK       I    between atoms: C3_3  and  N1_5 
REMARK    2  A    between atoms: C4_7  and  C5_8 
REMARK    3  A    between atoms: C4_7  and  N2_20 
REMARK    4  A    between atoms: C5_8  and  C6_9 
REMARK    5  A    between atoms: C6_9  and  C7_10 
REMARK       I    between atoms: N2_20  and  C16_22 
REMARK       I    between atoms: C16_22  and  N3_24 
REMARK    6  A    between atoms: N3_24  and  C17_26 
ROOT
HETATM    1  C3  UNL     1       3.204  37.995  24.305  1.00  0.00     0.245 C 
HETATM    2  O1  UNL     1       2.323  37.812  25.175  1.00  0.00    -0.268 OA
HETATM    3  N1  UNL     1       4.432  37.328  24.432  1.00  0.00    -0.313 N 
ATOM      4  H1  UNL     1       5.249  37.855  24.741  1.00  0.00     0.170 HD
HETATM    5  C4  UNL     1       4.566  36.049  24.165  1.00  0.00     0.087 C 
ENDROOT
BRANCH   5   6
HETATM    6  C5  UNL     1       5.929  35.510  24.352  1.00  0.00     0.077 C 
BRANCH   6   7
HETATM    7  C6  UNL     1       5.853  34.319  25.302  1.00  0.00     0.014 C 
BRANCH   7   8
HETATM    8  C7  UNL     1       6.622  33.166  24.710  1.00  0.00     0.015 C 
HETATM    9  C8  UNL     1       7.087  32.297  25.843  1.00  0.00     0.173 C 
HETATM   10  O2  UNL     1       7.495  31.039  25.435  1.00  0.00    -0.385 OA
HETATM   11  C9  UNL     1       6.659  30.390  24.574  1.00  0.00     0.129 C 
HETATM   12  C10 UNL     1       5.206  30.435  24.981  1.00  0.00     0.033 C 
HETATM   13  C13 UNL     1       6.618  31.168  23.262  1.00  0.00    -0.017 C 
HETATM   14  C11 UNL     1       4.664  31.737  24.392  1.00  0.00     0.008 C 
HETATM   15  C12 UNL     1       5.836  32.396  23.702  1.00  0.00     0.002 C 
HETATM   16  C14 UNL     1       8.017  31.523  22.830  1.00  0.00     0.018 C 
HETATM   17  C15 UNL     1       5.871  30.378  22.241  1.00  0.00     0.018 C 
ENDBRANCH   7   8
ENDBRANCH   6   7
ENDBRANCH   5   6
BRANCH   5  18
HETATM   18  N2  UNL     1       3.452  35.299  23.735  1.00  0.00    -0.298 N 
HETATM   19  C16 UNL     1       2.570  34.679  24.664  1.00  0.00     0.326 C 
HETATM   20  O3  UNL     1       2.801  34.814  25.876  1.00  0.00    -0.247 OA
HETATM   21  N3  UNL     1       1.454  33.926  24.239  1.00  0.00    -0.309 N 
ATOM     22  H3  UNL     1       1.283  33.844  23.237  1.00  0.00     0.170 HD
ATOM     23  H2  UNL     1       3.275  35.197  22.735  1.00  0.00     0.172 HD
BRANCH  21  24
HETATM   24  C17 UNL     1       0.572  33.287  25.109  1.00  0.00     0.036 A 
HETATM   25  C18 UNL     1      -0.792  33.552  24.914  1.00  0.00     0.032 A 
HETATM   26  C19 UNL     1      -1.794  33.000  25.652  1.00  0.00     0.044 A 
HETATM   27  C20 UNL     1      -1.476  32.120  26.664  1.00  0.00     0.116 A 
HETATM   28  F1  UNL     1      -2.472  31.564  27.408  1.00  0.00    -0.206 F 
HETATM   29  C21 UNL     1      -0.163  31.828  26.895  1.00  0.00     0.044 A 
HETATM   30  C22 UNL     1       0.850  32.409  26.121  1.00  0.00     0.032 A 
ENDBRANCH  21  24
ENDBRANCH   5  18
BRANCH   1  31
HETATM   31  C2  UNL     1       2.896  38.903  23.197  1.00  0.00     0.064 C 
HETATM   32  C1  UNL     1       2.563  38.450  22.000  1.00  0.00     0.017 C 
ENDBRANCH   1  31
TORSDOF 6
ENDMDL
