MODEL 1
REMARK VINA RESULT: -8.808142644      0.000      0.000
REMARK  6 active torsions:
REMARK  status: ('A' for Active; 'I' for Inactive)
REMARK    1  A    between atoms: C3_4  and  C4_5 
REMARK       I    between atoms: C4_5  and  N1_7 
REMARK    2  A    between atoms: N1_7  and  C5_9 
REMARK    3  A    between atoms: C5_9  and  C7_11 
REMARK    4  A    between atoms: C13_18  and  C14_19 
REMARK    5  A    between atoms: C17_22  and  C18_23 
REMARK    6  A    between atoms: C18_23  and  C19_24 
ROOT
HETATM    1  C1  UNL     1       4.554  29.269  24.658  1.00  0.00     0.057 C 
HETATM    2  C2  UNL     1       4.051  30.683  24.564  1.00  0.00    -0.014 A 
HETATM    3  S1  UNL     1       2.442  31.203  24.758  1.00  0.00    -0.089 SA
HETATM    4  C3  UNL     1       2.663  32.870  24.540  1.00  0.00     0.073 A 
HETATM    5  C12 UNL     1       4.018  32.980  24.315  1.00  0.00     0.033 A 
HETATM    6  C13 UNL     1       4.741  31.852  24.325  1.00  0.00    -0.040 A 
ENDROOT
BRANCH   4   7
HETATM    7  C4  UNL     1       1.681  33.988  24.531  1.00  0.00     0.262 C 
HETATM    8  O1  UNL     1       0.573  33.759  25.031  1.00  0.00    -0.267 OA
HETATM    9  N1  UNL     1       1.998  35.239  23.981  1.00  0.00    -0.329 N 
ATOM     10  H1  UNL     1       2.941  35.318  23.601  1.00  0.00     0.168 HD
BRANCH   9  11
HETATM   11  C5  UNL     1       1.219  36.394  23.877  1.00  0.00    -0.004 C 
HETATM   12  C6  UNL     1       1.122  37.194  25.179  1.00  0.00     0.064 C 
BRANCH  11  13
HETATM   13  C7  UNL     1       0.469  36.904  22.737  1.00  0.00     0.011 C 
HETATM   14  C8  UNL     1      -0.484  35.906  22.087  1.00  0.00     0.023 C 
HETATM   15  C9  UNL     1      -0.418  38.104  23.163  1.00  0.00     0.018 C 
HETATM   16  C10 UNL     1      -0.105  38.788  21.850  1.00  0.00     0.022 C 
HETATM   17  C11 UNL     1       1.066  37.798  21.726  1.00  0.00     0.096 C 
HETATM   18 CL1  UNL     1       1.042  37.165  20.036  1.00  0.00    -0.124 Cl
ENDBRANCH  11  13
ENDBRANCH   9  11
ENDBRANCH   4   7
BRANCH   6  19
HETATM   19  C14 UNL     1       6.232  31.760  24.066  1.00  0.00     0.019 C 
HETATM   20  C15 UNL     1       7.048  32.703  24.882  1.00  0.00     0.010 C 
HETATM   21  C16 UNL     1       8.344  33.066  24.116  1.00  0.00     0.006 C 
HETATM   22  C17 UNL     1       8.829  31.800  23.473  1.00  0.00    -0.005 C 
HETATM   23  C20 UNL     1       7.899  31.495  22.316  1.00  0.00     0.006 C 
HETATM   24  C21 UNL     1       6.509  32.070  22.595  1.00  0.00     0.010 C 
BRANCH  22  25
HETATM   25  C18 UNL     1      10.273  31.802  23.108  1.00  0.00     0.117 C 
BRANCH  25  26
HETATM   26  C19 UNL     1      10.730  30.635  22.332  1.00  0.00     0.172 C 
HETATM   27  O2  UNL     1      11.492  30.837  21.337  1.00  0.00    -0.648 OA
HETATM   28  O3  UNL     1      10.368  29.328  22.636  1.00  0.00    -0.648 OA
ENDBRANCH  25  26
ENDBRANCH  22  25
ENDBRANCH   6  19
TORSDOF 6
ENDMDL
MODEL 2
REMARK VINA RESULT: -8.700284789      3.374      8.989
REMARK  6 active torsions:
REMARK  status: ('A' for Active; 'I' for Inactive)
REMARK    1  A    between atoms: C3_4  and  C4_5 
REMARK       I    between atoms: C4_5  and  N1_7 
REMARK    2  A    between atoms: N1_7  and  C5_9 
REMARK    3  A    between atoms: C5_9  and  C7_11 
REMARK    4  A    between atoms: C13_18  and  C14_19 
REMARK    5  A    between atoms: C17_22  and  C18_23 
REMARK    6  A    between atoms: C18_23  and  C19_24 
ROOT
HETATM    1  C1  UNL     1      -1.998  33.854  24.384  1.00  0.00     0.057 C 
HETATM    2  C2  UNL     1      -0.503  33.700  24.409  1.00  0.00    -0.014 A 
HETATM    3  S1  UNL     1       0.368  32.324  24.905  1.00  0.00    -0.089 SA
HETATM    4  C3  UNL     1       1.945  32.883  24.636  1.00  0.00     0.073 A 
HETATM    5  C12 UNL     1       1.748  34.160  24.155  1.00  0.00     0.033 A 
HETATM    6  C13 UNL     1       0.484  34.588  24.037  1.00  0.00    -0.040 A 
ENDROOT
BRANCH   4   7
HETATM    7  C4  UNL     1       3.263  32.235  24.880  1.00  0.00     0.262 C 
HETATM    8  O1  UNL     1       3.893  32.617  25.874  1.00  0.00    -0.267 OA
HETATM    9  N1  UNL     1       3.762  31.240  24.026  1.00  0.00    -0.329 N 
ATOM     10  H1  UNL     1       3.156  31.000  23.242  1.00  0.00     0.168 HD
BRANCH   9  11
HETATM   11  C5  UNL     1       4.963  30.529  24.087  1.00  0.00    -0.004 C 
HETATM   12  C6  UNL     1       4.806  29.096  24.605  1.00  0.00     0.064 C 
BRANCH  11  13
HETATM   13  C7  UNL     1       6.316  30.968  23.774  1.00  0.00     0.011 C 
HETATM   14  C8  UNL     1       7.408  30.405  24.678  1.00  0.00     0.023 C 
HETATM   15  C9  UNL     1       6.707  30.538  22.336  1.00  0.00     0.018 C 
HETATM   16  C10 UNL     1       7.426  31.857  22.149  1.00  0.00     0.022 C 
HETATM   17  C11 UNL     1       6.629  32.352  23.368  1.00  0.00     0.096 C 
HETATM   18 CL1  UNL     1       7.795  33.218  24.441  1.00  0.00    -0.124 Cl
ENDBRANCH  11  13
ENDBRANCH   9  11
ENDBRANCH   4   7
BRANCH   6  19
HETATM   19  C14 UNL     1       0.061  35.964  23.563  1.00  0.00     0.019 C 
HETATM   20  C15 UNL     1      -0.083  36.078  22.084  1.00  0.00     0.010 C 
HETATM   21  C16 UNL     1       0.197  37.535  21.645  1.00  0.00     0.006 C 
HETATM   22  C17 UNL     1      -0.446  38.422  22.670  1.00  0.00    -0.005 C 
HETATM   23  C20 UNL     1       0.397  38.345  23.927  1.00  0.00     0.006 C 
HETATM   24  C21 UNL     1       1.106  36.991  24.000  1.00  0.00     0.010 C 
BRANCH  22  25
HETATM   25  C18 UNL     1      -0.719  39.811  22.206  1.00  0.00     0.117 C 
BRANCH  25  26
HETATM   26  C19 UNL     1       0.422  40.741  22.290  1.00  0.00     0.172 C 
HETATM   27  O2  UNL     1       0.413  41.621  23.204  1.00  0.00    -0.648 OA
HETATM   28  O3  UNL     1       1.504  40.700  21.419  1.00  0.00    -0.648 OA
ENDBRANCH  25  26
ENDBRANCH  22  25
ENDBRANCH   6  19
TORSDOF 6
ENDMDL
MODEL 3
REMARK VINA RESULT: -8.653879734      1.172      1.468
REMARK  6 active torsions:
REMARK  status: ('A' for Active; 'I' for Inactive)
REMARK    1  A    between atoms: C3_4  and  C4_5 
REMARK       I    between atoms: C4_5  and  N1_7 
REMARK    2  A    between atoms: N1_7  and  C5_9 
REMARK    3  A    between atoms: C5_9  and  C7_11 
REMARK    4  A    between atoms: C13_18  and  C14_19 
REMARK    5  A    between atoms: C17_22  and  C18_23 
REMARK    6  A    between atoms: C18_23  and  C19_24 
ROOT
HETATM    1  C1  UNL     1       4.645  29.024  24.680  1.00  0.00     0.057 C 
HETATM    2  C2  UNL     1       4.079  30.415  24.610  1.00  0.00    -0.014 A 
HETATM    3  S1  UNL     1       2.453  30.863  24.840  1.00  0.00    -0.089 SA
HETATM    4  C3  UNL     1       2.596  32.539  24.636  1.00  0.00     0.073 A 
HETATM    5  C12 UNL     1       3.941  32.711  24.386  1.00  0.00     0.033 A 
HETATM    6  C13 UNL     1       4.712  31.616  24.371  1.00  0.00    -0.040 A 
ENDROOT
BRANCH   4   7
HETATM    7  C4  UNL     1       1.567  33.614  24.657  1.00  0.00     0.262 C 
HETATM    8  O1  UNL     1       0.948  33.769  25.717  1.00  0.00    -0.267 OA
HETATM    9  N1  UNL     1       1.313  34.410  23.530  1.00  0.00    -0.329 N 
ATOM     10  H1  UNL     1       1.885  34.197  22.713  1.00  0.00     0.168 HD
BRANCH   9  11
HETATM   11  C5  UNL     1       0.396  35.450  23.357  1.00  0.00    -0.004 C 
HETATM   12  C6  UNL     1      -1.065  35.017  23.512  1.00  0.00     0.064 C 
BRANCH  11  13
HETATM   13  C7  UNL     1       0.633  36.845  23.016  1.00  0.00     0.011 C 
HETATM   14  C8  UNL     1       2.084  37.201  22.708  1.00  0.00     0.023 C 
HETATM   15  C9  UNL     1      -0.166  37.237  21.745  1.00  0.00     0.018 C 
HETATM   16  C10 UNL     1      -0.456  38.591  22.358  1.00  0.00     0.022 C 
HETATM   17  C11 UNL     1      -0.049  37.961  23.701  1.00  0.00     0.096 C 
HETATM   18 CL1  UNL     1       1.045  39.137  24.523  1.00  0.00    -0.124 Cl
ENDBRANCH  11  13
ENDBRANCH   9  11
ENDBRANCH   4   7
BRANCH   6  19
HETATM   19  C14 UNL     1       6.200  31.591  24.083  1.00  0.00     0.019 C 
HETATM   20  C15 UNL     1       6.997  32.521  24.933  1.00  0.00     0.010 C 
HETATM   21  C16 UNL     1       8.265  32.969  24.166  1.00  0.00     0.006 C 
HETATM   22  C17 UNL     1       8.783  31.756  23.450  1.00  0.00    -0.005 C 
HETATM   23  C20 UNL     1       7.843  31.478  22.294  1.00  0.00     0.006 C 
HETATM   24  C21 UNL     1       6.439  31.987  22.626  1.00  0.00     0.010 C 
BRANCH  22  25
HETATM   25  C18 UNL     1      10.219  31.830  23.062  1.00  0.00     0.117 C 
BRANCH  25  26
HETATM   26  C19 UNL     1      10.719  30.691  22.271  1.00  0.00     0.172 C 
HETATM   27  O2  UNL     1      11.494  30.932  21.295  1.00  0.00    -0.648 OA
HETATM   28  O3  UNL     1      10.383  29.370  22.540  1.00  0.00    -0.648 OA
ENDBRANCH  25  26
ENDBRANCH  22  25
ENDBRANCH   6  19
TORSDOF 6
ENDMDL
MODEL 4
REMARK VINA RESULT: -8.598578975      2.012      2.928
REMARK  6 active torsions:
REMARK  status: ('A' for Active; 'I' for Inactive)
REMARK    1  A    between atoms: C3_4  and  C4_5 
REMARK       I    between atoms: C4_5  and  N1_7 
REMARK    2  A    between atoms: N1_7  and  C5_9 
REMARK    3  A    between atoms: C5_9  and  C7_11 
REMARK    4  A    between atoms: C13_18  and  C14_19 
REMARK    5  A    between atoms: C17_22  and  C18_23 
REMARK    6  A    between atoms: C18_23  and  C19_24 
ROOT
HETATM    1  C1  UNL     1       1.395  30.103  26.628  1.00  0.00     0.057 C 
HETATM    2  C2  UNL     1       1.282  31.337  25.778  1.00  0.00    -0.014 A 
HETATM    3  S1  UNL     1      -0.136  32.219  25.450  1.00  0.00    -0.089 SA
HETATM    4  C3  UNL     1       0.518  33.443  24.477  1.00  0.00     0.073 A 
HETATM    5  C12 UNL     1       1.858  33.124  24.430  1.00  0.00     0.033 A 
HETATM    6  C13 UNL     1       2.259  32.036  25.100  1.00  0.00    -0.040 A 
ENDROOT
BRANCH   4   7
HETATM    7  C4  UNL     1      -0.135  34.580  23.773  1.00  0.00     0.262 C 
HETATM    8  O1  UNL     1      -1.332  34.773  24.022  1.00  0.00    -0.267 OA
HETATM    9  N1  UNL     1       0.572  35.391  22.874  1.00  0.00    -0.329 N 
ATOM     10  H1  UNL     1       1.554  35.144  22.749  1.00  0.00     0.168 HD
BRANCH   9  11
HETATM   11  C5  UNL     1       0.136  36.487  22.124  1.00  0.00    -0.004 C 
HETATM   12  C6  UNL     1      -0.746  36.107  20.932  1.00  0.00     0.064 C 
BRANCH  11  13
HETATM   13  C7  UNL     1       0.436  37.902  22.293  1.00  0.00     0.011 C 
HETATM   14  C8  UNL     1       1.860  38.313  21.930  1.00  0.00     0.023 C 
HETATM   15  C9  UNL     1      -0.485  38.764  21.391  1.00  0.00     0.018 C 
HETATM   16  C10 UNL     1      -0.588  39.792  22.497  1.00  0.00     0.022 C 
HETATM   17  C11 UNL     1      -0.065  38.691  23.436  1.00  0.00     0.096 C 
HETATM   18 CL1  UNL     1       1.214  39.443  24.465  1.00  0.00    -0.124 Cl
ENDBRANCH  11  13
ENDBRANCH   9  11
ENDBRANCH   4   7
BRANCH   6  19
HETATM   19  C14 UNL     1       3.677  31.502  25.144  1.00  0.00     0.019 C 
HETATM   20  C15 UNL     1       4.725  32.562  25.119  1.00  0.00     0.010 C 
HETATM   21  C16 UNL     1       6.013  32.004  24.467  1.00  0.00     0.006 C 
HETATM   22  C17 UNL     1       6.180  30.603  24.979  1.00  0.00    -0.005 C 
HETATM   23  C20 UNL     1       5.131  29.745  24.300  1.00  0.00     0.006 C 
HETATM   24  C21 UNL     1       3.913  30.597  23.936  1.00  0.00     0.010 C 
BRANCH  22  25
HETATM   25  C18 UNL     1       7.565  30.065  24.877  1.00  0.00     0.117 C 
BRANCH  25  26
HETATM   26  C19 UNL     1       8.349  30.555  23.728  1.00  0.00     0.172 C 
HETATM   27  O2  UNL     1       9.339  31.315  23.957  1.00  0.00    -0.648 OA
HETATM   28  O3  UNL     1       8.056  30.225  22.410  1.00  0.00    -0.648 OA
ENDBRANCH  25  26
ENDBRANCH  22  25
ENDBRANCH   6  19
TORSDOF 6
ENDMDL
MODEL 5
REMARK VINA RESULT: -8.597685936      0.938      1.259
REMARK  6 active torsions:
REMARK  status: ('A' for Active; 'I' for Inactive)
REMARK    1  A    between atoms: C3_4  and  C4_5 
REMARK       I    between atoms: C4_5  and  N1_7 
REMARK    2  A    between atoms: N1_7  and  C5_9 
REMARK    3  A    between atoms: C5_9  and  C7_11 
REMARK    4  A    between atoms: C13_18  and  C14_19 
REMARK    5  A    between atoms: C17_22  and  C18_23 
REMARK    6  A    between atoms: C18_23  and  C19_24 
ROOT
HETATM    1  C1  UNL     1       4.438  29.538  24.734  1.00  0.00     0.057 C 
HETATM    2  C2  UNL     1       4.005  30.972  24.607  1.00  0.00    -0.014 A 
HETATM    3  S1  UNL     1       2.421  31.573  24.778  1.00  0.00    -0.089 SA
HETATM    4  C3  UNL     1       2.724  33.222  24.528  1.00  0.00     0.073 A 
HETATM    5  C12 UNL     1       4.085  33.263  24.311  1.00  0.00     0.033 A 
HETATM    6  C13 UNL     1       4.752  32.102  24.350  1.00  0.00    -0.040 A 
ENDROOT
BRANCH   4   7
HETATM    7  C4  UNL     1       1.797  34.386  24.487  1.00  0.00     0.262 C 
HETATM    8  O1  UNL     1       0.614  34.164  24.772  1.00  0.00    -0.267 OA
HETATM    9  N1  UNL     1       2.246  35.670  24.144  1.00  0.00    -0.329 N 
ATOM     10  H1  UNL     1       3.241  35.739  23.933  1.00  0.00     0.168 HD
BRANCH   9  11
HETATM   11  C5  UNL     1       1.535  36.870  24.047  1.00  0.00    -0.004 C 
HETATM   12  C6  UNL     1       1.223  37.513  25.401  1.00  0.00     0.064 C 
BRANCH  11  13
HETATM   13  C7  UNL     1       1.027  37.552  22.865  1.00  0.00     0.011 C 
HETATM   14  C8  UNL     1       1.981  38.564  22.239  1.00  0.00     0.023 C 
HETATM   15  C9  UNL     1       0.714  36.529  21.741  1.00  0.00     0.018 C 
HETATM   16  C10 UNL     1      -0.515  37.331  21.369  1.00  0.00     0.022 C 
HETATM   17  C11 UNL     1      -0.373  38.003  22.745  1.00  0.00     0.096 C 
HETATM   18 CL1  UNL     1      -0.586  39.777  22.488  1.00  0.00    -0.124 Cl
ENDBRANCH  11  13
ENDBRANCH   9  11
ENDBRANCH   4   7
BRANCH   6  19
HETATM   19  C14 UNL     1       6.238  31.932  24.105  1.00  0.00     0.019 C 
HETATM   20  C15 UNL     1       7.091  32.886  24.871  1.00  0.00     0.010 C 
HETATM   21  C16 UNL     1       8.403  33.149  24.093  1.00  0.00     0.006 C 
HETATM   22  C17 UNL     1       8.836  31.829  23.526  1.00  0.00    -0.005 C 
HETATM   23  C20 UNL     1       7.898  31.498  22.382  1.00  0.00     0.006 C 
HETATM   24  C21 UNL     1       6.532  32.146  22.621  1.00  0.00     0.010 C 
BRANCH  22  25
HETATM   25  C18 UNL     1      10.280  31.751  23.169  1.00  0.00     0.117 C 
BRANCH  25  26
HETATM   26  C19 UNL     1      10.667  30.582  22.357  1.00  0.00     0.172 C 
HETATM   27  O2  UNL     1      11.395  30.776  21.335  1.00  0.00    -0.648 OA
HETATM   28  O3  UNL     1      10.275  29.283  22.656  1.00  0.00    -0.648 OA
ENDBRANCH  25  26
ENDBRANCH  22  25
ENDBRANCH   6  19
TORSDOF 6
ENDMDL
