MODEL 1
REMARK VINA RESULT: -8.548788669      0.000      0.000
REMARK  5 active torsions:
REMARK  status: ('A' for Active; 'I' for Inactive)
REMARK    1  A    between atoms: C2_2  and  N1_4 
REMARK       I    between atoms: C4_6  and  N2_7 
REMARK       I    between atoms: C4_6  and  N4_21 
REMARK    2  A    between atoms: N2_7  and  C5_9 
REMARK    3  A    between atoms: C10_15  and  N3_16 
REMARK    4  A    between atoms: N4_21  and  C15_23 
REMARK    5  A    between atoms: N5_26  and  C18_27 
ROOT
HETATM    1  N1  UNL     1       6.628  34.469  24.872  1.00  0.00    -0.222 N 
ATOM      2  H1  UNL     1       7.403  33.882  24.564  1.00  0.00     0.178 HD
HETATM    3  C4  UNL     1       5.472  34.249  24.353  1.00  0.00     0.675 C 
HETATM    4  N2  UNL     1       5.214  33.240  23.381  1.00  0.00    -0.190 N 
ATOM      5  H2  UNL     1       5.271  33.441  22.383  1.00  0.00     0.184 HD
HETATM    6  N4  UNL     1       4.387  35.056  24.772  1.00  0.00    -0.222 N 
ATOM      7  H4  UNL     1       4.178  35.124  25.768  1.00  0.00     0.178 HD
ENDROOT
BRANCH   1   8
HETATM    8  C2  UNL     1       6.907  35.472  25.845  1.00  0.00     0.091 C 
HETATM    9  C1  UNL     1       7.800  36.580  25.296  1.00  0.00     0.032 C 
HETATM   10  C3  UNL     1       7.430  34.938  27.149  1.00  0.00     0.032 C 
ENDBRANCH   1   8
BRANCH   4  11
HETATM   11  C5  UNL     1       4.876  31.961  23.847  1.00  0.00     0.077 A 
HETATM   12  C6  UNL     1       3.653  31.694  24.450  1.00  0.00     0.056 A 
HETATM   13  C7  UNL     1       3.269  30.462  24.908  1.00  0.00     0.036 A 
HETATM   14 CL1  UNL     1       1.695  30.201  25.664  1.00  0.00    -0.084 Cl
HETATM   15  C8  UNL     1       4.144  29.413  24.768  1.00  0.00     0.026 A 
HETATM   16  C9  UNL     1       5.367  29.640  24.175  1.00  0.00     0.033 A 
HETATM   17  C10 UNL     1       5.741  30.917  23.711  1.00  0.00     0.058 A 
BRANCH  17  18
HETATM   18  N3  UNL     1       7.021  31.037  23.137  1.00  0.00    -0.379 N 
HETATM   19  C11 UNL     1       7.419  31.300  21.769  1.00  0.00     0.123 C 
HETATM   20  C12 UNL     1       8.660  32.159  21.849  1.00  0.00     0.021 C 
HETATM   21  C13 UNL     1       8.939  32.235  23.331  1.00  0.00     0.021 C 
HETATM   22  C14 UNL     1       8.328  30.935  23.816  1.00  0.00     0.123 C 
ENDBRANCH  17  18
ENDBRANCH   4  11
BRANCH   6  23
HETATM   23  C15 UNL     1       3.568  35.786  23.833  1.00  0.00     0.102 C 
HETATM   24  C16 UNL     1       2.203  35.189  23.739  1.00  0.00     0.056 C 
HETATM   25  C17 UNL     1       1.135  36.026  24.399  1.00  0.00     0.275 C 
HETATM   26  N5  UNL     1       1.139  37.392  23.976  1.00  0.00     0.092 N 
HETATM   27  C21 UNL     1       2.349  37.839  23.378  1.00  0.00     0.275 C 
HETATM   28  C22 UNL     1       3.511  37.263  24.159  1.00  0.00     0.056 C 
BRANCH  26  29
HETATM   29  C18 UNL     1      -0.048  37.775  23.246  1.00  0.00     0.215 C 
HETATM   30  C19 UNL     1      -0.010  39.305  23.121  1.00  0.00     0.042 C 
HETATM   31  C20 UNL     1      -0.107  37.211  21.866  1.00  0.00     0.042 C 
ENDBRANCH  26  29
ENDBRANCH   6  23
TORSDOF 5
ENDMDL
MODEL 2
REMARK VINA RESULT: -8.397233999      2.717      6.708
REMARK  5 active torsions:
REMARK  status: ('A' for Active; 'I' for Inactive)
REMARK    1  A    between atoms: C2_2  and  N1_4 
REMARK       I    between atoms: C4_6  and  N2_7 
REMARK       I    between atoms: C4_6  and  N4_21 
REMARK    2  A    between atoms: N2_7  and  C5_9 
REMARK    3  A    between atoms: C10_15  and  N3_16 
REMARK    4  A    between atoms: N4_21  and  C15_23 
REMARK    5  A    between atoms: N5_26  and  C18_27 
ROOT
HETATM    1  N1  UNL     1       2.997  36.952  25.630  1.00  0.00    -0.222 N 
ATOM      2  H1  UNL     1       2.131  37.246  26.080  1.00  0.00     0.178 HD
HETATM    3  C4  UNL     1       3.055  35.748  25.180  1.00  0.00     0.675 C 
HETATM    4  N2  UNL     1       1.988  34.810  25.273  1.00  0.00    -0.190 N 
ATOM      5  H2  UNL     1       1.912  34.172  26.065  1.00  0.00     0.184 HD
HETATM    6  N4  UNL     1       4.252  35.327  24.552  1.00  0.00    -0.222 N 
ATOM      7  H4  UNL     1       4.623  35.876  23.776  1.00  0.00     0.178 HD
ENDROOT
BRANCH   1   8
HETATM    8  C2  UNL     1       4.054  37.905  25.546  1.00  0.00     0.091 C 
HETATM    9  C1  UNL     1       4.399  38.508  26.904  1.00  0.00     0.032 C 
HETATM   10  C3  UNL     1       3.842  38.971  24.508  1.00  0.00     0.032 C 
ENDBRANCH   1   8
BRANCH   4  11
HETATM   11  C5  UNL     1       1.044  34.796  24.235  1.00  0.00     0.077 A 
HETATM   12  C6  UNL     1       0.859  35.885  23.391  1.00  0.00     0.056 A 
HETATM   13  C7  UNL     1      -0.036  35.917  22.356  1.00  0.00     0.036 A 
HETATM   14 CL1  UNL     1      -0.215  37.339  21.325  1.00  0.00    -0.084 Cl
HETATM   15  C8  UNL     1      -0.809  34.805  22.128  1.00  0.00     0.026 A 
HETATM   16  C9  UNL     1      -0.653  33.706  22.945  1.00  0.00     0.033 A 
HETATM   17  C10 UNL     1       0.275  33.695  24.005  1.00  0.00     0.058 A 
BRANCH  17  18
HETATM   18  N3  UNL     1       0.338  32.525  24.786  1.00  0.00    -0.379 N 
HETATM   19  C11 UNL     1       1.098  31.306  24.597  1.00  0.00     0.123 C 
HETATM   20  C12 UNL     1       1.500  30.844  25.978  1.00  0.00     0.021 C 
HETATM   21  C13 UNL     1       0.816  31.831  26.893  1.00  0.00     0.021 C 
HETATM   22  C14 UNL     1      -0.373  32.244  26.048  1.00  0.00     0.123 C 
ENDBRANCH  17  18
ENDBRANCH   4  11
BRANCH   6  23
HETATM   23  C15 UNL     1       4.964  34.144  24.976  1.00  0.00     0.102 C 
HETATM   24  C16 UNL     1       4.177  32.911  24.677  1.00  0.00     0.056 C 
HETATM   25  C17 UNL     1       4.737  32.106  23.531  1.00  0.00     0.275 C 
HETATM   26  N5  UNL     1       6.132  31.817  23.664  1.00  0.00     0.092 N 
HETATM   27  C21 UNL     1       6.841  32.656  24.566  1.00  0.00     0.275 C 
HETATM   28  C22 UNL     1       6.356  34.077  24.382  1.00  0.00     0.056 C 
BRANCH  26  29
HETATM   29  C18 UNL     1       6.418  30.410  23.829  1.00  0.00     0.215 C 
HETATM   30  C19 UNL     1       7.365  30.294  25.032  1.00  0.00     0.042 C 
HETATM   31  C20 UNL     1       5.210  29.586  24.124  1.00  0.00     0.042 C 
ENDBRANCH  26  29
ENDBRANCH   6  23
TORSDOF 5
ENDMDL
MODEL 3
REMARK VINA RESULT: -8.279122995      2.424      6.474
REMARK  5 active torsions:
REMARK  status: ('A' for Active; 'I' for Inactive)
REMARK    1  A    between atoms: C2_2  and  N1_4 
REMARK       I    between atoms: C4_6  and  N2_7 
REMARK       I    between atoms: C4_6  and  N4_21 
REMARK    2  A    between atoms: N2_7  and  C5_9 
REMARK    3  A    between atoms: C10_15  and  N3_16 
REMARK    4  A    between atoms: N4_21  and  C15_23 
REMARK    5  A    between atoms: N5_26  and  C18_27 
ROOT
HETATM    1  N1  UNL     1       3.390  31.579  24.385  1.00  0.00    -0.222 N 
ATOM      2  H1  UNL     1       2.888  31.183  23.591  1.00  0.00     0.178 HD
HETATM    3  C4  UNL     1       3.043  32.752  24.784  1.00  0.00     0.675 C 
HETATM    4  N2  UNL     1       2.005  33.523  24.186  1.00  0.00    -0.190 N 
ATOM      5  H2  UNL     1       2.204  34.185  23.436  1.00  0.00     0.184 HD
HETATM    6  N4  UNL     1       3.731  33.313  25.886  1.00  0.00    -0.222 N 
ATOM      7  H4  UNL     1       3.784  32.785  26.758  1.00  0.00     0.178 HD
ENDROOT
BRANCH   1   8
HETATM    8  C2  UNL     1       4.425  30.793  24.970  1.00  0.00     0.091 C 
HETATM    9  C1  UNL     1       5.813  31.353  24.679  1.00  0.00     0.032 C 
HETATM   10  C3  UNL     1       4.343  29.328  24.646  1.00  0.00     0.032 C 
ENDBRANCH   1   8
BRANCH   4  11
HETATM   11  C5  UNL     1       0.700  33.338  24.667  1.00  0.00     0.077 A 
HETATM   12  C6  UNL     1       0.437  32.633  25.835  1.00  0.00     0.056 A 
HETATM   13  C7  UNL     1      -0.814  32.438  26.355  1.00  0.00     0.036 A 
HETATM   14 CL1  UNL     1      -1.069  31.528  27.847  1.00  0.00    -0.084 Cl
HETATM   15  C8  UNL     1      -1.889  32.968  25.684  1.00  0.00     0.026 A 
HETATM   16  C9  UNL     1      -1.666  33.674  24.522  1.00  0.00     0.033 A 
HETATM   17  C10 UNL     1      -0.369  33.863  24.005  1.00  0.00     0.058 A 
BRANCH  17  18
HETATM   18  N3  UNL     1      -0.260  34.586  22.802  1.00  0.00    -0.379 N 
HETATM   19  C11 UNL     1      -0.971  34.440  21.548  1.00  0.00     0.123 C 
HETATM   20  C12 UNL     1      -1.156  35.838  21.004  1.00  0.00     0.021 C 
HETATM   21  C13 UNL     1      -0.409  36.700  21.992  1.00  0.00     0.021 C 
HETATM   22  C14 UNL     1       0.630  35.727  22.511  1.00  0.00     0.123 C 
ENDBRANCH  17  18
ENDBRANCH   4  11
BRANCH   6  23
HETATM   23  C15 UNL     1       4.361  34.611  25.816  1.00  0.00     0.102 C 
HETATM   24  C16 UNL     1       5.603  34.647  26.644  1.00  0.00     0.056 C 
HETATM   25  C17 UNL     1       6.870  34.655  25.824  1.00  0.00     0.275 C 
HETATM   26  N5  UNL     1       6.887  35.665  24.811  1.00  0.00     0.092 N 
HETATM   27  C21 UNL     1       5.613  36.183  24.450  1.00  0.00     0.275 C 
HETATM   28  C22 UNL     1       4.628  35.036  24.388  1.00  0.00     0.056 C 
BRANCH  26  29
HETATM   29  C18 UNL     1       7.891  36.682  25.024  1.00  0.00     0.215 C 
HETATM   30  C19 UNL     1       7.149  38.025  25.076  1.00  0.00     0.042 C 
HETATM   31  C20 UNL     1       8.634  36.527  26.308  1.00  0.00     0.042 C 
ENDBRANCH  26  29
ENDBRANCH   6  23
TORSDOF 5
ENDMDL
MODEL 4
REMARK VINA RESULT: -8.256545481      2.485      7.854
REMARK  5 active torsions:
REMARK  status: ('A' for Active; 'I' for Inactive)
REMARK    1  A    between atoms: C2_2  and  N1_4 
REMARK       I    between atoms: C4_6  and  N2_7 
REMARK       I    between atoms: C4_6  and  N4_21 
REMARK    2  A    between atoms: N2_7  and  C5_9 
REMARK    3  A    between atoms: C10_15  and  N3_16 
REMARK    4  A    between atoms: N4_21  and  C15_23 
REMARK    5  A    between atoms: N5_26  and  C18_27 
ROOT
HETATM    1  N1  UNL     1       1.887  32.905  25.020  1.00  0.00    -0.222 N 
ATOM      2  H1  UNL     1       0.939  33.101  24.698  1.00  0.00     0.178 HD
HETATM    3  C4  UNL     1       2.813  33.732  24.681  1.00  0.00     0.675 C 
HETATM    4  N2  UNL     1       2.593  34.895  23.890  1.00  0.00    -0.190 N 
ATOM      5  H2  UNL     1       2.686  34.869  22.874  1.00  0.00     0.184 HD
HETATM    6  N4  UNL     1       4.133  33.473  25.122  1.00  0.00    -0.222 N 
ATOM      7  H4  UNL     1       4.304  33.338  26.119  1.00  0.00     0.178 HD
ENDROOT
BRANCH   1   8
HETATM    8  C2  UNL     1       2.087  31.736  25.811  1.00  0.00     0.091 C 
HETATM    9  C1  UNL     1       2.196  30.474  24.962  1.00  0.00     0.032 C 
HETATM   10  C3  UNL     1       1.092  31.568  26.924  1.00  0.00     0.032 C 
ENDBRANCH   1   8
BRANCH   4  11
HETATM   11  C5  UNL     1       2.245  36.079  24.558  1.00  0.00     0.077 A 
HETATM   12  C6  UNL     1       3.133  36.742  25.395  1.00  0.00     0.056 A 
HETATM   13  C7  UNL     1       2.849  37.906  26.058  1.00  0.00     0.036 A 
HETATM   14 CL1  UNL     1       4.033  38.691  27.107  1.00  0.00    -0.084 Cl
HETATM   15  C8  UNL     1       1.605  38.463  25.892  1.00  0.00     0.026 A 
HETATM   16  C9  UNL     1       0.697  37.833  25.068  1.00  0.00     0.033 A 
HETATM   17  C10 UNL     1       1.012  36.634  24.396  1.00  0.00     0.058 A 
BRANCH  17  18
HETATM   18  N3  UNL     1       0.002  36.069  23.594  1.00  0.00    -0.379 N 
HETATM   19  C11 UNL     1      -0.387  36.355  22.228  1.00  0.00     0.123 C 
HETATM   20  C12 UNL     1      -0.793  35.032  21.621  1.00  0.00     0.021 C 
HETATM   21  C13 UNL     1      -0.694  34.069  22.779  1.00  0.00     0.021 C 
HETATM   22  C14 UNL     1      -0.940  34.992  23.956  1.00  0.00     0.123 C 
ENDBRANCH  17  18
ENDBRANCH   4  11
BRANCH   6  23
HETATM   23  C15 UNL     1       5.246  33.393  24.205  1.00  0.00     0.102 C 
HETATM   24  C16 UNL     1       6.540  33.611  24.916  1.00  0.00     0.056 C 
HETATM   25  C17 UNL     1       7.358  32.353  25.074  1.00  0.00     0.275 C 
HETATM   26  N5  UNL     1       7.547  31.639  23.848  1.00  0.00     0.092 N 
HETATM   27  C21 UNL     1       6.623  31.953  22.814  1.00  0.00     0.275 C 
HETATM   28  C22 UNL     1       5.247  32.094  23.427  1.00  0.00     0.056 C 
BRANCH  26  29
HETATM   29  C18 UNL     1       8.923  31.599  23.408  1.00  0.00     0.215 C 
HETATM   30  C19 UNL     1       9.368  30.133  23.493  1.00  0.00     0.042 C 
HETATM   31  C20 UNL     1       9.111  32.047  21.997  1.00  0.00     0.042 C 
ENDBRANCH  26  29
ENDBRANCH   6  23
TORSDOF 5
ENDMDL
MODEL 5
REMARK VINA RESULT: -8.171816465      1.251      1.478
REMARK  5 active torsions:
REMARK  status: ('A' for Active; 'I' for Inactive)
REMARK    1  A    between atoms: C2_2  and  N1_4 
REMARK       I    between atoms: C4_6  and  N2_7 
REMARK       I    between atoms: C4_6  and  N4_21 
REMARK    2  A    between atoms: N2_7  and  C5_9 
REMARK    3  A    between atoms: C10_15  and  N3_16 
REMARK    4  A    between atoms: N4_21  and  C15_23 
REMARK    5  A    between atoms: N5_26  and  C18_27 
ROOT
HETATM    1  N1  UNL     1       5.234  35.138  25.685  1.00  0.00    -0.222 N 
ATOM      2  H1  UNL     1       6.198  34.810  25.738  1.00  0.00     0.178 HD
HETATM    3  C4  UNL     1       4.500  34.679  24.734  1.00  0.00     0.675 C 
HETATM    4  N2  UNL     1       4.952  33.744  23.759  1.00  0.00    -0.190 N 
ATOM      5  H2  UNL     1       5.349  34.055  22.873  1.00  0.00     0.184 HD
HETATM    6  N4  UNL     1       3.160  35.126  24.650  1.00  0.00    -0.222 N 
ATOM      7  H4  UNL     1       2.555  35.033  25.466  1.00  0.00     0.178 HD
ENDROOT
BRANCH   1   8
HETATM    8  C2  UNL     1       4.801  36.073  26.670  1.00  0.00     0.091 C 
HETATM    9  C1  UNL     1       5.157  37.510  26.302  1.00  0.00     0.032 C 
HETATM   10  C3  UNL     1       5.235  35.739  28.070  1.00  0.00     0.032 C 
ENDBRANCH   1   8
BRANCH   4  11
HETATM   11  C5  UNL     1       4.829  32.379  24.062  1.00  0.00     0.077 A 
HETATM   12  C6  UNL     1       3.659  31.843  24.586  1.00  0.00     0.056 A 
HETATM   13  C7  UNL     1       3.483  30.518  24.884  1.00  0.00     0.036 A 
HETATM   14 CL1  UNL     1       1.964  29.909  25.549  1.00  0.00    -0.084 Cl
HETATM   15  C8  UNL     1       4.525  29.654  24.655  1.00  0.00     0.026 A 
HETATM   16  C9  UNL     1       5.701  30.151  24.136  1.00  0.00     0.033 A 
HETATM   17  C10 UNL     1       5.861  31.519  23.837  1.00  0.00     0.058 A 
BRANCH  17  18
HETATM   18  N3  UNL     1       7.110  31.918  23.326  1.00  0.00    -0.379 N 
HETATM   19  C11 UNL     1       8.173  32.693  23.935  1.00  0.00     0.123 C 
HETATM   20  C12 UNL     1       9.468  32.106  23.423  1.00  0.00     0.021 C 
HETATM   21  C13 UNL     1       9.012  31.058  22.437  1.00  0.00     0.021 C 
HETATM   22  C14 UNL     1       7.677  31.624  21.995  1.00  0.00     0.123 C 
ENDBRANCH  17  18
ENDBRANCH   4  11
BRANCH   6  23
HETATM   23  C15 UNL     1       2.621  35.709  23.443  1.00  0.00     0.102 C 
HETATM   24  C16 UNL     1       1.147  35.491  23.357  1.00  0.00     0.056 C 
HETATM   25  C17 UNL     1       0.340  36.742  23.604  1.00  0.00     0.275 C 
HETATM   26  N5  UNL     1       0.752  37.854  22.804  1.00  0.00     0.092 N 
HETATM   27  C21 UNL     1       2.062  37.756  22.259  1.00  0.00     0.275 C 
HETATM   28  C22 UNL     1       2.978  37.175  23.313  1.00  0.00     0.056 C 
BRANCH  26  29
HETATM   29  C18 UNL     1      -0.245  38.282  21.850  1.00  0.00     0.215 C 
HETATM   30  C19 UNL     1      -0.632  39.717  22.235  1.00  0.00     0.042 C 
HETATM   31  C20 UNL     1       0.249  38.310  20.443  1.00  0.00     0.042 C 
ENDBRANCH  26  29
ENDBRANCH   6  23
TORSDOF 5
ENDMDL
