MODEL 1
REMARK VINA RESULT: -8.153776400      0.000      0.000
REMARK  5 active torsions:
REMARK  status: ('A' for Active; 'I' for Inactive)
REMARK    1  A    between atoms: N1_2  and  C2_5 
REMARK    2  A    between atoms: N2_9  and  C6_10 
REMARK    3  A    between atoms: C6_10  and  C7_11 
REMARK    4  A    between atoms: C10_14  and  N3_15 
REMARK       I    between atoms: N3_15  and  C11_17 
REMARK    5  A    between atoms: C11_17  and  C12_19 
ROOT
HETATM    1  C7  UNL     1      72.583  38.819  26.261  1.00  0.00    -0.028 A 
HETATM    2  C8  UNL     1      73.696  38.148  25.820  1.00  0.00     0.011 A 
HETATM    3  C9  UNL     1      73.582  36.822  25.385  1.00  0.00     0.032 A 
HETATM    4  C10 UNL     1      72.399  36.125  25.369  1.00  0.00     0.056 A 
HETATM    5  C22 UNL     1      71.273  36.840  25.829  1.00  0.00     0.061 A 
HETATM    6 CL1  UNL     1      69.746  36.002  25.829  1.00  0.00    -0.082 Cl
HETATM    7  C23 UNL     1      71.384  38.141  26.256  1.00  0.00     0.035 A 
ENDROOT
BRANCH   4   8
HETATM    8  N3  UNL     1      72.259  34.793  24.940  1.00  0.00    -0.325 N 
HETATM    9  C11 UNL     1      72.812  33.659  25.570  1.00  0.00     0.231 C 
HETATM   10  O1  UNL     1      73.514  33.618  26.597  1.00  0.00    -0.272 OA
ATOM     11  H3  UNL     1      71.708  34.632  24.097  1.00  0.00     0.169 HD
BRANCH   9  12
HETATM   12  C12 UNL     1      72.555  32.283  24.964  1.00  0.00     0.042 C 
HETATM   13  C13 UNL     1      72.447  32.547  23.460  1.00  0.00     0.024 C 
HETATM   14  C14 UNL     1      72.204  31.253  22.755  1.00  0.00    -0.013 C 
HETATM   15  C15 UNL     1      73.335  30.287  23.023  1.00  0.00     0.009 C 
HETATM   16  C19 UNL     1      70.922  30.658  23.255  1.00  0.00     0.009 C 
HETATM   17  C16 UNL     1      73.467  30.081  24.496  1.00  0.00    -0.013 C 
HETATM   18  C17 UNL     1      72.193  29.489  25.046  1.00  0.00     0.009 C 
HETATM   19  C21 UNL     1      73.718  31.380  25.229  1.00  0.00     0.024 C 
HETATM   20  C18 UNL     1      71.025  30.407  24.744  1.00  0.00    -0.013 C 
HETATM   21  C20 UNL     1      71.249  31.721  25.416  1.00  0.00     0.024 C 
ENDBRANCH   9  12
ENDBRANCH   4   8
BRANCH   1  22
HETATM   22  C6  UNL     1      72.688  40.209  26.718  1.00  0.00     0.311 C 
BRANCH  22  23
HETATM   23  N2  UNL     1      73.918  40.865  26.325  1.00  0.00     0.094 N 
HETATM   24  C5  UNL     1      73.751  41.596  25.082  1.00  0.00     0.273 C 
HETATM   25  C4  UNL     1      74.947  42.474  24.792  1.00  0.00     0.032 C 
HETATM   26  C3  UNL     1      76.085  42.207  25.752  1.00  0.00     0.036 C 
HETATM   27  C2  UNL     1      75.627  42.316  27.173  1.00  0.00     0.213 C 
HETATM   28  C24 UNL     1      74.182  41.898  27.338  1.00  0.00     0.305 C 
BRANCH  27  29
HETATM   29  N1  UNL     1      76.413  41.453  28.016  1.00  0.00    -0.073 N 
HETATM   30  C1  UNL     1      77.202  40.492  27.296  1.00  0.00     0.267 C 
ATOM     31  H12 UNL     1      75.821  40.987  28.704  1.00  0.00     0.277 HD
ATOM     32  H11 UNL     1      77.003  42.004  28.640  1.00  0.00     0.277 HD
ENDBRANCH  27  29
ENDBRANCH  22  23
ENDBRANCH   1  22
TORSDOF 5
ENDMDL
MODEL 2
REMARK VINA RESULT: -8.150071827      0.142      1.367
REMARK  5 active torsions:
REMARK  status: ('A' for Active; 'I' for Inactive)
REMARK    1  A    between atoms: N1_2  and  C2_5 
REMARK    2  A    between atoms: N2_9  and  C6_10 
REMARK    3  A    between atoms: C6_10  and  C7_11 
REMARK    4  A    between atoms: C10_14  and  N3_15 
REMARK       I    between atoms: N3_15  and  C11_17 
REMARK    5  A    between atoms: C11_17  and  C12_19 
ROOT
HETATM    1  C7  UNL     1      72.697  38.834  26.196  1.00  0.00    -0.028 A 
HETATM    2  C8  UNL     1      73.807  38.218  25.675  1.00  0.00     0.011 A 
HETATM    3  C9  UNL     1      73.716  36.903  25.202  1.00  0.00     0.032 A 
HETATM    4  C10 UNL     1      72.559  36.164  25.226  1.00  0.00     0.056 A 
HETATM    5  C22 UNL     1      71.435  36.824  25.767  1.00  0.00     0.061 A 
HETATM    6 CL1  UNL     1      69.940  35.930  25.820  1.00  0.00    -0.082 Cl
HETATM    7  C23 UNL     1      71.523  38.114  26.231  1.00  0.00     0.035 A 
ENDROOT
BRANCH   4   8
HETATM    8  N3  UNL     1      72.443  34.842  24.761  1.00  0.00    -0.325 N 
HETATM    9  C11 UNL     1      72.851  33.683  25.452  1.00  0.00     0.231 C 
HETATM   10  O1  UNL     1      73.381  33.608  26.576  1.00  0.00    -0.272 OA
ATOM     11  H3  UNL     1      72.026  34.709  23.839  1.00  0.00     0.169 HD
BRANCH   9  12
HETATM   12  C12 UNL     1      72.645  32.323  24.793  1.00  0.00     0.042 C 
HETATM   13  C13 UNL     1      71.317  31.823  25.364  1.00  0.00     0.024 C 
HETATM   14  C14 UNL     1      71.005  30.487  24.773  1.00  0.00    -0.013 C 
HETATM   15  C15 UNL     1      70.907  30.587  23.269  1.00  0.00     0.009 C 
HETATM   16  C19 UNL     1      72.100  29.528  25.132  1.00  0.00     0.009 C 
HETATM   17  C16 UNL     1      72.189  31.129  22.728  1.00  0.00    -0.013 C 
HETATM   18  C17 UNL     1      73.324  30.197  23.071  1.00  0.00     0.009 C 
HETATM   19  C21 UNL     1      72.521  32.485  23.312  1.00  0.00     0.024 C 
HETATM   20  C18 UNL     1      73.415  30.028  24.575  1.00  0.00    -0.013 C 
HETATM   21  C20 UNL     1      73.703  31.353  25.201  1.00  0.00     0.024 C 
ENDBRANCH   9  12
ENDBRANCH   4   8
BRANCH   1  22
HETATM   22  C6  UNL     1      72.778  40.212  26.693  1.00  0.00     0.311 C 
BRANCH  22  23
HETATM   23  N2  UNL     1      73.996  40.900  26.319  1.00  0.00     0.094 N 
HETATM   24  C5  UNL     1      73.818  41.656  25.092  1.00  0.00     0.273 C 
HETATM   25  C4  UNL     1      74.998  42.563  24.826  1.00  0.00     0.032 C 
HETATM   26  C3  UNL     1      76.138  42.297  25.783  1.00  0.00     0.036 C 
HETATM   27  C2  UNL     1      75.674  42.365  27.204  1.00  0.00     0.213 C 
HETATM   28  C24 UNL     1      74.237  41.915  27.355  1.00  0.00     0.305 C 
BRANCH  27  29
HETATM   29  N1  UNL     1      76.475  41.499  28.031  1.00  0.00    -0.073 N 
HETATM   30  C1  UNL     1      77.228  40.521  27.295  1.00  0.00     0.267 C 
ATOM     31  H12 UNL     1      75.898  41.047  28.741  1.00  0.00     0.277 HD
ATOM     32  H11 UNL     1      77.090  42.047  28.631  1.00  0.00     0.277 HD
ENDBRANCH  27  29
ENDBRANCH  22  23
ENDBRANCH   1  22
TORSDOF 5
ENDMDL
MODEL 3
REMARK VINA RESULT: -8.038864975      1.590      2.874
REMARK  5 active torsions:
REMARK  status: ('A' for Active; 'I' for Inactive)
REMARK    1  A    between atoms: N1_2  and  C2_5 
REMARK    2  A    between atoms: N2_9  and  C6_10 
REMARK    3  A    between atoms: C6_10  and  C7_11 
REMARK    4  A    between atoms: C10_14  and  N3_15 
REMARK       I    between atoms: N3_15  and  C11_17 
REMARK    5  A    between atoms: C11_17  and  C12_19 
ROOT
HETATM    1  C7  UNL     1      73.293  38.818  25.878  1.00  0.00    -0.028 A 
HETATM    2  C8  UNL     1      74.307  38.086  25.312  1.00  0.00     0.011 A 
HETATM    3  C9  UNL     1      74.081  36.756  24.939  1.00  0.00     0.032 A 
HETATM    4  C10 UNL     1      72.879  36.112  25.106  1.00  0.00     0.056 A 
HETATM    5  C22 UNL     1      71.857  36.889  25.691  1.00  0.00     0.061 A 
HETATM    6 CL1  UNL     1      70.311  36.120  25.925  1.00  0.00    -0.082 Cl
HETATM    7  C23 UNL     1      72.078  38.195  26.056  1.00  0.00     0.035 A 
ENDROOT
BRANCH   4   8
HETATM    8  N3  UNL     1      72.628  34.777  24.743  1.00  0.00    -0.325 N 
HETATM    9  C11 UNL     1      73.002  33.635  25.481  1.00  0.00     0.231 C 
HETATM   10  O1  UNL     1      73.612  33.589  26.565  1.00  0.00    -0.272 OA
ATOM     11  H3  UNL     1      72.131  34.620  23.866  1.00  0.00     0.169 HD
BRANCH   9  12
HETATM   12  C12 UNL     1      72.644  32.257  24.934  1.00  0.00     0.042 C 
HETATM   13  C13 UNL     1      72.526  32.469  23.423  1.00  0.00     0.024 C 
HETATM   14  C14 UNL     1      72.186  31.168  22.774  1.00  0.00    -0.013 C 
HETATM   15  C15 UNL     1      73.255  30.140  23.062  1.00  0.00     0.009 C 
HETATM   16  C19 UNL     1      70.876  30.680  23.317  1.00  0.00     0.009 C 
HETATM   17  C16 UNL     1      73.400  29.983  24.541  1.00  0.00    -0.013 C 
HETATM   18  C17 UNL     1      72.100  29.499  25.133  1.00  0.00     0.009 C 
HETATM   19  C21 UNL     1      73.749  31.290  25.217  1.00  0.00     0.024 C 
HETATM   20  C18 UNL     1      70.990  30.480  24.813  1.00  0.00    -0.013 C 
HETATM   21  C20 UNL     1      71.312  31.802  25.429  1.00  0.00     0.024 C 
ENDBRANCH   9  12
ENDBRANCH   4   8
BRANCH   1  22
HETATM   22  C6  UNL     1      73.517  40.213  26.271  1.00  0.00     0.311 C 
BRANCH  22  23
HETATM   23  N2  UNL     1      72.413  40.803  26.999  1.00  0.00     0.094 N 
HETATM   24  C5  UNL     1      72.870  41.861  27.882  1.00  0.00     0.273 C 
HETATM   25  C4  UNL     1      71.708  42.638  28.460  1.00  0.00     0.032 C 
HETATM   26  C3  UNL     1      70.382  41.988  28.138  1.00  0.00     0.036 C 
HETATM   27  C2  UNL     1      70.239  41.756  26.667  1.00  0.00     0.213 C 
HETATM   28  C24 UNL     1      71.570  41.481  26.002  1.00  0.00     0.305 C 
BRANCH  27  29
HETATM   29  N1  UNL     1      69.402  40.609  26.423  1.00  0.00    -0.073 N 
HETATM   30  C1  UNL     1      69.114  40.379  25.035  1.00  0.00     0.267 C 
ATOM     31  H12 UNL     1      68.538  40.675  26.962  1.00  0.00     0.277 HD
ATOM     32  H11 UNL     1      69.807  39.775  26.848  1.00  0.00     0.277 HD
ENDBRANCH  27  29
ENDBRANCH  22  23
ENDBRANCH   1  22
TORSDOF 5
ENDMDL
MODEL 4
REMARK VINA RESULT: -7.989926412      2.910      4.046
REMARK  5 active torsions:
REMARK  status: ('A' for Active; 'I' for Inactive)
REMARK    1  A    between atoms: N1_2  and  C2_5 
REMARK    2  A    between atoms: N2_9  and  C6_10 
REMARK    3  A    between atoms: C6_10  and  C7_11 
REMARK    4  A    between atoms: C10_14  and  N3_15 
REMARK       I    between atoms: N3_15  and  C11_17 
REMARK    5  A    between atoms: C11_17  and  C12_19 
ROOT
HETATM    1  C7  UNL     1      71.160  38.978  26.690  1.00  0.00    -0.028 A 
HETATM    2  C8  UNL     1      70.100  38.179  26.340  1.00  0.00     0.011 A 
HETATM    3  C9  UNL     1      70.334  36.887  25.853  1.00  0.00     0.032 A 
HETATM    4  C10 UNL     1      71.588  36.349  25.695  1.00  0.00     0.056 A 
HETATM    5  C22 UNL     1      72.656  37.194  26.062  1.00  0.00     0.061 A 
HETATM    6 CL1  UNL     1      74.268  36.558  25.882  1.00  0.00    -0.082 Cl
HETATM    7  C23 UNL     1      72.427  38.461  26.541  1.00  0.00     0.035 A 
ENDROOT
BRANCH   4   8
HETATM    8  N3  UNL     1      71.849  35.056  25.205  1.00  0.00    -0.325 N 
HETATM    9  C11 UNL     1      71.456  33.846  25.813  1.00  0.00     0.231 C 
HETATM   10  O1  UNL     1      70.823  33.691  26.873  1.00  0.00    -0.272 OA
ATOM     11  H3  UNL     1      72.370  34.988  24.331  1.00  0.00     0.169 HD
BRANCH   9  12
HETATM   12  C12 UNL     1      71.826  32.530  25.137  1.00  0.00     0.042 C 
HETATM   13  C13 UNL     1      71.761  32.843  23.640  1.00  0.00     0.024 C 
HETATM   14  C14 UNL     1      72.120  31.615  22.871  1.00  0.00    -0.013 C 
HETATM   15  C15 UNL     1      73.512  31.154  23.234  1.00  0.00     0.009 C 
HETATM   16  C19 UNL     1      71.141  30.529  23.201  1.00  0.00     0.009 C 
HETATM   17  C16 UNL     1      73.579  30.905  24.705  1.00  0.00    -0.013 C 
HETATM   18  C17 UNL     1      72.603  29.821  25.086  1.00  0.00     0.009 C 
HETATM   19  C21 UNL     1      73.223  32.140  25.504  1.00  0.00     0.024 C 
HETATM   20  C18 UNL     1      71.198  30.226  24.682  1.00  0.00    -0.013 C 
HETATM   21  C20 UNL     1      70.817  31.468  25.418  1.00  0.00     0.024 C 
ENDBRANCH   9  12
ENDBRANCH   4   8
BRANCH   1  22
HETATM   22  C6  UNL     1      70.928  40.333  27.204  1.00  0.00     0.311 C 
BRANCH  22  23
HETATM   23  N2  UNL     1      70.455  40.369  28.571  1.00  0.00     0.094 N 
HETATM   24  C5  UNL     1      71.173  39.420  29.403  1.00  0.00     0.273 C 
HETATM   25  C4  UNL     1      70.858  39.620  30.868  1.00  0.00     0.032 C 
HETATM   26  C3  UNL     1      69.729  40.606  31.070  1.00  0.00     0.036 C 
HETATM   27  C2  UNL     1      70.008  41.896  30.365  1.00  0.00     0.213 C 
HETATM   28  C24 UNL     1      70.820  41.690  29.105  1.00  0.00     0.305 C 
BRANCH  27  29
HETATM   29  N1  UNL     1      68.773  42.524  29.972  1.00  0.00    -0.073 N 
HETATM   30  C1  UNL     1      67.936  42.910  31.074  1.00  0.00     0.267 C 
ATOM     31  H12 UNL     1      68.258  41.928  29.323  1.00  0.00     0.277 HD
ATOM     32  H11 UNL     1      68.956  43.323  29.365  1.00  0.00     0.277 HD
ENDBRANCH  27  29
ENDBRANCH  22  23
ENDBRANCH   1  22
TORSDOF 5
ENDMDL
MODEL 5
REMARK VINA RESULT: -7.917076336      2.695      3.764
REMARK  5 active torsions:
REMARK  status: ('A' for Active; 'I' for Inactive)
REMARK    1  A    between atoms: N1_2  and  C2_5 
REMARK    2  A    between atoms: N2_9  and  C6_10 
REMARK    3  A    between atoms: C6_10  and  C7_11 
REMARK    4  A    between atoms: C10_14  and  N3_15 
REMARK       I    between atoms: N3_15  and  C11_17 
REMARK    5  A    between atoms: C11_17  and  C12_19 
ROOT
HETATM    1  C7  UNL     1      71.074  38.677  26.672  1.00  0.00    -0.028 A 
HETATM    2  C8  UNL     1      72.312  38.099  26.541  1.00  0.00     0.011 A 
HETATM    3  C9  UNL     1      72.421  36.789  26.057  1.00  0.00     0.032 A 
HETATM    4  C10 UNL     1      71.343  36.020  25.693  1.00  0.00     0.056 A 
HETATM    5  C22 UNL     1      70.084  36.641  25.839  1.00  0.00     0.061 A 
HETATM    6 CL1  UNL     1      68.683  35.708  25.391  1.00  0.00    -0.082 Cl
HETATM    7  C23 UNL     1      69.976  37.926  26.314  1.00  0.00     0.035 A 
ENDROOT
BRANCH   4   8
HETATM    8  N3  UNL     1      71.426  34.703  25.207  1.00  0.00    -0.325 N 
HETATM    9  C11 UNL     1      72.311  33.706  25.667  1.00  0.00     0.231 C 
HETATM   10  O1  UNL     1      73.168  33.797  26.565  1.00  0.00    -0.272 OA
ATOM     11  H3  UNL     1      70.788  34.445  24.454  1.00  0.00     0.169 HD
BRANCH   9  12
HETATM   12  C12 UNL     1      72.261  32.325  25.022  1.00  0.00     0.042 C 
HETATM   13  C13 UNL     1      72.174  32.612  23.521  1.00  0.00     0.024 C 
HETATM   14  C14 UNL     1      72.130  31.316  22.780  1.00  0.00    -0.013 C 
HETATM   15  C15 UNL     1      73.368  30.500  23.072  1.00  0.00     0.009 C 
HETATM   16  C19 UNL     1      70.920  30.545  23.216  1.00  0.00     0.009 C 
HETATM   17  C16 UNL     1      73.472  30.275  24.545  1.00  0.00    -0.013 C 
HETATM   18  C17 UNL     1      72.269  29.506  25.030  1.00  0.00     0.009 C 
HETATM   19  C21 UNL     1      73.522  31.576  25.314  1.00  0.00     0.024 C 
HETATM   20  C18 UNL     1      71.001  30.270  24.702  1.00  0.00    -0.013 C 
HETATM   21  C20 UNL     1      71.025  31.585  25.411  1.00  0.00     0.024 C 
ENDBRANCH   9  12
ENDBRANCH   4   8
BRANCH   1  22
HETATM   22  C6  UNL     1      70.946  40.048  27.177  1.00  0.00     0.311 C 
BRANCH  22  23
HETATM   23  N2  UNL     1      70.531  40.129  28.561  1.00  0.00     0.094 N 
HETATM   24  C5  UNL     1      71.237  39.160  29.380  1.00  0.00     0.273 C 
HETATM   25  C4  UNL     1      70.992  39.398  30.853  1.00  0.00     0.032 C 
HETATM   26  C3  UNL     1      69.920  40.439  31.082  1.00  0.00     0.036 C 
HETATM   27  C2  UNL     1      70.231  41.703  30.344  1.00  0.00     0.213 C 
HETATM   28  C24 UNL     1      70.980  41.439  29.056  1.00  0.00     0.305 C 
BRANCH  27  29
HETATM   29  N1  UNL     1      69.012  42.384  29.990  1.00  0.00    -0.073 N 
HETATM   30  C1  UNL     1      68.113  42.587  31.092  1.00  0.00     0.267 C 
ATOM     31  H12 UNL     1      68.539  41.898  29.227  1.00  0.00     0.277 HD
ATOM     32  H11 UNL     1      69.218  43.269  29.529  1.00  0.00     0.277 HD
ENDBRANCH  27  29
ENDBRANCH  22  23
ENDBRANCH   1  22
TORSDOF 5
ENDMDL
