MODEL 1
REMARK VINA RESULT: -10.245606629      0.000      0.000
REMARK  5 active torsions:
REMARK  status: ('A' for Active; 'I' for Inactive)
REMARK    1  A    between atoms: C1_2  and  C2_3 
REMARK       I    between atoms: C1_2  and  N2_24 
REMARK    2  A    between atoms: C2_3  and  C3_4 
REMARK    3  A    between atoms: C8_9  and  N1_10 
REMARK       I    between atoms: N1_10  and  C9_12 
REMARK    4  A    between atoms: C9_12  and  C10_14 
REMARK    5  A    between atoms: N2_24  and  C18_26 
ROOT
HETATM    1  C3  UNL     1      67.410  36.706  23.633  1.00  0.00     0.017 C 
HETATM    2  C4  UNL     1      67.176  38.073  22.989  1.00  0.00     0.007 C 
HETATM    3  C5  UNL     1      67.953  39.086  23.823  1.00  0.00     0.001 C 
HETATM    4  C6  UNL     1      67.925  38.733  25.288  1.00  0.00     0.002 C 
HETATM    5  C7  UNL     1      68.630  37.428  25.584  1.00  0.00     0.025 C 
HETATM    6  C8  UNL     1      68.767  36.738  24.216  1.00  0.00     0.089 C 
ENDROOT
BRANCH   6   7
HETATM    7  N1  UNL     1      69.483  35.512  24.311  1.00  0.00    -0.350 N 
HETATM    8  C9  UNL     1      70.862  35.392  23.984  1.00  0.00     0.277 C 
HETATM    9  O2  UNL     1      71.453  36.456  23.619  1.00  0.00    -0.265 OA
ATOM     10  H1  UNL     1      68.984  34.680  24.627  1.00  0.00     0.163 HD
BRANCH   8  11
HETATM   11  C10 UNL     1      71.636  34.174  24.040  1.00  0.00     0.165 A 
HETATM   12  O3  UNL     1      71.876  33.379  23.022  1.00  0.00    -0.307 OA
HETATM   13  C11 UNL     1      72.591  32.348  23.339  1.00  0.00     0.062 A 
HETATM   14  C12 UNL     1      72.882  32.418  24.695  1.00  0.00    -0.004 A 
HETATM   15  C17 UNL     1      73.140  31.174  22.599  1.00  0.00     0.066 C 
HETATM   16  C13 UNL     1      72.273  33.579  25.132  1.00  0.00     0.082 A 
HETATM   17  C14 UNL     1      73.661  31.337  25.339  1.00  0.00     0.043 C 
HETATM   18 CL1  UNL     1      72.273  34.190  26.766  1.00  0.00    -0.081 Cl
HETATM   19  C15 UNL     1      73.339  29.960  24.806  1.00  0.00     0.005 C 
HETATM   20  C16 UNL     1      72.994  29.900  23.362  1.00  0.00     0.007 C 
ENDBRANCH   8  11
ENDBRANCH   6   7
BRANCH   1  21
HETATM   21  C2  UNL     1      67.098  35.554  22.742  1.00  0.00     0.109 C 
BRANCH  21  22
HETATM   22  C1  UNL     1      66.481  34.422  23.474  1.00  0.00     0.218 C 
HETATM   23  O1  UNL     1      65.330  33.996  23.274  1.00  0.00    -0.274 OA
HETATM   24  N2  UNL     1      67.221  33.735  24.500  1.00  0.00    -0.356 N 
ATOM     25  H2  UNL     1      68.175  34.025  24.718  1.00  0.00     0.162 HD
BRANCH  24  26
HETATM   26  C18 UNL     1      66.613  32.624  25.232  1.00  0.00     0.084 C 
HETATM   27  C19 UNL     1      65.697  33.245  26.284  1.00  0.00     0.025 C 
HETATM   28  C20 UNL     1      65.471  32.354  27.456  1.00  0.00     0.002 C 
HETATM   29  C21 UNL     1      66.752  32.076  28.199  1.00  0.00     0.000 C 
HETATM   30  C22 UNL     1      67.945  32.078  27.283  1.00  0.00     0.002 C 
HETATM   31  C23 UNL     1      67.589  31.700  25.859  1.00  0.00     0.025 C 
ENDBRANCH  24  26
ENDBRANCH  21  22
ENDBRANCH   1  21
TORSDOF 5
ENDMDL
MODEL 2
REMARK VINA RESULT: -10.201133292      1.003      1.003
REMARK  5 active torsions:
REMARK  status: ('A' for Active; 'I' for Inactive)
REMARK    1  A    between atoms: C1_2  and  C2_3 
REMARK       I    between atoms: C1_2  and  N2_24 
REMARK    2  A    between atoms: C2_3  and  C3_4 
REMARK    3  A    between atoms: C8_9  and  N1_10 
REMARK       I    between atoms: N1_10  and  C9_12 
REMARK    4  A    between atoms: C9_12  and  C10_14 
REMARK    5  A    between atoms: N2_24  and  C18_26 
ROOT
HETATM    1  C3  UNL     1      67.773  36.919  23.908  1.00  0.00     0.017 C 
HETATM    2  C4  UNL     1      67.341  38.357  23.618  1.00  0.00     0.007 C 
HETATM    3  C5  UNL     1      68.145  39.250  24.557  1.00  0.00     0.001 C 
HETATM    4  C6  UNL     1      68.352  38.596  25.899  1.00  0.00     0.002 C 
HETATM    5  C7  UNL     1      69.194  37.342  25.809  1.00  0.00     0.025 C 
HETATM    6  C8  UNL     1      69.191  36.975  24.316  1.00  0.00     0.089 C 
ENDROOT
BRANCH   6   7
HETATM    7  N1  UNL     1      70.009  35.841  24.048  1.00  0.00    -0.350 N 
HETATM    8  C9  UNL     1      70.237  34.807  24.998  1.00  0.00     0.277 C 
HETATM    9  O2  UNL     1      69.645  34.924  26.116  1.00  0.00    -0.265 OA
ATOM     10  H1  UNL     1      70.453  35.767  23.133  1.00  0.00     0.163 HD
BRANCH   8  11
HETATM   11  C10 UNL     1      71.071  33.646  24.793  1.00  0.00     0.165 A 
HETATM   12  O3  UNL     1      70.796  32.645  23.988  1.00  0.00    -0.307 OA
HETATM   13  C11 UNL     1      71.705  31.725  23.992  1.00  0.00     0.062 A 
HETATM   14  C12 UNL     1      72.707  32.103  24.874  1.00  0.00    -0.004 A 
HETATM   15  C17 UNL     1      71.894  30.422  23.288  1.00  0.00     0.066 C 
HETATM   16  C13 UNL     1      72.298  33.323  25.378  1.00  0.00     0.082 A 
HETATM   17  C14 UNL     1      73.863  31.208  25.107  1.00  0.00     0.043 C 
HETATM   18 CL1  UNL     1      73.147  34.288  26.559  1.00  0.00    -0.081 Cl
HETATM   19  C15 UNL     1      73.499  29.742  25.116  1.00  0.00     0.005 C 
HETATM   20  C16 UNL     1      72.401  29.352  24.194  1.00  0.00     0.007 C 
ENDBRANCH   8  11
ENDBRANCH   6   7
BRANCH   1  21
HETATM   21  C2  UNL     1      67.431  35.952  22.827  1.00  0.00     0.109 C 
BRANCH  21  22
HETATM   22  C1  UNL     1      66.819  34.708  23.351  1.00  0.00     0.218 C 
HETATM   23  O1  UNL     1      65.957  34.040  22.754  1.00  0.00    -0.274 OA
HETATM   24  N2  UNL     1      67.213  34.195  24.638  1.00  0.00    -0.356 N 
ATOM     25  H2  UNL     1      67.919  34.687  25.185  1.00  0.00     0.162 HD
BRANCH  24  26
HETATM   26  C18 UNL     1      66.605  32.973  25.163  1.00  0.00     0.084 C 
HETATM   27  C19 UNL     1      65.589  33.410  26.217  1.00  0.00     0.025 C 
HETATM   28  C20 UNL     1      65.321  32.358  27.237  1.00  0.00     0.002 C 
HETATM   29  C21 UNL     1      66.557  32.025  28.031  1.00  0.00     0.000 C 
HETATM   30  C22 UNL     1      67.810  32.195  27.217  1.00  0.00     0.002 C 
HETATM   31  C23 UNL     1      67.574  32.006  25.732  1.00  0.00     0.025 C 
ENDBRANCH  24  26
ENDBRANCH  21  22
ENDBRANCH   1  21
TORSDOF 5
ENDMDL
MODEL 3
REMARK VINA RESULT: -9.725721485      1.008      1.228
REMARK  5 active torsions:
REMARK  status: ('A' for Active; 'I' for Inactive)
REMARK    1  A    between atoms: C1_2  and  C2_3 
REMARK       I    between atoms: C1_2  and  N2_24 
REMARK    2  A    between atoms: C2_3  and  C3_4 
REMARK    3  A    between atoms: C8_9  and  N1_10 
REMARK       I    between atoms: N1_10  and  C9_12 
REMARK    4  A    between atoms: C9_12  and  C10_14 
REMARK    5  A    between atoms: N2_24  and  C18_26 
ROOT
HETATM    1  C3  UNL     1      67.221  36.801  23.193  1.00  0.00     0.017 C 
HETATM    2  C4  UNL     1      66.807  37.991  22.326  1.00  0.00     0.007 C 
HETATM    3  C5  UNL     1      67.294  39.245  23.047  1.00  0.00     0.001 C 
HETATM    4  C6  UNL     1      67.178  39.101  24.542  1.00  0.00     0.002 C 
HETATM    5  C7  UNL     1      68.076  38.016  25.092  1.00  0.00     0.025 C 
HETATM    6  C8  UNL     1      68.480  37.183  23.865  1.00  0.00     0.089 C 
ENDROOT
BRANCH   6   7
HETATM    7  N1  UNL     1      69.396  36.147  24.206  1.00  0.00    -0.350 N 
HETATM    8  C9  UNL     1      70.778  36.197  23.878  1.00  0.00     0.277 C 
HETATM    9  O2  UNL     1      71.182  37.241  23.275  1.00  0.00    -0.265 OA
ATOM     10  H1  UNL     1      69.045  35.333  24.708  1.00  0.00     0.163 HD
BRANCH   8  11
HETATM   11  C10 UNL     1      71.751  35.172  24.177  1.00  0.00     0.165 A 
HETATM   12  O3  UNL     1      71.734  33.947  23.703  1.00  0.00    -0.307 OA
HETATM   13  C11 UNL     1      72.716  33.222  24.132  1.00  0.00     0.062 A 
HETATM   14  C12 UNL     1      73.494  33.998  24.981  1.00  0.00    -0.004 A 
HETATM   15  C17 UNL     1      73.166  31.815  23.915  1.00  0.00     0.066 C 
HETATM   16  C13 UNL     1      72.876  35.233  25.004  1.00  0.00     0.082 A 
HETATM   17  C14 UNL     1      74.673  33.403  25.650  1.00  0.00     0.043 C 
HETATM   18 CL1  UNL     1      73.388  36.625  25.923  1.00  0.00    -0.081 Cl
HETATM   19  C15 UNL     1      74.467  31.968  26.075  1.00  0.00     0.005 C 
HETATM   20  C16 UNL     1      73.604  31.156  25.179  1.00  0.00     0.007 C 
ENDBRANCH   8  11
ENDBRANCH   6   7
BRANCH   1  21
HETATM   21  C2  UNL     1      67.221  35.497  22.475  1.00  0.00     0.109 C 
BRANCH  21  22
HETATM   22  C1  UNL     1      66.573  34.417  23.257  1.00  0.00     0.218 C 
HETATM   23  O1  UNL     1      65.394  34.049  23.112  1.00  0.00    -0.274 OA
HETATM   24  N2  UNL     1      67.316  33.716  24.273  1.00  0.00    -0.356 N 
ATOM     25  H2  UNL     1      68.291  33.959  24.447  1.00  0.00     0.162 HD
BRANCH  24  26
HETATM   26  C18 UNL     1      66.678  32.657  25.054  1.00  0.00     0.084 C 
HETATM   27  C19 UNL     1      65.811  33.351  26.103  1.00  0.00     0.025 C 
HETATM   28  C20 UNL     1      65.575  32.510  27.310  1.00  0.00     0.002 C 
HETATM   29  C21 UNL     1      66.859  32.205  28.036  1.00  0.00     0.000 C 
HETATM   30  C22 UNL     1      68.031  32.125  27.096  1.00  0.00     0.002 C 
HETATM   31  C23 UNL     1      67.629  31.714  25.694  1.00  0.00     0.025 C 
ENDBRANCH  24  26
ENDBRANCH  21  22
ENDBRANCH   1  21
TORSDOF 5
ENDMDL
MODEL 4
REMARK VINA RESULT: -9.669771922      2.598      6.482
REMARK  5 active torsions:
REMARK  status: ('A' for Active; 'I' for Inactive)
REMARK    1  A    between atoms: C1_2  and  C2_3 
REMARK       I    between atoms: C1_2  and  N2_24 
REMARK    2  A    between atoms: C2_3  and  C3_4 
REMARK    3  A    between atoms: C8_9  and  N1_10 
REMARK       I    between atoms: N1_10  and  C9_12 
REMARK    4  A    between atoms: C9_12  and  C10_14 
REMARK    5  A    between atoms: N2_24  and  C18_26 
ROOT
HETATM    1  C3  UNL     1      73.967  36.043  25.806  1.00  0.00     0.017 C 
HETATM    2  C4  UNL     1      75.060  36.965  26.349  1.00  0.00     0.007 C 
HETATM    3  C5  UNL     1      74.815  38.339  25.733  1.00  0.00     0.001 C 
HETATM    4  C6  UNL     1      74.313  38.227  24.316  1.00  0.00     0.002 C 
HETATM    5  C7  UNL     1      72.957  37.564  24.232  1.00  0.00     0.025 C 
HETATM    6  C8  UNL     1      72.769  36.881  25.596  1.00  0.00     0.089 C 
ENDROOT
BRANCH   6   7
HETATM    7  N1  UNL     1      71.492  36.261  25.708  1.00  0.00    -0.350 N 
HETATM    8  C9  UNL     1      70.954  35.410  24.705  1.00  0.00     0.277 C 
HETATM    9  O2  UNL     1      71.686  35.197  23.688  1.00  0.00    -0.265 OA
ATOM     10  H1  UNL     1      70.938  36.436  26.546  1.00  0.00     0.163 HD
BRANCH   8  11
HETATM   11  C10 UNL     1      69.659  34.771  24.750  1.00  0.00     0.165 A 
HETATM   12  O3  UNL     1      68.608  35.132  24.051  1.00  0.00    -0.307 OA
HETATM   13  C11 UNL     1      67.567  34.399  24.281  1.00  0.00     0.062 A 
HETATM   14  C12 UNL     1      67.909  33.438  25.223  1.00  0.00    -0.004 A 
HETATM   15  C17 UNL     1      66.163  34.367  23.775  1.00  0.00     0.066 C 
HETATM   16  C13 UNL     1      69.237  33.680  25.515  1.00  0.00     0.082 A 
HETATM   17  C14 UNL     1      66.887  32.481  25.704  1.00  0.00     0.043 C 
HETATM   18 CL1  UNL     1      70.218  32.799  26.658  1.00  0.00    -0.081 Cl
HETATM   19  C15 UNL     1      65.513  33.089  25.855  1.00  0.00     0.005 C 
HETATM   20  C16 UNL     1      65.169  34.141  24.864  1.00  0.00     0.007 C 
ENDBRANCH   8  11
ENDBRANCH   6   7
BRANCH   1  21
HETATM   21  C2  UNL     1      73.775  34.797  26.599  1.00  0.00     0.109 C 
BRANCH  21  22
HETATM   22  C1  UNL     1      74.229  33.586  25.874  1.00  0.00     0.218 C 
HETATM   23  O1  UNL     1      75.403  33.178  25.847  1.00  0.00    -0.274 OA
HETATM   24  N2  UNL     1      73.286  32.794  25.128  1.00  0.00    -0.356 N 
ATOM     25  H2  UNL     1      72.302  33.065  25.106  1.00  0.00     0.162 HD
BRANCH  24  26
HETATM   26  C18 UNL     1      73.730  31.605  24.403  1.00  0.00     0.084 C 
HETATM   27  C19 UNL     1      73.025  31.632  23.048  1.00  0.00     0.025 C 
HETATM   28  C20 UNL     1      72.879  30.279  22.442  1.00  0.00     0.002 C 
HETATM   29  C21 UNL     1      72.017  29.380  23.289  1.00  0.00     0.000 C 
HETATM   30  C22 UNL     1      72.134  29.705  24.752  1.00  0.00     0.002 C 
HETATM   31  C23 UNL     1      73.469  30.327  25.109  1.00  0.00     0.025 C 
ENDBRANCH  24  26
ENDBRANCH  21  22
ENDBRANCH   1  21
TORSDOF 5
ENDMDL
MODEL 5
REMARK VINA RESULT: -9.630102367      2.627      4.846
REMARK  5 active torsions:
REMARK  status: ('A' for Active; 'I' for Inactive)
REMARK    1  A    between atoms: C1_2  and  C2_3 
REMARK       I    between atoms: C1_2  and  N2_24 
REMARK    2  A    between atoms: C2_3  and  C3_4 
REMARK    3  A    between atoms: C8_9  and  N1_10 
REMARK       I    between atoms: N1_10  and  C9_12 
REMARK    4  A    between atoms: C9_12  and  C10_14 
REMARK    5  A    between atoms: N2_24  and  C18_26 
ROOT
HETATM    1  C3  UNL     1      69.557  38.154  23.425  1.00  0.00     0.017 C 
HETATM    2  C4  UNL     1      69.045  39.267  24.340  1.00  0.00     0.007 C 
HETATM    3  C5  UNL     1      67.625  38.879  24.744  1.00  0.00     0.001 C 
HETATM    4  C6  UNL     1      66.898  38.197  23.614  1.00  0.00     0.002 C 
HETATM    5  C7  UNL     1      67.523  36.873  23.237  1.00  0.00     0.025 C 
HETATM    6  C8  UNL     1      68.919  36.902  23.880  1.00  0.00     0.089 C 
ENDROOT
BRANCH   6   7
HETATM    7  N1  UNL     1      69.622  35.681  23.676  1.00  0.00    -0.350 N 
HETATM    8  C9  UNL     1      69.896  34.760  24.724  1.00  0.00     0.277 C 
HETATM    9  O2  UNL     1      69.456  35.064  25.877  1.00  0.00    -0.265 OA
ATOM     10  H1  UNL     1      69.945  35.456  22.735  1.00  0.00     0.163 HD
BRANCH   8  11
HETATM   11  C10 UNL     1      70.621  33.519  24.585  1.00  0.00     0.165 A 
HETATM   12  O3  UNL     1      71.720  33.355  23.884  1.00  0.00    -0.307 OA
HETATM   13  C11 UNL     1      72.167  32.141  23.916  1.00  0.00     0.062 A 
HETATM   14  C12 UNL     1      71.314  31.381  24.703  1.00  0.00    -0.004 A 
HETATM   15  C17 UNL     1      73.339  31.430  23.325  1.00  0.00     0.066 C 
HETATM   16  C13 UNL     1      70.336  32.262  25.124  1.00  0.00     0.082 A 
HETATM   17  C14 UNL     1      71.567  29.933  24.882  1.00  0.00     0.043 C 
HETATM   18 CL1  UNL     1      68.965  31.874  26.132  1.00  0.00    -0.081 Cl
HETATM   19  C15 UNL     1      72.093  29.255  23.639  1.00  0.00     0.005 C 
HETATM   20  C16 UNL     1      72.978  30.088  22.784  1.00  0.00     0.007 C 
ENDBRANCH   8  11
ENDBRANCH   6   7
BRANCH   1  21
HETATM   21  C2  UNL     1      71.038  38.127  23.273  1.00  0.00     0.109 C 
BRANCH  21  22
HETATM   22  C1  UNL     1      71.740  37.963  24.569  1.00  0.00     0.218 C 
HETATM   23  O1  UNL     1      71.624  38.735  25.537  1.00  0.00    -0.274 OA
HETATM   24  N2  UNL     1      72.632  36.851  24.772  1.00  0.00    -0.356 N 
ATOM     25  H2  UNL     1      72.775  36.172  24.024  1.00  0.00     0.162 HD
BRANCH  24  26
HETATM   26  C18 UNL     1      73.333  36.690  26.045  1.00  0.00     0.084 C 
HETATM   27  C19 UNL     1      74.821  36.585  25.713  1.00  0.00     0.025 C 
HETATM   28  C20 UNL     1      75.597  35.851  26.750  1.00  0.00     0.002 C 
HETATM   29  C21 UNL     1      75.145  34.420  26.876  1.00  0.00     0.000 C 
HETATM   30  C22 UNL     1      73.682  34.264  26.566  1.00  0.00     0.002 C 
HETATM   31  C23 UNL     1      72.887  35.523  26.844  1.00  0.00     0.025 C 
ENDBRANCH  24  26
ENDBRANCH  21  22
ENDBRANCH   1  21
TORSDOF 5
ENDMDL
