MODEL 1
REMARK VINA RESULT: -7.236249414      0.000      0.000
REMARK  6 active torsions:
REMARK  status: ('A' for Active; 'I' for Inactive)
REMARK    1  A    between atoms: C2_2  and  C3_3 
REMARK    2  A    between atoms: C3_3  and  C4_4 
REMARK    3  A    between atoms: C4_4  and  C5_5 
REMARK    4  A    between atoms: C5_5  and  C6_6 
REMARK    5  A    between atoms: C20_24  and  C21_25 
REMARK    6  A    between atoms: C21_25  and  C22_26 
ROOT
HETATM    1  C5  UNL     1      71.253  35.557  25.396  1.00  0.00     0.083 C 
HETATM    2  C9  UNL     1      69.757  35.350  25.703  1.00  0.00     0.044 C 
HETATM    3  C10 UNL     1      69.425  33.898  25.817  1.00  0.00     0.030 C 
HETATM    4  C11 UNL     1      68.069  33.596  26.248  1.00  0.00    -0.024 C 
HETATM    5  C12 UNL     1      67.462  32.497  25.848  1.00  0.00    -0.087 C 
HETATM    6  C13 UNL     1      66.062  32.225  26.319  1.00  0.00     0.043 C 
HETATM    7  C14 UNL     1      68.096  31.523  24.952  1.00  0.00     0.033 C 
HETATM    8  C15 UNL     1      69.205  30.714  25.555  1.00  0.00     0.006 C 
HETATM    9  C16 UNL     1      70.242  30.399  24.475  1.00  0.00     0.025 C 
HETATM   10  C17 UNL     1      71.633  30.922  24.883  1.00  0.00     0.080 C 
HETATM   11  C18 UNL     1      72.538  29.701  24.878  1.00  0.00     0.032 C 
HETATM   12  N1  UNL     1      72.053  31.937  23.971  1.00  0.00    -0.355 N 
ATOM     13  H1  UNL     1      71.650  31.851  23.038  1.00  0.00     0.162 HD
HETATM   14  C19 UNL     1      72.908  33.017  24.121  1.00  0.00     0.247 C 
HETATM   15  O1  UNL     1      73.713  33.226  23.132  1.00  0.00    -0.271 OA
HETATM   16  C20 UNL     1      73.005  33.965  25.292  1.00  0.00     0.224 C 
HETATM   17  O4  UNL     1      71.850  34.374  25.827  1.00  0.00    -0.363 OA
ENDROOT
BRANCH   1  18
HETATM   18  C4  UNL     1      71.401  35.700  23.943  1.00  0.00     0.040 C 
BRANCH  18  19
HETATM   19  C3  UNL     1      70.250  36.139  23.120  1.00  0.00     0.003 C 
BRANCH  19  20
HETATM   20  C2  UNL     1      70.403  37.654  22.828  1.00  0.00    -0.004 C 
HETATM   21  C1  UNL     1      69.089  38.345  23.119  1.00  0.00     0.005 C 
ENDBRANCH  19  20
ENDBRANCH  18  19
ENDBRANCH   1  18
BRANCH   1  22
HETATM   22  C6  UNL     1      71.610  36.765  26.232  1.00  0.00     0.061 C 
HETATM   23  C7  UNL     1      72.858  37.434  25.696  1.00  0.00     0.035 C 
HETATM   24  C8  UNL     1      70.520  37.728  26.491  1.00  0.00     0.035 C 
HETATM   25 CL1  UNL     1      72.163  36.218  27.876  1.00  0.00    -0.117 Cl
ENDBRANCH   1  22
BRANCH  16  26
HETATM   26  C21 UNL     1      73.986  33.256  26.220  1.00  0.00     0.154 C 
BRANCH  26  27
HETATM   27  C22 UNL     1      75.270  33.941  26.425  1.00  0.00     0.175 C 
HETATM   28  O2  UNL     1      76.341  33.589  25.863  1.00  0.00    -0.648 OA
HETATM   29  O3  UNL     1      75.342  35.042  27.282  1.00  0.00    -0.648 OA
ENDBRANCH  26  27
ENDBRANCH  16  26
TORSDOF 6
ENDMDL
MODEL 2
REMARK VINA RESULT: -7.113862450      2.491      4.536
REMARK  6 active torsions:
REMARK  status: ('A' for Active; 'I' for Inactive)
REMARK    1  A    between atoms: C2_2  and  C3_3 
REMARK    2  A    between atoms: C3_3  and  C4_4 
REMARK    3  A    between atoms: C4_4  and  C5_5 
REMARK    4  A    between atoms: C5_5  and  C6_6 
REMARK    5  A    between atoms: C20_24  and  C21_25 
REMARK    6  A    between atoms: C21_25  and  C22_26 
ROOT
HETATM    1  C5  UNL     1      70.063  35.107  24.603  1.00  0.00     0.083 C 
HETATM    2  C9  UNL     1      70.050  33.587  24.341  1.00  0.00     0.044 C 
HETATM    3  C10 UNL     1      71.259  32.929  24.919  1.00  0.00     0.030 C 
HETATM    4  C11 UNL     1      71.275  31.477  24.855  1.00  0.00    -0.024 C 
HETATM    5  C12 UNL     1      72.412  30.816  24.755  1.00  0.00    -0.087 C 
HETATM    6  C13 UNL     1      72.380  29.316  24.692  1.00  0.00     0.043 C 
HETATM    7  C14 UNL     1      73.714  31.488  24.695  1.00  0.00     0.033 C 
HETATM    8  C15 UNL     1      74.174  32.125  25.973  1.00  0.00     0.006 C 
HETATM    9  C16 UNL     1      75.000  33.370  25.645  1.00  0.00     0.025 C 
HETATM   10  C17 UNL     1      74.391  34.620  26.311  1.00  0.00     0.080 C 
HETATM   11  C18 UNL     1      75.496  35.185  27.188  1.00  0.00     0.032 C 
HETATM   12  N1  UNL     1      73.948  35.533  25.307  1.00  0.00    -0.355 N 
ATOM     13  H1  UNL     1      74.455  35.460  24.424  1.00  0.00     0.162 HD
HETATM   14  C19 UNL     1      72.956  36.501  25.311  1.00  0.00     0.247 C 
HETATM   15  O1  UNL     1      73.270  37.617  24.742  1.00  0.00    -0.271 OA
HETATM   16  C20 UNL     1      71.569  36.400  25.897  1.00  0.00     0.224 C 
HETATM   17  O4  UNL     1      70.916  35.250  25.695  1.00  0.00    -0.363 OA
ENDROOT
BRANCH   1  18
HETATM   18  C4  UNL     1      70.635  35.764  23.422  1.00  0.00     0.040 C 
BRANCH  18  19
HETATM   19  C3  UNL     1      69.832  36.748  22.659  1.00  0.00     0.003 C 
BRANCH  19  20
HETATM   20  C2  UNL     1      70.534  38.127  22.742  1.00  0.00    -0.004 C 
HETATM   21  C1  UNL     1      69.481  39.211  22.816  1.00  0.00     0.005 C 
ENDBRANCH  19  20
ENDBRANCH  18  19
ENDBRANCH   1  18
BRANCH   1  22
HETATM   22  C6  UNL     1      68.615  35.414  24.911  1.00  0.00     0.061 C 
HETATM   23  C7  UNL     1      68.001  34.309  25.744  1.00  0.00     0.035 C 
HETATM   24  C8  UNL     1      68.332  36.757  25.458  1.00  0.00     0.035 C 
HETATM   25 CL1  UNL     1      67.638  35.306  23.381  1.00  0.00    -0.117 Cl
ENDBRANCH   1  22
BRANCH  16  26
HETATM   26  C21 UNL     1      71.782  36.830  27.345  1.00  0.00     0.154 C 
BRANCH  26  27
HETATM   27  C22 UNL     1      71.426  38.224  27.648  1.00  0.00     0.175 C 
HETATM   28  O2  UNL     1      71.581  38.747  28.784  1.00  0.00    -0.648 OA
HETATM   29  O3  UNL     1      70.884  39.037  26.650  1.00  0.00    -0.648 OA
ENDBRANCH  26  27
ENDBRANCH  16  26
TORSDOF 6
ENDMDL
MODEL 3
REMARK VINA RESULT: -6.940038497      2.154      5.439
REMARK  6 active torsions:
REMARK  status: ('A' for Active; 'I' for Inactive)
REMARK    1  A    between atoms: C2_2  and  C3_3 
REMARK    2  A    between atoms: C3_3  and  C4_4 
REMARK    3  A    between atoms: C4_4  and  C5_5 
REMARK    4  A    between atoms: C5_5  and  C6_6 
REMARK    5  A    between atoms: C20_24  and  C21_25 
REMARK    6  A    between atoms: C21_25  and  C22_26 
ROOT
HETATM    1  C5  UNL     1      71.329  33.618  25.056  1.00  0.00     0.083 C 
HETATM    2  C9  UNL     1      70.232  34.010  24.046  1.00  0.00     0.044 C 
HETATM    3  C10 UNL     1      70.056  35.491  23.989  1.00  0.00     0.030 C 
HETATM    4  C11 UNL     1      69.147  35.977  22.962  1.00  0.00    -0.024 C 
HETATM    5  C12 UNL     1      68.453  37.083  23.140  1.00  0.00    -0.087 C 
HETATM    6  C13 UNL     1      67.528  37.546  22.052  1.00  0.00     0.043 C 
HETATM    7  C14 UNL     1      68.542  37.883  24.366  1.00  0.00     0.033 C 
HETATM    8  C15 UNL     1      69.826  38.634  24.559  1.00  0.00     0.006 C 
HETATM    9  C16 UNL     1      70.137  38.723  26.054  1.00  0.00     0.025 C 
HETATM   10  C17 UNL     1      71.515  38.106  26.362  1.00  0.00     0.080 C 
HETATM   11  C18 UNL     1      72.315  39.221  27.018  1.00  0.00     0.032 C 
HETATM   12  N1  UNL     1      71.355  36.961  27.200  1.00  0.00    -0.355 N 
ATOM     13  H1  UNL     1      70.519  36.987  27.785  1.00  0.00     0.162 HD
HETATM   14  C19 UNL     1      72.126  35.821  27.364  1.00  0.00     0.247 C 
HETATM   15  O1  UNL     1      72.274  35.426  28.585  1.00  0.00    -0.271 OA
HETATM   16  C20 UNL     1      72.803  35.001  26.293  1.00  0.00     0.224 C 
HETATM   17  O4  UNL     1      72.098  34.772  25.180  1.00  0.00    -0.363 OA
ENDROOT
BRANCH   1  18
HETATM   18  C4  UNL     1      70.676  33.304  26.333  1.00  0.00     0.040 C 
BRANCH  18  19
HETATM   19  C3  UNL     1      69.198  33.310  26.431  1.00  0.00     0.003 C 
BRANCH  19  20
HETATM   20  C2  UNL     1      68.724  31.883  26.811  1.00  0.00    -0.004 C 
HETATM   21  C1  UNL     1      67.549  31.991  27.757  1.00  0.00     0.005 C 
ENDBRANCH  19  20
ENDBRANCH  18  19
ENDBRANCH   1  18
BRANCH   1  22
HETATM   22  C6  UNL     1      72.040  32.477  24.365  1.00  0.00     0.061 C 
HETATM   23  C7  UNL     1      71.064  31.372  24.020  1.00  0.00     0.035 C 
HETATM   24  C8  UNL     1      72.906  32.841  23.225  1.00  0.00     0.035 C 
HETATM   25 CL1  UNL     1      73.137  31.642  25.551  1.00  0.00    -0.117 Cl
ENDBRANCH   1  22
BRANCH  16  26
HETATM   26  C21 UNL     1      74.148  35.701  26.130  1.00  0.00     0.154 C 
BRANCH  26  27
HETATM   27  C22 UNL     1      75.307  34.976  26.670  1.00  0.00     0.175 C 
HETATM   28  O2  UNL     1      76.046  35.433  27.583  1.00  0.00    -0.648 OA
HETATM   29  O3  UNL     1      75.636  33.716  26.166  1.00  0.00    -0.648 OA
ENDBRANCH  26  27
ENDBRANCH  16  26
TORSDOF 6
ENDMDL
MODEL 4
REMARK VINA RESULT: -6.644015897      2.790      4.174
REMARK  6 active torsions:
REMARK  status: ('A' for Active; 'I' for Inactive)
REMARK    1  A    between atoms: C2_2  and  C3_3 
REMARK    2  A    between atoms: C3_3  and  C4_4 
REMARK    3  A    between atoms: C4_4  and  C5_5 
REMARK    4  A    between atoms: C5_5  and  C6_6 
REMARK    5  A    between atoms: C20_24  and  C21_25 
REMARK    6  A    between atoms: C21_25  and  C22_26 
ROOT
HETATM    1  C5  UNL     1      69.550  37.407  24.536  1.00  0.00     0.083 C 
HETATM    2  C9  UNL     1      68.691  36.130  24.450  1.00  0.00     0.044 C 
HETATM    3  C10 UNL     1      69.398  34.962  25.053  1.00  0.00     0.030 C 
HETATM    4  C11 UNL     1      68.618  33.739  25.155  1.00  0.00    -0.024 C 
HETATM    5  C12 UNL     1      69.198  32.557  25.088  1.00  0.00    -0.087 C 
HETATM    6  C13 UNL     1      68.353  31.322  25.199  1.00  0.00     0.043 C 
HETATM    7  C14 UNL     1      70.645  32.397  24.903  1.00  0.00     0.033 C 
HETATM    8  C15 UNL     1      71.494  32.770  26.081  1.00  0.00     0.006 C 
HETATM    9  C16 UNL     1      72.828  33.328  25.582  1.00  0.00     0.025 C 
HETATM   10  C17 UNL     1      73.061  34.753  26.123  1.00  0.00     0.080 C 
HETATM   11  C18 UNL     1      74.373  34.682  26.888  1.00  0.00     0.032 C 
HETATM   12  N1  UNL     1      73.092  35.681  25.038  1.00  0.00    -0.355 N 
ATOM     13  H1  UNL     1      73.392  35.276  24.151  1.00  0.00     0.162 HD
HETATM   14  C19 UNL     1      72.789  37.032  24.969  1.00  0.00     0.247 C 
HETATM   15  O1  UNL     1      73.603  37.745  24.265  1.00  0.00    -0.271 OA
HETATM   16  C20 UNL     1      71.632  37.754  25.615  1.00  0.00     0.224 C 
HETATM   17  O4  UNL     1      70.444  37.140  25.571  1.00  0.00    -0.363 OA
ENDROOT
BRANCH   1  18
HETATM   18  C4  UNL     1      70.273  37.552  23.267  1.00  0.00     0.040 C 
BRANCH  18  19
HETATM   19  C3  UNL     1      69.708  36.979  22.022  1.00  0.00     0.003 C 
BRANCH  19  20
HETATM   20  C2  UNL     1      69.172  38.139  21.146  1.00  0.00    -0.004 C 
HETATM   21  C1  UNL     1      67.822  37.748  20.585  1.00  0.00     0.005 C 
ENDBRANCH  19  20
ENDBRANCH  18  19
ENDBRANCH   1  18
BRANCH   1  22
HETATM   22  C6  UNL     1      68.538  38.481  24.861  1.00  0.00     0.061 C 
HETATM   23  C7  UNL     1      68.193  38.460  26.335  1.00  0.00     0.035 C 
HETATM   24  C8  UNL     1      68.845  39.841  24.373  1.00  0.00     0.035 C 
HETATM   25 CL1  UNL     1      66.940  38.052  24.104  1.00  0.00    -0.117 Cl
ENDBRANCH   1  22
BRANCH  16  26
HETATM   26  C21 UNL     1      72.179  38.103  26.995  1.00  0.00     0.154 C 
BRANCH  26  27
HETATM   27  C22 UNL     1      71.565  39.273  27.640  1.00  0.00     0.175 C 
HETATM   28  O2  UNL     1      71.273  39.315  28.865  1.00  0.00    -0.648 OA
HETATM   29  O3  UNL     1      71.275  40.412  26.886  1.00  0.00    -0.648 OA
ENDBRANCH  26  27
ENDBRANCH  16  26
TORSDOF 6
ENDMDL
MODEL 5
REMARK VINA RESULT: -6.503542427      1.484      1.805
REMARK  6 active torsions:
REMARK  status: ('A' for Active; 'I' for Inactive)
REMARK    1  A    between atoms: C2_2  and  C3_3 
REMARK    2  A    between atoms: C3_3  and  C4_4 
REMARK    3  A    between atoms: C4_4  and  C5_5 
REMARK    4  A    between atoms: C5_5  and  C6_6 
REMARK    5  A    between atoms: C20_24  and  C21_25 
REMARK    6  A    between atoms: C21_25  and  C22_26 
ROOT
HETATM    1  C5  UNL     1      69.620  36.238  24.847  1.00  0.00     0.083 C 
HETATM    2  C9  UNL     1      68.211  35.772  25.265  1.00  0.00     0.044 C 
HETATM    3  C10 UNL     1      68.212  34.328  25.647  1.00  0.00     0.030 C 
HETATM    4  C11 UNL     1      66.964  33.823  26.197  1.00  0.00    -0.024 C 
HETATM    5  C12 UNL     1      66.609  32.565  26.026  1.00  0.00    -0.087 C 
HETATM    6  C13 UNL     1      65.312  32.088  26.612  1.00  0.00     0.043 C 
HETATM    7  C14 UNL     1      67.430  31.606  25.279  1.00  0.00     0.033 C 
HETATM    8  C15 UNL     1      68.700  31.178  25.950  1.00  0.00     0.006 C 
HETATM    9  C16 UNL     1      69.764  30.904  24.886  1.00  0.00     0.025 C 
HETATM   10  C17 UNL     1      71.010  31.780  25.121  1.00  0.00     0.080 C 
HETATM   11  C18 UNL     1      72.163  30.802  25.278  1.00  0.00     0.032 C 
HETATM   12  N1  UNL     1      71.181  32.680  24.026  1.00  0.00    -0.355 N 
ATOM     13  H1  UNL     1      70.792  32.342  23.145  1.00  0.00     0.162 HD
HETATM   14  C19 UNL     1      71.777  33.928  23.940  1.00  0.00     0.247 C 
HETATM   15  O1  UNL     1      72.501  34.123  22.888  1.00  0.00    -0.271 OA
HETATM   16  C20 UNL     1      71.679  35.069  24.923  1.00  0.00     0.224 C 
HETATM   17  O4  UNL     1      70.470  35.310  25.442  1.00  0.00    -0.363 OA
ENDROOT
BRANCH   1  18
HETATM   18  C4  UNL     1      69.710  36.145  23.385  1.00  0.00     0.040 C 
BRANCH  18  19
HETATM   19  C3  UNL     1      68.476  36.119  22.565  1.00  0.00     0.003 C 
BRANCH  19  20
HETATM   20  C2  UNL     1      68.324  37.492  21.861  1.00  0.00    -0.004 C 
HETATM   21  C1  UNL     1      67.089  38.185  22.395  1.00  0.00     0.005 C 
ENDBRANCH  19  20
ENDBRANCH  18  19
ENDBRANCH   1  18
BRANCH   1  22
HETATM   22  C6  UNL     1      69.712  37.625  25.441  1.00  0.00     0.061 C 
HETATM   23  C7  UNL     1      70.459  38.555  24.509  1.00  0.00     0.035 C 
HETATM   24  C8  UNL     1      68.449  38.213  25.932  1.00  0.00     0.035 C 
HETATM   25 CL1  UNL     1      70.815  37.589  26.886  1.00  0.00    -0.117 Cl
ENDBRANCH   1  22
BRANCH  16  26
HETATM   26  C21 UNL     1      72.807  34.767  25.905  1.00  0.00     0.154 C 
BRANCH  26  27
HETATM   27  C22 UNL     1      73.996  35.623  25.783  1.00  0.00     0.175 C 
HETATM   28  O2  UNL     1      74.038  36.652  25.057  1.00  0.00    -0.648 OA
HETATM   29  O3  UNL     1      75.156  35.307  26.493  1.00  0.00    -0.648 OA
ENDBRANCH  26  27
ENDBRANCH  16  26
TORSDOF 6
ENDMDL
