MODEL 1
REMARK VINA RESULT: -6.569532603      0.000      0.000
REMARK  6 active torsions:
REMARK  status: ('A' for Active; 'I' for Inactive)
REMARK    1  A    between atoms: N1_8  and  O1_10 
REMARK    2  A    between atoms: C18_22  and  O2_23 
REMARK    3  A    between atoms: C18_22  and  C19_25 
REMARK    4  A    between atoms: C19_25  and  C21_27 
REMARK    5  A    between atoms: C21_27  and  C23_29 
REMARK    6  A    between atoms: C24_31  and  C25_32 
ROOT
HETATM    1  C1  UNL     1      66.710  38.530  24.505  1.00  0.00     0.044 C 
HETATM    2  C2  UNL     1      68.159  38.572  24.762  1.00  0.00    -0.071 C 
HETATM    3  C3  UNL     1      68.706  39.764  25.059  1.00  0.00    -0.023 C 
HETATM    4  C4  UNL     1      70.042  40.266  25.376  1.00  0.00     0.033 C 
HETATM    5  C5  UNL     1      71.069  39.356  26.019  1.00  0.00    -0.001 C 
HETATM    6  C6  UNL     1      71.018  39.410  27.526  1.00  0.00     0.059 C 
HETATM    7  C7  UNL     1      69.551  39.288  27.710  1.00  0.00     0.010 C 
HETATM    8  N1  UNL     1      68.920  40.150  28.358  1.00  0.00    -0.277 N 
ATOM      9  H1  UNL     1      67.911  40.053  28.477  1.00  0.00     0.193 HD
HETATM   10  C8  UNL     1      68.947  38.115  27.101  1.00  0.00     0.061 C 
HETATM   11  C9  UNL     1      69.690  37.454  25.959  1.00  0.00     0.015 C 
HETATM   12  C10 UNL     1      70.955  38.043  25.491  1.00  0.00    -0.004 C 
HETATM   13  C11 UNL     1      71.821  36.875  25.411  1.00  0.00     0.006 C 
HETATM   14  C12 UNL     1      71.165  35.547  25.251  1.00  0.00     0.013 C 
HETATM   15  C13 UNL     1      69.930  35.113  24.668  1.00  0.00    -0.007 C 
HETATM   16  C14 UNL     1      70.240  34.691  23.210  1.00  0.00     0.019 C 
HETATM   17  C15 UNL     1      68.670  35.996  24.598  1.00  0.00     0.017 C 
HETATM   18  C16 UNL     1      67.728  35.423  25.641  1.00  0.00     0.010 C 
HETATM   19  C17 UNL     1      67.951  33.947  25.562  1.00  0.00     0.039 C 
HETATM   20  C18 UNL     1      69.458  33.861  25.338  1.00  0.00     0.069 C 
HETATM   21  C24 UNL     1      68.941  37.380  24.649  1.00  0.00     0.044 C 
ENDROOT
BRANCH  20  22
HETATM   22  O2  UNL     1      69.938  33.744  26.693  1.00  0.00    -0.389 OA
ATOM     23  H2  UNL     1      69.272  33.964  27.335  1.00  0.00     0.210 HD
ENDBRANCH  20  22
BRANCH  20  24
HETATM   24  C19 UNL     1      69.780  32.502  24.840  1.00  0.00     0.027 C 
HETATM   25  C20 UNL     1      68.547  31.571  25.131  1.00  0.00     0.014 C 
BRANCH  24  26
HETATM   26  C21 UNL     1      70.885  31.750  25.529  1.00  0.00     0.050 C 
HETATM   27  C22 UNL     1      71.019  30.309  25.161  1.00  0.00     0.017 C 
BRANCH  26  28
HETATM   28  C23 UNL     1      72.223  32.380  25.200  1.00  0.00     0.235 C 
HETATM   29  O3  UNL     1      72.901  32.840  26.088  1.00  0.00    -0.306 OA
ENDBRANCH  26  28
ENDBRANCH  24  26
ENDBRANCH  20  24
BRANCH  21  30
HETATM   30  C25 UNL     1      69.554  37.640  23.333  1.00  0.00     0.246 C 
HETATM   31  O4  UNL     1      69.018  37.636  22.234  1.00  0.00    -0.306 OA
ENDBRANCH  21  30
BRANCH   8  32
HETATM   32  O1  UNL     1      69.567  41.224  28.912  1.00  0.00    -0.290 OA
ATOM     33  H1  UNL     1      69.081  41.903  29.366  1.00  0.00     0.244 HD
ENDBRANCH   8  32
TORSDOF 6
ENDMDL
MODEL 2
REMARK VINA RESULT: -6.230209784      2.921      5.013
REMARK  6 active torsions:
REMARK  status: ('A' for Active; 'I' for Inactive)
REMARK    1  A    between atoms: N1_8  and  O1_10 
REMARK    2  A    between atoms: C18_22  and  O2_23 
REMARK    3  A    between atoms: C18_22  and  C19_25 
REMARK    4  A    between atoms: C19_25  and  C21_27 
REMARK    5  A    between atoms: C21_27  and  C23_29 
REMARK    6  A    between atoms: C24_31  and  C25_32 
ROOT
HETATM    1  C1  UNL     1      71.025  37.796  28.342  1.00  0.00     0.044 C 
HETATM    2  C2  UNL     1      71.191  38.498  27.058  1.00  0.00    -0.071 C 
HETATM    3  C3  UNL     1      72.289  39.257  26.899  1.00  0.00    -0.023 C 
HETATM    4  C4  UNL     1      72.851  40.099  25.843  1.00  0.00     0.033 C 
HETATM    5  C5  UNL     1      72.533  39.815  24.388  1.00  0.00    -0.001 C 
HETATM    6  C6  UNL     1      73.531  38.876  23.758  1.00  0.00     0.059 C 
HETATM    7  C7  UNL     1      73.584  37.846  24.825  1.00  0.00     0.010 C 
HETATM    8  N1  UNL     1      74.675  37.531  25.347  1.00  0.00    -0.277 N 
ATOM      9  H1  UNL     1      74.696  36.822  26.080  1.00  0.00     0.193 HD
HETATM   10  C8  UNL     1      72.304  37.259  25.181  1.00  0.00     0.061 C 
HETATM   11  C9  UNL     1      71.054  38.053  24.865  1.00  0.00     0.015 C 
HETATM   12  C10 UNL     1      71.186  39.387  24.258  1.00  0.00    -0.004 C 
HETATM   13  C11 UNL     1      70.214  39.325  23.175  1.00  0.00     0.006 C 
HETATM   14  C12 UNL     1      69.100  38.346  23.312  1.00  0.00     0.013 C 
HETATM   15  C13 UNL     1      68.421  37.764  24.431  1.00  0.00    -0.007 C 
HETATM   16  C14 UNL     1      67.163  38.629  24.698  1.00  0.00     0.019 C 
HETATM   17  C15 UNL     1      69.085  37.541  25.803  1.00  0.00     0.017 C 
HETATM   18  C16 UNL     1      69.323  36.045  25.888  1.00  0.00     0.010 C 
HETATM   19  C17 UNL     1      68.127  35.447  25.220  1.00  0.00     0.039 C 
HETATM   20  C18 UNL     1      67.887  36.414  24.065  1.00  0.00     0.069 C 
HETATM   21  C24 UNL     1      70.181  38.394  26.050  1.00  0.00     0.044 C 
ENDROOT
BRANCH  20  22
HETATM   22  O2  UNL     1      68.646  35.788  23.011  1.00  0.00    -0.389 OA
ATOM     23  H2  UNL     1      69.179  36.410  22.527  1.00  0.00     0.210 HD
ENDBRANCH  20  22
BRANCH  20  24
HETATM   24  C19 UNL     1      66.514  36.196  23.549  1.00  0.00     0.027 C 
HETATM   25  C20 UNL     1      66.062  34.749  23.963  1.00  0.00     0.014 C 
BRANCH  24  26
HETATM   26  C21 UNL     1      66.329  36.147  22.057  1.00  0.00     0.050 C 
HETATM   27  C22 UNL     1      65.274  35.212  21.563  1.00  0.00     0.017 C 
BRANCH  26  28
HETATM   28  C23 UNL     1      65.935  37.516  21.539  1.00  0.00     0.235 C 
HETATM   29  O3  UNL     1      66.746  38.186  20.946  1.00  0.00    -0.306 OA
ENDBRANCH  26  28
ENDBRANCH  24  26
ENDBRANCH  20  24
BRANCH  21  30
HETATM   30  C25 UNL     1      69.536  39.706  26.247  1.00  0.00     0.246 C 
HETATM   31  O4  UNL     1      68.982  40.133  27.250  1.00  0.00    -0.306 OA
ENDBRANCH  21  30
BRANCH   8  32
HETATM   32  O1  UNL     1      75.843  38.126  24.947  1.00  0.00    -0.290 OA
ATOM     33  H1  UNL     1      75.959  39.066  25.017  1.00  0.00     0.244 HD
ENDBRANCH   8  32
TORSDOF 6
ENDMDL
MODEL 3
REMARK VINA RESULT: -6.220089410      3.112      6.959
REMARK  6 active torsions:
REMARK  status: ('A' for Active; 'I' for Inactive)
REMARK    1  A    between atoms: N1_8  and  O1_10 
REMARK    2  A    between atoms: C18_22  and  O2_23 
REMARK    3  A    between atoms: C18_22  and  C19_25 
REMARK    4  A    between atoms: C19_25  and  C21_27 
REMARK    5  A    between atoms: C21_27  and  C23_29 
REMARK    6  A    between atoms: C24_31  and  C25_32 
ROOT
HETATM    1  C1  UNL     1      68.218  33.198  24.270  1.00  0.00     0.044 C 
HETATM    2  C2  UNL     1      69.513  32.892  24.901  1.00  0.00    -0.071 C 
HETATM    3  C3  UNL     1      69.900  31.605  24.939  1.00  0.00    -0.023 C 
HETATM    4  C4  UNL     1      71.055  30.861  25.442  1.00  0.00     0.033 C 
HETATM    5  C5  UNL     1      72.411  31.530  25.542  1.00  0.00    -0.001 C 
HETATM    6  C6  UNL     1      73.227  31.361  24.284  1.00  0.00     0.059 C 
HETATM    7  C7  UNL     1      72.186  31.712  23.287  1.00  0.00     0.010 C 
HETATM    8  N1  UNL     1      71.898  30.918  22.367  1.00  0.00    -0.277 N 
ATOM      9  H1  UNL     1      71.180  31.173  21.688  1.00  0.00     0.193 HD
HETATM   10  C8  UNL     1      71.571  33.015  23.469  1.00  0.00     0.061 C 
HETATM   11  C9  UNL     1      71.629  33.634  24.850  1.00  0.00     0.015 C 
HETATM   12  C10 UNL     1      72.259  32.882  25.946  1.00  0.00    -0.004 C 
HETATM   13  C11 UNL     1      73.119  33.891  26.550  1.00  0.00     0.006 C 
HETATM   14  C12 UNL     1      72.749  35.318  26.341  1.00  0.00     0.013 C 
HETATM   15  C13 UNL     1      71.509  36.000  26.112  1.00  0.00    -0.007 C 
HETATM   16  C14 UNL     1      70.996  36.483  27.492  1.00  0.00     0.019 C 
HETATM   17  C15 UNL     1      70.302  35.351  25.410  1.00  0.00     0.017 C 
HETATM   18  C16 UNL     1      70.257  35.985  24.033  1.00  0.00     0.010 C 
HETATM   19  C17 UNL     1      70.662  37.405  24.272  1.00  0.00     0.039 C 
HETATM   20  C18 UNL     1      71.749  37.254  25.331  1.00  0.00     0.069 C 
HETATM   21  C24 UNL     1      70.292  33.942  25.483  1.00  0.00     0.044 C 
ENDROOT
BRANCH  20  22
HETATM   22  O2  UNL     1      72.933  37.177  24.511  1.00  0.00    -0.389 OA
ATOM     23  H2  UNL     1      72.754  36.822  23.647  1.00  0.00     0.210 HD
ENDBRANCH  20  22
BRANCH  20  24
HETATM   24  C19 UNL     1      71.970  38.576  25.965  1.00  0.00     0.027 C 
HETATM   25  C20 UNL     1      70.650  39.416  25.814  1.00  0.00     0.014 C 
BRANCH  24  26
HETATM   26  C21 UNL     1      72.978  39.496  25.330  1.00  0.00     0.050 C 
HETATM   27  C22 UNL     1      72.533  40.906  25.126  1.00  0.00     0.017 C 
BRANCH  26  28
HETATM   28  C23 UNL     1      74.218  39.581  26.197  1.00  0.00     0.235 C 
HETATM   29  O3  UNL     1      75.099  38.767  26.061  1.00  0.00    -0.306 OA
ENDBRANCH  26  28
ENDBRANCH  24  26
ENDBRANCH  20  24
BRANCH  21  30
HETATM   30  C25 UNL     1      69.976  33.691  26.902  1.00  0.00     0.246 C 
HETATM   31  O4  UNL     1      68.949  33.227  27.377  1.00  0.00    -0.306 OA
ENDBRANCH  21  30
BRANCH   8  32
HETATM   32  O1  UNL     1      72.533  29.708  22.258  1.00  0.00    -0.290 OA
ATOM     33  H1  UNL     1      72.101  28.905  22.526  1.00  0.00     0.244 HD
ENDBRANCH   8  32
TORSDOF 6
ENDMDL
MODEL 4
REMARK VINA RESULT: -6.168549961      1.970      2.910
REMARK  6 active torsions:
REMARK  status: ('A' for Active; 'I' for Inactive)
REMARK    1  A    between atoms: N1_8  and  O1_10 
REMARK    2  A    between atoms: C18_22  and  O2_23 
REMARK    3  A    between atoms: C18_22  and  C19_25 
REMARK    4  A    between atoms: C19_25  and  C21_27 
REMARK    5  A    between atoms: C21_27  and  C23_29 
REMARK    6  A    between atoms: C24_31  and  C25_32 
ROOT
HETATM    1  C1  UNL     1      71.327  39.618  22.814  1.00  0.00     0.044 C 
HETATM    2  C2  UNL     1      71.368  39.552  24.284  1.00  0.00    -0.071 C 
HETATM    3  C3  UNL     1      71.456  40.712  24.959  1.00  0.00    -0.023 C 
HETATM    4  C4  UNL     1      71.521  41.118  26.362  1.00  0.00     0.033 C 
HETATM    5  C5  UNL     1      70.897  40.253  27.439  1.00  0.00    -0.001 C 
HETATM    6  C6  UNL     1      69.460  40.623  27.709  1.00  0.00     0.059 C 
HETATM    7  C7  UNL     1      68.977  40.704  26.308  1.00  0.00     0.010 C 
HETATM    8  N1  UNL     1      68.431  41.746  25.887  1.00  0.00    -0.277 N 
ATOM      9  H1  UNL     1      68.104  41.788  24.921  1.00  0.00     0.193 HD
HETATM   10  C8  UNL     1      69.180  39.505  25.514  1.00  0.00     0.061 C 
HETATM   11  C9  UNL     1      70.264  38.544  25.956  1.00  0.00     0.015 C 
HETATM   12  C10 UNL     1      71.085  38.880  27.131  1.00  0.00    -0.004 C 
HETATM   13  C11 UNL     1      71.064  37.633  27.882  1.00  0.00     0.006 C 
HETATM   14  C12 UNL     1      70.793  36.382  27.121  1.00  0.00     0.013 C 
HETATM   15  C13 UNL     1      71.017  35.975  25.765  1.00  0.00    -0.007 C 
HETATM   16  C14 UNL     1      72.374  35.228  25.733  1.00  0.00     0.019 C 
HETATM   17  C15 UNL     1      71.042  36.957  24.579  1.00  0.00     0.017 C 
HETATM   18  C16 UNL     1      69.737  36.720  23.842  1.00  0.00     0.010 C 
HETATM   19  C17 UNL     1      69.522  35.244  23.945  1.00  0.00     0.039 C 
HETATM   20  C18 UNL     1      70.004  34.948  25.362  1.00  0.00     0.069 C 
HETATM   21  C24 UNL     1      71.356  38.283  24.945  1.00  0.00     0.044 C 
ENDROOT
BRANCH  20  22
HETATM   22  O2  UNL     1      68.775  35.062  26.107  1.00  0.00    -0.389 OA
ATOM     23  H2  UNL     1      68.755  35.836  26.659  1.00  0.00     0.210 HD
ENDBRANCH  20  22
BRANCH  20  24
HETATM   24  C19 UNL     1      70.236  33.488  25.483  1.00  0.00     0.027 C 
HETATM   25  C20 UNL     1      70.899  32.989  24.148  1.00  0.00     0.014 C 
BRANCH  24  26
HETATM   26  C21 UNL     1      69.029  32.594  25.563  1.00  0.00     0.050 C 
HETATM   27  C22 UNL     1      69.180  31.241  24.951  1.00  0.00     0.017 C 
BRANCH  26  28
HETATM   28  C23 UNL     1      68.664  32.348  27.013  1.00  0.00     0.235 C 
HETATM   29  O3  UNL     1      67.630  32.788  27.452  1.00  0.00    -0.306 OA
ENDBRANCH  26  28
ENDBRANCH  24  26
ENDBRANCH  20  24
BRANCH  21  30
HETATM   30  C25 UNL     1      72.789  38.197  25.284  1.00  0.00     0.246 C 
HETATM   31  O4  UNL     1      73.738  38.058  24.526  1.00  0.00    -0.306 OA
ENDBRANCH  21  30
BRANCH   8  32
HETATM   32  O1  UNL     1      68.267  42.834  26.704  1.00  0.00    -0.290 OA
ATOM     33  H1  UNL     1      68.747  43.638  26.547  1.00  0.00     0.244 HD
ENDBRANCH   8  32
TORSDOF 6
ENDMDL
MODEL 5
REMARK VINA RESULT: -6.114556651      3.031      5.033
REMARK  6 active torsions:
REMARK  status: ('A' for Active; 'I' for Inactive)
REMARK    1  A    between atoms: N1_8  and  O1_10 
REMARK    2  A    between atoms: C18_22  and  O2_23 
REMARK    3  A    between atoms: C18_22  and  C19_25 
REMARK    4  A    between atoms: C19_25  and  C21_27 
REMARK    5  A    between atoms: C21_27  and  C23_29 
REMARK    6  A    between atoms: C24_31  and  C25_32 
ROOT
HETATM    1  C1  UNL     1      69.002  37.280  22.912  1.00  0.00     0.044 C 
HETATM    2  C2  UNL     1      68.150  36.485  23.812  1.00  0.00    -0.071 C 
HETATM    3  C3  UNL     1      66.849  36.816  23.893  1.00  0.00    -0.023 C 
HETATM    4  C4  UNL     1      65.676  36.331  24.621  1.00  0.00     0.033 C 
HETATM    5  C5  UNL     1      65.591  34.882  25.054  1.00  0.00    -0.001 C 
HETATM    6  C6  UNL     1      64.932  34.011  24.013  1.00  0.00     0.059 C 
HETATM    7  C7  UNL     1      65.666  34.491  22.816  1.00  0.00     0.010 C 
HETATM    8  N1  UNL     1      65.044  34.932  21.827  1.00  0.00    -0.277 N 
ATOM      9  H1  UNL     1      65.561  35.259  21.011  1.00  0.00     0.193 HD
HETATM   10  C8  UNL     1      67.113  34.391  22.897  1.00  0.00     0.061 C 
HETATM   11  C9  UNL     1      67.738  34.330  24.275  1.00  0.00     0.015 C 
HETATM   12  C10 UNL     1      66.870  34.417  25.460  1.00  0.00    -0.004 C 
HETATM   13  C11 UNL     1      67.367  33.322  26.281  1.00  0.00     0.006 C 
HETATM   14  C12 UNL     1      68.765  32.870  26.042  1.00  0.00     0.013 C 
HETATM   15  C13 UNL     1      69.950  33.516  25.559  1.00  0.00    -0.007 C 
HETATM   16  C14 UNL     1      70.741  34.001  26.799  1.00  0.00     0.019 C 
HETATM   17  C15 UNL     1      69.927  34.701  24.575  1.00  0.00     0.017 C 
HETATM   18  C16 UNL     1      70.379  34.122  23.248  1.00  0.00     0.010 C 
HETATM   19  C17 UNL     1      71.425  33.122  23.623  1.00  0.00     0.039 C 
HETATM   20  C18 UNL     1      70.847  32.516  24.898  1.00  0.00     0.069 C 
HETATM   21  C24 UNL     1      68.720  35.432  24.594  1.00  0.00     0.044 C 
ENDROOT
BRANCH  20  22
HETATM   22  O2  UNL     1      70.123  31.387  24.370  1.00  0.00    -0.389 OA
ATOM     23  H2  UNL     1      69.279  31.633  24.009  1.00  0.00     0.210 HD
ENDBRANCH  20  22
BRANCH  20  24
HETATM   24  C19 UNL     1      71.935  31.804  25.613  1.00  0.00     0.027 C 
HETATM   25  C20 UNL     1      73.007  32.867  26.050  1.00  0.00     0.014 C 
BRANCH  24  26
HETATM   26  C21 UNL     1      72.779  30.844  24.820  1.00  0.00     0.050 C 
HETATM   27  C22 UNL     1      74.150  30.590  25.354  1.00  0.00     0.017 C 
BRANCH  26  28
HETATM   28  C23 UNL     1      72.105  29.487  24.766  1.00  0.00     0.235 C 
HETATM   29  O3  UNL     1      71.556  29.134  23.750  1.00  0.00    -0.306 OA
ENDBRANCH  26  28
ENDBRANCH  24  26
ENDBRANCH  20  24
BRANCH  21  30
HETATM   30  C25 UNL     1      68.783  36.130  25.893  1.00  0.00     0.246 C 
HETATM   31  O4  UNL     1      69.507  37.061  26.217  1.00  0.00    -0.306 OA
ENDBRANCH  21  30
BRANCH   8  32
HETATM   32  O1  UNL     1      63.673  34.984  21.824  1.00  0.00    -0.290 OA
ATOM     33  H1  UNL     1      63.208  35.535  21.207  1.00  0.00     0.244 HD
ENDBRANCH   8  32
TORSDOF 6
ENDMDL
