MODEL 1
REMARK VINA RESULT: -8.530843029      0.000      0.000
REMARK  5 active torsions:
REMARK  status: ('A' for Active; 'I' for Inactive)
REMARK       I    between atoms: N1_2  and  C2_4 
REMARK    1  A    between atoms: C2_4  and  C3_6 
REMARK    2  A    between atoms: C5_9  and  C6_10 
REMARK    3  A    between atoms: C10_14  and  N2_15 
REMARK       I    between atoms: N2_15  and  C11_17 
REMARK    4  A    between atoms: C11_17  and  C12_19 
REMARK    5  A    between atoms: C15_22  and  C16_23 
ROOT
HETATM    1  C3  UNL     1      70.888  37.230  26.890  1.00  0.00     0.099 A 
HETATM    2  S1  UNL     1      70.800  38.914  26.662  1.00  0.00    -0.094 SA
HETATM    3  C4  UNL     1      69.531  38.963  25.531  1.00  0.00     0.060 A 
HETATM    4  C5  UNL     1      69.200  37.643  25.352  1.00  0.00    -0.016 A 
HETATM    5  C10 UNL     1      69.913  36.731  26.070  1.00  0.00     0.065 A 
ENDROOT
BRANCH   5   6
HETATM    6  N2  UNL     1      69.708  35.285  25.988  1.00  0.00    -0.319 N 
HETATM    7  C11 UNL     1      70.539  34.428  25.259  1.00  0.00     0.280 C 
HETATM    8  O2  UNL     1      71.516  34.888  24.623  1.00  0.00    -0.265 OA
ATOM      9  H2  UNL     1      68.917  34.880  26.490  1.00  0.00     0.169 HD
BRANCH   7  10
HETATM   10  C12 UNL     1      70.306  32.983  25.210  1.00  0.00     0.143 A 
HETATM   11  C13 UNL     1      69.107  32.324  25.479  1.00  0.00     0.045 A 
HETATM   12  C14 UNL     1      69.319  30.973  25.318  1.00  0.00     0.036 A 
HETATM   13  C15 UNL     1      70.641  30.872  24.957  1.00  0.00     0.058 A 
HETATM   14  O3  UNL     1      71.166  32.049  24.908  1.00  0.00    -0.309 OA
BRANCH  13  15
HETATM   15  C16 UNL     1      71.361  29.580  24.664  1.00  0.00     0.043 C 
HETATM   16  C17 UNL     1      71.266  29.194  23.198  1.00  0.00     0.011 C 
HETATM   17  C18 UNL     1      72.589  29.896  22.990  1.00  0.00     0.002 C 
HETATM   18  C19 UNL     1      72.847  29.734  24.483  1.00  0.00     0.011 C 
ENDBRANCH  13  15
ENDBRANCH   7  10
ENDBRANCH   5   6
BRANCH   1  19
HETATM   19  C2  UNL     1      71.825  36.481  27.751  1.00  0.00     0.260 C 
HETATM   20  N1  UNL     1      73.010  35.990  27.151  1.00  0.00    -0.361 N 
HETATM   21  C1  UNL     1      73.997  35.245  27.900  1.00  0.00     0.149 C 
ATOM     22  H1  UNL     1      73.173  36.168  26.160  1.00  0.00     0.162 HD
HETATM   23  O1  UNL     1      71.586  36.298  28.926  1.00  0.00    -0.267 OA
ENDBRANCH   1  19
BRANCH   4  24
HETATM   24  C6  UNL     1      68.101  37.285  24.361  1.00  0.00    -0.021 C 
HETATM   25  C7  UNL     1      67.174  38.492  24.192  1.00  0.00     0.019 C 
HETATM   26  C8  UNL     1      67.314  36.083  24.777  1.00  0.00     0.019 C 
HETATM   27  C9  UNL     1      68.689  37.004  22.995  1.00  0.00     0.019 C 
ENDBRANCH   4  24
TORSDOF 5
ENDMDL
MODEL 2
REMARK VINA RESULT: -8.432936717      1.173      1.426
REMARK  5 active torsions:
REMARK  status: ('A' for Active; 'I' for Inactive)
REMARK       I    between atoms: N1_2  and  C2_4 
REMARK    1  A    between atoms: C2_4  and  C3_6 
REMARK    2  A    between atoms: C5_9  and  C6_10 
REMARK    3  A    between atoms: C10_14  and  N2_15 
REMARK       I    between atoms: N2_15  and  C11_17 
REMARK    4  A    between atoms: C11_17  and  C12_19 
REMARK    5  A    between atoms: C15_22  and  C16_23 
ROOT
HETATM    1  C3  UNL     1      71.879  37.175  25.256  1.00  0.00     0.099 A 
HETATM    2  S1  UNL     1      71.627  38.858  25.302  1.00  0.00    -0.094 SA
HETATM    3  C4  UNL     1      69.992  38.894  24.838  1.00  0.00     0.060 A 
HETATM    4  C5  UNL     1      69.673  37.572  24.654  1.00  0.00    -0.016 A 
HETATM    5  C10 UNL     1      70.667  36.667  24.877  1.00  0.00     0.065 A 
ENDROOT
BRANCH   5   6
HETATM    6  N2  UNL     1      70.510  35.222  24.710  1.00  0.00    -0.319 N 
HETATM    7  C11 UNL     1      70.545  34.315  25.773  1.00  0.00     0.280 C 
HETATM    8  O2  UNL     1      70.726  34.723  26.945  1.00  0.00    -0.265 OA
ATOM      9  H2  UNL     1      70.367  34.858  23.768  1.00  0.00     0.169 HD
BRANCH   7  10
HETATM   10  C12 UNL     1      70.374  32.875  25.566  1.00  0.00     0.143 A 
HETATM   11  C13 UNL     1      69.194  32.148  25.712  1.00  0.00     0.045 A 
HETATM   12  C14 UNL     1      69.468  30.829  25.425  1.00  0.00     0.036 A 
HETATM   13  C15 UNL     1      70.807  30.815  25.116  1.00  0.00     0.058 A 
HETATM   14  O3  UNL     1      71.284  32.009  25.211  1.00  0.00    -0.309 OA
BRANCH  13  15
HETATM   15  C16 UNL     1      71.592  29.588  24.727  1.00  0.00     0.043 C 
HETATM   16  C17 UNL     1      71.357  29.196  23.278  1.00  0.00     0.011 C 
HETATM   17  C18 UNL     1      72.583  30.007  22.924  1.00  0.00     0.002 C 
HETATM   18  C19 UNL     1      73.028  29.865  24.375  1.00  0.00     0.011 C 
ENDBRANCH  13  15
ENDBRANCH   7  10
ENDBRANCH   5   6
BRANCH   1  19
HETATM   19  C2  UNL     1      73.129  36.440  25.532  1.00  0.00     0.260 C 
HETATM   20  N1  UNL     1      73.471  36.222  26.889  1.00  0.00    -0.361 N 
HETATM   21  C1  UNL     1      74.672  35.514  27.272  1.00  0.00     0.149 C 
ATOM     22  H1  UNL     1      72.852  36.575  27.617  1.00  0.00     0.162 HD
HETATM   23  O1  UNL     1      73.832  36.040  24.628  1.00  0.00    -0.267 OA
ENDBRANCH   1  19
BRANCH   4  24
HETATM   24  C6  UNL     1      68.269  37.208  24.192  1.00  0.00    -0.021 C 
HETATM   25  C7  UNL     1      67.401  38.470  24.205  1.00  0.00     0.019 C 
HETATM   26  C8  UNL     1      67.642  36.140  25.029  1.00  0.00     0.019 C 
HETATM   27  C9  UNL     1      68.291  36.720  22.759  1.00  0.00     0.019 C 
ENDBRANCH   4  24
TORSDOF 5
ENDMDL
MODEL 3
REMARK VINA RESULT: -8.397524142      1.818      4.040
REMARK  5 active torsions:
REMARK  status: ('A' for Active; 'I' for Inactive)
REMARK       I    between atoms: N1_2  and  C2_4 
REMARK    1  A    between atoms: C2_4  and  C3_6 
REMARK    2  A    between atoms: C5_9  and  C6_10 
REMARK    3  A    between atoms: C10_14  and  N2_15 
REMARK       I    between atoms: N2_15  and  C11_17 
REMARK    4  A    between atoms: C11_17  and  C12_19 
REMARK    5  A    between atoms: C15_22  and  C16_23 
ROOT
HETATM    1  C3  UNL     1      70.400  37.331  24.184  1.00  0.00     0.099 A 
HETATM    2  S1  UNL     1      71.012  38.889  24.491  1.00  0.00    -0.094 SA
HETATM    3  C4  UNL     1      72.482  38.456  25.227  1.00  0.00     0.060 A 
HETATM    4  C5  UNL     1      72.463  37.084  25.218  1.00  0.00    -0.016 A 
HETATM    5  C10 UNL     1      71.367  36.492  24.666  1.00  0.00     0.065 A 
ENDROOT
BRANCH   5   6
HETATM    6  N2  UNL     1      71.171  35.045  24.590  1.00  0.00    -0.319 N 
HETATM    7  C11 UNL     1      70.321  34.335  25.444  1.00  0.00     0.280 C 
HETATM    8  O2  UNL     1      69.683  34.936  26.340  1.00  0.00    -0.265 OA
ATOM      9  H2  UNL     1      71.681  34.525  23.875  1.00  0.00     0.169 HD
BRANCH   7  10
HETATM   10  C12 UNL     1      70.144  32.885  25.330  1.00  0.00     0.143 A 
HETATM   11  C13 UNL     1      68.961  32.174  25.520  1.00  0.00     0.045 A 
HETATM   12  C14 UNL     1      69.230  30.839  25.317  1.00  0.00     0.036 A 
HETATM   13  C15 UNL     1      70.569  30.799  25.013  1.00  0.00     0.058 A 
HETATM   14  O3  UNL     1      71.052  31.995  25.033  1.00  0.00    -0.309 OA
BRANCH  13  15
HETATM   15  C16 UNL     1      71.349  29.546  24.705  1.00  0.00     0.043 C 
HETATM   16  C17 UNL     1      71.273  29.174  23.234  1.00  0.00     0.011 C 
HETATM   17  C18 UNL     1      72.561  29.940  23.036  1.00  0.00     0.002 C 
HETATM   18  C19 UNL     1      72.827  29.772  24.527  1.00  0.00     0.011 C 
ENDBRANCH  13  15
ENDBRANCH   7  10
ENDBRANCH   5   6
BRANCH   1  19
HETATM   19  C2  UNL     1      69.107  36.972  23.568  1.00  0.00     0.260 C 
HETATM   20  N1  UNL     1      68.030  36.675  24.439  1.00  0.00    -0.361 N 
HETATM   21  C1  UNL     1      66.722  36.312  23.944  1.00  0.00     0.149 C 
ATOM     22  H1  UNL     1      68.184  36.718  25.446  1.00  0.00     0.162 HD
HETATM   23  O1  UNL     1      68.977  36.936  22.362  1.00  0.00    -0.267 OA
ENDBRANCH   1  19
BRANCH   4  24
HETATM   24  C6  UNL     1      73.627  36.324  25.839  1.00  0.00    -0.021 C 
HETATM   25  C7  UNL     1      74.813  37.280  25.998  1.00  0.00     0.019 C 
HETATM   26  C8  UNL     1      74.031  35.127  25.040  1.00  0.00     0.019 C 
HETATM   27  C9  UNL     1      73.269  35.853  27.233  1.00  0.00     0.019 C 
ENDBRANCH   4  24
TORSDOF 5
ENDMDL
MODEL 4
REMARK VINA RESULT: -8.375190977      2.032      4.121
REMARK  5 active torsions:
REMARK  status: ('A' for Active; 'I' for Inactive)
REMARK       I    between atoms: N1_2  and  C2_4 
REMARK    1  A    between atoms: C2_4  and  C3_6 
REMARK    2  A    between atoms: C5_9  and  C6_10 
REMARK    3  A    between atoms: C10_14  and  N2_15 
REMARK       I    between atoms: N2_15  and  C11_17 
REMARK    4  A    between atoms: C11_17  and  C12_19 
REMARK    5  A    between atoms: C15_22  and  C16_23 
ROOT
HETATM    1  C3  UNL     1      68.068  36.223  24.793  1.00  0.00     0.099 A 
HETATM    2  S1  UNL     1      67.794  37.762  25.468  1.00  0.00    -0.094 SA
HETATM    3  C4  UNL     1      69.359  38.078  26.051  1.00  0.00     0.060 A 
HETATM    4  C5  UNL     1      70.073  36.959  25.702  1.00  0.00    -0.016 A 
HETATM    5  C10 UNL     1      69.393  35.983  25.038  1.00  0.00     0.065 A 
ENDROOT
BRANCH   5   6
HETATM    6  N2  UNL     1      69.989  34.718  24.609  1.00  0.00    -0.319 N 
HETATM    7  C11 UNL     1      69.871  33.525  25.330  1.00  0.00     0.280 C 
HETATM    8  O2  UNL     1      69.235  33.503  26.410  1.00  0.00    -0.265 OA
ATOM      9  H2  UNL     1      70.519  34.705  23.737  1.00  0.00     0.169 HD
BRANCH   7  10
HETATM   10  C12 UNL     1      70.475  32.276  24.861  1.00  0.00     0.143 A 
HETATM   11  C13 UNL     1      70.148  30.987  25.278  1.00  0.00     0.045 A 
HETATM   12  C14 UNL     1      70.950  30.102  24.592  1.00  0.00     0.036 A 
HETATM   13  C15 UNL     1      71.731  30.897  23.788  1.00  0.00     0.058 A 
HETATM   14  O3  UNL     1      71.424  32.135  23.976  1.00  0.00    -0.309 OA
BRANCH  13  15
HETATM   15  C16 UNL     1      72.784  30.392  22.834  1.00  0.00     0.043 C 
HETATM   16  C17 UNL     1      73.169  31.440  21.804  1.00  0.00     0.011 C 
HETATM   17  C18 UNL     1      74.298  31.844  22.725  1.00  0.00     0.002 C 
HETATM   18  C19 UNL     1      74.187  30.468  23.373  1.00  0.00     0.011 C 
ENDBRANCH  13  15
ENDBRANCH   7  10
ENDBRANCH   5   6
BRANCH   1  19
HETATM   19  C2  UNL     1      67.090  35.340  24.128  1.00  0.00     0.260 C 
HETATM   20  N1  UNL     1      65.982  34.901  24.893  1.00  0.00    -0.361 N 
HETATM   21  C1  UNL     1      64.964  34.035  24.341  1.00  0.00     0.149 C 
ATOM     22  H1  UNL     1      65.899  35.206  25.862  1.00  0.00     0.162 HD
HETATM   23  O1  UNL     1      67.234  35.006  22.970  1.00  0.00    -0.267 OA
ENDBRANCH   1  19
BRANCH   4  24
HETATM   24  C6  UNL     1      71.540  36.864  26.098  1.00  0.00    -0.021 C 
HETATM   25  C7  UNL     1      72.043  38.262  26.470  1.00  0.00     0.019 C 
HETATM   26  C8  UNL     1      72.395  36.277  25.021  1.00  0.00     0.019 C 
HETATM   27  C9  UNL     1      71.701  36.009  27.337  1.00  0.00     0.019 C 
ENDBRANCH   4  24
TORSDOF 5
ENDMDL
MODEL 5
REMARK VINA RESULT: -8.328952570      2.099      4.121
REMARK  5 active torsions:
REMARK  status: ('A' for Active; 'I' for Inactive)
REMARK       I    between atoms: N1_2  and  C2_4 
REMARK    1  A    between atoms: C2_4  and  C3_6 
REMARK    2  A    between atoms: C5_9  and  C6_10 
REMARK    3  A    between atoms: C10_14  and  N2_15 
REMARK       I    between atoms: N2_15  and  C11_17 
REMARK    4  A    between atoms: C11_17  and  C12_19 
REMARK    5  A    between atoms: C15_22  and  C16_23 
ROOT
HETATM    1  C3  UNL     1      69.146  36.899  23.594  1.00  0.00     0.099 A 
HETATM    2  S1  UNL     1      69.476  38.553  23.826  1.00  0.00    -0.094 SA
HETATM    3  C4  UNL     1      70.919  38.413  24.715  1.00  0.00     0.060 A 
HETATM    4  C5  UNL     1      71.114  37.059  24.814  1.00  0.00    -0.016 A 
HETATM    5  C10 UNL     1      70.181  36.262  24.222  1.00  0.00     0.065 A 
ENDROOT
BRANCH   5   6
HETATM    6  N2  UNL     1      70.220  34.800  24.245  1.00  0.00    -0.319 N 
HETATM    7  C11 UNL     1      69.601  34.027  25.233  1.00  0.00     0.280 C 
HETATM    8  O2  UNL     1      68.977  34.582  26.168  1.00  0.00    -0.265 OA
ATOM      9  H2  UNL     1      70.727  34.318  23.501  1.00  0.00     0.169 HD
BRANCH   7  10
HETATM   10  C12 UNL     1      69.656  32.563  25.216  1.00  0.00     0.143 A 
HETATM   11  C13 UNL     1      68.622  31.689  25.548  1.00  0.00     0.045 A 
HETATM   12  C14 UNL     1      69.090  30.402  25.399  1.00  0.00     0.036 A 
HETATM   13  C15 UNL     1      70.391  30.554  24.983  1.00  0.00     0.058 A 
HETATM   14  O3  UNL     1      70.671  31.809  24.893  1.00  0.00    -0.309 OA
BRANCH  13  15
HETATM   15  C16 UNL     1      71.339  29.422  24.681  1.00  0.00     0.043 C 
HETATM   16  C17 UNL     1      71.387  29.099  23.197  1.00  0.00     0.011 C 
HETATM   17  C18 UNL     1      72.575  30.028  23.095  1.00  0.00     0.002 C 
HETATM   18  C19 UNL     1      72.783  29.838  24.593  1.00  0.00     0.011 C 
ENDBRANCH  13  15
ENDBRANCH   7  10
ENDBRANCH   5   6
BRANCH   1  19
HETATM   19  C2  UNL     1      67.989  36.297  22.903  1.00  0.00     0.260 C 
HETATM   20  N1  UNL     1      67.635  36.830  21.640  1.00  0.00    -0.361 N 
HETATM   21  C1  UNL     1      66.520  36.315  20.876  1.00  0.00     0.149 C 
ATOM     22  H1  UNL     1      68.182  37.600  21.257  1.00  0.00     0.162 HD
HETATM   23  O1  UNL     1      67.370  35.380  23.401  1.00  0.00    -0.267 OA
ENDBRANCH   1  19
BRANCH   4  24
HETATM   24  C6  UNL     1      72.318  36.539  25.590  1.00  0.00    -0.021 C 
HETATM   25  C7  UNL     1      73.366  37.653  25.678  1.00  0.00     0.019 C 
HETATM   26  C8  UNL     1      72.916  35.313  24.979  1.00  0.00     0.019 C 
HETATM   27  C9  UNL     1      71.927  36.206  27.014  1.00  0.00     0.019 C 
ENDBRANCH   4  24
TORSDOF 5
ENDMDL
