MODEL 1
REMARK VINA RESULT: -8.946079210      0.000      0.000
REMARK  7 active torsions:
REMARK  status: ('A' for Active; 'I' for Inactive)
REMARK    1  A    between atoms: C2_2  and  O1_3 
REMARK    2  A    between atoms: C2_2  and  C3_5 
REMARK    3  A    between atoms: C2_2  and  C17_21 
REMARK    4  A    between atoms: C3_5  and  O2_6 
REMARK    5  A    between atoms: O2_6  and  C4_7 
REMARK    6  A    between atoms: C4_7  and  C5_9 
REMARK    7  A    between atoms: C22_26  and  N1_27 
ROOT
HETATM    1  C3  UNL     1      75.435  32.840  23.964  1.00  0.00     0.216 C 
ENDROOT
BRANCH   1   2
HETATM    2  C2  UNL     1      75.120  31.477  23.469  1.00  0.00     0.082 C 
HETATM    3  C1  UNL     1      75.996  30.361  23.864  1.00  0.00     0.049 C 
BRANCH   2   4
HETATM    4  O1  UNL     1      75.105  31.568  22.053  1.00  0.00    -0.388 OA
ATOM      5  H1  UNL     1      74.625  32.348  21.801  1.00  0.00     0.210 HD
ENDBRANCH   2   4
BRANCH   2   6
HETATM    6  C17 UNL     1      73.653  31.235  23.850  1.00  0.00     0.052 C 
HETATM    7  C18 UNL     1      73.478  29.912  24.581  1.00  0.00     0.010 C 
HETATM    8  C19 UNL     1      71.969  29.741  24.819  1.00  0.00     0.001 C 
HETATM    9  C20 UNL     1      71.377  29.337  23.497  1.00  0.00     0.002 C 
HETATM   10  C21 UNL     1      71.981  30.094  22.367  1.00  0.00     0.033 C 
HETATM   11  C22 UNL     1      72.673  31.382  22.761  1.00  0.00     0.190 C 
BRANCH  11  12
HETATM   12  N1  UNL     1      73.137  32.016  21.572  1.00  0.00    -0.075 N 
ATOM     13  H13 UNL     1      72.885  33.004  21.589  1.00  0.00     0.274 HD
ATOM     14  H12 UNL     1      74.155  32.083  21.594  1.00  0.00     0.274 HD
ATOM     15  H11 UNL     1      72.839  31.598  20.690  1.00  0.00     0.274 HD
ENDBRANCH  11  12
ENDBRANCH   2   6
ENDBRANCH   1   2
BRANCH   1  16
HETATM   16  O2  UNL     1      74.867  33.337  25.090  1.00  0.00    -0.318 OA
BRANCH  16  17
HETATM   17  C4  UNL     1      74.207  34.443  25.461  1.00  0.00     0.263 C 
HETATM   18  O3  UNL     1      74.887  35.468  25.685  1.00  0.00    -0.265 OA
BRANCH  17  19
HETATM   19  C5  UNL     1      72.723  34.560  25.630  1.00  0.00     0.085 C 
HETATM   20  C6  UNL     1      72.525  35.582  26.721  1.00  0.00     0.014 C 
HETATM   21  C7  UNL     1      71.392  36.542  26.458  1.00  0.00     0.001 C 
HETATM   22  C8  UNL     1      71.493  37.322  25.210  1.00  0.00     0.000 C 
HETATM   23  C9  UNL     1      70.366  37.137  24.218  1.00  0.00     0.000 C 
HETATM   24  C10 UNL     1      69.003  37.196  24.779  1.00  0.00     0.000 C 
HETATM   25  C11 UNL     1      67.996  36.272  24.240  1.00  0.00     0.000 C 
HETATM   26  C12 UNL     1      68.403  34.913  23.827  1.00  0.00     0.000 C 
HETATM   27  C13 UNL     1      68.688  33.957  24.956  1.00  0.00     0.000 C 
HETATM   28  C14 UNL     1      70.018  33.232  24.774  1.00  0.00     0.000 C 
HETATM   29  C15 UNL     1      70.753  33.033  26.058  1.00  0.00     0.001 C 
HETATM   30  C16 UNL     1      72.226  33.194  25.985  1.00  0.00     0.014 C 
ENDBRANCH  17  19
ENDBRANCH  16  17
ENDBRANCH   1  16
TORSDOF 7
ENDMDL
MODEL 2
REMARK VINA RESULT: -8.847820846      3.492      7.139
REMARK  7 active torsions:
REMARK  status: ('A' for Active; 'I' for Inactive)
REMARK    1  A    between atoms: C2_2  and  O1_3 
REMARK    2  A    between atoms: C2_2  and  C3_5 
REMARK    3  A    between atoms: C2_2  and  C17_21 
REMARK    4  A    between atoms: C3_5  and  O2_6 
REMARK    5  A    between atoms: O2_6  and  C4_7 
REMARK    6  A    between atoms: C4_7  and  C5_9 
REMARK    7  A    between atoms: C22_26  and  N1_27 
ROOT
HETATM    1  C3  UNL     1      67.253  34.260  24.887  1.00  0.00     0.216 C 
ENDROOT
BRANCH   1   2
HETATM    2  C2  UNL     1      67.339  35.689  24.496  1.00  0.00     0.082 C 
HETATM    3  C1  UNL     1      68.167  36.597  25.308  1.00  0.00     0.049 C 
BRANCH   2   4
HETATM    4  O1  UNL     1      66.005  36.173  24.484  1.00  0.00    -0.388 OA
ATOM      5  H1  UNL     1      65.814  36.523  23.622  1.00  0.00     0.210 HD
ENDBRANCH   2   4
BRANCH   2   6
HETATM    6  C17 UNL     1      67.754  35.681  23.018  1.00  0.00     0.052 C 
HETATM    7  C18 UNL     1      68.243  37.050  22.569  1.00  0.00     0.010 C 
HETATM    8  C19 UNL     1      68.532  36.938  21.064  1.00  0.00     0.001 C 
HETATM    9  C20 UNL     1      67.195  36.951  20.376  1.00  0.00     0.002 C 
HETATM   10  C21 UNL     1      66.187  36.141  21.113  1.00  0.00     0.033 C 
HETATM   11  C22 UNL     1      66.766  35.127  22.076  1.00  0.00     0.190 C 
BRANCH  11  12
HETATM   12  N1  UNL     1      65.687  34.394  22.648  1.00  0.00    -0.075 N 
ATOM     13  H13 UNL     1      65.252  34.945  23.388  1.00  0.00     0.274 HD
ATOM     14  H12 UNL     1      64.917  34.339  21.981  1.00  0.00     0.274 HD
ATOM     15  H11 UNL     1      65.907  33.461  22.997  1.00  0.00     0.274 HD
ENDBRANCH  11  12
ENDBRANCH   2   6
ENDBRANCH   1   2
BRANCH   1  16
HETATM   16  O2  UNL     1      67.894  33.783  25.982  1.00  0.00    -0.318 OA
BRANCH  16  17
HETATM   17  C4  UNL     1      68.705  32.759  26.287  1.00  0.00     0.263 C 
HETATM   18  O3  UNL     1      68.494  32.162  27.364  1.00  0.00    -0.265 OA
BRANCH  17  19
HETATM   19  C5  UNL     1      69.844  32.268  25.447  1.00  0.00     0.085 C 
HETATM   20  C6  UNL     1      70.164  33.402  24.505  1.00  0.00     0.014 C 
HETATM   21  C7  UNL     1      71.641  33.622  24.297  1.00  0.00     0.001 C 
HETATM   22  C8  UNL     1      72.423  33.899  25.517  1.00  0.00     0.000 C 
HETATM   23  C9  UNL     1      73.534  32.921  25.830  1.00  0.00     0.000 C 
HETATM   24  C10 UNL     1      74.411  32.566  24.698  1.00  0.00     0.000 C 
HETATM   25  C11 UNL     1      74.872  31.174  24.596  1.00  0.00     0.000 C 
HETATM   26  C12 UNL     1      73.973  30.078  25.009  1.00  0.00     0.000 C 
HETATM   27  C13 UNL     1      72.843  29.782  24.058  1.00  0.00     0.000 C 
HETATM   28  C14 UNL     1      71.498  29.694  24.773  1.00  0.00     0.000 C 
HETATM   29  C15 UNL     1      70.377  30.278  23.979  1.00  0.00     0.001 C 
HETATM   30  C16 UNL     1      69.362  31.029  24.758  1.00  0.00     0.014 C 
ENDBRANCH  17  19
ENDBRANCH  16  17
ENDBRANCH   1  16
TORSDOF 7
ENDMDL
MODEL 3
REMARK VINA RESULT: -8.779957973      3.437      7.362
REMARK  7 active torsions:
REMARK  status: ('A' for Active; 'I' for Inactive)
REMARK    1  A    between atoms: C2_2  and  O1_3 
REMARK    2  A    between atoms: C2_2  and  C3_5 
REMARK    3  A    between atoms: C2_2  and  C17_21 
REMARK    4  A    between atoms: C3_5  and  O2_6 
REMARK    5  A    between atoms: O2_6  and  C4_7 
REMARK    6  A    between atoms: C4_7  and  C5_9 
REMARK    7  A    between atoms: C22_26  and  N1_27 
ROOT
HETATM    1  C3  UNL     1      67.168  34.029  24.682  1.00  0.00     0.216 C 
ENDROOT
BRANCH   1   2
HETATM    2  C2  UNL     1      67.553  35.447  24.473  1.00  0.00     0.082 C 
HETATM    3  C1  UNL     1      68.615  36.023  25.314  1.00  0.00     0.049 C 
BRANCH   2   4
HETATM    4  O1  UNL     1      66.367  36.205  24.651  1.00  0.00    -0.388 OA
ATOM      5  H1  UNL     1      66.117  36.584  23.817  1.00  0.00     0.210 HD
ENDBRANCH   2   4
BRANCH   2   6
HETATM    6  C17 UNL     1      67.860  35.568  22.974  1.00  0.00     0.052 C 
HETATM    7  C18 UNL     1      68.406  36.945  22.627  1.00  0.00     0.010 C 
HETATM    8  C19 UNL     1      68.580  36.973  21.100  1.00  0.00     0.001 C 
HETATM    9  C20 UNL     1      67.202  37.136  20.522  1.00  0.00     0.002 C 
HETATM   10  C21 UNL     1      66.197  36.315  21.251  1.00  0.00     0.033 C 
HETATM   11  C22 UNL     1      66.774  35.174  22.061  1.00  0.00     0.190 C 
BRANCH  11  12
HETATM   12  N1  UNL     1      65.691  34.451  22.640  1.00  0.00    -0.075 N 
ATOM     13  H13 UNL     1      65.987  34.040  23.525  1.00  0.00     0.274 HD
ATOM     14  H12 UNL     1      64.978  35.103  22.966  1.00  0.00     0.274 HD
ATOM     15  H11 UNL     1      65.261  33.734  22.054  1.00  0.00     0.274 HD
ENDBRANCH  11  12
ENDBRANCH   2   6
ENDBRANCH   1   2
BRANCH   1  16
HETATM   16  O2  UNL     1      67.980  33.009  24.312  1.00  0.00    -0.318 OA
BRANCH  16  17
HETATM   17  C4  UNL     1      68.678  32.033  24.909  1.00  0.00     0.263 C 
HETATM   18  O3  UNL     1      68.028  31.120  25.462  1.00  0.00    -0.265 OA
BRANCH  17  19
HETATM   19  C5  UNL     1      70.172  31.940  24.972  1.00  0.00     0.085 C 
HETATM   20  C6  UNL     1      70.466  30.531  25.425  1.00  0.00     0.014 C 
HETATM   21  C7  UNL     1      71.627  29.891  24.706  1.00  0.00     0.001 C 
HETATM   22  C8  UNL     1      71.503  29.809  23.239  1.00  0.00     0.000 C 
HETATM   23  C9  UNL     1      72.574  30.519  22.441  1.00  0.00     0.000 C 
HETATM   24  C10 UNL     1      73.962  30.279  22.877  1.00  0.00     0.000 C 
HETATM   25  C11 UNL     1      74.901  31.409  22.837  1.00  0.00     0.000 C 
HETATM   26  C12 UNL     1      74.416  32.769  23.145  1.00  0.00     0.000 C 
HETATM   27  C13 UNL     1      74.142  33.039  24.601  1.00  0.00     0.000 C 
HETATM   28  C14 UNL     1      72.774  33.679  24.819  1.00  0.00     0.000 C 
HETATM   29  C15 UNL     1      72.090  33.185  26.052  1.00  0.00     0.001 C 
HETATM   30  C16 UNL     1      70.624  32.990  25.938  1.00  0.00     0.014 C 
ENDBRANCH  17  19
ENDBRANCH  16  17
ENDBRANCH   1  16
TORSDOF 7
ENDMDL
MODEL 4
REMARK VINA RESULT: -8.745040624      2.875      6.916
REMARK  7 active torsions:
REMARK  status: ('A' for Active; 'I' for Inactive)
REMARK    1  A    between atoms: C2_2  and  O1_3 
REMARK    2  A    between atoms: C2_2  and  C3_5 
REMARK    3  A    between atoms: C2_2  and  C17_21 
REMARK    4  A    between atoms: C3_5  and  O2_6 
REMARK    5  A    between atoms: O2_6  and  C4_7 
REMARK    6  A    between atoms: C4_7  and  C5_9 
REMARK    7  A    between atoms: C22_26  and  N1_27 
ROOT
HETATM    1  C3  UNL     1      69.250  37.356  24.599  1.00  0.00     0.216 C 
ENDROOT
BRANCH   1   2
HETATM    2  C2  UNL     1      67.799  37.299  24.292  1.00  0.00     0.082 C 
HETATM    3  C1  UNL     1      67.024  38.551  24.301  1.00  0.00     0.049 C 
BRANCH   2   4
HETATM    4  O1  UNL     1      67.234  36.405  25.238  1.00  0.00    -0.388 OA
ATOM      5  H1  UNL     1      66.308  36.600  25.329  1.00  0.00     0.210 HD
ENDBRANCH   2   4
BRANCH   2   6
HETATM    6  C17 UNL     1      67.695  36.553  22.955  1.00  0.00     0.052 C 
HETATM    7  C18 UNL     1      66.789  37.286  21.978  1.00  0.00     0.010 C 
HETATM    8  C19 UNL     1      66.689  36.400  20.726  1.00  0.00     0.001 C 
HETATM    9  C20 UNL     1      65.758  35.274  21.080  1.00  0.00     0.002 C 
HETATM   10  C21 UNL     1      65.995  34.775  22.462  1.00  0.00     0.033 C 
HETATM   11  C22 UNL     1      67.350  35.124  23.041  1.00  0.00     0.190 C 
BRANCH  11  12
HETATM   12  N1  UNL     1      67.447  34.525  24.330  1.00  0.00    -0.075 N 
ATOM     13  H13 UNL     1      66.571  34.653  24.835  1.00  0.00     0.274 HD
ATOM     14  H12 UNL     1      67.461  33.509  24.236  1.00  0.00     0.274 HD
ATOM     15  H11 UNL     1      68.229  34.827  24.912  1.00  0.00     0.274 HD
ENDBRANCH  11  12
ENDBRANCH   2   6
ENDBRANCH   1   2
BRANCH   1  16
HETATM   16  O2  UNL     1      70.046  36.266  24.476  1.00  0.00    -0.318 OA
BRANCH  16  17
HETATM   17  C4  UNL     1      71.300  35.915  24.794  1.00  0.00     0.263 C 
HETATM   18  O3  UNL     1      72.175  36.807  24.740  1.00  0.00    -0.265 OA
BRANCH  17  19
HETATM   19  C5  UNL     1      71.747  34.547  25.209  1.00  0.00     0.085 C 
HETATM   20  C6  UNL     1      70.734  34.089  26.229  1.00  0.00     0.014 C 
HETATM   21  C7  UNL     1      70.341  32.640  26.088  1.00  0.00     0.001 C 
HETATM   22  C8  UNL     1      69.774  32.256  24.782  1.00  0.00     0.000 C 
HETATM   23  C9  UNL     1      70.525  31.187  24.021  1.00  0.00     0.000 C 
HETATM   24  C10 UNL     1      70.920  30.001  24.804  1.00  0.00     0.000 C 
HETATM   25  C11 UNL     1      72.230  29.398  24.528  1.00  0.00     0.000 C 
HETATM   26  C12 UNL     1      73.368  30.267  24.164  1.00  0.00     0.000 C 
HETATM   27  C13 UNL     1      73.962  31.056  25.302  1.00  0.00     0.000 C 
HETATM   28  C14 UNL     1      74.131  32.532  24.951  1.00  0.00     0.000 C 
HETATM   29  C15 UNL     1      73.839  33.440  26.099  1.00  0.00     0.001 C 
HETATM   30  C16 UNL     1      73.131  34.698  25.758  1.00  0.00     0.014 C 
ENDBRANCH  17  19
ENDBRANCH  16  17
ENDBRANCH   1  16
TORSDOF 7
ENDMDL
MODEL 5
REMARK VINA RESULT: -8.719366197      2.841      6.726
REMARK  7 active torsions:
REMARK  status: ('A' for Active; 'I' for Inactive)
REMARK    1  A    between atoms: C2_2  and  O1_3 
REMARK    2  A    between atoms: C2_2  and  C3_5 
REMARK    3  A    between atoms: C2_2  and  C17_21 
REMARK    4  A    between atoms: C3_5  and  O2_6 
REMARK    5  A    between atoms: O2_6  and  C4_7 
REMARK    6  A    between atoms: C4_7  and  C5_9 
REMARK    7  A    between atoms: C22_26  and  N1_27 
ROOT
HETATM    1  C3  UNL     1      71.328  37.539  27.516  1.00  0.00     0.216 C 
ENDROOT
BRANCH   1   2
HETATM    2  C2  UNL     1      71.057  38.203  26.217  1.00  0.00     0.082 C 
HETATM    3  C1  UNL     1      72.150  38.314  25.237  1.00  0.00     0.049 C 
BRANCH   2   4
HETATM    4  O1  UNL     1      70.591  39.506  26.532  1.00  0.00    -0.388 OA
ATOM      5  H1  UNL     1      71.316  40.016  26.873  1.00  0.00     0.210 HD
ENDBRANCH   2   4
BRANCH   2   6
HETATM    6  C17 UNL     1      69.826  37.487  25.644  1.00  0.00     0.052 C 
HETATM    7  C18 UNL     1      69.914  37.350  24.132  1.00  0.00     0.010 C 
HETATM    8  C19 UNL     1      68.592  36.713  23.673  1.00  0.00     0.001 C 
HETATM    9  C20 UNL     1      67.556  37.802  23.732  1.00  0.00     0.002 C 
HETATM   10  C21 UNL     1      67.718  38.653  24.942  1.00  0.00     0.033 C 
HETATM   11  C22 UNL     1      68.518  38.023  26.061  1.00  0.00     0.190 C 
BRANCH  11  12
HETATM   12  N1  UNL     1      68.527  38.927  27.162  1.00  0.00    -0.075 N 
ATOM     13  H13 UNL     1      68.794  38.431  28.012  1.00  0.00     0.274 HD
ATOM     14  H12 UNL     1      69.310  39.574  27.070  1.00  0.00     0.274 HD
ATOM     15  H11 UNL     1      67.666  39.451  27.325  1.00  0.00     0.274 HD
ENDBRANCH  11  12
ENDBRANCH   2   6
ENDBRANCH   1   2
BRANCH   1  16
HETATM   16  O2  UNL     1      71.358  36.189  27.633  1.00  0.00    -0.318 OA
BRANCH  16  17
HETATM   17  C4  UNL     1      72.134  35.177  27.220  1.00  0.00     0.263 C 
HETATM   18  O3  UNL     1      73.270  35.080  27.734  1.00  0.00    -0.265 OA
BRANCH  17  19
HETATM   19  C5  UNL     1      71.759  34.151  26.196  1.00  0.00     0.085 C 
HETATM   20  C6  UNL     1      72.498  34.550  24.942  1.00  0.00     0.014 C 
HETATM   21  C7  UNL     1      73.087  33.385  24.186  1.00  0.00     0.001 C 
HETATM   22  C8  UNL     1      74.035  32.545  24.944  1.00  0.00     0.000 C 
HETATM   23  C9  UNL     1      73.658  31.089  25.094  1.00  0.00     0.000 C 
HETATM   24  C10 UNL     1      73.209  30.413  23.862  1.00  0.00     0.000 C 
HETATM   25  C11 UNL     1      72.108  29.446  23.969  1.00  0.00     0.000 C 
HETATM   26  C12 UNL     1      71.019  29.689  24.937  1.00  0.00     0.000 C 
HETATM   27  C13 UNL     1      70.043  30.769  24.547  1.00  0.00     0.000 C 
HETATM   28  C14 UNL     1      69.800  31.761  25.681  1.00  0.00     0.000 C 
HETATM   29  C15 UNL     1      69.652  33.167  25.202  1.00  0.00     0.001 C 
HETATM   30  C16 UNL     1      70.270  34.206  26.061  1.00  0.00     0.014 C 
ENDBRANCH  17  19
ENDBRANCH  16  17
ENDBRANCH   1  16
TORSDOF 7
ENDMDL
