MODEL 1
REMARK VINA RESULT: -9.830646885      0.000      0.000
REMARK  11 active torsions:
REMARK  status: ('A' for Active; 'I' for Inactive)
REMARK    1  A    between atoms: N1_1  and  C1_4 
REMARK    2  A    between atoms: C4_16  and  C5_17 
REMARK    3  A    between atoms: C6_18  and  C7_19 
REMARK       I    between atoms: C7_19  and  N6_21 
REMARK    4  A    between atoms: N6_21  and  N7_23 
REMARK    5  A    between atoms: N9_29  and  C9_30 
REMARK    6  A    between atoms: C9_30  and  O2_31 
REMARK    7  A    between atoms: O2_31  and  C10_32 
REMARK    8  A    between atoms: C10_32  and  C11_33 
REMARK    9  A    between atoms: C10_32  and  C12_36 
REMARK   10  A    between atoms: C11_33  and  O3_34 
REMARK   11  A    between atoms: C12_36  and  O4_37 
ROOT
HETATM    1  C1  UNL     1     -16.722  -1.322 -32.140  1.00  0.00     0.678 A 
HETATM    2  N2  UNL     1     -16.518  -1.979 -30.988  1.00  0.00    -0.175 N 
ATOM      3  H2  UNL     1     -16.796  -1.556 -30.103  1.00  0.00     0.186 HD
HETATM    4  C2  UNL     1     -15.946  -3.194 -31.003  1.00  0.00     0.145 A 
HETATM    5  N3  UNL     1     -15.751  -3.819 -29.901  1.00  0.00    -0.383 N 
ATOM      6  H31 UNL     1     -15.316  -4.742 -29.912  1.00  0.00     0.157 HD
ATOM      7  H32 UNL     1     -16.030  -3.390 -29.019  1.00  0.00     0.157 HD
HETATM    8  C3  UNL     1     -15.563  -3.782 -32.214  1.00  0.00     0.125 A 
HETATM    9  N4  UNL     1     -15.010  -4.988 -32.057  1.00  0.00    -0.293 N 
ATOM     10  H4  UNL     1     -14.684  -5.205 -31.115  1.00  0.00     0.187 HD
HETATM   11  N5  UNL     1     -14.829  -5.935 -32.954  1.00  0.00    -0.283 N 
ATOM     12  H5  UNL     1     -14.502  -6.826 -32.581  1.00  0.00     0.188 HD
HETATM   13  C4  UNL     1     -15.011  -5.907 -34.288  1.00  0.00     0.152 C 
HETATM   14  N10 UNL     1     -14.976  -4.777 -34.992  1.00  0.00    -0.305 N 
ATOM     15  H10 UNL     1     -14.531  -4.839 -35.908  1.00  0.00     0.171 HD
HETATM   16  C13 UNL     1     -15.460  -3.541 -34.648  1.00  0.00     0.277 C 
HETATM   17  O5  UNL     1     -15.642  -2.700 -35.552  1.00  0.00    -0.266 OA
HETATM   18  C14 UNL     1     -15.783  -3.089 -33.385  1.00  0.00     0.148 A 
HETATM   19  N11 UNL     1     -16.353  -1.884 -33.323  1.00  0.00    -0.184 N 
ATOM     20  H11 UNL     1     -16.517  -1.370 -34.188  1.00  0.00     0.184 HD
ENDROOT
BRANCH  13  21
HETATM   21  C5  UNL     1     -15.299  -7.175 -34.912  1.00  0.00     0.116 A 
HETATM   22  C6  UNL     1     -16.480  -7.538 -35.549  1.00  0.00     0.134 A 
HETATM   23  N8  UNL     1     -16.341  -8.870 -35.918  1.00  0.00    -0.346 N 
HETATM   24  C8  UNL     1     -15.156  -9.290 -35.536  1.00  0.00     0.186 A 
ATOM     25  H8  UNL     1     -17.041  -9.428 -36.405  1.00  0.00     0.167 HD
HETATM   26  N9  UNL     1     -14.500  -8.257 -34.914  1.00  0.00    -0.316 N 
BRANCH  22  27
HETATM   27  C7  UNL     1     -17.661  -6.790 -35.908  1.00  0.00     0.288 C 
HETATM   28  O1  UNL     1     -18.017  -5.718 -35.412  1.00  0.00    -0.264 OA
HETATM   29  N6  UNL     1     -18.517  -7.339 -36.944  1.00  0.00    -0.271 N 
ATOM     30  H6  UNL     1     -18.262  -8.223 -37.383  1.00  0.00     0.189 HD
BRANCH  29  31
HETATM   31  N7  UNL     1     -19.684  -6.685 -37.358  1.00  0.00    -0.342 N 
ATOM     32  H72 UNL     1     -20.542  -7.231 -37.427  1.00  0.00     0.176 HD
ATOM     33  H71 UNL     1     -19.689  -5.690 -37.586  1.00  0.00     0.176 HD
ENDBRANCH  29  31
ENDBRANCH  22  27
BRANCH  26  34
HETATM   34  C9  UNL     1     -13.187  -8.428 -34.406  1.00  0.00     0.300 C 
BRANCH  34  35
HETATM   35  O2  UNL     1     -13.206  -8.726 -33.039  1.00  0.00    -0.362 OA
BRANCH  35  36
HETATM   36  C10 UNL     1     -11.984  -8.664 -32.436  1.00  0.00     0.170 C 
BRANCH  36  37
HETATM   37  C11 UNL     1     -10.852  -8.711 -33.481  1.00  0.00     0.198 C 
BRANCH  37  38
HETATM   38  O3  UNL     1     -10.010  -7.648 -33.229  1.00  0.00    -0.398 OA
ATOM     39  H3  UNL     1      -9.744  -7.704 -32.319  1.00  0.00     0.209 HD
ENDBRANCH  37  38
ENDBRANCH  36  37
BRANCH  36  40
HETATM   40  C12 UNL     1     -11.714  -7.495 -31.569  1.00  0.00     0.198 C 
BRANCH  40  41
HETATM   41  O4  UNL     1     -12.208  -6.282 -32.008  1.00  0.00    -0.398 OA
ATOM     42  H4  UNL     1     -11.564  -5.606 -32.186  1.00  0.00     0.209 HD
ENDBRANCH  40  41
ENDBRANCH  36  40
ENDBRANCH  35  36
ENDBRANCH  34  35
ENDBRANCH  26  34
ENDBRANCH  13  21
BRANCH   1  43
HETATM   43  N1  UNL     1     -17.269  -0.159 -32.128  1.00  0.00    -0.234 N 
ATOM     44  H12 UNL     1     -16.893   0.573 -31.526  1.00  0.00     0.174 HD
ATOM     45  H11 UNL     1     -18.076   0.030 -32.722  1.00  0.00     0.174 HD
ENDBRANCH   1  43
TORSDOF 11
ENDMDL
MODEL 2
REMARK VINA RESULT: -9.792839061      0.744      1.167
REMARK  11 active torsions:
REMARK  status: ('A' for Active; 'I' for Inactive)
REMARK    1  A    between atoms: N1_1  and  C1_4 
REMARK    2  A    between atoms: C4_16  and  C5_17 
REMARK    3  A    between atoms: C6_18  and  C7_19 
REMARK       I    between atoms: C7_19  and  N6_21 
REMARK    4  A    between atoms: N6_21  and  N7_23 
REMARK    5  A    between atoms: N9_29  and  C9_30 
REMARK    6  A    between atoms: C9_30  and  O2_31 
REMARK    7  A    between atoms: O2_31  and  C10_32 
REMARK    8  A    between atoms: C10_32  and  C11_33 
REMARK    9  A    between atoms: C10_32  and  C12_36 
REMARK   10  A    between atoms: C11_33  and  O3_34 
REMARK   11  A    between atoms: C12_36  and  O4_37 
ROOT
HETATM    1  C1  UNL     1     -17.150  -1.274 -32.131  1.00  0.00     0.678 A 
HETATM    2  N2  UNL     1     -16.984  -1.905 -30.958  1.00  0.00    -0.175 N 
ATOM      3  H2  UNL     1     -17.374  -1.506 -30.105  1.00  0.00     0.186 HD
HETATM    4  C2  UNL     1     -16.304  -3.062 -30.911  1.00  0.00     0.145 A 
HETATM    5  N3  UNL     1     -16.146  -3.662 -29.790  1.00  0.00    -0.383 N 
ATOM      6  H31 UNL     1     -15.630  -4.541 -29.753  1.00  0.00     0.157 HD
ATOM      7  H32 UNL     1     -16.537  -3.257 -28.939  1.00  0.00     0.157 HD
HETATM    8  C3  UNL     1     -15.767  -3.617 -32.079  1.00  0.00     0.125 A 
HETATM    9  N4  UNL     1     -15.122  -4.766 -31.862  1.00  0.00    -0.293 N 
ATOM     10  H4  UNL     1     -14.858  -4.948 -30.893  1.00  0.00     0.187 HD
HETATM   11  N5  UNL     1     -14.780  -5.696 -32.729  1.00  0.00    -0.283 N 
ATOM     12  H5  UNL     1     -14.404  -6.552 -32.320  1.00  0.00     0.188 HD
HETATM   13  C4  UNL     1     -14.849  -5.690 -34.074  1.00  0.00     0.152 C 
HETATM   14  N10 UNL     1     -14.859  -4.565 -34.786  1.00  0.00    -0.305 N 
ATOM     15  H10 UNL     1     -14.335  -4.589 -35.660  1.00  0.00     0.171 HD
HETATM   16  C13 UNL     1     -15.482  -3.377 -34.498  1.00  0.00     0.277 C 
HETATM   17  O5  UNL     1     -15.663  -2.560 -35.424  1.00  0.00    -0.266 OA
HETATM   18  C14 UNL     1     -15.951  -2.952 -33.273  1.00  0.00     0.148 A 
HETATM   19  N11 UNL     1     -16.632  -1.805 -33.273  1.00  0.00    -0.184 N 
ATOM     20  H11 UNL     1     -16.769  -1.312 -34.154  1.00  0.00     0.184 HD
ENDROOT
BRANCH  13  21
HETATM   21  C5  UNL     1     -14.966  -6.982 -34.705  1.00  0.00     0.116 A 
HETATM   22  C6  UNL     1     -16.087  -7.494 -35.349  1.00  0.00     0.134 A 
HETATM   23  N8  UNL     1     -15.772  -8.794 -35.723  1.00  0.00    -0.346 N 
HETATM   24  C8  UNL     1     -14.544  -9.057 -35.338  1.00  0.00     0.186 A 
ATOM     25  H8  UNL     1     -16.392  -9.437 -36.215  1.00  0.00     0.167 HD
HETATM   26  N9  UNL     1     -14.032  -7.950 -34.709  1.00  0.00    -0.316 N 
BRANCH  22  27
HETATM   27  C7  UNL     1     -17.355  -6.906 -35.708  1.00  0.00     0.288 C 
HETATM   28  O1  UNL     1     -17.873  -5.921 -35.177  1.00  0.00    -0.264 OA
HETATM   29  N6  UNL     1     -18.100  -7.522 -36.792  1.00  0.00    -0.271 N 
ATOM     30  H6  UNL     1     -17.711  -8.340 -37.261  1.00  0.00     0.189 HD
BRANCH  29  31
HETATM   31  N7  UNL     1     -19.339  -7.023 -37.210  1.00  0.00    -0.342 N 
ATOM     32  H72 UNL     1     -20.183  -7.448 -36.826  1.00  0.00     0.176 HD
ATOM     33  H71 UNL     1     -19.411  -6.255 -37.878  1.00  0.00     0.176 HD
ENDBRANCH  29  31
ENDBRANCH  22  27
BRANCH  26  34
HETATM   34  C9  UNL     1     -12.709  -7.949 -34.197  1.00  0.00     0.300 C 
BRANCH  34  35
HETATM   35  O2  UNL     1     -12.706  -7.872 -32.800  1.00  0.00    -0.362 OA
BRANCH  35  36
HETATM   36  C10 UNL     1     -11.481  -7.615 -32.257  1.00  0.00     0.170 C 
BRANCH  36  37
HETATM   37  C11 UNL     1     -11.434  -8.045 -30.777  1.00  0.00     0.198 C 
BRANCH  37  38
HETATM   38  O3  UNL     1     -10.436  -7.315 -30.165  1.00  0.00    -0.398 OA
ATOM     39  H3  UNL     1      -9.645  -7.428 -30.678  1.00  0.00     0.209 HD
ENDBRANCH  37  38
ENDBRANCH  36  37
BRANCH  36  40
HETATM   40  C12 UNL     1     -10.305  -8.228 -32.915  1.00  0.00     0.198 C 
BRANCH  40  41
HETATM   41  O4  UNL     1      -9.124  -7.515 -32.842  1.00  0.00    -0.398 OA
ATOM     42  H4  UNL     1      -8.567  -7.702 -32.096  1.00  0.00     0.209 HD
ENDBRANCH  40  41
ENDBRANCH  36  40
ENDBRANCH  35  36
ENDBRANCH  34  35
ENDBRANCH  26  34
ENDBRANCH  13  21
BRANCH   1  43
HETATM   43  N1  UNL     1     -17.800  -0.167 -32.179  1.00  0.00    -0.234 N 
ATOM     44  H12 UNL     1     -17.509   0.618 -31.597  1.00  0.00     0.174 HD
ATOM     45  H11 UNL     1     -18.605  -0.075 -32.799  1.00  0.00     0.174 HD
ENDBRANCH   1  43
TORSDOF 11
ENDMDL
MODEL 3
REMARK VINA RESULT: -9.533269209      1.839      4.950
REMARK  11 active torsions:
REMARK  status: ('A' for Active; 'I' for Inactive)
REMARK    1  A    between atoms: N1_1  and  C1_4 
REMARK    2  A    between atoms: C4_16  and  C5_17 
REMARK    3  A    between atoms: C6_18  and  C7_19 
REMARK       I    between atoms: C7_19  and  N6_21 
REMARK    4  A    between atoms: N6_21  and  N7_23 
REMARK    5  A    between atoms: N9_29  and  C9_30 
REMARK    6  A    between atoms: C9_30  and  O2_31 
REMARK    7  A    between atoms: O2_31  and  C10_32 
REMARK    8  A    between atoms: C10_32  and  C11_33 
REMARK    9  A    between atoms: C10_32  and  C12_36 
REMARK   10  A    between atoms: C11_33  and  O3_34 
REMARK   11  A    between atoms: C12_36  and  O4_37 
ROOT
HETATM    1  C1  UNL     1     -17.646  -1.086 -32.460  1.00  0.00     0.678 A 
HETATM    2  N2  UNL     1     -17.744  -1.587 -31.219  1.00  0.00    -0.175 N 
ATOM      3  H2  UNL     1     -18.374  -1.156 -30.543  1.00  0.00     0.186 HD
HETATM    4  C2  UNL     1     -17.009  -2.655 -30.868  1.00  0.00     0.145 A 
HETATM    5  N3  UNL     1     -17.103  -3.130 -29.681  1.00  0.00    -0.383 N 
ATOM      6  H31 UNL     1     -16.546  -3.942 -29.414  1.00  0.00     0.157 HD
ATOM      7  H32 UNL     1     -17.735  -2.694 -29.010  1.00  0.00     0.157 HD
HETATM    8  C3  UNL     1     -16.142  -3.253 -31.790  1.00  0.00     0.125 A 
HETATM    9  N4  UNL     1     -15.485  -4.301 -31.286  1.00  0.00    -0.293 N 
ATOM     10  H4  UNL     1     -15.472  -4.365 -30.268  1.00  0.00     0.187 HD
HETATM   11  N5  UNL     1     -14.854  -5.264 -31.925  1.00  0.00    -0.283 N 
ATOM     12  H5  UNL     1     -14.532  -6.034 -31.338  1.00  0.00     0.188 HD
HETATM   13  C4  UNL     1     -14.569  -5.387 -33.235  1.00  0.00     0.152 C 
HETATM   14  N10 UNL     1     -14.481  -4.339 -34.052  1.00  0.00    -0.305 N 
ATOM     15  H10 UNL     1     -13.746  -4.386 -34.756  1.00  0.00     0.171 HD
HETATM   16  C13 UNL     1     -15.251  -3.204 -34.069  1.00  0.00     0.277 C 
HETATM   17  O5  UNL     1     -15.248  -2.499 -35.099  1.00  0.00    -0.266 OA
HETATM   18  C14 UNL     1     -16.058  -2.722 -33.060  1.00  0.00     0.148 A 
HETATM   19  N11 UNL     1     -16.805  -1.660 -33.364  1.00  0.00    -0.184 N 
ATOM     20  H11 UNL     1     -16.745  -1.266 -34.303  1.00  0.00     0.184 HD
ENDROOT
BRANCH  13  21
HETATM   21  C5  UNL     1     -14.411  -6.737 -33.721  1.00  0.00     0.116 A 
HETATM   22  C6  UNL     1     -13.310  -7.563 -33.533  1.00  0.00     0.134 A 
HETATM   23  N8  UNL     1     -13.561  -8.730 -34.245  1.00  0.00    -0.346 N 
HETATM   24  C8  UNL     1     -14.736  -8.623 -34.824  1.00  0.00     0.186 A 
ATOM     25  H8  UNL     1     -12.938  -9.534 -34.307  1.00  0.00     0.167 HD
HETATM   26  N9  UNL     1     -15.274  -7.401 -34.511  1.00  0.00    -0.316 N 
BRANCH  22  27
HETATM   27  C7  UNL     1     -12.116  -7.427 -32.734  1.00  0.00     0.288 C 
HETATM   28  O1  UNL     1     -12.068  -7.029 -31.568  1.00  0.00    -0.264 OA
HETATM   29  N6  UNL     1     -10.850  -7.787 -33.347  1.00  0.00    -0.271 N 
ATOM     30  H6  UNL     1     -10.841  -8.122 -34.310  1.00  0.00     0.189 HD
BRANCH  29  31
HETATM   31  N7  UNL     1      -9.640  -7.688 -32.649  1.00  0.00    -0.342 N 
ATOM     32  H72 UNL     1      -9.134  -8.548 -32.440  1.00  0.00     0.176 HD
ATOM     33  H71 UNL     1      -9.264  -6.787 -32.353  1.00  0.00     0.176 HD
ENDBRANCH  29  31
ENDBRANCH  22  27
BRANCH  26  34
HETATM   34  C9  UNL     1     -16.551  -7.020 -34.996  1.00  0.00     0.300 C 
BRANCH  34  35
HETATM   35  O2  UNL     1     -16.448  -6.004 -35.952  1.00  0.00    -0.362 OA
BRANCH  35  36
HETATM   36  C10 UNL     1     -17.648  -5.504 -36.369  1.00  0.00     0.170 C 
BRANCH  36  37
HETATM   37  C11 UNL     1     -17.461  -4.158 -37.095  1.00  0.00     0.198 C 
BRANCH  37  38
HETATM   38  O3  UNL     1     -16.130  -4.056 -37.443  1.00  0.00    -0.398 OA
ATOM     39  H3  UNL     1     -15.819  -4.931 -37.642  1.00  0.00     0.209 HD
ENDBRANCH  37  38
ENDBRANCH  36  37
BRANCH  36  40
HETATM   40  C12 UNL     1     -18.466  -6.358 -37.259  1.00  0.00     0.198 C 
BRANCH  40  41
HETATM   41  O4  UNL     1     -18.075  -6.412 -38.583  1.00  0.00    -0.398 OA
ATOM     42  H4  UNL     1     -17.276  -5.947 -38.803  1.00  0.00     0.209 HD
ENDBRANCH  40  41
ENDBRANCH  36  40
ENDBRANCH  35  36
ENDBRANCH  34  35
ENDBRANCH  26  34
ENDBRANCH  13  21
BRANCH   1  43
HETATM   43  N1  UNL     1     -18.347  -0.065 -32.798  1.00  0.00    -0.234 N 
ATOM     44  H12 UNL     1     -19.222   0.134 -32.314  1.00  0.00     0.174 HD
ATOM     45  H11 UNL     1     -18.027   0.547 -33.550  1.00  0.00     0.174 HD
ENDBRANCH   1  43
TORSDOF 11
ENDMDL
MODEL 4
REMARK VINA RESULT: -9.529131152      1.684      4.873
REMARK  11 active torsions:
REMARK  status: ('A' for Active; 'I' for Inactive)
REMARK    1  A    between atoms: N1_1  and  C1_4 
REMARK    2  A    between atoms: C4_16  and  C5_17 
REMARK    3  A    between atoms: C6_18  and  C7_19 
REMARK       I    between atoms: C7_19  and  N6_21 
REMARK    4  A    between atoms: N6_21  and  N7_23 
REMARK    5  A    between atoms: N9_29  and  C9_30 
REMARK    6  A    between atoms: C9_30  and  O2_31 
REMARK    7  A    between atoms: O2_31  and  C10_32 
REMARK    8  A    between atoms: C10_32  and  C11_33 
REMARK    9  A    between atoms: C10_32  and  C12_36 
REMARK   10  A    between atoms: C11_33  and  O3_34 
REMARK   11  A    between atoms: C12_36  and  O4_37 
ROOT
HETATM    1  C1  UNL     1     -17.256  -1.448 -32.415  1.00  0.00     0.678 A 
HETATM    2  N2  UNL     1     -17.117  -1.977 -31.189  1.00  0.00    -0.175 N 
ATOM      3  H2  UNL     1     -17.562  -1.531 -30.387  1.00  0.00     0.186 HD
HETATM    4  C2  UNL     1     -16.390  -3.094 -31.021  1.00  0.00     0.145 A 
HETATM    5  N3  UNL     1     -16.258  -3.596 -29.849  1.00  0.00    -0.383 N 
ATOM      6  H31 UNL     1     -15.706  -4.445 -29.721  1.00  0.00     0.157 HD
ATOM      7  H32 UNL     1     -16.704  -3.146 -29.051  1.00  0.00     0.157 HD
HETATM    8  C3  UNL     1     -15.777  -3.712 -32.117  1.00  0.00     0.125 A 
HETATM    9  N4  UNL     1     -15.093  -4.810 -31.782  1.00  0.00    -0.293 N 
ATOM     10  H4  UNL     1     -14.866  -4.903 -30.791  1.00  0.00     0.187 HD
HETATM   11  N5  UNL     1     -14.672  -5.787 -32.557  1.00  0.00    -0.283 N 
ATOM     12  H5  UNL     1     -14.279  -6.590 -32.065  1.00  0.00     0.188 HD
HETATM   13  C4  UNL     1     -14.680  -5.889 -33.900  1.00  0.00     0.152 C 
HETATM   14  N10 UNL     1     -14.706  -4.824 -34.699  1.00  0.00    -0.305 N 
ATOM     15  H10 UNL     1     -14.141  -4.892 -35.546  1.00  0.00     0.171 HD
HETATM   16  C13 UNL     1     -15.392  -3.648 -34.533  1.00  0.00     0.277 C 
HETATM   17  O5  UNL     1     -15.565  -2.915 -35.528  1.00  0.00    -0.266 OA
HETATM   18  C14 UNL     1     -15.934  -3.151 -33.367  1.00  0.00     0.148 A 
HETATM   19  N11 UNL     1     -16.663  -2.041 -33.487  1.00  0.00    -0.184 N 
ATOM     20  H11 UNL     1     -16.781  -1.625 -34.410  1.00  0.00     0.184 HD
ENDROOT
BRANCH  13  21
HETATM   21  C5  UNL     1     -14.712  -7.231 -34.430  1.00  0.00     0.116 A 
HETATM   22  C6  UNL     1     -13.633  -8.097 -34.559  1.00  0.00     0.134 A 
HETATM   23  N8  UNL     1     -14.112  -9.237 -35.193  1.00  0.00    -0.346 N 
HETATM   24  C8  UNL     1     -15.394  -9.078 -35.430  1.00  0.00     0.186 A 
ATOM     25  H8  UNL     1     -13.560 -10.060 -35.433  1.00  0.00     0.167 HD
HETATM   26  N9  UNL     1     -15.781  -7.846 -34.965  1.00  0.00    -0.316 N 
BRANCH  22  27
HETATM   27  C7  UNL     1     -12.263  -8.020 -34.111  1.00  0.00     0.288 C 
HETATM   28  O1  UNL     1     -11.274  -8.410 -34.737  1.00  0.00    -0.264 OA
HETATM   29  N6  UNL     1     -12.012  -7.434 -32.807  1.00  0.00    -0.271 N 
ATOM     30  H6  UNL     1     -12.800  -7.097 -32.253  1.00  0.00     0.189 HD
BRANCH  29  31
HETATM   31  N7  UNL     1     -10.717  -7.317 -32.289  1.00  0.00    -0.342 N 
ATOM     32  H72 UNL     1     -10.094  -8.121 -32.367  1.00  0.00     0.176 HD
ATOM     33  H71 UNL     1     -10.392  -6.458 -31.844  1.00  0.00     0.176 HD
ENDBRANCH  29  31
ENDBRANCH  22  27
BRANCH  26  34
HETATM   34  C9  UNL     1     -17.126  -7.412 -35.081  1.00  0.00     0.300 C 
BRANCH  34  35
HETATM   35  O2  UNL     1     -17.576  -7.502 -36.402  1.00  0.00    -0.362 OA
BRANCH  35  36
HETATM   36  C10 UNL     1     -18.493  -6.551 -36.746  1.00  0.00     0.170 C 
BRANCH  36  37
HETATM   37  C11 UNL     1     -17.892  -5.137 -36.624  1.00  0.00     0.198 C 
BRANCH  37  38
HETATM   38  O3  UNL     1     -16.678  -5.145 -37.278  1.00  0.00    -0.398 OA
ATOM     39  H3  UNL     1     -16.362  -4.249 -37.304  1.00  0.00     0.209 HD
ENDBRANCH  37  38
ENDBRANCH  36  37
BRANCH  36  40
HETATM   40  C12 UNL     1     -19.092  -6.644 -38.097  1.00  0.00     0.198 C 
BRANCH  40  41
HETATM   41  O4  UNL     1     -18.208  -6.797 -39.147  1.00  0.00    -0.398 OA
ATOM     42  H4  UNL     1     -18.332  -6.215 -39.888  1.00  0.00     0.209 HD
ENDBRANCH  40  41
ENDBRANCH  36  40
ENDBRANCH  35  36
ENDBRANCH  34  35
ENDBRANCH  26  34
ENDBRANCH  13  21
BRANCH   1  43
HETATM   43  N1  UNL     1     -17.950  -0.379 -32.578  1.00  0.00    -0.234 N 
ATOM     44  H12 UNL     1     -18.826  -0.260 -32.071  1.00  0.00     0.174 HD
ATOM     45  H11 UNL     1     -17.624   0.348 -33.214  1.00  0.00     0.174 HD
ENDBRANCH   1  43
TORSDOF 11
ENDMDL
MODEL 5
REMARK VINA RESULT: -9.407785011      1.273      1.678
REMARK  11 active torsions:
REMARK  status: ('A' for Active; 'I' for Inactive)
REMARK    1  A    between atoms: N1_1  and  C1_4 
REMARK    2  A    between atoms: C4_16  and  C5_17 
REMARK    3  A    between atoms: C6_18  and  C7_19 
REMARK       I    between atoms: C7_19  and  N6_21 
REMARK    4  A    between atoms: N6_21  and  N7_23 
REMARK    5  A    between atoms: N9_29  and  C9_30 
REMARK    6  A    between atoms: C9_30  and  O2_31 
REMARK    7  A    between atoms: O2_31  and  C10_32 
REMARK    8  A    between atoms: C10_32  and  C11_33 
REMARK    9  A    between atoms: C10_32  and  C12_36 
REMARK   10  A    between atoms: C11_33  and  O3_34 
REMARK   11  A    between atoms: C12_36  and  O4_37 
ROOT
HETATM    1  C1  UNL     1     -17.613  -1.179 -32.510  1.00  0.00     0.678 A 
HETATM    2  N2  UNL     1     -17.580  -1.665 -31.260  1.00  0.00    -0.175 N 
ATOM      3  H2  UNL     1     -18.134  -1.224 -30.526  1.00  0.00     0.186 HD
HETATM    4  C2  UNL     1     -16.817  -2.734 -30.978  1.00  0.00     0.145 A 
HETATM    5  N3  UNL     1     -16.786  -3.196 -29.783  1.00  0.00    -0.383 N 
ATOM      6  H31 UNL     1     -16.206  -4.007 -29.568  1.00  0.00     0.157 HD
ATOM      7  H32 UNL     1     -17.340  -2.750 -29.052  1.00  0.00     0.157 HD
HETATM    8  C3  UNL     1     -16.055  -3.345 -31.980  1.00  0.00     0.125 A 
HETATM    9  N4  UNL     1     -15.353  -4.392 -31.537  1.00  0.00    -0.293 N 
ATOM     10  H4  UNL     1     -15.231  -4.445 -30.526  1.00  0.00     0.187 HD
HETATM   11  N5  UNL     1     -14.797  -5.364 -32.230  1.00  0.00    -0.283 N 
ATOM     12  H5  UNL     1     -14.417  -6.129 -31.673  1.00  0.00     0.188 HD
HETATM   13  C4  UNL     1     -14.653  -5.503 -33.562  1.00  0.00     0.152 C 
HETATM   14  N10 UNL     1     -14.649  -4.463 -34.394  1.00  0.00    -0.305 N 
ATOM     15  H10 UNL     1     -13.993  -4.521 -35.173  1.00  0.00     0.171 HD
HETATM   16  C13 UNL     1     -15.413  -3.325 -34.342  1.00  0.00     0.277 C 
HETATM   17  O5  UNL     1     -15.516  -2.630 -35.374  1.00  0.00    -0.266 OA
HETATM   18  C14 UNL     1     -16.105  -2.828 -33.258  1.00  0.00     0.148 A 
HETATM   19  N11 UNL     1     -16.876  -1.766 -33.492  1.00  0.00    -0.184 N 
ATOM     20  H11 UNL     1     -16.915  -1.382 -34.436  1.00  0.00     0.184 HD
ENDROOT
BRANCH  13  21
HETATM   21  C5  UNL     1     -14.554  -6.858 -34.047  1.00  0.00     0.116 A 
HETATM   22  C6  UNL     1     -15.519  -7.556 -34.763  1.00  0.00     0.134 A 
HETATM   23  N8  UNL     1     -15.030  -8.843 -34.941  1.00  0.00    -0.346 N 
HETATM   24  C8  UNL     1     -13.847  -8.925 -34.375  1.00  0.00     0.186 A 
ATOM     25  H8  UNL     1     -15.509  -9.600 -35.429  1.00  0.00     0.167 HD
HETATM   26  N9  UNL     1     -13.538  -7.709 -33.820  1.00  0.00    -0.316 N 
BRANCH  22  27
HETATM   27  C7  UNL     1     -16.777  -7.155 -35.347  1.00  0.00     0.288 C 
HETATM   28  O1  UNL     1     -17.878  -7.197 -34.792  1.00  0.00    -0.264 OA
HETATM   29  N6  UNL     1     -16.759  -6.656 -36.710  1.00  0.00    -0.271 N 
ATOM     30  H6  UNL     1     -15.871  -6.603 -37.209  1.00  0.00     0.189 HD
BRANCH  29  31
HETATM   31  N7  UNL     1     -17.930  -6.245 -37.359  1.00  0.00    -0.342 N 
ATOM     32  H72 UNL     1     -18.648  -5.779 -36.805  1.00  0.00     0.176 HD
ATOM     33  H71 UNL     1     -18.073  -6.401 -38.357  1.00  0.00     0.176 HD
ENDBRANCH  29  31
ENDBRANCH  22  27
BRANCH  26  34
HETATM   34  C9  UNL     1     -12.305  -7.506 -33.148  1.00  0.00     0.300 C 
BRANCH  34  35
HETATM   35  O2  UNL     1     -12.481  -7.487 -31.760  1.00  0.00    -0.362 OA
BRANCH  35  36
HETATM   36  C10 UNL     1     -11.841  -8.497 -31.102  1.00  0.00     0.170 C 
BRANCH  36  37
HETATM   37  C11 UNL     1     -10.877  -7.937 -30.039  1.00  0.00     0.198 C 
BRANCH  37  38
HETATM   38  O3  UNL     1      -9.876  -7.257 -30.703  1.00  0.00    -0.398 OA
ATOM     39  H3  UNL     1      -9.557  -6.579 -30.120  1.00  0.00     0.209 HD
ENDBRANCH  37  38
ENDBRANCH  36  37
BRANCH  36  40
HETATM   40  C12 UNL     1     -12.685  -9.506 -30.422  1.00  0.00     0.198 C 
BRANCH  40  41
HETATM   41  O4  UNL     1     -13.520 -10.249 -31.233  1.00  0.00    -0.398 OA
ATOM     42  H4  UNL     1     -13.111 -10.687 -31.970  1.00  0.00     0.209 HD
ENDBRANCH  40  41
ENDBRANCH  36  40
ENDBRANCH  35  36
ENDBRANCH  34  35
ENDBRANCH  26  34
ENDBRANCH  13  21
BRANCH   1  43
HETATM   43  N1  UNL     1     -18.343  -0.157 -32.783  1.00  0.00    -0.234 N 
ATOM     44  H12 UNL     1     -19.174   0.037 -32.225  1.00  0.00     0.174 HD
ATOM     45  H11 UNL     1     -18.090   0.458 -33.556  1.00  0.00     0.174 HD
ENDBRANCH   1  43
TORSDOF 11
ENDMDL
