MODEL 1
REMARK VINA RESULT: -8.096390699      0.000      0.000
REMARK  14 active torsions:
REMARK  status: ('A' for Active; 'I' for Inactive)
REMARK    1  A    between atoms: C2_2  and  N1_4 
REMARK    2  A    between atoms: C2_2  and  O4_29 
REMARK    3  A    between atoms: N1_4  and  C4_6 
REMARK    4  A    between atoms: C4_6  and  S1_11 
REMARK    5  A    between atoms: S1_11  and  S2_12 
REMARK    6  A    between atoms: S2_12  and  C6_13 
REMARK    7  A    between atoms: C6_13  and  C7_14 
REMARK    8  A    between atoms: C7_14  and  O1_15 
REMARK    9  A    between atoms: C8_18  and  C9_19 
REMARK   10  A    between atoms: C9_19  and  N4_20 
REMARK   11  A    between atoms: C9_19  and  N5_24 
REMARK   12  A    between atoms: O4_29  and  C10_30 
REMARK   13  A    between atoms: C12_35  and  O5_36 
REMARK   14  A    between atoms: C12_35  and  O6_38 
ROOT
HETATM    1  C4  UNL     1     -15.317  -6.130 -34.562  1.00  0.00     0.162 C 
HETATM    2  N2  UNL     1     -15.259  -5.235 -33.709  1.00  0.00    -0.273 N 
ATOM      3  H2  UNL     1     -16.208  -4.941 -33.475  1.00  0.00     0.180 HD
HETATM    4  C5  UNL     1     -14.401  -4.521 -32.990  1.00  0.00     0.183 C 
HETATM    5  N3  UNL     1     -13.678  -3.892 -32.356  1.00  0.00    -0.172 NA
ENDROOT
BRANCH   1   6
HETATM    6  N1  UNL     1     -14.336  -6.874 -35.222  1.00  0.00    -0.338 N 
ATOM      7  H1  UNL     1     -14.034  -6.486 -36.115  1.00  0.00     0.164 HD
BRANCH   6   8
HETATM    8  C2  UNL     1     -13.691  -8.089 -34.846  1.00  0.00     0.131 C 
HETATM    9  C1  UNL     1     -14.558  -9.307 -34.929  1.00  0.00     0.070 C 
HETATM   10  C3  UNL     1     -12.481  -8.297 -35.733  1.00  0.00     0.070 C 
BRANCH   8  11
HETATM   11  O4  UNL     1     -13.160  -7.931 -33.550  1.00  0.00    -0.325 OA
BRANCH  11  12
HETATM   12  C10 UNL     1     -11.958  -8.579 -33.367  1.00  0.00     0.387 A 
HETATM   13  N6  UNL     1     -11.950  -9.568 -32.305  1.00  0.00    -0.038 N 
HETATM   14  C11 UNL     1     -11.066  -8.786 -31.470  1.00  0.00     0.308 A 
ATOM     15  H62 UNL     1     -12.843  -9.875 -31.919  1.00  0.00     0.280 HD
ATOM     16  H61 UNL     1     -11.686 -10.526 -32.533  1.00  0.00     0.280 HD
HETATM   17  C12 UNL     1     -11.010  -7.744 -32.541  1.00  0.00     0.237 A 
BRANCH  17  18
HETATM   18  O5  UNL     1     -11.562  -6.504 -32.140  1.00  0.00    -0.361 OA
ATOM     19  H5  UNL     1     -10.981  -5.996 -31.587  1.00  0.00     0.213 HD
ENDBRANCH  17  18
BRANCH  17  20
HETATM   20  O6  UNL     1      -9.752  -7.563 -33.115  1.00  0.00    -0.361 OA
ATOM     21  H6  UNL     1      -9.617  -6.706 -33.503  1.00  0.00     0.213 HD
ENDBRANCH  17  20
ENDBRANCH  11  12
ENDBRANCH   8  11
ENDBRANCH   6   8
ENDBRANCH   1   6
BRANCH   1  22
HETATM   22  S1  UNL     1     -17.064  -6.541 -35.015  1.00  0.00    -0.015 SA
BRANCH  22  23
HETATM   23  S2  UNL     1     -17.539  -5.604 -36.842  1.00  0.00    -0.019 SA
BRANCH  23  24
HETATM   24  C6  UNL     1     -17.719  -3.831 -36.641  1.00  0.00     0.253 C 
HETATM   25  O2  UNL     1     -16.779  -3.074 -37.381  1.00  0.00    -0.309 OA
HETATM   26  C8  UNL     1     -16.647  -2.265 -36.254  1.00  0.00     0.326 C 
HETATM   27  O3  UNL     1     -17.121  -3.314 -35.491  1.00  0.00    -0.309 OA
BRANCH  24  28
HETATM   28  C7  UNL     1     -19.115  -3.275 -36.829  1.00  0.00     0.246 C 
BRANCH  28  29
HETATM   29  O1  UNL     1     -20.041  -4.279 -36.552  1.00  0.00    -0.395 OA
ATOM     30  H1  UNL     1     -20.491  -4.066 -35.743  1.00  0.00     0.209 HD
ENDBRANCH  28  29
ENDBRANCH  24  28
BRANCH  26  31
HETATM   31  C9  UNL     1     -15.211  -1.867 -35.976  1.00  0.00     0.432 C 
BRANCH  31  32
HETATM   32  N4  UNL     1     -15.083  -1.606 -34.553  1.00  0.00    -0.045 N 
ATOM     33  H43 UNL     1     -14.114  -1.467 -34.264  1.00  0.00     0.277 HD
ATOM     34  H42 UNL     1     -15.438  -0.687 -34.288  1.00  0.00     0.277 HD
ATOM     35  H41 UNL     1     -15.540  -2.365 -34.048  1.00  0.00     0.277 HD
ENDBRANCH  31  32
BRANCH  31  36
HETATM   36  N5  UNL     1     -14.275  -2.874 -36.356  1.00  0.00    -0.045 N 
ATOM     37  H53 UNL     1     -14.395  -3.134 -37.334  1.00  0.00     0.277 HD
ATOM     38  H52 UNL     1     -13.329  -2.494 -36.400  1.00  0.00     0.277 HD
ATOM     39  H51 UNL     1     -14.311  -3.695 -35.753  1.00  0.00     0.277 HD
ENDBRANCH  31  36
ENDBRANCH  26  31
ENDBRANCH  23  24
ENDBRANCH  22  23
ENDBRANCH   1  22
TORSDOF 14
ENDMDL
MODEL 2
REMARK VINA RESULT: -7.932669896      2.217      3.052
REMARK  14 active torsions:
REMARK  status: ('A' for Active; 'I' for Inactive)
REMARK    1  A    between atoms: C2_2  and  N1_4 
REMARK    2  A    between atoms: C2_2  and  O4_29 
REMARK    3  A    between atoms: N1_4  and  C4_6 
REMARK    4  A    between atoms: C4_6  and  S1_11 
REMARK    5  A    between atoms: S1_11  and  S2_12 
REMARK    6  A    between atoms: S2_12  and  C6_13 
REMARK    7  A    between atoms: C6_13  and  C7_14 
REMARK    8  A    between atoms: C7_14  and  O1_15 
REMARK    9  A    between atoms: C8_18  and  C9_19 
REMARK   10  A    between atoms: C9_19  and  N4_20 
REMARK   11  A    between atoms: C9_19  and  N5_24 
REMARK   12  A    between atoms: O4_29  and  C10_30 
REMARK   13  A    between atoms: C12_35  and  O5_36 
REMARK   14  A    between atoms: C12_35  and  O6_38 
ROOT
HETATM    1  C4  UNL     1     -15.737  -5.856 -34.942  1.00  0.00     0.162 C 
HETATM    2  N2  UNL     1     -16.871  -6.039 -35.403  1.00  0.00    -0.273 N 
ATOM      3  H2  UNL     1     -17.509  -5.361 -34.987  1.00  0.00     0.180 HD
HETATM    4  C5  UNL     1     -17.551  -6.804 -36.249  1.00  0.00     0.183 C 
HETATM    5  N3  UNL     1     -18.160  -7.452 -36.976  1.00  0.00    -0.172 NA
ENDROOT
BRANCH   1   6
HETATM    6  N1  UNL     1     -14.511  -6.488 -35.161  1.00  0.00    -0.338 N 
ATOM      7  H1  UNL     1     -13.831  -5.934 -35.681  1.00  0.00     0.164 HD
BRANCH   6   8
HETATM    8  C2  UNL     1     -14.059  -7.784 -34.774  1.00  0.00     0.131 C 
HETATM    9  C1  UNL     1     -15.139  -8.817 -34.673  1.00  0.00     0.070 C 
HETATM   10  C3  UNL     1     -13.026  -8.262 -35.772  1.00  0.00     0.070 C 
BRANCH   8  11
HETATM   11  O4  UNL     1     -13.354  -7.667 -33.559  1.00  0.00    -0.325 OA
BRANCH  11  12
HETATM   12  C10 UNL     1     -12.232  -8.464 -33.498  1.00  0.00     0.387 A 
HETATM   13  N6  UNL     1     -12.304  -9.551 -32.538  1.00  0.00    -0.038 N 
HETATM   14  C11 UNL     1     -11.304  -8.965 -31.674  1.00  0.00     0.308 A 
ATOM     15  H62 UNL     1     -13.212  -9.791 -32.141  1.00  0.00     0.280 HD
ATOM     16  H61 UNL     1     -12.164 -10.505 -32.870  1.00  0.00     0.280 HD
HETATM   17  C12 UNL     1     -11.162  -7.833 -32.641  1.00  0.00     0.237 A 
BRANCH  17  18
HETATM   18  O5  UNL     1     -11.548  -6.585 -32.095  1.00  0.00    -0.361 OA
ATOM     19  H5  UNL     1     -11.120  -6.389 -31.270  1.00  0.00     0.213 HD
ENDBRANCH  17  18
BRANCH  17  20
HETATM   20  O6  UNL     1      -9.913  -7.740 -33.254  1.00  0.00    -0.361 OA
ATOM     21  H6  UNL     1      -9.260  -8.336 -32.908  1.00  0.00     0.213 HD
ENDBRANCH  17  20
ENDBRANCH  11  12
ENDBRANCH   8  11
ENDBRANCH   6   8
ENDBRANCH   1   6
BRANCH   1  22
HETATM   22  S1  UNL     1     -15.701  -4.452 -33.735  1.00  0.00    -0.015 SA
BRANCH  22  23
HETATM   23  S2  UNL     1     -15.095  -2.700 -34.736  1.00  0.00    -0.019 SA
BRANCH  23  24
HETATM   24  C6  UNL     1     -15.545  -2.749 -36.472  1.00  0.00     0.253 C 
HETATM   25  O2  UNL     1     -16.207  -1.581 -36.923  1.00  0.00    -0.309 OA
HETATM   26  C8  UNL     1     -17.072  -2.423 -37.618  1.00  0.00     0.326 C 
HETATM   27  O3  UNL     1     -16.728  -3.437 -36.744  1.00  0.00    -0.309 OA
BRANCH  24  28
HETATM   28  C7  UNL     1     -14.447  -3.144 -37.437  1.00  0.00     0.246 C 
BRANCH  28  29
HETATM   29  O1  UNL     1     -14.275  -4.525 -37.383  1.00  0.00    -0.395 OA
ATOM     30  H1  UNL     1     -13.620  -4.778 -38.023  1.00  0.00     0.209 HD
ENDBRANCH  28  29
ENDBRANCH  24  28
BRANCH  26  31
HETATM   31  C9  UNL     1     -18.519  -1.977 -37.544  1.00  0.00     0.432 C 
BRANCH  31  32
HETATM   32  N4  UNL     1     -18.873  -1.826 -36.143  1.00  0.00    -0.045 N 
ATOM     33  H43 UNL     1     -18.316  -2.421 -35.529  1.00  0.00     0.277 HD
ATOM     34  H42 UNL     1     -18.585  -0.925 -35.759  1.00  0.00     0.277 HD
ATOM     35  H41 UNL     1     -19.875  -1.991 -36.050  1.00  0.00     0.277 HD
ENDBRANCH  31  32
BRANCH  31  36
HETATM   36  N5  UNL     1     -18.754  -0.746 -38.224  1.00  0.00    -0.045 N 
ATOM     37  H53 UNL     1     -17.891  -0.380 -38.625  1.00  0.00     0.277 HD
ATOM     38  H52 UNL     1     -19.284  -0.898 -39.082  1.00  0.00     0.277 HD
ATOM     39  H51 UNL     1     -19.206  -0.048 -37.634  1.00  0.00     0.277 HD
ENDBRANCH  31  36
ENDBRANCH  26  31
ENDBRANCH  23  24
ENDBRANCH  22  23
ENDBRANCH   1  22
TORSDOF 14
ENDMDL
MODEL 3
REMARK VINA RESULT: -7.843865687      2.828      4.173
REMARK  14 active torsions:
REMARK  status: ('A' for Active; 'I' for Inactive)
REMARK    1  A    between atoms: C2_2  and  N1_4 
REMARK    2  A    between atoms: C2_2  and  O4_29 
REMARK    3  A    between atoms: N1_4  and  C4_6 
REMARK    4  A    between atoms: C4_6  and  S1_11 
REMARK    5  A    between atoms: S1_11  and  S2_12 
REMARK    6  A    between atoms: S2_12  and  C6_13 
REMARK    7  A    between atoms: C6_13  and  C7_14 
REMARK    8  A    between atoms: C7_14  and  O1_15 
REMARK    9  A    between atoms: C8_18  and  C9_19 
REMARK   10  A    between atoms: C9_19  and  N4_20 
REMARK   11  A    between atoms: C9_19  and  N5_24 
REMARK   12  A    between atoms: O4_29  and  C10_30 
REMARK   13  A    between atoms: C12_35  and  O5_36 
REMARK   14  A    between atoms: C12_35  and  O6_38 
ROOT
HETATM    1  C4  UNL     1     -15.958  -5.392 -35.188  1.00  0.00     0.162 C 
HETATM    2  N2  UNL     1     -16.830  -5.622 -36.036  1.00  0.00    -0.273 N 
ATOM      3  H2  UNL     1     -17.044  -4.756 -36.531  1.00  0.00     0.180 HD
HETATM    4  C5  UNL     1     -17.585  -6.596 -36.530  1.00  0.00     0.183 C 
HETATM    5  N3  UNL     1     -18.248  -7.422 -36.976  1.00  0.00    -0.172 NA
ENDROOT
BRANCH   1   6
HETATM    6  N1  UNL     1     -15.310  -6.201 -34.252  1.00  0.00    -0.338 N 
ATOM      7  H1  UNL     1     -15.380  -5.880 -33.287  1.00  0.00     0.164 HD
BRANCH   6   8
HETATM    8  C2  UNL     1     -14.566  -7.405 -34.432  1.00  0.00     0.131 C 
HETATM    9  C1  UNL     1     -15.402  -8.628 -34.650  1.00  0.00     0.070 C 
HETATM   10  C3  UNL     1     -13.638  -7.237 -35.617  1.00  0.00     0.070 C 
BRANCH   8  11
HETATM   11  O4  UNL     1     -13.707  -7.567 -33.327  1.00  0.00    -0.325 OA
BRANCH  11  12
HETATM   12  C10 UNL     1     -12.677  -8.453 -33.559  1.00  0.00     0.387 A 
HETATM   13  N6  UNL     1     -12.656  -9.612 -32.686  1.00  0.00    -0.038 N 
HETATM   14  C11 UNL     1     -11.450  -9.187 -32.012  1.00  0.00     0.308 A 
ATOM     15  H62 UNL     1     -13.484  -9.815 -32.125  1.00  0.00     0.280 HD
ATOM     16  H61 UNL     1     -12.679 -10.540 -33.107  1.00  0.00     0.280 HD
HETATM   17  C12 UNL     1     -11.400  -7.987 -32.903  1.00  0.00     0.237 A 
BRANCH  17  18
HETATM   18  O5  UNL     1     -11.546  -6.767 -32.201  1.00  0.00    -0.361 OA
ATOM     19  H5  UNL     1     -11.578  -6.878 -31.258  1.00  0.00     0.213 HD
ENDBRANCH  17  18
BRANCH  17  20
HETATM   20  O6  UNL     1     -10.298  -7.938 -33.756  1.00  0.00    -0.361 OA
ATOM     21  H6  UNL     1     -10.250  -7.155 -34.292  1.00  0.00     0.213 HD
ENDBRANCH  17  20
ENDBRANCH  11  12
ENDBRANCH   8  11
ENDBRANCH   6   8
ENDBRANCH   1   6
BRANCH   1  22
HETATM   22  S1  UNL     1     -15.431  -3.618 -35.204  1.00  0.00    -0.015 SA
BRANCH  22  23
HETATM   23  S2  UNL     1     -14.398  -3.191 -33.418  1.00  0.00    -0.019 SA
BRANCH  23  24
HETATM   24  C6  UNL     1     -15.442  -3.446 -31.981  1.00  0.00     0.253 C 
HETATM   25  O2  UNL     1     -16.822  -3.263 -32.239  1.00  0.00    -0.309 OA
HETATM   26  C8  UNL     1     -16.887  -2.581 -31.025  1.00  0.00     0.326 C 
HETATM   27  O3  UNL     1     -15.529  -2.347 -31.126  1.00  0.00    -0.309 OA
BRANCH  24  28
HETATM   28  C7  UNL     1     -15.211  -4.726 -31.206  1.00  0.00     0.246 C 
BRANCH  28  29
HETATM   29  O1  UNL     1     -13.971  -5.251 -31.561  1.00  0.00    -0.395 OA
ATOM     30  H1  UNL     1     -14.105  -6.066 -32.031  1.00  0.00     0.209 HD
ENDBRANCH  28  29
ENDBRANCH  24  28
BRANCH  26  31
HETATM   31  C9  UNL     1     -17.758  -1.342 -31.088  1.00  0.00     0.432 C 
BRANCH  31  32
HETATM   32  N4  UNL     1     -17.884  -0.810 -29.742  1.00  0.00    -0.045 N 
ATOM     33  H43 UNL     1     -18.702  -1.172 -29.251  1.00  0.00     0.277 HD
ATOM     34  H42 UNL     1     -17.172  -1.171 -29.108  1.00  0.00     0.277 HD
ATOM     35  H41 UNL     1     -17.879   0.208 -29.802  1.00  0.00     0.277 HD
ENDBRANCH  31  32
BRANCH  31  36
HETATM   36  N5  UNL     1     -17.225  -0.334 -31.944  1.00  0.00    -0.045 N 
ATOM     37  H53 UNL     1     -16.300  -0.596 -32.285  1.00  0.00     0.277 HD
ATOM     38  H52 UNL     1     -17.727  -0.306 -32.832  1.00  0.00     0.277 HD
ATOM     39  H51 UNL     1     -17.204   0.587 -31.507  1.00  0.00     0.277 HD
ENDBRANCH  31  36
ENDBRANCH  26  31
ENDBRANCH  23  24
ENDBRANCH  22  23
ENDBRANCH   1  22
TORSDOF 14
ENDMDL
MODEL 4
REMARK VINA RESULT: -7.824047335      2.590      6.819
REMARK  14 active torsions:
REMARK  status: ('A' for Active; 'I' for Inactive)
REMARK    1  A    between atoms: C2_2  and  N1_4 
REMARK    2  A    between atoms: C2_2  and  O4_29 
REMARK    3  A    between atoms: N1_4  and  C4_6 
REMARK    4  A    between atoms: C4_6  and  S1_11 
REMARK    5  A    between atoms: S1_11  and  S2_12 
REMARK    6  A    between atoms: S2_12  and  C6_13 
REMARK    7  A    between atoms: C6_13  and  C7_14 
REMARK    8  A    between atoms: C7_14  and  O1_15 
REMARK    9  A    between atoms: C8_18  and  C9_19 
REMARK   10  A    between atoms: C9_19  and  N4_20 
REMARK   11  A    between atoms: C9_19  and  N5_24 
REMARK   12  A    between atoms: O4_29  and  C10_30 
REMARK   13  A    between atoms: C12_35  and  O5_36 
REMARK   14  A    between atoms: C12_35  and  O6_38 
ROOT
HETATM    1  C4  UNL     1     -15.195  -4.296 -32.944  1.00  0.00     0.162 C 
HETATM    2  N2  UNL     1     -15.874  -3.956 -31.967  1.00  0.00    -0.273 N 
ATOM      3  H2  UNL     1     -15.633  -4.552 -31.175  1.00  0.00     0.180 HD
HETATM    4  C5  UNL     1     -16.804  -3.090 -31.583  1.00  0.00     0.183 C 
HETATM    5  N3  UNL     1     -17.607  -2.349 -31.227  1.00  0.00    -0.172 NA
ENDROOT
BRANCH   1   6
HETATM    6  N1  UNL     1     -15.123  -3.827 -34.257  1.00  0.00    -0.338 N 
ATOM      7  H1  UNL     1     -14.202  -3.497 -34.544  1.00  0.00     0.164 HD
BRANCH   6   8
HETATM    8  C2  UNL     1     -16.133  -3.736 -35.261  1.00  0.00     0.131 C 
HETATM    9  C1  UNL     1     -16.884  -2.440 -35.274  1.00  0.00     0.070 C 
HETATM   10  C3  UNL     1     -15.494  -3.937 -36.620  1.00  0.00     0.070 C 
BRANCH   8  11
HETATM   11  O4  UNL     1     -17.009  -4.829 -35.114  1.00  0.00    -0.325 OA
BRANCH  11  12
HETATM   12  C10 UNL     1     -17.027  -5.668 -36.207  1.00  0.00     0.387 A 
HETATM   13  N6  UNL     1     -18.180  -5.518 -37.075  1.00  0.00    -0.038 N 
HETATM   14  C11 UNL     1     -18.719  -6.812 -36.722  1.00  0.00     0.308 A 
ATOM     15  H62 UNL     1     -18.772  -4.695 -36.962  1.00  0.00     0.280 HD
ATOM     16  H61 UNL     1     -18.025  -5.307 -38.061  1.00  0.00     0.280 HD
HETATM   17  C12 UNL     1     -17.538  -7.038 -35.833  1.00  0.00     0.237 A 
BRANCH  17  18
HETATM   18  O5  UNL     1     -17.884  -7.151 -34.466  1.00  0.00    -0.361 OA
ATOM     19  H5  UNL     1     -18.392  -7.930 -34.271  1.00  0.00     0.213 HD
ENDBRANCH  17  18
BRANCH  17  20
HETATM   20  O6  UNL     1     -16.706  -8.089 -36.222  1.00  0.00    -0.361 OA
ATOM     21  H6  UNL     1     -16.899  -8.918 -35.801  1.00  0.00     0.213 HD
ENDBRANCH  17  20
ENDBRANCH  11  12
ENDBRANCH   8  11
ENDBRANCH   6   8
ENDBRANCH   1   6
BRANCH   1  22
HETATM   22  S1  UNL     1     -14.057  -5.699 -32.539  1.00  0.00    -0.015 SA
BRANCH  22  23
HETATM   23  S2  UNL     1     -14.388  -7.269 -33.905  1.00  0.00    -0.019 SA
BRANCH  23  24
HETATM   24  C6  UNL     1     -12.892  -8.220 -34.183  1.00  0.00     0.253 C 
HETATM   25  O2  UNL     1     -12.718  -9.290 -33.273  1.00  0.00    -0.309 OA
HETATM   26  C8  UNL     1     -11.376  -8.922 -33.203  1.00  0.00     0.326 C 
HETATM   27  O3  UNL     1     -11.738  -7.660 -33.634  1.00  0.00    -0.309 OA
BRANCH  24  28
HETATM   28  C7  UNL     1     -12.652  -8.687 -35.604  1.00  0.00     0.246 C 
BRANCH  28  29
HETATM   29  O1  UNL     1     -13.859  -8.660 -36.297  1.00  0.00    -0.395 OA
ATOM     30  H1  UNL     1     -13.688  -8.425 -37.202  1.00  0.00     0.209 HD
ENDBRANCH  28  29
ENDBRANCH  24  28
BRANCH  26  31
HETATM   31  C9  UNL     1     -10.817  -8.983 -31.796  1.00  0.00     0.432 C 
BRANCH  31  32
HETATM   32  N4  UNL     1      -9.783  -7.969 -31.677  1.00  0.00    -0.045 N 
ATOM     33  H43 UNL     1      -8.855  -8.369 -31.533  1.00  0.00     0.277 HD
ATOM     34  H42 UNL     1      -9.594  -7.495 -32.559  1.00  0.00     0.277 HD
ATOM     35  H41 UNL     1     -10.054  -7.326 -30.934  1.00  0.00     0.277 HD
ENDBRANCH  31  32
BRANCH  31  36
HETATM   36  N5  UNL     1     -11.810  -8.762 -30.796  1.00  0.00    -0.045 N 
ATOM     37  H53 UNL     1     -11.657  -9.366 -29.990  1.00  0.00     0.277 HD
ATOM     38  H52 UNL     1     -11.682  -7.853 -30.350  1.00  0.00     0.277 HD
ATOM     39  H51 UNL     1     -12.760  -8.863 -31.152  1.00  0.00     0.277 HD
ENDBRANCH  31  36
ENDBRANCH  26  31
ENDBRANCH  23  24
ENDBRANCH  22  23
ENDBRANCH   1  22
TORSDOF 14
ENDMDL
MODEL 5
REMARK VINA RESULT: -7.823480167      2.809      4.537
REMARK  14 active torsions:
REMARK  status: ('A' for Active; 'I' for Inactive)
REMARK    1  A    between atoms: C2_2  and  N1_4 
REMARK    2  A    between atoms: C2_2  and  O4_29 
REMARK    3  A    between atoms: N1_4  and  C4_6 
REMARK    4  A    between atoms: C4_6  and  S1_11 
REMARK    5  A    between atoms: S1_11  and  S2_12 
REMARK    6  A    between atoms: S2_12  and  C6_13 
REMARK    7  A    between atoms: C6_13  and  C7_14 
REMARK    8  A    between atoms: C7_14  and  O1_15 
REMARK    9  A    between atoms: C8_18  and  C9_19 
REMARK   10  A    between atoms: C9_19  and  N4_20 
REMARK   11  A    between atoms: C9_19  and  N5_24 
REMARK   12  A    between atoms: O4_29  and  C10_30 
REMARK   13  A    between atoms: C12_35  and  O5_36 
REMARK   14  A    between atoms: C12_35  and  O6_38 
ROOT
HETATM    1  C4  UNL     1     -13.305  -6.615 -32.629  1.00  0.00     0.162 C 
HETATM    2  N2  UNL     1     -12.754  -7.154 -31.661  1.00  0.00    -0.273 N 
ATOM      3  H2  UNL     1     -13.118  -6.740 -30.803  1.00  0.00     0.180 HD
HETATM    4  C5  UNL     1     -11.858  -8.081 -31.343  1.00  0.00     0.183 C 
HETATM    5  N3  UNL     1     -11.088  -8.879 -31.042  1.00  0.00    -0.172 NA
ENDROOT
BRANCH   1   6
HETATM    6  N1  UNL     1     -13.183  -6.795 -34.009  1.00  0.00    -0.338 N 
ATOM      7  H1  UNL     1     -12.804  -5.994 -34.514  1.00  0.00     0.164 HD
BRANCH   6   8
HETATM    8  C2  UNL     1     -13.506  -7.920 -34.825  1.00  0.00     0.131 C 
HETATM    9  C1  UNL     1     -12.346  -8.497 -35.576  1.00  0.00     0.070 C 
HETATM   10  C3  UNL     1     -14.104  -9.004 -33.952  1.00  0.00     0.070 C 
BRANCH   8  11
HETATM   11  O4  UNL     1     -14.547  -7.552 -35.701  1.00  0.00    -0.325 OA
BRANCH  11  12
HETATM   12  C10 UNL     1     -15.799  -7.636 -35.129  1.00  0.00     0.387 A 
HETATM   13  N6  UNL     1     -16.739  -8.486 -35.836  1.00  0.00    -0.038 N 
HETATM   14  C11 UNL     1     -17.566  -7.374 -36.245  1.00  0.00     0.308 A 
ATOM     15  H62 UNL     1     -16.381  -9.119 -36.552  1.00  0.00     0.280 HD
ATOM     16  H61 UNL     1     -17.173  -9.258 -35.331  1.00  0.00     0.280 HD
HETATM   17  C12 UNL     1     -16.650  -6.449 -35.508  1.00  0.00     0.237 A 
BRANCH  17  18
HETATM   18  O5  UNL     1     -15.985  -5.533 -36.358  1.00  0.00    -0.361 OA
ATOM     19  H5  UNL     1     -15.936  -5.825 -37.260  1.00  0.00     0.213 HD
ENDBRANCH  17  18
BRANCH  17  20
HETATM   20  O6  UNL     1     -17.231  -5.788 -34.427  1.00  0.00    -0.361 OA
ATOM     21  H6  UNL     1     -16.610  -5.451 -33.792  1.00  0.00     0.213 HD
ENDBRANCH  17  20
ENDBRANCH  11  12
ENDBRANCH   8  11
ENDBRANCH   6   8
ENDBRANCH   1   6
BRANCH   1  22
HETATM   22  S1  UNL     1     -14.530  -5.332 -32.101  1.00  0.00    -0.015 SA
BRANCH  22  23
HETATM   23  S2  UNL     1     -13.926  -3.456 -32.847  1.00  0.00    -0.019 SA
BRANCH  23  24
HETATM   24  C6  UNL     1     -15.275  -2.620 -33.684  1.00  0.00     0.253 C 
HETATM   25  O2  UNL     1     -15.787  -3.334 -34.795  1.00  0.00    -0.309 OA
HETATM   26  C8  UNL     1     -15.827  -2.116 -35.471  1.00  0.00     0.326 C 
HETATM   27  O3  UNL     1     -14.874  -1.638 -34.591  1.00  0.00    -0.309 OA
BRANCH  24  28
HETATM   28  C7  UNL     1     -16.403  -2.125 -32.804  1.00  0.00     0.246 C 
BRANCH  28  29
HETATM   29  O1  UNL     1     -15.933  -1.993 -31.500  1.00  0.00    -0.395 OA
ATOM     30  H1  UNL     1     -16.164  -2.773 -31.010  1.00  0.00     0.209 HD
ENDBRANCH  28  29
ENDBRANCH  24  28
BRANCH  26  31
HETATM   31  C9  UNL     1     -15.371  -2.225 -36.912  1.00  0.00     0.432 C 
BRANCH  31  32
HETATM   32  N4  UNL     1     -14.155  -3.020 -36.942  1.00  0.00    -0.045 N 
ATOM     33  H43 UNL     1     -13.350  -2.495 -37.282  1.00  0.00     0.277 HD
ATOM     34  H42 UNL     1     -13.800  -3.230 -36.010  1.00  0.00     0.277 HD
ATOM     35  H41 UNL     1     -14.339  -3.859 -37.492  1.00  0.00     0.277 HD
ENDBRANCH  31  32
BRANCH  31  36
HETATM   36  N5  UNL     1     -16.348  -2.827 -37.758  1.00  0.00    -0.045 N 
ATOM     37  H53 UNL     1     -16.900  -3.514 -37.246  1.00  0.00     0.277 HD
ATOM     38  H52 UNL     1     -17.086  -2.162 -37.994  1.00  0.00     0.277 HD
ATOM     39  H51 UNL     1     -15.945  -3.238 -38.600  1.00  0.00     0.277 HD
ENDBRANCH  31  36
ENDBRANCH  26  31
ENDBRANCH  23  24
ENDBRANCH  22  23
ENDBRANCH   1  22
TORSDOF 14
ENDMDL
