MODEL 1
REMARK VINA RESULT: -9.010050053      0.000      0.000
REMARK  9 active torsions:
REMARK  status: ('A' for Active; 'I' for Inactive)
REMARK       I    between atoms: C1_4  and  N2_5 
REMARK       I    between atoms: C1_4  and  N4_10 
REMARK    1  A    between atoms: N2_5  and  N3_7 
REMARK    2  A    between atoms: N4_10  and  C2_11 
REMARK       I    between atoms: N4_10  and  C4_17 
REMARK    3  A    between atoms: C2_11  and  C3_12 
REMARK    4  A    between atoms: C3_12  and  N5_13 
REMARK       I    between atoms: C4_17  and  N6_18 
REMARK       I    between atoms: C4_17  and  N10_29 
REMARK    5  A    between atoms: N6_18  and  C5_19 
REMARK    6  A    between atoms: C6_25  and  N9_26 
REMARK    7  A    between atoms: N10_29  and  C7_31 
REMARK    8  A    between atoms: C8_32  and  O6_33 
REMARK    9  A    between atoms: N13_41  and  N14_42 
ROOT
HETATM    1  N1  UNL     1     -10.876  -9.682 -33.529  1.00  0.00    -0.233 N 
ATOM      2  H11 UNL     1     -11.697 -10.270 -33.387  1.00  0.00     0.174 HD
ATOM      3  H12 UNL     1     -10.045 -10.040 -34.001  1.00  0.00     0.174 HD
HETATM    4  C1  UNL     1     -10.969  -8.480 -33.077  1.00  0.00     0.701 C 
HETATM    5  N2  UNL     1      -9.828  -7.664 -33.274  1.00  0.00    -0.072 N 
ATOM      6  H2  UNL     1      -9.954  -6.720 -33.637  1.00  0.00     0.212 HD
HETATM    7  N4  UNL     1     -12.123  -7.983 -32.422  1.00  0.00    -0.138 N 
HETATM    8  C4  UNL     1     -13.265  -8.888 -32.351  1.00  0.00     0.275 C 
HETATM    9  N6  UNL     1     -13.309  -9.578 -31.372  1.00  0.00    -0.346 NA
HETATM   10  N10 UNL     1     -14.193  -8.854 -33.411  1.00  0.00    -0.322 N 
ATOM     11  H10 UNL     1     -15.149  -9.070 -33.130  1.00  0.00     0.166 HD
ENDROOT
BRANCH   7  12
HETATM   12  C2  UNL     1     -12.197  -6.679 -31.802  1.00  0.00     0.179 C 
BRANCH  12  13
HETATM   13  C3  UNL     1     -13.561  -6.042 -31.977  1.00  0.00     0.250 C 
BRANCH  13  14
HETATM   14  N5  UNL     1     -13.474  -4.730 -32.584  1.00  0.00    -0.078 N 
ATOM     15  H53 UNL     1     -12.509  -4.401 -32.617  1.00  0.00     0.274 HD
ATOM     16  H52 UNL     1     -13.664  -4.772 -33.585  1.00  0.00     0.274 HD
ATOM     17  H51 UNL     1     -14.079  -4.053 -32.120  1.00  0.00     0.274 HD
ENDBRANCH  13  14
ENDBRANCH  12  13
ENDBRANCH   7  12
BRANCH   9  18
HETATM   18  C5  UNL     1     -13.364 -10.339 -30.299  1.00  0.00     0.257 A 
HETATM   19  N7  UNL     1     -14.346 -11.313 -29.990  1.00  0.00    -0.210 N 
HETATM   20  O3  UNL     1     -14.045 -11.857 -28.876  1.00  0.00    -0.152 OA
ATOM     21  H7  UNL     1     -15.159 -11.539 -30.563  1.00  0.00     0.199 HD
HETATM   22  N8  UNL     1     -12.974 -11.395 -28.356  1.00  0.00    -0.216 N 
HETATM   23  C6  UNL     1     -12.520 -10.444 -29.217  1.00  0.00     0.255 A 
ATOM     24  H8  UNL     1     -12.547 -11.679 -27.475  1.00  0.00     0.199 HD
BRANCH  23  25
HETATM   25  N9  UNL     1     -11.327  -9.685 -28.992  1.00  0.00    -0.091 N 
HETATM   26  O4  UNL     1     -11.035  -9.338 -27.844  1.00  0.00    -0.530 OA
HETATM   27  O5  UNL     1     -10.485  -9.349 -30.024  1.00  0.00    -0.530 OA
ENDBRANCH  23  25
ENDBRANCH   9  18
BRANCH  10  28
HETATM   28  C7  UNL     1     -14.051  -8.578 -34.787  1.00  0.00     0.276 C 
HETATM   29  C8  UNL     1     -13.861  -7.142 -35.187  1.00  0.00     0.279 C 
HETATM   30  N11 UNL     1     -15.187  -6.595 -34.863  1.00  0.00    -0.195 N 
HETATM   31  C9  UNL     1     -16.140  -7.622 -35.092  1.00  0.00     0.692 C 
ATOM     32  H11 UNL     1     -15.386  -5.650 -34.533  1.00  0.00     0.180 HD
HETATM   33  N12 UNL     1     -17.420  -7.559 -34.952  1.00  0.00    -0.233 N 
HETATM   34  N13 UNL     1     -15.369  -8.778 -35.471  1.00  0.00    -0.102 N 
ATOM     35 2H12 UNL     1     -17.966  -6.740 -34.684  1.00  0.00     0.174 HD
ATOM     36 1H12 UNL     1     -18.105  -8.296 -35.117  1.00  0.00     0.174 HD
BRANCH  29  37
HETATM   37  O6  UNL     1     -13.791  -7.080 -36.585  1.00  0.00    -0.372 OA
ATOM     38  H6  UNL     1     -14.655  -7.262 -36.935  1.00  0.00     0.212 HD
ENDBRANCH  29  37
BRANCH  34  39
HETATM   39  N14 UNL     1     -15.722  -9.817 -36.249  1.00  0.00    -0.327 N 
ATOM     40 2H14 UNL     1     -16.638 -10.058 -36.627  1.00  0.00     0.177 HD
ATOM     41 1H14 UNL     1     -15.109 -10.557 -36.592  1.00  0.00     0.177 HD
ENDBRANCH  34  39
ENDBRANCH  10  28
BRANCH   5  42
HETATM   42  N3  UNL     1      -8.550  -8.106 -32.990  1.00  0.00    -0.024 N 
HETATM   43  O1  UNL     1      -7.634  -7.300 -32.795  1.00  0.00    -0.516 OA
HETATM   44  O2  UNL     1      -8.281  -9.444 -32.920  1.00  0.00    -0.516 OA
ENDBRANCH   5  42
TORSDOF 9
ENDMDL
MODEL 2
REMARK VINA RESULT: -8.763845782      5.625      7.992
REMARK  9 active torsions:
REMARK  status: ('A' for Active; 'I' for Inactive)
REMARK       I    between atoms: C1_4  and  N2_5 
REMARK       I    between atoms: C1_4  and  N4_10 
REMARK    1  A    between atoms: N2_5  and  N3_7 
REMARK    2  A    between atoms: N4_10  and  C2_11 
REMARK       I    between atoms: N4_10  and  C4_17 
REMARK    3  A    between atoms: C2_11  and  C3_12 
REMARK    4  A    between atoms: C3_12  and  N5_13 
REMARK       I    between atoms: C4_17  and  N6_18 
REMARK       I    between atoms: C4_17  and  N10_29 
REMARK    5  A    between atoms: N6_18  and  C5_19 
REMARK    6  A    between atoms: C6_25  and  N9_26 
REMARK    7  A    between atoms: N10_29  and  C7_31 
REMARK    8  A    between atoms: C8_32  and  O6_33 
REMARK    9  A    between atoms: N13_41  and  N14_42 
ROOT
HETATM    1  N1  UNL     1     -17.113  -5.150 -34.969  1.00  0.00    -0.233 N 
ATOM      2  H11 UNL     1     -17.864  -4.536 -34.657  1.00  0.00     0.174 HD
ATOM      3  H12 UNL     1     -17.239  -6.162 -35.007  1.00  0.00     0.174 HD
HETATM    4  C1  UNL     1     -16.017  -4.562 -35.302  1.00  0.00     0.701 C 
HETATM    5  N2  UNL     1     -14.973  -5.416 -35.734  1.00  0.00    -0.072 N 
ATOM      6  H2  UNL     1     -14.463  -5.180 -36.584  1.00  0.00     0.212 HD
HETATM    7  N4  UNL     1     -15.842  -3.157 -35.249  1.00  0.00    -0.138 N 
HETATM    8  C4  UNL     1     -17.012  -2.375 -34.868  1.00  0.00     0.275 C 
HETATM    9  N6  UNL     1     -17.121  -2.157 -33.694  1.00  0.00    -0.346 NA
HETATM   10  N10 UNL     1     -17.876  -1.947 -35.897  1.00  0.00    -0.322 N 
ATOM     11  H10 UNL     1     -18.336  -1.058 -35.706  1.00  0.00     0.166 HD
ENDROOT
BRANCH   7  12
HETATM   12  C2  UNL     1     -14.582  -2.493 -35.502  1.00  0.00     0.179 C 
BRANCH  12  13
HETATM   13  C3  UNL     1     -14.594  -1.729 -36.810  1.00  0.00     0.250 C 
BRANCH  13  14
HETATM   14  N5  UNL     1     -14.553  -2.614 -37.956  1.00  0.00    -0.078 N 
ATOM     15  H53 UNL     1     -14.664  -2.096 -38.828  1.00  0.00     0.274 HD
ATOM     16  H52 UNL     1     -13.614  -2.982 -38.106  1.00  0.00     0.274 HD
ATOM     17  H51 UNL     1     -15.237  -3.367 -37.884  1.00  0.00     0.274 HD
ENDBRANCH  13  14
ENDBRANCH  12  13
ENDBRANCH   7  12
BRANCH   9  18
HETATM   18  C5  UNL     1     -17.247  -1.915 -32.406  1.00  0.00     0.257 A 
HETATM   19  N7  UNL     1     -18.144  -1.007 -31.791  1.00  0.00    -0.210 N 
HETATM   20  O3  UNL     1     -17.984  -1.070 -30.526  1.00  0.00    -0.152 OA
ATOM     21  H7  UNL     1     -18.807  -0.404 -32.277  1.00  0.00     0.199 HD
HETATM   22  N8  UNL     1     -17.088  -1.906 -30.167  1.00  0.00    -0.216 N 
HETATM   23  C6  UNL     1     -16.604  -2.454 -31.314  1.00  0.00     0.255 A 
ATOM     24  H8  UNL     1     -16.794  -2.119 -29.214  1.00  0.00     0.199 HD
BRANCH  23  25
HETATM   25  N9  UNL     1     -15.575  -3.449 -31.339  1.00  0.00    -0.091 N 
HETATM   26  O4  UNL     1     -15.859  -4.623 -31.085  1.00  0.00    -0.530 OA
HETATM   27  O5  UNL     1     -14.278  -3.131 -31.659  1.00  0.00    -0.530 OA
ENDBRANCH  23  25
ENDBRANCH   9  18
BRANCH  10  28
HETATM   28  C7  UNL     1     -18.226  -2.517 -37.139  1.00  0.00     0.276 C 
HETATM   29  C8  UNL     1     -18.014  -1.677 -38.367  1.00  0.00     0.279 C 
HETATM   30  N11 UNL     1     -19.040  -0.642 -38.164  1.00  0.00    -0.195 N 
HETATM   31  C9  UNL     1     -20.134  -1.251 -37.494  1.00  0.00     0.692 C 
ATOM     32  H11 UNL     1     -18.976   0.334 -38.452  1.00  0.00     0.180 HD
HETATM   33  N12 UNL     1     -21.249  -0.707 -37.143  1.00  0.00    -0.233 N 
HETATM   34  N13 UNL     1     -19.718  -2.606 -37.240  1.00  0.00    -0.102 N 
ATOM     35 2H12 UNL     1     -21.543   0.253 -37.323  1.00  0.00     0.174 HD
ATOM     36 1H12 UNL     1     -22.034  -1.144 -36.662  1.00  0.00     0.174 HD
BRANCH  29  37
HETATM   37  O6  UNL     1     -18.467  -2.402 -39.478  1.00  0.00    -0.372 OA
ATOM     38  H6  UNL     1     -18.110  -2.000 -40.261  1.00  0.00     0.212 HD
ENDBRANCH  29  37
BRANCH  34  39
HETATM   39  N14 UNL     1     -20.467  -3.716 -37.111  1.00  0.00    -0.327 N 
ATOM     40 2H14 UNL     1     -20.490  -4.393 -36.349  1.00  0.00     0.177 HD
ATOM     41 1H14 UNL     1     -21.152  -4.071 -37.779  1.00  0.00     0.177 HD
ENDBRANCH  34  39
ENDBRANCH  10  28
BRANCH   5  42
HETATM   42  N3  UNL     1     -14.624  -6.560 -35.042  1.00  0.00    -0.024 N 
HETATM   43  O1  UNL     1     -14.076  -7.504 -35.621  1.00  0.00    -0.516 OA
HETATM   44  O2  UNL     1     -14.881  -6.662 -33.704  1.00  0.00    -0.516 OA
ENDBRANCH   5  42
TORSDOF 9
ENDMDL
MODEL 3
REMARK VINA RESULT: -8.511002935      3.831      7.396
REMARK  9 active torsions:
REMARK  status: ('A' for Active; 'I' for Inactive)
REMARK       I    between atoms: C1_4  and  N2_5 
REMARK       I    between atoms: C1_4  and  N4_10 
REMARK    1  A    between atoms: N2_5  and  N3_7 
REMARK    2  A    between atoms: N4_10  and  C2_11 
REMARK       I    between atoms: N4_10  and  C4_17 
REMARK    3  A    between atoms: C2_11  and  C3_12 
REMARK    4  A    between atoms: C3_12  and  N5_13 
REMARK       I    between atoms: C4_17  and  N6_18 
REMARK       I    between atoms: C4_17  and  N10_29 
REMARK    5  A    between atoms: N6_18  and  C5_19 
REMARK    6  A    between atoms: C6_25  and  N9_26 
REMARK    7  A    between atoms: N10_29  and  C7_31 
REMARK    8  A    between atoms: C8_32  and  O6_33 
REMARK    9  A    between atoms: N13_41  and  N14_42 
ROOT
HETATM    1  N1  UNL     1     -14.440  -3.761 -35.531  1.00  0.00    -0.233 N 
ATOM      2  H11 UNL     1     -14.096  -3.951 -34.590  1.00  0.00     0.174 HD
ATOM      3  H12 UNL     1     -13.944  -3.125 -36.156  1.00  0.00     0.174 HD
HETATM    4  C1  UNL     1     -15.525  -4.372 -35.859  1.00  0.00     0.701 C 
HETATM    5  N2  UNL     1     -16.002  -4.107 -37.166  1.00  0.00    -0.072 N 
ATOM      6  H2  UNL     1     -16.289  -4.888 -37.754  1.00  0.00     0.212 HD
HETATM    7  N4  UNL     1     -16.213  -5.254 -34.991  1.00  0.00    -0.138 N 
HETATM    8  C4  UNL     1     -15.582  -5.514 -33.702  1.00  0.00     0.275 C 
HETATM    9  N6  UNL     1     -15.912  -4.779 -32.814  1.00  0.00    -0.346 NA
HETATM   10  N10 UNL     1     -14.675  -6.590 -33.622  1.00  0.00    -0.322 N 
ATOM     11  H10 UNL     1     -14.654  -7.046 -32.710  1.00  0.00     0.166 HD
ENDROOT
BRANCH   7  12
HETATM   12  C2  UNL     1     -17.493  -5.851 -35.300  1.00  0.00     0.179 C 
BRANCH  12  13
HETATM   13  C3  UNL     1     -17.346  -7.217 -35.939  1.00  0.00     0.250 C 
BRANCH  13  14
HETATM   14  N5  UNL     1     -18.198  -7.368 -37.101  1.00  0.00    -0.078 N 
ATOM     15  H53 UNL     1     -19.099  -7.773 -36.849  1.00  0.00     0.274 HD
ATOM     16  H52 UNL     1     -18.518  -6.463 -37.444  1.00  0.00     0.274 HD
ATOM     17  H51 UNL     1     -17.744  -7.904 -37.840  1.00  0.00     0.274 HD
ENDBRANCH  13  14
ENDBRANCH  12  13
ENDBRANCH   7  12
BRANCH   9  18
HETATM   18  C5  UNL     1     -16.271  -3.975 -31.835  1.00  0.00     0.257 A 
HETATM   19  N7  UNL     1     -16.208  -4.240 -30.445  1.00  0.00    -0.210 N 
HETATM   20  O3  UNL     1     -16.622  -3.210 -29.814  1.00  0.00    -0.152 OA
ATOM     21  H7  UNL     1     -15.886  -5.109 -30.019  1.00  0.00     0.199 HD
HETATM   22  N8  UNL     1     -16.970  -2.250 -30.580  1.00  0.00    -0.216 N 
HETATM   23  C6  UNL     1     -16.765  -2.690 -31.851  1.00  0.00     0.255 A 
ATOM     24  H8  UNL     1     -17.329  -1.338 -30.297  1.00  0.00     0.199 HD
BRANCH  23  25
HETATM   25  N9  UNL     1     -17.035  -1.896 -33.012  1.00  0.00    -0.091 N 
HETATM   26  O4  UNL     1     -16.187  -1.818 -33.905  1.00  0.00    -0.530 OA
HETATM   27  O5  UNL     1     -18.229  -1.235 -33.166  1.00  0.00    -0.530 OA
ENDBRANCH  23  25
ENDBRANCH   9  18
BRANCH  10  28
HETATM   28  C7  UNL     1     -13.791  -7.156 -34.564  1.00  0.00     0.276 C 
HETATM   29  C8  UNL     1     -14.297  -8.314 -35.378  1.00  0.00     0.279 C 
HETATM   30  N11 UNL     1     -14.398  -9.349 -34.337  1.00  0.00    -0.195 N 
HETATM   31  C9  UNL     1     -13.361  -9.111 -33.397  1.00  0.00     0.692 C 
ATOM     32  H11 UNL     1     -15.087 -10.100 -34.299  1.00  0.00     0.180 HD
HETATM   33  N12 UNL     1     -13.078  -9.796 -32.341  1.00  0.00    -0.233 N 
HETATM   34  N13 UNL     1     -12.712  -7.905 -33.842  1.00  0.00    -0.102 N 
ATOM     35 2H12 UNL     1     -13.537 -10.650 -32.026  1.00  0.00     0.174 HD
ATOM     36 1H12 UNL     1     -12.333  -9.625 -31.666  1.00  0.00     0.174 HD
BRANCH  29  37
HETATM   37  O6  UNL     1     -13.258  -8.755 -36.208  1.00  0.00    -0.372 OA
ATOM     38  H6  UNL     1     -13.638  -9.072 -37.018  1.00  0.00     0.212 HD
ENDBRANCH  29  37
BRANCH  34  39
HETATM   39  N14 UNL     1     -11.439  -7.508 -33.664  1.00  0.00    -0.327 N 
ATOM     40 2H14 UNL     1     -10.642  -8.039 -33.313  1.00  0.00     0.177 HD
ATOM     41 1H14 UNL     1     -11.057  -6.582 -33.854  1.00  0.00     0.177 HD
ENDBRANCH  34  39
ENDBRANCH  10  28
BRANCH   5  42
HETATM   42  N3  UNL     1     -16.092  -2.823 -37.670  1.00  0.00    -0.024 N 
HETATM   43  O1  UNL     1     -15.090  -2.248 -38.109  1.00  0.00    -0.516 OA
HETATM   44  O2  UNL     1     -17.292  -2.171 -37.689  1.00  0.00    -0.516 OA
ENDBRANCH   5  42
TORSDOF 9
ENDMDL
MODEL 4
REMARK VINA RESULT: -8.222016272      6.048      8.760
REMARK  9 active torsions:
REMARK  status: ('A' for Active; 'I' for Inactive)
REMARK       I    between atoms: C1_4  and  N2_5 
REMARK       I    between atoms: C1_4  and  N4_10 
REMARK    1  A    between atoms: N2_5  and  N3_7 
REMARK    2  A    between atoms: N4_10  and  C2_11 
REMARK       I    between atoms: N4_10  and  C4_17 
REMARK    3  A    between atoms: C2_11  and  C3_12 
REMARK    4  A    between atoms: C3_12  and  N5_13 
REMARK       I    between atoms: C4_17  and  N6_18 
REMARK       I    between atoms: C4_17  and  N10_29 
REMARK    5  A    between atoms: N6_18  and  C5_19 
REMARK    6  A    between atoms: C6_25  and  N9_26 
REMARK    7  A    between atoms: N10_29  and  C7_31 
REMARK    8  A    between atoms: C8_32  and  O6_33 
REMARK    9  A    between atoms: N13_41  and  N14_42 
ROOT
HETATM    1  N1  UNL     1     -17.137  -5.069 -34.809  1.00  0.00    -0.233 N 
ATOM      2  H11 UNL     1     -17.875  -4.439 -34.495  1.00  0.00     0.174 HD
ATOM      3  H12 UNL     1     -17.263  -6.081 -34.790  1.00  0.00     0.174 HD
HETATM    4  C1  UNL     1     -16.058  -4.499 -35.219  1.00  0.00     0.701 C 
HETATM    5  N2  UNL     1     -15.033  -5.374 -35.654  1.00  0.00    -0.072 N 
ATOM      6  H2  UNL     1     -14.561  -5.181 -36.536  1.00  0.00     0.212 HD
HETATM    7  N4  UNL     1     -15.883  -3.093 -35.244  1.00  0.00    -0.138 N 
HETATM    8  C4  UNL     1     -17.036  -2.292 -34.852  1.00  0.00     0.275 C 
HETATM    9  N6  UNL     1     -17.094  -2.016 -33.687  1.00  0.00    -0.346 NA
HETATM   10  N10 UNL     1     -17.946  -1.916 -35.861  1.00  0.00    -0.322 N 
ATOM     11  H10 UNL     1     -18.398  -1.017 -35.696  1.00  0.00     0.166 HD
ENDROOT
BRANCH   7  12
HETATM   12  C2  UNL     1     -14.637  -2.444 -35.586  1.00  0.00     0.179 C 
BRANCH  12  13
HETATM   13  C3  UNL     1     -14.718  -1.719 -36.914  1.00  0.00     0.250 C 
BRANCH  13  14
HETATM   14  N5  UNL     1     -14.572  -2.624 -38.036  1.00  0.00    -0.078 N 
ATOM     15  H53 UNL     1     -15.128  -3.469 -37.905  1.00  0.00     0.274 HD
ATOM     16  H52 UNL     1     -15.030  -2.257 -38.869  1.00  0.00     0.274 HD
ATOM     17  H51 UNL     1     -13.595  -2.850 -38.221  1.00  0.00     0.274 HD
ENDBRANCH  13  14
ENDBRANCH  12  13
ENDBRANCH   7  12
BRANCH   9  18
HETATM   18  C5  UNL     1     -17.162  -1.708 -32.409  1.00  0.00     0.257 A 
HETATM   19  N7  UNL     1     -16.134  -1.838 -31.442  1.00  0.00    -0.210 N 
HETATM   20  O3  UNL     1     -16.573  -1.415 -30.320  1.00  0.00    -0.152 OA
ATOM     21  H7  UNL     1     -15.199  -2.208 -31.614  1.00  0.00     0.199 HD
HETATM   22  N8  UNL     1     -17.781  -1.003 -30.369  1.00  0.00    -0.216 N 
HETATM   23  C6  UNL     1     -18.183  -1.170 -31.658  1.00  0.00     0.255 A 
ATOM     24  H8  UNL     1     -18.331  -0.625 -29.598  1.00  0.00     0.199 HD
BRANCH  23  25
HETATM   25  N9  UNL     1     -19.490  -0.820 -32.126  1.00  0.00    -0.091 N 
HETATM   26  O4  UNL     1     -19.638   0.196 -32.811  1.00  0.00    -0.530 OA
HETATM   27  O5  UNL     1     -20.584  -1.603 -31.848  1.00  0.00    -0.530 OA
ENDBRANCH  23  25
ENDBRANCH   9  18
BRANCH  10  28
HETATM   28  C7  UNL     1     -18.349  -2.547 -37.057  1.00  0.00     0.276 C 
HETATM   29  C8  UNL     1     -18.108  -1.808 -38.343  1.00  0.00     0.279 C 
HETATM   30  N11 UNL     1     -19.066  -0.701 -38.200  1.00  0.00    -0.195 N 
HETATM   31  C9  UNL     1     -20.184  -1.195 -37.476  1.00  0.00     0.692 C 
ATOM     32  H11 UNL     1     -18.949   0.248 -38.555  1.00  0.00     0.180 HD
HETATM   33  N12 UNL     1     -21.258  -0.561 -37.149  1.00  0.00    -0.233 N 
HETATM   34  N13 UNL     1     -19.845  -2.552 -37.133  1.00  0.00    -0.102 N 
ATOM     35 2H12 UNL     1     -21.497   0.400 -37.392  1.00  0.00     0.174 HD
ATOM     36 1H12 UNL     1     -22.060  -0.915 -36.630  1.00  0.00     0.174 HD
BRANCH  29  37
HETATM   37  O6  UNL     1     -18.621  -2.578 -39.395  1.00  0.00    -0.372 OA
ATOM     38  H6  UNL     1     -18.012  -2.533 -40.122  1.00  0.00     0.212 HD
ENDBRANCH  29  37
BRANCH  34  39
HETATM   39  N14 UNL     1     -20.657  -3.603 -36.918  1.00  0.00    -0.327 N 
ATOM     40 2H14 UNL     1     -20.565  -4.565 -37.242  1.00  0.00     0.177 HD
ATOM     41 1H14 UNL     1     -21.525  -3.603 -36.383  1.00  0.00     0.177 HD
ENDBRANCH  34  39
ENDBRANCH  10  28
BRANCH   5  42
HETATM   42  N3  UNL     1     -14.652  -6.482 -34.920  1.00  0.00    -0.024 N 
HETATM   43  O1  UNL     1     -14.124  -7.452 -35.474  1.00  0.00    -0.516 OA
HETATM   44  O2  UNL     1     -14.854  -6.519 -33.570  1.00  0.00    -0.516 OA
ENDBRANCH   5  42
TORSDOF 9
ENDMDL
MODEL 5
REMARK VINA RESULT: -8.125732010      4.035      7.329
REMARK  9 active torsions:
REMARK  status: ('A' for Active; 'I' for Inactive)
REMARK       I    between atoms: C1_4  and  N2_5 
REMARK       I    between atoms: C1_4  and  N4_10 
REMARK    1  A    between atoms: N2_5  and  N3_7 
REMARK    2  A    between atoms: N4_10  and  C2_11 
REMARK       I    between atoms: N4_10  and  C4_17 
REMARK    3  A    between atoms: C2_11  and  C3_12 
REMARK    4  A    between atoms: C3_12  and  N5_13 
REMARK       I    between atoms: C4_17  and  N6_18 
REMARK       I    between atoms: C4_17  and  N10_29 
REMARK    5  A    between atoms: N6_18  and  C5_19 
REMARK    6  A    between atoms: C6_25  and  N9_26 
REMARK    7  A    between atoms: N10_29  and  C7_31 
REMARK    8  A    between atoms: C8_32  and  O6_33 
REMARK    9  A    between atoms: N13_41  and  N14_42 
ROOT
HETATM    1  N1  UNL     1     -14.323  -3.428 -36.209  1.00  0.00    -0.233 N 
ATOM      2  H11 UNL     1     -14.084  -3.631 -35.238  1.00  0.00     0.174 HD
ATOM      3  H12 UNL     1     -13.660  -2.965 -36.831  1.00  0.00     0.174 HD
HETATM    4  C1  UNL     1     -15.501  -3.794 -36.578  1.00  0.00     0.701 C 
HETATM    5  N2  UNL     1     -15.833  -3.512 -37.926  1.00  0.00    -0.072 N 
ATOM      6  H2  UNL     1     -16.262  -4.244 -38.492  1.00  0.00     0.212 HD
HETATM    7  N4  UNL     1     -16.422  -4.437 -35.714  1.00  0.00    -0.138 N 
HETATM    8  C4  UNL     1     -15.939  -4.750 -34.374  1.00  0.00     0.275 C 
HETATM    9  N6  UNL     1     -16.136  -3.903 -33.550  1.00  0.00    -0.346 NA
HETATM   10  N10 UNL     1     -15.313  -5.998 -34.179  1.00  0.00    -0.322 N 
ATOM     11  H10 UNL     1     -15.448  -6.386 -33.246  1.00  0.00     0.166 HD
ENDROOT
BRANCH   7  12
HETATM   12  C2  UNL     1     -17.787  -4.743 -36.078  1.00  0.00     0.179 C 
BRANCH  12  13
HETATM   13  C3  UNL     1     -17.936  -6.161 -36.590  1.00  0.00     0.250 C 
BRANCH  13  14
HETATM   14  N5  UNL     1     -18.016  -6.211 -38.036  1.00  0.00    -0.078 N 
ATOM     15  H53 UNL     1     -17.091  -6.154 -38.460  1.00  0.00     0.274 HD
ATOM     16  H52 UNL     1     -18.285  -7.140 -38.360  1.00  0.00     0.274 HD
ATOM     17  H51 UNL     1     -18.639  -5.495 -38.410  1.00  0.00     0.274 HD
ENDBRANCH  13  14
ENDBRANCH  12  13
ENDBRANCH   7  12
BRANCH   9  18
HETATM   18  C5  UNL     1     -16.350  -2.976 -32.639  1.00  0.00     0.257 A 
HETATM   19  N7  UNL     1     -17.050  -1.756 -32.809  1.00  0.00    -0.210 N 
HETATM   20  O3  UNL     1     -17.067  -1.136 -31.693  1.00  0.00    -0.152 OA
ATOM     21  H7  UNL     1     -17.470  -1.427 -33.679  1.00  0.00     0.199 HD
HETATM   22  N8  UNL     1     -16.468  -1.761 -30.755  1.00  0.00    -0.216 N 
HETATM   23  C6  UNL     1     -16.007  -2.916 -31.307  1.00  0.00     0.255 A 
ATOM     24  H8  UNL     1     -16.358  -1.457 -29.788  1.00  0.00     0.199 HD
BRANCH  23  25
HETATM   25  N9  UNL     1     -15.276  -3.903 -30.572  1.00  0.00    -0.091 N 
HETATM   26  O4  UNL     1     -15.837  -4.526 -29.667  1.00  0.00    -0.530 OA
HETATM   27  O5  UNL     1     -13.965  -4.189 -30.865  1.00  0.00    -0.530 OA
ENDBRANCH  23  25
ENDBRANCH   9  18
BRANCH  10  28
HETATM   28  C7  UNL     1     -14.536  -6.811 -35.030  1.00  0.00     0.276 C 
HETATM   29  C8  UNL     1     -15.182  -8.051 -35.581  1.00  0.00     0.279 C 
HETATM   30  N11 UNL     1     -15.307  -8.856 -34.356  1.00  0.00    -0.195 N 
HETATM   31  C9  UNL     1     -14.200  -8.541 -33.524  1.00  0.00     0.692 C 
ATOM     32  H11 UNL     1     -16.052  -9.519 -34.143  1.00  0.00     0.180 HD
HETATM   33  N12 UNL     1     -13.913  -9.036 -32.368  1.00  0.00    -0.233 N 
HETATM   34  N13 UNL     1     -13.482  -7.506 -34.222  1.00  0.00    -0.102 N 
ATOM     35 2H12 UNL     1     -14.422  -9.768 -31.874  1.00  0.00     0.174 HD
ATOM     36 1H12 UNL     1     -13.118  -8.809 -31.771  1.00  0.00     0.174 HD
BRANCH  29  37
HETATM   37  O6  UNL     1     -14.234  -8.736 -36.353  1.00  0.00    -0.372 OA
ATOM     38  H6  UNL     1     -14.659  -9.486 -36.751  1.00  0.00     0.212 HD
ENDBRANCH  29  37
BRANCH  34  39
HETATM   39  N14 UNL     1     -12.172  -7.202 -34.178  1.00  0.00    -0.327 N 
ATOM     40 2H14 UNL     1     -11.654  -6.685 -33.468  1.00  0.00     0.177 HD
ATOM     41 1H14 UNL     1     -11.466  -7.445 -34.873  1.00  0.00     0.177 HD
ENDBRANCH  34  39
ENDBRANCH  10  28
BRANCH   5  42
HETATM   42  N3  UNL     1     -15.594  -2.278 -38.499  1.00  0.00    -0.024 N 
HETATM   43  O1  UNL     1     -14.458  -1.966 -38.873  1.00  0.00    -0.516 OA
HETATM   44  O2  UNL     1     -16.613  -1.383 -38.661  1.00  0.00    -0.516 OA
ENDBRANCH   5  42
TORSDOF 9
ENDMDL
