MODEL 1
REMARK VINA RESULT: -6.774863953      0.000      0.000
REMARK  15 active torsions:
REMARK  status: ('A' for Active; 'I' for Inactive)
REMARK    1  A    between atoms: N1_3  and  N2_5 
REMARK    2  A    between atoms: N3_7  and  C3_9 
REMARK    3  A    between atoms: C6_12  and  C7_13 
REMARK    4  A    between atoms: C7_13  and  O1_14 
REMARK    5  A    between atoms: C7_13  and  C8_16 
REMARK    6  A    between atoms: C8_16  and  C9_17 
REMARK    7  A    between atoms: C9_17  and  C10_18 
REMARK    8  A    between atoms: C10_18  and  C11_19 
REMARK    9  A    between atoms: C11_19  and  S1_20 
REMARK   10  A    between atoms: S1_20  and  S2_21 
REMARK   11  A    between atoms: S2_21  and  C12_22 
REMARK   12  A    between atoms: C12_22  and  C13_23 
REMARK   13  A    between atoms: C13_23  and  O2_24 
REMARK   14  A    between atoms: C15_27  and  O3_28 
REMARK   15  A    between atoms: O3_28  and  C16_29 
ROOT
HETATM    1  C3  UNL     1     -25.778  12.076  23.691  1.00  0.00     0.082 A 
HETATM    2  C4  UNL     1     -26.228  12.544  24.899  1.00  0.00     0.034 A 
HETATM    3  C5  UNL     1     -25.622  12.141  26.073  1.00  0.00     0.012 A 
HETATM    4  C6  UNL     1     -24.571  11.272  26.011  1.00  0.00    -0.027 A 
HETATM    5  C14 UNL     1     -24.094  10.781  24.792  1.00  0.00     0.049 A 
HETATM    6  C15 UNL     1     -24.697  11.181  23.619  1.00  0.00     0.097 A 
ENDROOT
BRANCH   4   7
HETATM    7  C7  UNL     1     -23.847  10.780  27.237  1.00  0.00     0.151 C 
BRANCH   7   8
HETATM    8  O1  UNL     1     -22.457  10.820  26.950  1.00  0.00    -0.391 OA
ATOM      9  H1  UNL     1     -21.997  10.709  27.774  1.00  0.00     0.210 HD
ENDBRANCH   7   8
BRANCH   7  10
HETATM   10  C8  UNL     1     -24.167  11.742  28.351  1.00  0.00     0.036 C 
BRANCH  10  11
HETATM   11  C9  UNL     1     -22.983  12.571  28.759  1.00  0.00     0.004 C 
BRANCH  11  12
HETATM   12  C10 UNL     1     -23.435  13.894  29.259  1.00  0.00     0.011 C 
BRANCH  12  13
HETATM   13  C11 UNL     1     -24.968  14.057  29.104  1.00  0.00     0.086 C 
BRANCH  13  14
HETATM   14  S1  UNL     1     -25.446  15.019  30.547  1.00  0.00    -0.098 SA
BRANCH  14  15
HETATM   15  S2  UNL     1     -27.192  14.329  31.453  1.00  0.00    -0.096 SA
BRANCH  15  16
HETATM   16  C12 UNL     1     -27.927  13.010  30.514  1.00  0.00     0.112 C 
BRANCH  16  17
HETATM   17  C13 UNL     1     -29.256  12.592  31.030  1.00  0.00     0.175 C 
BRANCH  17  18
HETATM   18  O2  UNL     1     -29.365  11.224  31.032  1.00  0.00    -0.400 OA
ATOM     19  H2  UNL     1     -29.114  10.871  31.878  1.00  0.00     0.209 HD
ENDBRANCH  17  18
ENDBRANCH  16  17
ENDBRANCH  15  16
ENDBRANCH  14  15
ENDBRANCH  13  14
ENDBRANCH  12  13
ENDBRANCH  11  12
ENDBRANCH  10  11
ENDBRANCH   7  10
ENDBRANCH   4   7
BRANCH   6  20
HETATM   20  O3  UNL     1     -24.276  10.737  22.403  1.00  0.00    -0.349 OA
BRANCH  20  21
HETATM   21  C16 UNL     1     -23.354   9.722  22.155  1.00  0.00     0.171 C 
HETATM   22  C17 UNL     1     -22.146  10.248  21.413  1.00  0.00     0.034 C 
ENDBRANCH  20  21
ENDBRANCH   6  20
BRANCH   1  23
HETATM   23  N3  UNL     1     -26.377  12.468  22.469  1.00  0.00    -0.284 N 
HETATM   24  N2  UNL     1     -25.900  13.293  21.658  1.00  0.00    -0.243 N 
ATOM     25  H2  UNL     1     -26.450  13.473  20.818  1.00  0.00     0.208 HD
ATOM     26  H3  UNL     1     -27.273  12.042  22.231  1.00  0.00     0.188 HD
BRANCH  24  27
HETATM   27  N1  UNL     1     -24.717  13.983  21.771  1.00  0.00    -0.302 N 
HETATM   28  C2  UNL     1     -23.820  13.888  20.857  1.00  0.00     0.077 C 
HETATM   29  C1  UNL     1     -24.062  13.036  19.685  1.00  0.00     0.056 C 
ATOM     30  H1  UNL     1     -24.551  14.574  22.585  1.00  0.00     0.187 HD
ENDBRANCH  24  27
ENDBRANCH   1  23
TORSDOF 15
ENDMDL
MODEL 2
REMARK VINA RESULT: -6.751418363      4.139      6.741
REMARK  15 active torsions:
REMARK  status: ('A' for Active; 'I' for Inactive)
REMARK    1  A    between atoms: N1_3  and  N2_5 
REMARK    2  A    between atoms: N3_7  and  C3_9 
REMARK    3  A    between atoms: C6_12  and  C7_13 
REMARK    4  A    between atoms: C7_13  and  O1_14 
REMARK    5  A    between atoms: C7_13  and  C8_16 
REMARK    6  A    between atoms: C8_16  and  C9_17 
REMARK    7  A    between atoms: C9_17  and  C10_18 
REMARK    8  A    between atoms: C10_18  and  C11_19 
REMARK    9  A    between atoms: C11_19  and  S1_20 
REMARK   10  A    between atoms: S1_20  and  S2_21 
REMARK   11  A    between atoms: S2_21  and  C12_22 
REMARK   12  A    between atoms: C12_22  and  C13_23 
REMARK   13  A    between atoms: C13_23  and  O2_24 
REMARK   14  A    between atoms: C15_27  and  O3_28 
REMARK   15  A    between atoms: O3_28  and  C16_29 
ROOT
HETATM    1  C3  UNL     1     -24.607  10.777  27.136  1.00  0.00     0.082 A 
HETATM    2  C4  UNL     1     -23.267  10.490  27.188  1.00  0.00     0.034 A 
HETATM    3  C5  UNL     1     -22.642   9.880  26.119  1.00  0.00     0.012 A 
HETATM    4  C6  UNL     1     -23.378   9.567  25.012  1.00  0.00    -0.027 A 
HETATM    5  C14 UNL     1     -24.745   9.849  24.935  1.00  0.00     0.049 A 
HETATM    6  C15 UNL     1     -25.371  10.458  26.001  1.00  0.00     0.097 A 
ENDROOT
BRANCH   4   7
HETATM    7  C7  UNL     1     -22.782   8.902  23.799  1.00  0.00     0.151 C 
BRANCH   7   8
HETATM    8  O1  UNL     1     -23.455   7.665  23.624  1.00  0.00    -0.391 OA
ATOM      9  H1  UNL     1     -22.820   7.045  23.283  1.00  0.00     0.210 HD
ENDBRANCH   7   8
BRANCH   7  10
HETATM   10  C8  UNL     1     -23.058   9.804  22.625  1.00  0.00     0.036 C 
BRANCH  10  11
HETATM   11  C9  UNL     1     -21.846  10.026  21.767  1.00  0.00     0.004 C 
BRANCH  11  12
HETATM   12  C10 UNL     1     -22.224  10.751  20.527  1.00  0.00     0.011 C 
BRANCH  12  13
HETATM   13  C11 UNL     1     -23.761  10.770  20.337  1.00  0.00     0.086 C 
BRANCH  13  14
HETATM   14  S1  UNL     1     -24.160  12.521  20.236  1.00  0.00    -0.098 SA
BRANCH  14  15
HETATM   15  S2  UNL     1     -24.880  13.304  22.029  1.00  0.00    -0.096 SA
BRANCH  15  16
HETATM   16  C12 UNL     1     -26.385  12.497  22.526  1.00  0.00     0.112 C 
BRANCH  16  17
HETATM   17  C13 UNL     1     -27.068  13.174  23.659  1.00  0.00     0.175 C 
BRANCH  17  18
HETATM   18  O2  UNL     1     -26.172  13.466  24.656  1.00  0.00    -0.400 OA
ATOM     19  H2  UNL     1     -26.210  14.388  24.879  1.00  0.00     0.209 HD
ENDBRANCH  17  18
ENDBRANCH  16  17
ENDBRANCH  15  16
ENDBRANCH  14  15
ENDBRANCH  13  14
ENDBRANCH  12  13
ENDBRANCH  11  12
ENDBRANCH  10  11
ENDBRANCH   7  10
ENDBRANCH   4   7
BRANCH   6  20
HETATM   20  O3  UNL     1     -26.699  10.758  25.983  1.00  0.00    -0.349 OA
BRANCH  20  21
HETATM   21  C16 UNL     1     -27.749   9.891  25.687  1.00  0.00     0.171 C 
HETATM   22  C17 UNL     1     -27.862   8.794  26.722  1.00  0.00     0.034 C 
ENDBRANCH  20  21
ENDBRANCH   6  20
BRANCH   1  23
HETATM   23  N3  UNL     1     -25.279  11.402  28.215  1.00  0.00    -0.284 N 
HETATM   24  N2  UNL     1     -25.419  12.637  28.366  1.00  0.00    -0.243 N 
ATOM     25  H2  UNL     1     -25.929  12.937  29.197  1.00  0.00     0.208 HD
ATOM     26  H3  UNL     1     -25.681  10.795  28.929  1.00  0.00     0.188 HD
BRANCH  24  27
HETATM   27  N1  UNL     1     -24.964  13.634  27.537  1.00  0.00    -0.302 N 
HETATM   28  C2  UNL     1     -24.133  14.511  27.973  1.00  0.00     0.077 C 
HETATM   29  C1  UNL     1     -23.670  14.447  29.366  1.00  0.00     0.056 C 
ATOM     30  H1  UNL     1     -25.286  13.678  26.571  1.00  0.00     0.187 HD
ENDBRANCH  24  27
ENDBRANCH   1  23
TORSDOF 15
ENDMDL
MODEL 3
REMARK VINA RESULT: -6.748788348      2.255      3.460
REMARK  15 active torsions:
REMARK  status: ('A' for Active; 'I' for Inactive)
REMARK    1  A    between atoms: N1_3  and  N2_5 
REMARK    2  A    between atoms: N3_7  and  C3_9 
REMARK    3  A    between atoms: C6_12  and  C7_13 
REMARK    4  A    between atoms: C7_13  and  O1_14 
REMARK    5  A    between atoms: C7_13  and  C8_16 
REMARK    6  A    between atoms: C8_16  and  C9_17 
REMARK    7  A    between atoms: C9_17  and  C10_18 
REMARK    8  A    between atoms: C10_18  and  C11_19 
REMARK    9  A    between atoms: C11_19  and  S1_20 
REMARK   10  A    between atoms: S1_20  and  S2_21 
REMARK   11  A    between atoms: S2_21  and  C12_22 
REMARK   12  A    between atoms: C12_22  and  C13_23 
REMARK   13  A    between atoms: C13_23  and  O2_24 
REMARK   14  A    between atoms: C15_27  and  O3_28 
REMARK   15  A    between atoms: O3_28  and  C16_29 
ROOT
HETATM    1  C3  UNL     1     -26.397  10.132  26.634  1.00  0.00     0.082 A 
HETATM    2  C4  UNL     1     -26.525  10.293  27.990  1.00  0.00     0.034 A 
HETATM    3  C5  UNL     1     -25.540  10.939  28.712  1.00  0.00     0.012 A 
HETATM    4  C6  UNL     1     -24.441  11.412  28.055  1.00  0.00    -0.027 A 
HETATM    5  C14 UNL     1     -24.287  11.260  26.674  1.00  0.00     0.049 A 
HETATM    6  C15 UNL     1     -25.268  10.616  25.951  1.00  0.00     0.097 A 
ENDROOT
BRANCH   4   7
HETATM    7  C7  UNL     1     -23.318  12.130  28.758  1.00  0.00     0.151 C 
BRANCH   7   8
HETATM    8  O1  UNL     1     -22.102  11.651  28.207  1.00  0.00    -0.391 OA
ATOM      9  H1  UNL     1     -21.468  12.357  28.267  1.00  0.00     0.210 HD
ENDBRANCH   7   8
BRANCH   7  10
HETATM   10  C8  UNL     1     -23.476  13.596  28.453  1.00  0.00     0.036 C 
BRANCH  10  11
HETATM   11  C9  UNL     1     -23.662  14.429  29.688  1.00  0.00     0.004 C 
BRANCH  11  12
HETATM   12  C10 UNL     1     -25.097  14.773  29.860  1.00  0.00     0.011 C 
BRANCH  12  13
HETATM   13  C11 UNL     1     -25.337  15.518  31.198  1.00  0.00     0.086 C 
BRANCH  13  14
HETATM   14  S1  UNL     1     -26.946  14.925  31.738  1.00  0.00    -0.098 SA
BRANCH  14  15
HETATM   15  S2  UNL     1     -27.654  13.324  30.607  1.00  0.00    -0.096 SA
BRANCH  15  16
HETATM   16  C12 UNL     1     -29.418  13.154  30.765  1.00  0.00     0.112 C 
BRANCH  16  17
HETATM   17  C13 UNL     1     -29.822  12.030  31.650  1.00  0.00     0.175 C 
BRANCH  17  18
HETATM   18  O2  UNL     1     -29.253  10.855  31.227  1.00  0.00    -0.400 OA
ATOM     19  H2  UNL     1     -29.382  10.171  31.874  1.00  0.00     0.209 HD
ENDBRANCH  17  18
ENDBRANCH  16  17
ENDBRANCH  15  16
ENDBRANCH  14  15
ENDBRANCH  13  14
ENDBRANCH  12  13
ENDBRANCH  11  12
ENDBRANCH  10  11
ENDBRANCH   7  10
ENDBRANCH   4   7
BRANCH   6  20
HETATM   20  O3  UNL     1     -25.174  10.439  24.605  1.00  0.00    -0.349 OA
BRANCH  20  21
HETATM   21  C16 UNL     1     -24.444  11.215  23.707  1.00  0.00     0.171 C 
HETATM   22  C17 UNL     1     -25.230  12.429  23.265  1.00  0.00     0.034 C 
ENDBRANCH  20  21
ENDBRANCH   6  20
BRANCH   1  23
HETATM   23  N3  UNL     1     -27.387   9.474  25.865  1.00  0.00    -0.284 N 
HETATM   24  N2  UNL     1     -28.191  10.033  25.084  1.00  0.00    -0.243 N 
ATOM     25  H2  UNL     1     -28.849   9.424  24.598  1.00  0.00     0.208 HD
ATOM     26  H3  UNL     1     -27.451   8.460  25.954  1.00  0.00     0.188 HD
BRANCH  24  27
HETATM   27  N1  UNL     1     -28.287  11.377  24.809  1.00  0.00    -0.302 N 
HETATM   28  C2  UNL     1     -29.314  11.842  24.195  1.00  0.00     0.077 C 
HETATM   29  C1  UNL     1     -30.391  10.931  23.785  1.00  0.00     0.056 C 
ATOM     30  H1  UNL     1     -27.538  12.007  25.095  1.00  0.00     0.187 HD
ENDBRANCH  24  27
ENDBRANCH   1  23
TORSDOF 15
ENDMDL
MODEL 4
REMARK VINA RESULT: -6.695395733      1.891      2.961
REMARK  15 active torsions:
REMARK  status: ('A' for Active; 'I' for Inactive)
REMARK    1  A    between atoms: N1_3  and  N2_5 
REMARK    2  A    between atoms: N3_7  and  C3_9 
REMARK    3  A    between atoms: C6_12  and  C7_13 
REMARK    4  A    between atoms: C7_13  and  O1_14 
REMARK    5  A    between atoms: C7_13  and  C8_16 
REMARK    6  A    between atoms: C8_16  and  C9_17 
REMARK    7  A    between atoms: C9_17  and  C10_18 
REMARK    8  A    between atoms: C10_18  and  C11_19 
REMARK    9  A    between atoms: C11_19  and  S1_20 
REMARK   10  A    between atoms: S1_20  and  S2_21 
REMARK   11  A    between atoms: S2_21  and  C12_22 
REMARK   12  A    between atoms: C12_22  and  C13_23 
REMARK   13  A    between atoms: C13_23  and  O2_24 
REMARK   14  A    between atoms: C15_27  and  O3_28 
REMARK   15  A    between atoms: O3_28  and  C16_29 
ROOT
HETATM    1  C3  UNL     1     -25.521  12.578  25.137  1.00  0.00     0.082 A 
HETATM    2  C4  UNL     1     -25.051  13.810  25.516  1.00  0.00     0.034 A 
HETATM    3  C5  UNL     1     -24.482  13.987  26.761  1.00  0.00     0.012 A 
HETATM    4  C6  UNL     1     -24.396  12.919  27.608  1.00  0.00    -0.027 A 
HETATM    5  C14 UNL     1     -24.868  11.654  27.245  1.00  0.00     0.049 A 
HETATM    6  C15 UNL     1     -25.436  11.475  26.002  1.00  0.00     0.097 A 
ENDROOT
BRANCH   4   7
HETATM    7  C7  UNL     1     -23.789  13.016  28.983  1.00  0.00     0.151 C 
BRANCH   7   8
HETATM    8  O1  UNL     1     -22.761  12.041  29.059  1.00  0.00    -0.391 OA
ATOM      9  H1  UNL     1     -23.173  11.213  29.274  1.00  0.00     0.210 HD
ENDBRANCH   7   8
BRANCH   7  10
HETATM   10  C8  UNL     1     -23.197  14.395  29.106  1.00  0.00     0.036 C 
BRANCH  10  11
HETATM   11  C9  UNL     1     -23.637  15.106  30.353  1.00  0.00     0.004 C 
BRANCH  11  12
HETATM   12  C10 UNL     1     -25.119  15.200  30.391  1.00  0.00     0.011 C 
BRANCH  12  13
HETATM   13  C11 UNL     1     -25.600  15.946  31.662  1.00  0.00     0.086 C 
BRANCH  13  14
HETATM   14  S1  UNL     1     -27.098  15.070  32.133  1.00  0.00    -0.098 SA
BRANCH  14  15
HETATM   15  S2  UNL     1     -27.588  13.518  30.832  1.00  0.00    -0.096 SA
BRANCH  15  16
HETATM   16  C12 UNL     1     -29.339  13.208  30.829  1.00  0.00     0.112 C 
BRANCH  16  17
HETATM   17  C13 UNL     1     -29.725  12.013  31.623  1.00  0.00     0.175 C 
BRANCH  17  18
HETATM   18  O2  UNL     1     -29.183  10.876  31.077  1.00  0.00    -0.400 OA
ATOM     19  H2  UNL     1     -28.237  10.951  31.022  1.00  0.00     0.209 HD
ENDBRANCH  17  18
ENDBRANCH  16  17
ENDBRANCH  15  16
ENDBRANCH  14  15
ENDBRANCH  13  14
ENDBRANCH  12  13
ENDBRANCH  11  12
ENDBRANCH  10  11
ENDBRANCH   7  10
ENDBRANCH   4   7
BRANCH   6  20
HETATM   20  O3  UNL     1     -25.912  10.267  25.594  1.00  0.00    -0.349 OA
BRANCH  20  21
HETATM   21  C16 UNL     1     -26.989   9.565  26.133  1.00  0.00     0.171 C 
HETATM   22  C17 UNL     1     -28.276   9.893  25.410  1.00  0.00     0.034 C 
ENDBRANCH  20  21
ENDBRANCH   6  20
BRANCH   1  23
HETATM   23  N3  UNL     1     -26.111  12.363  23.868  1.00  0.00    -0.284 N 
HETATM   24  N2  UNL     1     -25.615  11.682  22.942  1.00  0.00    -0.243 N 
ATOM     25  H2  UNL     1     -26.160  11.619  22.082  1.00  0.00     0.208 HD
ATOM     26  H3  UNL     1     -27.016  12.801  23.693  1.00  0.00     0.188 HD
BRANCH  24  27
HETATM   27  N1  UNL     1     -24.416  11.009  22.954  1.00  0.00    -0.302 N 
HETATM   28  C2  UNL     1     -23.925  10.539  21.865  1.00  0.00     0.077 C 
HETATM   29  C1  UNL     1     -24.650  10.723  20.600  1.00  0.00     0.056 C 
ATOM     30  H1  UNL     1     -23.914  10.882  23.833  1.00  0.00     0.187 HD
ENDBRANCH  24  27
ENDBRANCH   1  23
TORSDOF 15
ENDMDL
MODEL 5
REMARK VINA RESULT: -6.688661568      2.961      4.334
REMARK  15 active torsions:
REMARK  status: ('A' for Active; 'I' for Inactive)
REMARK    1  A    between atoms: N1_3  and  N2_5 
REMARK    2  A    between atoms: N3_7  and  C3_9 
REMARK    3  A    between atoms: C6_12  and  C7_13 
REMARK    4  A    between atoms: C7_13  and  O1_14 
REMARK    5  A    between atoms: C7_13  and  C8_16 
REMARK    6  A    between atoms: C8_16  and  C9_17 
REMARK    7  A    between atoms: C9_17  and  C10_18 
REMARK    8  A    between atoms: C10_18  and  C11_19 
REMARK    9  A    between atoms: C11_19  and  S1_20 
REMARK   10  A    between atoms: S1_20  and  S2_21 
REMARK   11  A    between atoms: S2_21  and  C12_22 
REMARK   12  A    between atoms: C12_22  and  C13_23 
REMARK   13  A    between atoms: C13_23  and  O2_24 
REMARK   14  A    between atoms: C15_27  and  O3_28 
REMARK   15  A    between atoms: O3_28  and  C16_29 
ROOT
HETATM    1  C3  UNL     1     -26.456  10.483  26.524  1.00  0.00     0.082 A 
HETATM    2  C4  UNL     1     -26.803  11.334  27.543  1.00  0.00     0.034 A 
HETATM    3  C5  UNL     1     -25.827  11.928  28.319  1.00  0.00     0.012 A 
HETATM    4  C6  UNL     1     -24.515  11.654  28.057  1.00  0.00    -0.027 A 
HETATM    5  C14 UNL     1     -24.137  10.790  27.025  1.00  0.00     0.049 A 
HETATM    6  C15 UNL     1     -25.108  10.197  26.248  1.00  0.00     0.097 A 
ENDROOT
BRANCH   4   7
HETATM    7  C7  UNL     1     -23.383  12.255  28.848  1.00  0.00     0.151 C 
BRANCH   7   8
HETATM    8  O1  UNL     1     -22.178  11.689  28.356  1.00  0.00    -0.391 OA
ATOM      9  H1  UNL     1     -22.322  11.471  27.443  1.00  0.00     0.210 HD
ENDBRANCH   7   8
BRANCH   7  10
HETATM   10  C8  UNL     1     -23.399  13.737  28.580  1.00  0.00     0.036 C 
BRANCH  10  11
HETATM   11  C9  UNL     1     -23.581  14.550  29.830  1.00  0.00     0.004 C 
BRANCH  11  12
HETATM   12  C10 UNL     1     -25.010  14.916  29.997  1.00  0.00     0.011 C 
BRANCH  12  13
HETATM   13  C11 UNL     1     -25.246  15.651  31.341  1.00  0.00     0.086 C 
BRANCH  13  14
HETATM   14  S1  UNL     1     -26.892  15.124  31.837  1.00  0.00    -0.098 SA
BRANCH  14  15
HETATM   15  S2  UNL     1     -27.576  13.463  30.780  1.00  0.00    -0.096 SA
BRANCH  15  16
HETATM   16  C12 UNL     1     -29.336  13.270  30.952  1.00  0.00     0.112 C 
BRANCH  16  17
HETATM   17  C13 UNL     1     -29.722  12.063  31.729  1.00  0.00     0.175 C 
BRANCH  17  18
HETATM   18  O2  UNL     1     -29.256  10.927  31.116  1.00  0.00    -0.400 OA
ATOM     19  H2  UNL     1     -29.978  10.416  30.768  1.00  0.00     0.209 HD
ENDBRANCH  17  18
ENDBRANCH  16  17
ENDBRANCH  15  16
ENDBRANCH  14  15
ENDBRANCH  13  14
ENDBRANCH  12  13
ENDBRANCH  11  12
ENDBRANCH  10  11
ENDBRANCH   7  10
ENDBRANCH   4   7
BRANCH   6  20
HETATM   20  O3  UNL     1     -24.800   9.349  25.230  1.00  0.00    -0.349 OA
BRANCH  20  21
HETATM   21  C16 UNL     1     -24.103   9.658  24.063  1.00  0.00     0.171 C 
HETATM   22  C17 UNL     1     -22.985   8.672  23.814  1.00  0.00     0.034 C 
ENDBRANCH  20  21
ENDBRANCH   6  20
BRANCH   1  23
HETATM   23  N3  UNL     1     -27.431   9.859  25.710  1.00  0.00    -0.284 N 
HETATM   24  N2  UNL     1     -28.040   8.800  25.987  1.00  0.00    -0.243 N 
ATOM     25  H2  UNL     1     -28.717   8.472  25.298  1.00  0.00     0.208 HD
ATOM     26  H3  UNL     1     -27.657  10.309  24.823  1.00  0.00     0.188 HD
BRANCH  24  27
HETATM   27  N1  UNL     1     -27.898   8.030  27.117  1.00  0.00    -0.302 N 
HETATM   28  C2  UNL     1     -28.715   7.068  27.353  1.00  0.00     0.077 C 
HETATM   29  C1  UNL     1     -29.807   6.792  26.410  1.00  0.00     0.056 C 
ATOM     30  H1  UNL     1     -27.139   8.223  27.770  1.00  0.00     0.187 HD
ENDBRANCH  24  27
ENDBRANCH   1  23
TORSDOF 15
ENDMDL
