MODEL 1
REMARK VINA RESULT: -6.831975849      0.000      0.000
REMARK  14 active torsions:
REMARK  status: ('A' for Active; 'I' for Inactive)
REMARK    1  A    between atoms: C2_2  and  C3_3 
REMARK    2  A    between atoms: C3_3  and  C4_4 
REMARK    3  A    between atoms: C4_4  and  N1_5 
REMARK    4  A    between atoms: N1_5  and  C5_6 
REMARK    5  A    between atoms: N1_5  and  C9_10 
REMARK    6  A    between atoms: C5_6  and  C6_7 
REMARK    7  A    between atoms: C6_7  and  C7_8 
REMARK    8  A    between atoms: C10_12  and  C11_13 
REMARK    9  A    between atoms: C11_13  and  C12_14 
REMARK   10  A    between atoms: C12_14  and  S1_15 
REMARK   11  A    between atoms: S1_15  and  C13_16 
REMARK   12  A    between atoms: C13_16  and  C14_17 
REMARK   13  A    between atoms: C17_22  and  N4_23 
REMARK   14  A    between atoms: N4_23  and  O2_25 
ROOT
HETATM    1  C14 UNL     1     -24.058  12.906  20.273  1.00  0.00     0.134 C 
HETATM    2  C15 UNL     1     -24.099  14.171  20.945  1.00  0.00     0.059 C 
HETATM    3  N2  UNL     1     -24.096  15.197  21.470  1.00  0.00    -0.197 NA
ENDROOT
BRANCH   1   4
HETATM    4  C13 UNL     1     -24.899  11.833  20.864  1.00  0.00     0.088 C 
BRANCH   4   5
HETATM    5  S1  UNL     1     -23.975  10.594  21.728  1.00  0.00    -0.168 SA
BRANCH   5   6
HETATM    6  C12 UNL     1     -24.109  10.523  23.499  1.00  0.00     0.080 C 
BRANCH   6   7
HETATM    7  C11 UNL     1     -25.064  11.612  23.958  1.00  0.00     0.077 C 
BRANCH   7   8
HETATM    8  C10 UNL     1     -25.347  11.596  25.406  1.00  0.00     0.083 A 
HETATM    9  O1  UNL     1     -24.845  12.509  26.233  1.00  0.00    -0.294 OA
HETATM   10  C9  UNL     1     -25.247  12.281  27.479  1.00  0.00     0.180 A 
HETATM   11  C17 UNL     1     -26.038  11.184  27.477  1.00  0.00     0.132 A 
HETATM   12  C16 UNL     1     -26.107  10.740  26.148  1.00  0.00     0.109 A 
HETATM   13  N3  UNL     1     -26.821   9.637  25.656  1.00  0.00    -0.097 NA
BRANCH  10  14
HETATM   14  N1  UNL     1     -24.855  13.122  28.544  1.00  0.00    -0.339 N 
BRANCH  14  15
HETATM   15  C4  UNL     1     -25.644  13.842  29.479  1.00  0.00     0.066 C 
BRANCH  15  16
HETATM   16  C3  UNL     1     -25.103  14.962  30.252  1.00  0.00     0.044 C 
BRANCH  16  17
HETATM   17  C2  UNL     1     -25.940  15.554  31.337  1.00  0.00     0.001 C 
HETATM   18  C1  UNL     1     -27.077  14.633  31.749  1.00  0.00     0.005 C 
ENDBRANCH  16  17
ENDBRANCH  15  16
ENDBRANCH  14  15
BRANCH  14  19
HETATM   19  C5  UNL     1     -23.395  13.199  28.745  1.00  0.00     0.130 C 
BRANCH  19  20
HETATM   20  C6  UNL     1     -22.798  11.864  28.996  1.00  0.00     0.020 C 
BRANCH  20  21
HETATM   21  C7  UNL     1     -21.842  11.419  27.916  1.00  0.00    -0.003 C 
HETATM   22  C8  UNL     1     -22.397  10.173  27.203  1.00  0.00     0.005 C 
ENDBRANCH  20  21
ENDBRANCH  19  20
ENDBRANCH  14  19
ENDBRANCH  10  14
BRANCH  11  23
HETATM   23  N4  UNL     1     -26.719  10.526  28.540  1.00  0.00    -0.261 N 
ATOM     24  H4  UNL     1     -27.496  11.014  28.984  1.00  0.00     0.194 HD
BRANCH  23  25
HETATM   25  O2  UNL     1     -26.402   9.313  28.989  1.00  0.00    -0.285 OA
HETATM   26  C18 UNL     1     -27.472   8.766  29.669  1.00  0.00     0.237 C 
ENDBRANCH  23  25
ENDBRANCH  11  23
ENDBRANCH   7   8
ENDBRANCH   6   7
ENDBRANCH   5   6
ENDBRANCH   4   5
ENDBRANCH   1   4
TORSDOF 14
ENDMDL
MODEL 2
REMARK VINA RESULT: -6.831698034      1.203      3.325
REMARK  14 active torsions:
REMARK  status: ('A' for Active; 'I' for Inactive)
REMARK    1  A    between atoms: C2_2  and  C3_3 
REMARK    2  A    between atoms: C3_3  and  C4_4 
REMARK    3  A    between atoms: C4_4  and  N1_5 
REMARK    4  A    between atoms: N1_5  and  C5_6 
REMARK    5  A    between atoms: N1_5  and  C9_10 
REMARK    6  A    between atoms: C5_6  and  C6_7 
REMARK    7  A    between atoms: C6_7  and  C7_8 
REMARK    8  A    between atoms: C10_12  and  C11_13 
REMARK    9  A    between atoms: C11_13  and  C12_14 
REMARK   10  A    between atoms: C12_14  and  S1_15 
REMARK   11  A    between atoms: S1_15  and  C13_16 
REMARK   12  A    between atoms: C13_16  and  C14_17 
REMARK   13  A    between atoms: C17_22  and  N4_23 
REMARK   14  A    between atoms: N4_23  and  O2_25 
ROOT
HETATM    1  C14 UNL     1     -24.049  12.938  19.975  1.00  0.00     0.134 C 
HETATM    2  C15 UNL     1     -24.047  14.149  20.741  1.00  0.00     0.059 C 
HETATM    3  N2  UNL     1     -24.040  15.143  21.323  1.00  0.00    -0.197 NA
ENDROOT
BRANCH   1   4
HETATM    4  C13 UNL     1     -23.719  11.698  20.726  1.00  0.00     0.088 C 
BRANCH   4   5
HETATM    5  S1  UNL     1     -24.481  11.603  22.321  1.00  0.00    -0.168 SA
BRANCH   5   6
HETATM    6  C12 UNL     1     -26.206  12.010  22.458  1.00  0.00     0.080 C 
BRANCH   6   7
HETATM    7  C11 UNL     1     -26.369  13.081  23.523  1.00  0.00     0.077 C 
BRANCH   7   8
HETATM    8  C10 UNL     1     -26.161  12.599  24.902  1.00  0.00     0.083 A 
HETATM    9  O1  UNL     1     -25.174  13.057  25.667  1.00  0.00    -0.294 OA
HETATM   10  C9  UNL     1     -25.200  12.472  26.860  1.00  0.00     0.180 A 
HETATM   11  C17 UNL     1     -26.235  11.602  26.886  1.00  0.00     0.132 A 
HETATM   12  C16 UNL     1     -26.857  11.680  25.631  1.00  0.00     0.109 A 
HETATM   13  N3  UNL     1     -27.982  10.965  25.194  1.00  0.00    -0.097 NA
BRANCH  10  14
HETATM   14  N1  UNL     1     -24.256  12.798  27.860  1.00  0.00    -0.339 N 
BRANCH  14  15
HETATM   15  C4  UNL     1     -23.308  11.976  28.525  1.00  0.00     0.066 C 
BRANCH  15  16
HETATM   16  C3  UNL     1     -22.294  11.213  27.794  1.00  0.00     0.044 C 
BRANCH  16  17
HETATM   17  C2  UNL     1     -22.711   9.977  27.071  1.00  0.00     0.001 C 
HETATM   18  C1  UNL     1     -22.796  10.193  25.568  1.00  0.00     0.005 C 
ENDBRANCH  16  17
ENDBRANCH  15  16
ENDBRANCH  14  15
BRANCH  14  19
HETATM   19  C5  UNL     1     -24.214  14.232  28.205  1.00  0.00     0.130 C 
BRANCH  19  20
HETATM   20  C6  UNL     1     -23.143  14.535  29.187  1.00  0.00     0.020 C 
BRANCH  20  21
HETATM   21  C7  UNL     1     -23.663  15.052  30.506  1.00  0.00    -0.003 C 
HETATM   22  C8  UNL     1     -25.199  15.151  30.462  1.00  0.00     0.005 C 
ENDBRANCH  20  21
ENDBRANCH  19  20
ENDBRANCH  14  19
ENDBRANCH  10  14
BRANCH  11  23
HETATM   23  N4  UNL     1     -26.698  10.737  27.917  1.00  0.00    -0.261 N 
ATOM     24  H4  UNL     1     -27.259  11.142  28.665  1.00  0.00     0.194 HD
BRANCH  23  25
HETATM   25  O2  UNL     1     -26.441   9.431  27.964  1.00  0.00    -0.285 OA
HETATM   26  C18 UNL     1     -27.291   8.813  28.859  1.00  0.00     0.237 C 
ENDBRANCH  23  25
ENDBRANCH  11  23
ENDBRANCH   7   8
ENDBRANCH   6   7
ENDBRANCH   5   6
ENDBRANCH   4   5
ENDBRANCH   1   4
TORSDOF 14
ENDMDL
MODEL 3
REMARK VINA RESULT: -6.788411275      3.015      7.607
REMARK  14 active torsions:
REMARK  status: ('A' for Active; 'I' for Inactive)
REMARK    1  A    between atoms: C2_2  and  C3_3 
REMARK    2  A    between atoms: C3_3  and  C4_4 
REMARK    3  A    between atoms: C4_4  and  N1_5 
REMARK    4  A    between atoms: N1_5  and  C5_6 
REMARK    5  A    between atoms: N1_5  and  C9_10 
REMARK    6  A    between atoms: C5_6  and  C6_7 
REMARK    7  A    between atoms: C6_7  and  C7_8 
REMARK    8  A    between atoms: C10_12  and  C11_13 
REMARK    9  A    between atoms: C11_13  and  C12_14 
REMARK   10  A    between atoms: C12_14  and  S1_15 
REMARK   11  A    between atoms: S1_15  and  C13_16 
REMARK   12  A    between atoms: C13_16  and  C14_17 
REMARK   13  A    between atoms: C17_22  and  N4_23 
REMARK   14  A    between atoms: N4_23  and  O2_25 
ROOT
HETATM    1  C14 UNL     1     -24.575  13.699  27.609  1.00  0.00     0.134 C 
HETATM    2  C15 UNL     1     -23.886  14.244  28.741  1.00  0.00     0.059 C 
HETATM    3  N2  UNL     1     -23.333  14.718  29.634  1.00  0.00    -0.197 NA
ENDROOT
BRANCH   1   4
HETATM    4  C13 UNL     1     -24.408  12.238  27.393  1.00  0.00     0.088 C 
BRANCH   4   5
HETATM    5  S1  UNL     1     -25.789  11.272  27.935  1.00  0.00    -0.168 SA
BRANCH   5   6
HETATM    6  C12 UNL     1     -26.683  10.326  26.725  1.00  0.00     0.080 C 
BRANCH   6   7
HETATM    7  C11 UNL     1     -27.360  11.285  25.761  1.00  0.00     0.077 C 
BRANCH   7   8
HETATM    8  C10 UNL     1     -26.558  11.607  24.565  1.00  0.00     0.083 A 
HETATM    9  O1  UNL     1     -25.605  10.795  24.117  1.00  0.00    -0.294 OA
HETATM   10  C9  UNL     1     -25.033  11.304  23.031  1.00  0.00     0.180 A 
HETATM   11  C17 UNL     1     -25.623  12.489  22.753  1.00  0.00     0.132 A 
HETATM   12  C16 UNL     1     -26.605  12.688  23.735  1.00  0.00     0.109 A 
HETATM   13  N3  UNL     1     -27.481  13.777  23.852  1.00  0.00    -0.097 NA
BRANCH  10  14
HETATM   14  N1  UNL     1     -23.994  10.622  22.358  1.00  0.00    -0.339 N 
BRANCH  14  15
HETATM   15  C4  UNL     1     -23.789  10.408  20.969  1.00  0.00     0.066 C 
BRANCH  15  16
HETATM   16  C3  UNL     1     -22.752  11.120  20.219  1.00  0.00     0.044 C 
BRANCH  16  17
HETATM   17  C2  UNL     1     -22.653  10.896  18.747  1.00  0.00     0.001 C 
HETATM   18  C1  UNL     1     -23.597  11.797  17.966  1.00  0.00     0.005 C 
ENDBRANCH  16  17
ENDBRANCH  15  16
ENDBRANCH  14  15
BRANCH  14  19
HETATM   19  C5  UNL     1     -22.929  10.119  23.247  1.00  0.00     0.130 C 
BRANCH  19  20
HETATM   20  C6  UNL     1     -23.045   8.658  23.482  1.00  0.00     0.020 C 
BRANCH  20  21
HETATM   21  C7  UNL     1     -21.892   7.863  22.921  1.00  0.00    -0.003 C 
HETATM   22  C8  UNL     1     -20.824   8.816  22.353  1.00  0.00     0.005 C 
ENDBRANCH  20  21
ENDBRANCH  19  20
ENDBRANCH  14  19
ENDBRANCH  10  14
BRANCH  11  23
HETATM   23  N4  UNL     1     -25.386  13.424  21.707  1.00  0.00    -0.261 N 
ATOM     24  H4  UNL     1     -25.806  13.239  20.795  1.00  0.00     0.194 HD
BRANCH  23  25
HETATM   25  O2  UNL     1     -24.651  14.525  21.844  1.00  0.00    -0.285 OA
HETATM   26  C18 UNL     1     -23.798  14.663  20.768  1.00  0.00     0.237 C 
ENDBRANCH  23  25
ENDBRANCH  11  23
ENDBRANCH   7   8
ENDBRANCH   6   7
ENDBRANCH   5   6
ENDBRANCH   4   5
ENDBRANCH   1   4
TORSDOF 14
ENDMDL
MODEL 4
REMARK VINA RESULT: -6.777625872      2.302      4.350
REMARK  14 active torsions:
REMARK  status: ('A' for Active; 'I' for Inactive)
REMARK    1  A    between atoms: C2_2  and  C3_3 
REMARK    2  A    between atoms: C3_3  and  C4_4 
REMARK    3  A    between atoms: C4_4  and  N1_5 
REMARK    4  A    between atoms: N1_5  and  C5_6 
REMARK    5  A    between atoms: N1_5  and  C9_10 
REMARK    6  A    between atoms: C5_6  and  C6_7 
REMARK    7  A    between atoms: C6_7  and  C7_8 
REMARK    8  A    between atoms: C10_12  and  C11_13 
REMARK    9  A    between atoms: C11_13  and  C12_14 
REMARK   10  A    between atoms: C12_14  and  S1_15 
REMARK   11  A    between atoms: S1_15  and  C13_16 
REMARK   12  A    between atoms: C13_16  and  C14_17 
REMARK   13  A    between atoms: C17_22  and  N4_23 
REMARK   14  A    between atoms: N4_23  and  O2_25 
ROOT
HETATM    1  C14 UNL     1     -23.643  10.057  22.611  1.00  0.00     0.134 C 
HETATM    2  C15 UNL     1     -23.082   8.905  23.252  1.00  0.00     0.059 C 
HETATM    3  N2  UNL     1     -22.616   8.001  23.795  1.00  0.00    -0.197 NA
ENDROOT
BRANCH   1   4
HETATM    4  C13 UNL     1     -23.930   9.914  21.160  1.00  0.00     0.088 C 
BRANCH   4   5
HETATM    5  S1  UNL     1     -24.424  11.423  20.377  1.00  0.00    -0.168 SA
BRANCH   5   6
HETATM    6  C12 UNL     1     -23.722  12.947  20.961  1.00  0.00     0.080 C 
BRANCH   6   7
HETATM    7  C11 UNL     1     -24.833  13.800  21.549  1.00  0.00     0.077 C 
BRANCH   7   8
HETATM    8  C10 UNL     1     -25.401  13.271  22.804  1.00  0.00     0.083 A 
HETATM    9  O1  UNL     1     -24.741  13.331  23.957  1.00  0.00    -0.294 OA
HETATM   10  C9  UNL     1     -25.462  12.793  24.936  1.00  0.00     0.180 A 
HETATM   11  C17 UNL     1     -26.635  12.365  24.415  1.00  0.00     0.132 A 
HETATM   12  C16 UNL     1     -26.601  12.670  23.046  1.00  0.00     0.109 A 
HETATM   13  N3  UNL     1     -27.603  12.422  22.096  1.00  0.00    -0.097 NA
BRANCH  10  14
HETATM   14  N1  UNL     1     -24.981  12.745  26.263  1.00  0.00    -0.339 N 
BRANCH  14  15
HETATM   15  C4  UNL     1     -24.632  11.629  27.069  1.00  0.00     0.066 C 
BRANCH  15  16
HETATM   16  C3  UNL     1     -23.916  10.473  26.527  1.00  0.00     0.044 C 
BRANCH  16  17
HETATM   17  C2  UNL     1     -22.455  10.343  26.804  1.00  0.00     0.001 C 
HETATM   18  C1  UNL     1     -22.022  11.175  28.000  1.00  0.00     0.005 C 
ENDBRANCH  16  17
ENDBRANCH  15  16
ENDBRANCH  14  15
BRANCH  14  19
HETATM   19  C5  UNL     1     -24.744  14.070  26.868  1.00  0.00     0.130 C 
BRANCH  19  20
HETATM   20  C6  UNL     1     -24.544  13.984  28.335  1.00  0.00     0.020 C 
BRANCH  20  21
HETATM   21  C7  UNL     1     -23.220  14.540  28.798  1.00  0.00    -0.003 C 
HETATM   22  C8  UNL     1     -23.339  15.046  30.246  1.00  0.00     0.005 C 
ENDBRANCH  20  21
ENDBRANCH  19  20
ENDBRANCH  14  19
ENDBRANCH  10  14
BRANCH  11  23
HETATM   23  N4  UNL     1     -27.748  11.727  25.031  1.00  0.00    -0.261 N 
ATOM     24  H4  UNL     1     -28.665  11.846  24.601  1.00  0.00     0.194 HD
BRANCH  23  25
HETATM   25  O2  UNL     1     -27.665  10.986  26.134  1.00  0.00    -0.285 OA
HETATM   26  C18 UNL     1     -27.649   9.646  25.803  1.00  0.00     0.237 C 
ENDBRANCH  23  25
ENDBRANCH  11  23
ENDBRANCH   7   8
ENDBRANCH   6   7
ENDBRANCH   5   6
ENDBRANCH   4   5
ENDBRANCH   1   4
TORSDOF 14
ENDMDL
MODEL 5
REMARK VINA RESULT: -6.767031872      3.057      7.805
REMARK  14 active torsions:
REMARK  status: ('A' for Active; 'I' for Inactive)
REMARK    1  A    between atoms: C2_2  and  C3_3 
REMARK    2  A    between atoms: C3_3  and  C4_4 
REMARK    3  A    between atoms: C4_4  and  N1_5 
REMARK    4  A    between atoms: N1_5  and  C5_6 
REMARK    5  A    between atoms: N1_5  and  C9_10 
REMARK    6  A    between atoms: C5_6  and  C6_7 
REMARK    7  A    between atoms: C6_7  and  C7_8 
REMARK    8  A    between atoms: C10_12  and  C11_13 
REMARK    9  A    between atoms: C11_13  and  C12_14 
REMARK   10  A    between atoms: C12_14  and  S1_15 
REMARK   11  A    between atoms: S1_15  and  C13_16 
REMARK   12  A    between atoms: C13_16  and  C14_17 
REMARK   13  A    between atoms: C17_22  and  N4_23 
REMARK   14  A    between atoms: N4_23  and  O2_25 
ROOT
HETATM    1  C14 UNL     1     -23.450  15.115  30.512  1.00  0.00     0.134 C 
HETATM    2  C15 UNL     1     -24.771  15.466  30.942  1.00  0.00     0.059 C 
HETATM    3  N2  UNL     1     -25.821  15.749  31.324  1.00  0.00    -0.197 NA
ENDROOT
BRANCH   1   4
HETATM    4  C13 UNL     1     -23.361  14.403  29.211  1.00  0.00     0.088 C 
BRANCH   4   5
HETATM    5  S1  UNL     1     -24.817  13.487  28.796  1.00  0.00    -0.168 SA
BRANCH   5   6
HETATM    6  C12 UNL     1     -24.636  11.786  28.314  1.00  0.00     0.080 C 
BRANCH   6   7
HETATM    7  C11 UNL     1     -23.323  11.629  27.567  1.00  0.00     0.077 C 
BRANCH   7   8
HETATM    8  C10 UNL     1     -23.449  10.972  26.252  1.00  0.00     0.083 A 
HETATM    9  O1  UNL     1     -23.930  11.610  25.189  1.00  0.00    -0.294 OA
HETATM   10  C9  UNL     1     -23.940  10.808  24.130  1.00  0.00     0.180 A 
HETATM   11  C17 UNL     1     -23.453   9.603  24.503  1.00  0.00     0.132 A 
HETATM   12  C16 UNL     1     -23.135   9.703  25.865  1.00  0.00     0.109 A 
HETATM   13  N3  UNL     1     -22.589   8.704  26.686  1.00  0.00    -0.097 NA
BRANCH  10  14
HETATM   14  N1  UNL     1     -24.399  11.257  22.871  1.00  0.00    -0.339 N 
BRANCH  14  15
HETATM   15  C4  UNL     1     -24.394  10.605  21.610  1.00  0.00     0.066 C 
BRANCH  15  16
HETATM   16  C3  UNL     1     -23.454  10.974  20.549  1.00  0.00     0.044 C 
BRANCH  16  17
HETATM   17  C2  UNL     1     -23.992  11.581  19.296  1.00  0.00     0.001 C 
HETATM   18  C1  UNL     1     -23.206  11.150  18.068  1.00  0.00     0.005 C 
ENDBRANCH  16  17
ENDBRANCH  15  16
ENDBRANCH  14  15
BRANCH  14  19
HETATM   19  C5  UNL     1     -25.042  12.585  22.903  1.00  0.00     0.130 C 
BRANCH  19  20
HETATM   20  C6  UNL     1     -26.462  12.525  22.475  1.00  0.00     0.020 C 
BRANCH  20  21
HETATM   21  C7  UNL     1     -27.435  12.917  23.560  1.00  0.00    -0.003 C 
HETATM   22  C8  UNL     1     -27.525  11.799  24.614  1.00  0.00     0.005 C 
ENDBRANCH  20  21
ENDBRANCH  19  20
ENDBRANCH  14  19
ENDBRANCH  10  14
BRANCH  11  23
HETATM   23  N4  UNL     1     -23.253   8.408  23.755  1.00  0.00    -0.261 N 
ATOM     24  H4  UNL     1     -24.074   7.941  23.371  1.00  0.00     0.194 HD
BRANCH  23  25
HETATM   25  O2  UNL     1     -22.060   7.863  23.528  1.00  0.00    -0.285 OA
HETATM   26  C18 UNL     1     -21.400   8.563  22.538  1.00  0.00     0.237 C 
ENDBRANCH  23  25
ENDBRANCH  11  23
ENDBRANCH   7   8
ENDBRANCH   6   7
ENDBRANCH   5   6
ENDBRANCH   4   5
ENDBRANCH   1   4
TORSDOF 14
ENDMDL
