MODEL 1
REMARK VINA RESULT: -6.801502645      0.000      0.000
REMARK  17 active torsions:
REMARK  status: ('A' for Active; 'I' for Inactive)
REMARK    1  A    between atoms: C2_2  and  C3_3 
REMARK    2  A    between atoms: C3_3  and  C4_4 
REMARK    3  A    between atoms: C4_4  and  C5_5 
REMARK    4  A    between atoms: C5_5  and  C6_6 
REMARK    5  A    between atoms: C6_6  and  C7_7 
REMARK    6  A    between atoms: N1_9  and  O1_11 
REMARK    7  A    between atoms: O1_11  and  C9_12 
REMARK    8  A    between atoms: C9_12  and  C10_13 
REMARK    9  A    between atoms: C9_12  and  O3_16 
REMARK   10  A    between atoms: C10_13  and  O2_14 
REMARK   11  A    between atoms: O3_16  and  C11_17 
REMARK   12  A    between atoms: C11_17  and  C12_18 
REMARK   13  A    between atoms: C12_18  and  O4_19 
REMARK   14  A    between atoms: C12_18  and  C13_21 
REMARK   15  A    between atoms: C13_21  and  O5_22 
REMARK   16  A    between atoms: O5_22  and  C14_23 
REMARK   17  A    between atoms: C14_23  and  C15_24 
ROOT
HETATM    1  C9  UNL     1     -23.666  10.476  25.012  1.00  0.00     0.311 C 
ENDROOT
BRANCH   1   2
HETATM    2  O1  UNL     1     -24.264  10.915  26.205  1.00  0.00    -0.246 OA
BRANCH   2   3
HETATM    3  N1  UNL     1     -23.694  11.614  27.200  1.00  0.00    -0.272 N 
HETATM    4  C5  UNL     1     -24.267  12.390  28.074  1.00  0.00     0.010 C 
ATOM      5  H1  UNL     1     -22.681  11.526  27.281  1.00  0.00     0.193 HD
BRANCH   4   6
HETATM    6  C4  UNL     1     -25.717  12.612  28.074  1.00  0.00     0.054 C 
BRANCH   6   7
HETATM    7  C3  UNL     1     -26.426  11.665  29.048  1.00  0.00     0.005 C 
BRANCH   7   8
HETATM    8  C2  UNL     1     -27.560  12.496  29.673  1.00  0.00    -0.004 C 
HETATM    9  C1  UNL     1     -26.881  13.641  30.408  1.00  0.00     0.005 C 
ENDBRANCH   7   8
ENDBRANCH   6   7
ENDBRANCH   4   6
BRANCH   4  10
HETATM   10  C6  UNL     1     -23.378  13.020  29.059  1.00  0.00     0.054 C 
BRANCH  10  11
HETATM   11  C7  UNL     1     -23.393  14.495  29.111  1.00  0.00     0.001 C 
HETATM   12  C8  UNL     1     -23.403  15.152  30.440  1.00  0.00     0.005 C 
ENDBRANCH  10  11
ENDBRANCH   4  10
ENDBRANCH   2   3
ENDBRANCH   1   2
BRANCH   1  13
HETATM   13  C10 UNL     1     -22.928   9.173  25.117  1.00  0.00     0.227 C 
BRANCH  13  14
HETATM   14  O2  UNL     1     -22.546   8.818  26.388  1.00  0.00    -0.396 OA
ATOM     15  H2  UNL     1     -21.842   9.338  26.758  1.00  0.00     0.209 HD
ENDBRANCH  13  14
ENDBRANCH   1  13
BRANCH   1  16
HETATM   16  O3  UNL     1     -24.696  10.320  24.036  1.00  0.00    -0.354 OA
BRANCH  16  17
HETATM   17  C11 UNL     1     -25.625  11.321  24.174  1.00  0.00     0.205 C 
BRANCH  17  18
HETATM   18  C12 UNL     1     -25.113  12.648  23.600  1.00  0.00     0.165 C 
BRANCH  18  19
HETATM   19  O4  UNL     1     -25.117  13.510  24.730  1.00  0.00    -0.391 OA
ATOM     20  H4  UNL     1     -24.195  13.692  24.863  1.00  0.00     0.210 HD
ENDBRANCH  18  19
BRANCH  18  21
HETATM   21  C13 UNL     1     -26.078  13.198  22.615  1.00  0.00     0.201 C 
BRANCH  21  22
HETATM   22  O5  UNL     1     -25.707  13.377  21.373  1.00  0.00    -0.384 OA
BRANCH  22  23
HETATM   23  C14 UNL     1     -24.513  13.600  20.858  1.00  0.00     0.206 C 
BRANCH  23  24
HETATM   24  C15 UNL     1     -23.822  12.505  20.080  1.00  0.00    -0.028 A 
HETATM   25  C16 UNL     1     -23.133  11.482  20.645  1.00  0.00     0.017 A 
HETATM   26  C17 UNL     1     -22.526  10.587  19.820  1.00  0.00     0.050 A 
HETATM   27  S1  UNL     1     -22.915  11.174  18.268  1.00  0.00    -0.113 SA
HETATM   28  C18 UNL     1     -23.836  12.534  18.704  1.00  0.00     0.058 A 
ENDBRANCH  23  24
ENDBRANCH  22  23
ENDBRANCH  21  22
ENDBRANCH  18  21
ENDBRANCH  17  18
ENDBRANCH  16  17
ENDBRANCH   1  16
TORSDOF 17
ENDMDL
MODEL 2
REMARK VINA RESULT: -6.753912157      1.446      2.595
REMARK  17 active torsions:
REMARK  status: ('A' for Active; 'I' for Inactive)
REMARK    1  A    between atoms: C2_2  and  C3_3 
REMARK    2  A    between atoms: C3_3  and  C4_4 
REMARK    3  A    between atoms: C4_4  and  C5_5 
REMARK    4  A    between atoms: C5_5  and  C6_6 
REMARK    5  A    between atoms: C6_6  and  C7_7 
REMARK    6  A    between atoms: N1_9  and  O1_11 
REMARK    7  A    between atoms: O1_11  and  C9_12 
REMARK    8  A    between atoms: C9_12  and  C10_13 
REMARK    9  A    between atoms: C9_12  and  O3_16 
REMARK   10  A    between atoms: C10_13  and  O2_14 
REMARK   11  A    between atoms: O3_16  and  C11_17 
REMARK   12  A    between atoms: C11_17  and  C12_18 
REMARK   13  A    between atoms: C12_18  and  O4_19 
REMARK   14  A    between atoms: C12_18  and  C13_21 
REMARK   15  A    between atoms: C13_21  and  O5_22 
REMARK   16  A    between atoms: O5_22  and  C14_23 
REMARK   17  A    between atoms: C14_23  and  C15_24 
ROOT
HETATM    1  C9  UNL     1     -25.989  10.223  26.064  1.00  0.00     0.311 C 
ENDROOT
BRANCH   1   2
HETATM    2  O1  UNL     1     -25.565  10.545  27.364  1.00  0.00    -0.246 OA
BRANCH   2   3
HETATM    3  N1  UNL     1     -26.270  11.161  28.327  1.00  0.00    -0.272 N 
HETATM    4  C5  UNL     1     -26.144  12.381  28.765  1.00  0.00     0.010 C 
ATOM      5  H1  UNL     1     -26.997  10.602  28.772  1.00  0.00     0.193 HD
BRANCH   4   6
HETATM    6  C4  UNL     1     -25.137  13.296  28.218  1.00  0.00     0.054 C 
BRANCH   6   7
HETATM    7  C3  UNL     1     -23.758  13.043  28.837  1.00  0.00     0.005 C 
BRANCH   7   8
HETATM    8  C2  UNL     1     -23.065  14.415  28.865  1.00  0.00    -0.004 C 
HETATM    9  C1  UNL     1     -23.338  14.991  30.247  1.00  0.00     0.005 C 
ENDBRANCH   7   8
ENDBRANCH   6   7
ENDBRANCH   4   6
BRANCH   4  10
HETATM   10  C6  UNL     1     -27.072  12.783  29.830  1.00  0.00     0.054 C 
BRANCH  10  11
HETATM   11  C7  UNL     1     -26.721  14.003  30.582  1.00  0.00     0.001 C 
HETATM   12  C8  UNL     1     -27.523  14.344  31.782  1.00  0.00     0.005 C 
ENDBRANCH  10  11
ENDBRANCH   4  10
ENDBRANCH   2   3
ENDBRANCH   1   2
BRANCH   1  13
HETATM   13  C10 UNL     1     -27.339   9.571  25.981  1.00  0.00     0.227 C 
BRANCH  13  14
HETATM   14  O2  UNL     1     -27.511   8.479  26.796  1.00  0.00    -0.396 OA
ATOM     15  H2  UNL     1     -28.408   8.181  26.888  1.00  0.00     0.209 HD
ENDBRANCH  13  14
ENDBRANCH   1  13
BRANCH   1  16
HETATM   16  O3  UNL     1     -26.039  11.433  25.307  1.00  0.00    -0.354 OA
BRANCH  16  17
HETATM   17  C11 UNL     1     -25.097  11.398  24.309  1.00  0.00     0.205 C 
BRANCH  17  18
HETATM   18  C12 UNL     1     -24.936  12.768  23.638  1.00  0.00     0.165 C 
BRANCH  18  19
HETATM   19  O4  UNL     1     -25.199  13.677  24.698  1.00  0.00    -0.391 OA
ATOM     20  H4  UNL     1     -25.810  13.199  25.245  1.00  0.00     0.210 HD
ENDBRANCH  18  19
BRANCH  18  21
HETATM   21  C13 UNL     1     -25.984  12.970  22.606  1.00  0.00     0.201 C 
BRANCH  21  22
HETATM   22  O5  UNL     1     -25.652  13.423  21.425  1.00  0.00    -0.384 OA
BRANCH  22  23
HETATM   23  C14 UNL     1     -24.465  13.622  20.884  1.00  0.00     0.206 C 
BRANCH  23  24
HETATM   24  C15 UNL     1     -23.824  12.521  20.073  1.00  0.00    -0.028 A 
HETATM   25  C16 UNL     1     -23.115  11.492  20.604  1.00  0.00     0.017 A 
HETATM   26  C17 UNL     1     -22.558  10.592  19.751  1.00  0.00     0.050 A 
HETATM   27  S1  UNL     1     -23.021  11.181  18.219  1.00  0.00    -0.113 SA
HETATM   28  C18 UNL     1     -23.907  12.548  18.699  1.00  0.00     0.058 A 
ENDBRANCH  23  24
ENDBRANCH  22  23
ENDBRANCH  21  22
ENDBRANCH  18  21
ENDBRANCH  17  18
ENDBRANCH  16  17
ENDBRANCH   1  16
TORSDOF 17
ENDMDL
MODEL 3
REMARK VINA RESULT: -6.668906961      3.500      5.129
REMARK  17 active torsions:
REMARK  status: ('A' for Active; 'I' for Inactive)
REMARK    1  A    between atoms: C2_2  and  C3_3 
REMARK    2  A    between atoms: C3_3  and  C4_4 
REMARK    3  A    between atoms: C4_4  and  C5_5 
REMARK    4  A    between atoms: C5_5  and  C6_6 
REMARK    5  A    between atoms: C6_6  and  C7_7 
REMARK    6  A    between atoms: N1_9  and  O1_11 
REMARK    7  A    between atoms: O1_11  and  C9_12 
REMARK    8  A    between atoms: C9_12  and  C10_13 
REMARK    9  A    between atoms: C9_12  and  O3_16 
REMARK   10  A    between atoms: C10_13  and  O2_14 
REMARK   11  A    between atoms: O3_16  and  C11_17 
REMARK   12  A    between atoms: C11_17  and  C12_18 
REMARK   13  A    between atoms: C12_18  and  O4_19 
REMARK   14  A    between atoms: C12_18  and  C13_21 
REMARK   15  A    between atoms: C13_21  and  O5_22 
REMARK   16  A    between atoms: O5_22  and  C14_23 
REMARK   17  A    between atoms: C14_23  and  C15_24 
ROOT
HETATM    1  C9  UNL     1     -23.902  10.907  25.038  1.00  0.00     0.311 C 
ENDROOT
BRANCH   1   2
HETATM    2  O1  UNL     1     -24.196  11.731  26.139  1.00  0.00    -0.246 OA
BRANCH   2   3
HETATM    3  N1  UNL     1     -25.167  11.564  27.051  1.00  0.00    -0.272 N 
HETATM    4  C5  UNL     1     -25.502  12.357  28.028  1.00  0.00     0.010 C 
ATOM      5  H1  UNL     1     -25.713  10.707  26.968  1.00  0.00     0.193 HD
BRANCH   4   6
HETATM    6  C4  UNL     1     -24.802  13.623  28.268  1.00  0.00     0.054 C 
BRANCH   6   7
HETATM    7  C3  UNL     1     -23.538  13.410  29.109  1.00  0.00     0.005 C 
BRANCH   7   8
HETATM    8  C2  UNL     1     -23.239  14.776  29.749  1.00  0.00    -0.004 C 
HETATM    9  C1  UNL     1     -24.484  15.146  30.541  1.00  0.00     0.005 C 
ENDBRANCH   7   8
ENDBRANCH   6   7
ENDBRANCH   4   6
BRANCH   4  10
HETATM   10  C6  UNL     1     -26.624  11.911  28.865  1.00  0.00     0.054 C 
BRANCH  10  11
HETATM   11  C7  UNL     1     -27.142  12.886  29.845  1.00  0.00     0.001 C 
HETATM   12  C8  UNL     1     -28.560  12.775  30.264  1.00  0.00     0.005 C 
ENDBRANCH  10  11
ENDBRANCH   4  10
ENDBRANCH   2   3
ENDBRANCH   1   2
BRANCH   1  13
HETATM   13  C10 UNL     1     -24.727   9.656  24.947  1.00  0.00     0.227 C 
BRANCH  13  14
HETATM   14  O2  UNL     1     -24.043   8.534  24.549  1.00  0.00    -0.396 OA
ATOM     15  H2  UNL     1     -23.151   8.470  24.868  1.00  0.00     0.209 HD
ENDBRANCH  13  14
ENDBRANCH   1  13
BRANCH   1  16
HETATM   16  O3  UNL     1     -24.125  11.668  23.850  1.00  0.00    -0.354 OA
BRANCH  16  17
HETATM   17  C11 UNL     1     -25.431  11.535  23.450  1.00  0.00     0.205 C 
BRANCH  17  18
HETATM   18  C12 UNL     1     -26.118  12.899  23.309  1.00  0.00     0.165 C 
BRANCH  18  19
HETATM   19  O4  UNL     1     -26.030  13.440  24.621  1.00  0.00    -0.391 OA
ATOM     20  H4  UNL     1     -26.936  13.469  24.902  1.00  0.00     0.210 HD
ENDBRANCH  18  19
BRANCH  18  21
HETATM   21  C13 UNL     1     -27.558  12.729  22.992  1.00  0.00     0.201 C 
BRANCH  21  22
HETATM   22  O5  UNL     1     -28.424  12.586  23.963  1.00  0.00    -0.384 OA
BRANCH  22  23
HETATM   23  C14 UNL     1     -29.102  11.527  24.359  1.00  0.00     0.206 C 
BRANCH  23  24
HETATM   24  C15 UNL     1     -30.579  11.433  24.056  1.00  0.00    -0.028 A 
HETATM   25  C16 UNL     1     -31.437  12.484  24.095  1.00  0.00     0.017 A 
HETATM   26  C17 UNL     1     -32.750  12.247  23.838  1.00  0.00     0.050 A 
HETATM   27  S1  UNL     1     -32.786  10.568  23.547  1.00  0.00    -0.113 SA
HETATM   28  C18 UNL     1     -31.138  10.212  23.756  1.00  0.00     0.058 A 
ENDBRANCH  23  24
ENDBRANCH  22  23
ENDBRANCH  21  22
ENDBRANCH  18  21
ENDBRANCH  17  18
ENDBRANCH  16  17
ENDBRANCH   1  16
TORSDOF 17
ENDMDL
MODEL 4
REMARK VINA RESULT: -6.665244280      4.322      6.130
REMARK  17 active torsions:
REMARK  status: ('A' for Active; 'I' for Inactive)
REMARK    1  A    between atoms: C2_2  and  C3_3 
REMARK    2  A    between atoms: C3_3  and  C4_4 
REMARK    3  A    between atoms: C4_4  and  C5_5 
REMARK    4  A    between atoms: C5_5  and  C6_6 
REMARK    5  A    between atoms: C6_6  and  C7_7 
REMARK    6  A    between atoms: N1_9  and  O1_11 
REMARK    7  A    between atoms: O1_11  and  C9_12 
REMARK    8  A    between atoms: C9_12  and  C10_13 
REMARK    9  A    between atoms: C9_12  and  O3_16 
REMARK   10  A    between atoms: C10_13  and  O2_14 
REMARK   11  A    between atoms: O3_16  and  C11_17 
REMARK   12  A    between atoms: C11_17  and  C12_18 
REMARK   13  A    between atoms: C12_18  and  O4_19 
REMARK   14  A    between atoms: C12_18  and  C13_21 
REMARK   15  A    between atoms: C13_21  and  O5_22 
REMARK   16  A    between atoms: O5_22  and  C14_23 
REMARK   17  A    between atoms: C14_23  and  C15_24 
ROOT
HETATM    1  C9  UNL     1     -26.399   9.970  29.156  1.00  0.00     0.311 C 
ENDROOT
BRANCH   1   2
HETATM    2  O1  UNL     1     -26.872  11.288  29.031  1.00  0.00    -0.246 OA
BRANCH   2   3
HETATM    3  N1  UNL     1     -27.970  11.821  29.592  1.00  0.00    -0.272 N 
HETATM    4  C5  UNL     1     -28.066  12.904  30.310  1.00  0.00     0.010 C 
ATOM      5  H1  UNL     1     -28.840  11.313  29.436  1.00  0.00     0.193 HD
BRANCH   4   6
HETATM    6  C4  UNL     1     -26.895  13.731  30.616  1.00  0.00     0.054 C 
BRANCH   6   7
HETATM    7  C3  UNL     1     -27.181  14.696  31.772  1.00  0.00     0.005 C 
BRANCH   7   8
HETATM    8  C2  UNL     1     -26.015  15.699  31.765  1.00  0.00    -0.004 C 
HETATM    9  C1  UNL     1     -25.071  15.232  30.666  1.00  0.00     0.005 C 
ENDBRANCH   7   8
ENDBRANCH   6   7
ENDBRANCH   4   6
BRANCH   4  10
HETATM   10  C6  UNL     1     -29.413  13.246  30.783  1.00  0.00     0.054 C 
BRANCH  10  11
HETATM   11  C7  UNL     1     -30.161  12.174  31.470  1.00  0.00     0.001 C 
HETATM   12  C8  UNL     1     -29.740  11.789  32.838  1.00  0.00     0.005 C 
ENDBRANCH  10  11
ENDBRANCH   4  10
ENDBRANCH   2   3
ENDBRANCH   1   2
BRANCH   1  13
HETATM   13  C10 UNL     1     -27.465   8.932  29.361  1.00  0.00     0.227 C 
BRANCH  13  14
HETATM   14  O2  UNL     1     -28.194   9.064  30.517  1.00  0.00    -0.396 OA
ATOM     15  H2  UNL     1     -29.064   9.429  30.406  1.00  0.00     0.209 HD
ENDBRANCH  13  14
ENDBRANCH   1  13
BRANCH   1  16
HETATM   16  O3  UNL     1     -25.692   9.643  27.960  1.00  0.00    -0.354 OA
BRANCH  16  17
HETATM   17  C11 UNL     1     -25.893  10.620  27.017  1.00  0.00     0.205 C 
BRANCH  17  18
HETATM   18  C12 UNL     1     -26.600  10.066  25.774  1.00  0.00     0.165 C 
BRANCH  18  19
HETATM   19  O4  UNL     1     -25.612   9.227  25.190  1.00  0.00    -0.391 OA
ATOM     20  H4  UNL     1     -26.091   8.428  25.007  1.00  0.00     0.210 HD
ENDBRANCH  18  19
BRANCH  18  21
HETATM   21  C13 UNL     1     -26.889  11.155  24.808  1.00  0.00     0.201 C 
BRANCH  21  22
HETATM   22  O5  UNL     1     -28.058  11.744  24.824  1.00  0.00    -0.384 OA
BRANCH  22  23
HETATM   23  C14 UNL     1     -28.881  12.043  23.839  1.00  0.00     0.206 C 
BRANCH  23  24
HETATM   24  C15 UNL     1     -30.319  11.583  23.905  1.00  0.00    -0.028 A 
HETATM   25  C16 UNL     1     -30.709  10.283  23.881  1.00  0.00     0.017 A 
HETATM   26  C17 UNL     1     -32.041  10.015  23.907  1.00  0.00     0.050 A 
HETATM   27  S1  UNL     1     -32.742  11.568  23.963  1.00  0.00    -0.113 SA
HETATM   28  C18 UNL     1     -31.331  12.514  23.954  1.00  0.00     0.058 A 
ENDBRANCH  23  24
ENDBRANCH  22  23
ENDBRANCH  21  22
ENDBRANCH  18  21
ENDBRANCH  17  18
ENDBRANCH  16  17
ENDBRANCH   1  16
TORSDOF 17
ENDMDL
MODEL 5
REMARK VINA RESULT: -6.576835915      4.383      5.598
REMARK  17 active torsions:
REMARK  status: ('A' for Active; 'I' for Inactive)
REMARK    1  A    between atoms: C2_2  and  C3_3 
REMARK    2  A    between atoms: C3_3  and  C4_4 
REMARK    3  A    between atoms: C4_4  and  C5_5 
REMARK    4  A    between atoms: C5_5  and  C6_6 
REMARK    5  A    between atoms: C6_6  and  C7_7 
REMARK    6  A    between atoms: N1_9  and  O1_11 
REMARK    7  A    between atoms: O1_11  and  C9_12 
REMARK    8  A    between atoms: C9_12  and  C10_13 
REMARK    9  A    between atoms: C9_12  and  O3_16 
REMARK   10  A    between atoms: C10_13  and  O2_14 
REMARK   11  A    between atoms: O3_16  and  C11_17 
REMARK   12  A    between atoms: C11_17  and  C12_18 
REMARK   13  A    between atoms: C12_18  and  O4_19 
REMARK   14  A    between atoms: C12_18  and  C13_21 
REMARK   15  A    between atoms: C13_21  and  O5_22 
REMARK   16  A    between atoms: O5_22  and  C14_23 
REMARK   17  A    between atoms: C14_23  and  C15_24 
ROOT
HETATM    1  C9  UNL     1     -24.940  11.697  27.701  1.00  0.00     0.311 C 
ENDROOT
BRANCH   1   2
HETATM    2  O1  UNL     1     -26.058  12.337  28.262  1.00  0.00    -0.246 OA
BRANCH   2   3
HETATM    3  N1  UNL     1     -26.084  13.160  29.324  1.00  0.00    -0.272 N 
HETATM    4  C5  UNL     1     -27.043  13.330  30.190  1.00  0.00     0.010 C 
ATOM      5  H1  UNL     1     -25.247  13.722  29.471  1.00  0.00     0.193 HD
BRANCH   4   6
HETATM    6  C4  UNL     1     -28.304  12.590  30.098  1.00  0.00     0.054 C 
BRANCH   6   7
HETATM    7  C3  UNL     1     -29.398  13.242  30.952  1.00  0.00     0.005 C 
BRANCH   7   8
HETATM    8  C2  UNL     1     -30.230  12.076  31.510  1.00  0.00    -0.004 C 
HETATM    9  C1  UNL     1     -29.666  11.786  32.893  1.00  0.00     0.005 C 
ENDBRANCH   7   8
ENDBRANCH   6   7
ENDBRANCH   4   6
BRANCH   4  10
HETATM   10  C6  UNL     1     -26.779  14.300  31.261  1.00  0.00     0.054 C 
BRANCH  10  11
HETATM   11  C7  UNL     1     -25.788  15.353  30.965  1.00  0.00     0.001 C 
HETATM   12  C8  UNL     1     -25.416  16.293  32.049  1.00  0.00     0.005 C 
ENDBRANCH  10  11
ENDBRANCH   4  10
ENDBRANCH   2   3
ENDBRANCH   1   2
BRANCH   1  13
HETATM   13  C10 UNL     1     -23.708  11.708  28.560  1.00  0.00     0.227 C 
BRANCH  13  14
HETATM   14  O2  UNL     1     -23.169  12.950  28.793  1.00  0.00    -0.396 OA
ATOM     15  H2  UNL     1     -22.477  12.974  29.443  1.00  0.00     0.209 HD
ENDBRANCH  13  14
ENDBRANCH   1  13
BRANCH   1  16
HETATM   16  O3  UNL     1     -25.292  10.336  27.455  1.00  0.00    -0.354 OA
BRANCH  16  17
HETATM   17  C11 UNL     1     -26.655  10.219  27.345  1.00  0.00     0.205 C 
BRANCH  17  18
HETATM   18  C12 UNL     1     -27.079   9.905  25.905  1.00  0.00     0.165 C 
BRANCH  18  19
HETATM   19  O4  UNL     1     -25.969   9.178  25.395  1.00  0.00    -0.391 OA
ATOM     20  H4  UNL     1     -26.230   8.274  25.520  1.00  0.00     0.210 HD
ENDBRANCH  18  19
BRANCH  18  21
HETATM   21  C13 UNL     1     -27.197  11.154  25.112  1.00  0.00     0.201 C 
BRANCH  21  22
HETATM   22  O5  UNL     1     -28.364  11.732  24.982  1.00  0.00    -0.384 OA
BRANCH  22  23
HETATM   23  C14 UNL     1     -29.081  11.983  23.905  1.00  0.00     0.206 C 
BRANCH  23  24
HETATM   24  C15 UNL     1     -30.552  11.638  23.893  1.00  0.00    -0.028 A 
HETATM   25  C16 UNL     1     -31.553  12.546  24.018  1.00  0.00     0.017 A 
HETATM   26  C17 UNL     1     -32.833  12.089  24.030  1.00  0.00     0.050 A 
HETATM   27  S1  UNL     1     -32.638  10.403  23.870  1.00  0.00    -0.113 SA
HETATM   28  C18 UNL     1     -30.943  10.322  23.790  1.00  0.00     0.058 A 
ENDBRANCH  23  24
ENDBRANCH  22  23
ENDBRANCH  21  22
ENDBRANCH  18  21
ENDBRANCH  17  18
ENDBRANCH  16  17
ENDBRANCH   1  16
TORSDOF 17
ENDMDL
