MODEL 1
REMARK VINA RESULT: -7.462524565      0.000      0.000
REMARK  14 active torsions:
REMARK  status: ('A' for Active; 'I' for Inactive)
REMARK    1  A    between atoms: C2_2  and  C3_3 
REMARK    2  A    between atoms: C3_3  and  C4_4 
REMARK    3  A    between atoms: C4_4  and  C5_5 
REMARK    4  A    between atoms: C5_5  and  C6_6 
REMARK    5  A    between atoms: C6_6  and  C7_7 
REMARK    6  A    between atoms: C7_7  and  C8_8 
REMARK    7  A    between atoms: C8_8  and  N1_9 
REMARK    8  A    between atoms: C10_16  and  N4_17 
REMARK    9  A    between atoms: N4_17  and  C11_19 
REMARK   10  A    between atoms: C12_23  and  C13_24 
REMARK   11  A    between atoms: C13_24  and  O1_25 
REMARK   12  A    between atoms: C14_27  and  O2_28 
REMARK   13  A    between atoms: C15_30  and  O3_31 
REMARK   14  A    between atoms: C16_33  and  O4_34 
ROOT
HETATM    1  N4  UNL     1     -44.658  42.567 -33.433  1.00  0.00    -0.192 N 
ATOM      2  H4  UNL     1     -43.898  43.244 -33.353  1.00  0.00     0.180 HD
ENDROOT
BRANCH   1   3
HETATM    3  C10 UNL     1     -44.265  41.471 -33.925  1.00  0.00     0.709 A 
HETATM    4  N3  UNL     1     -43.777  41.196 -35.126  1.00  0.00    -0.117 N 
HETATM    5  N2  UNL     1     -43.511  39.900 -35.161  1.00  0.00    -0.117 N 
ATOM      6  H3  UNL     1     -43.633  41.861 -35.885  1.00  0.00     0.206 HD
HETATM    7  C9  UNL     1     -43.828  39.344 -33.983  1.00  0.00     0.707 A 
ATOM      8  H2  UNL     1     -43.124  39.401 -35.961  1.00  0.00     0.206 HD
HETATM    9  N1  UNL     1     -43.698  38.087 -33.665  1.00  0.00    -0.224 N 
HETATM   10  N6  UNL     1     -44.300  40.306 -33.198  1.00  0.00    -0.020 N 
ATOM     11  H1  UNL     1     -43.324  37.415 -34.336  1.00  0.00     0.177 HD
ATOM     12  H6  UNL     1     -44.627  40.200 -32.237  1.00  0.00     0.203 HD
BRANCH   9  13
HETATM   13  C8  UNL     1     -44.094  37.667 -32.342  1.00  0.00     0.138 C 
BRANCH  13  14
HETATM   14  C7  UNL     1     -42.938  36.903 -31.732  1.00  0.00     0.020 C 
BRANCH  14  15
HETATM   15  C6  UNL     1     -41.831  37.877 -31.319  1.00  0.00     0.002 C 
BRANCH  15  16
HETATM   16  C5  UNL     1     -40.834  37.099 -30.489  1.00  0.00     0.000 C 
BRANCH  16  17
HETATM   17  C4  UNL     1     -40.875  35.632 -30.761  1.00  0.00     0.000 C 
BRANCH  17  18
HETATM   18  C3  UNL     1     -40.830  34.788 -29.529  1.00  0.00    -0.000 C 
BRANCH  18  19
HETATM   19  C2  UNL     1     -42.205  34.354 -29.068  1.00  0.00    -0.005 C 
HETATM   20  C1  UNL     1     -42.632  33.085 -29.742  1.00  0.00     0.005 C 
ENDBRANCH  18  19
ENDBRANCH  17  18
ENDBRANCH  16  17
ENDBRANCH  15  16
ENDBRANCH  14  15
ENDBRANCH  13  14
ENDBRANCH   9  13
ENDBRANCH   1   3
BRANCH   1  21
HETATM   21  C11 UNL     1     -45.864  43.080 -32.975  1.00  0.00     0.331 C 
HETATM   22  N5  UNL     1     -46.367  44.260 -33.601  1.00  0.00    -0.042 N 
HETATM   23  C12 UNL     1     -47.775  44.439 -33.349  1.00  0.00     0.242 C 
ATOM     24  H52 UNL     1     -45.833  45.084 -33.327  1.00  0.00     0.280 HD
ATOM     25  H51 UNL     1     -46.165  44.265 -34.601  1.00  0.00     0.280 HD
HETATM   26  C14 UNL     1     -48.267  43.720 -32.131  1.00  0.00     0.182 C 
HETATM   27  C15 UNL     1     -47.278  43.527 -31.050  1.00  0.00     0.181 C 
HETATM   28  C16 UNL     1     -45.849  43.415 -31.470  1.00  0.00     0.200 C 
BRANCH  23  29
HETATM   29  C13 UNL     1     -48.531  43.920 -34.555  1.00  0.00     0.199 C 
BRANCH  29  30
HETATM   30  O1  UNL     1     -47.733  43.974 -35.700  1.00  0.00    -0.399 OA
ATOM     31  H1  UNL     1     -48.007  43.320 -36.331  1.00  0.00     0.209 HD
ENDBRANCH  29  30
ENDBRANCH  23  29
BRANCH  26  32
HETATM   32  O2  UNL     1     -49.373  44.445 -31.647  1.00  0.00    -0.391 OA
ATOM     33  H2  UNL     1     -50.138  44.122 -32.107  1.00  0.00     0.210 HD
ENDBRANCH  26  32
BRANCH  27  34
HETATM   34  O3  UNL     1     -47.350  44.505 -30.048  1.00  0.00    -0.390 OA
ATOM     35  H3  UNL     1     -46.673  44.419 -29.387  1.00  0.00     0.210 HD
ENDBRANCH  27  34
BRANCH  28  36
HETATM   36  O4  UNL     1     -45.239  44.645 -31.257  1.00  0.00    -0.389 OA
ATOM     37  H4  UNL     1     -45.856  45.349 -31.412  1.00  0.00     0.210 HD
ENDBRANCH  28  36
ENDBRANCH   1  21
TORSDOF 14
ENDMDL
MODEL 2
REMARK VINA RESULT: -7.440532625      1.808      3.091
REMARK  14 active torsions:
REMARK  status: ('A' for Active; 'I' for Inactive)
REMARK    1  A    between atoms: C2_2  and  C3_3 
REMARK    2  A    between atoms: C3_3  and  C4_4 
REMARK    3  A    between atoms: C4_4  and  C5_5 
REMARK    4  A    between atoms: C5_5  and  C6_6 
REMARK    5  A    between atoms: C6_6  and  C7_7 
REMARK    6  A    between atoms: C7_7  and  C8_8 
REMARK    7  A    between atoms: C8_8  and  N1_9 
REMARK    8  A    between atoms: C10_16  and  N4_17 
REMARK    9  A    between atoms: N4_17  and  C11_19 
REMARK   10  A    between atoms: C12_23  and  C13_24 
REMARK   11  A    between atoms: C13_24  and  O1_25 
REMARK   12  A    between atoms: C14_27  and  O2_28 
REMARK   13  A    between atoms: C15_30  and  O3_31 
REMARK   14  A    between atoms: C16_33  and  O4_34 
ROOT
HETATM    1  N4  UNL     1     -43.883  41.846 -32.421  1.00  0.00    -0.192 N 
ATOM      2  H4  UNL     1     -42.888  42.044 -32.317  1.00  0.00     0.180 HD
ENDROOT
BRANCH   1   3
HETATM    3  C10 UNL     1     -44.095  40.641 -32.736  1.00  0.00     0.709 A 
HETATM    4  N3  UNL     1     -44.956  40.118 -33.598  1.00  0.00    -0.117 N 
HETATM    5  N2  UNL     1     -44.798  38.805 -33.572  1.00  0.00    -0.117 N 
ATOM      6  H3  UNL     1     -45.619  40.634 -34.176  1.00  0.00     0.206 HD
HETATM    7  C9  UNL     1     -43.837  38.484 -32.695  1.00  0.00     0.707 A 
ATOM      8  H2  UNL     1     -45.326  38.138 -34.135  1.00  0.00     0.206 HD
HETATM    9  N1  UNL     1     -43.420  37.282 -32.414  1.00  0.00    -0.224 N 
HETATM   10  N6  UNL     1     -43.385  39.615 -32.161  1.00  0.00    -0.020 N 
ATOM     11  H1  UNL     1     -43.826  36.468 -32.875  1.00  0.00     0.177 HD
ATOM     12  H6  UNL     1     -42.651  39.704 -31.459  1.00  0.00     0.203 HD
BRANCH   9  13
HETATM   13  C8  UNL     1     -42.369  37.129 -31.435  1.00  0.00     0.138 C 
BRANCH  13  14
HETATM   14  C7  UNL     1     -42.166  35.647 -31.201  1.00  0.00     0.020 C 
BRANCH  14  15
HETATM   15  C6  UNL     1     -41.426  35.426 -29.879  1.00  0.00     0.002 C 
BRANCH  15  16
HETATM   16  C5  UNL     1     -42.172  34.350 -29.121  1.00  0.00     0.000 C 
BRANCH  16  17
HETATM   17  C4  UNL     1     -42.191  33.042 -29.842  1.00  0.00     0.000 C 
BRANCH  17  18
HETATM   18  C3  UNL     1     -43.483  32.304 -29.720  1.00  0.00    -0.000 C 
BRANCH  18  19
HETATM   19  C2  UNL     1     -44.078  31.942 -31.064  1.00  0.00    -0.005 C 
HETATM   20  C1  UNL     1     -43.135  32.267 -32.183  1.00  0.00     0.005 C 
ENDBRANCH  18  19
ENDBRANCH  17  18
ENDBRANCH  16  17
ENDBRANCH  15  16
ENDBRANCH  14  15
ENDBRANCH  13  14
ENDBRANCH   9  13
ENDBRANCH   1   3
BRANCH   1  21
HETATM   21  C11 UNL     1     -44.666  42.968 -32.181  1.00  0.00     0.331 C 
HETATM   22  N5  UNL     1     -45.923  42.778 -31.532  1.00  0.00    -0.042 N 
HETATM   23  C12 UNL     1     -46.423  44.006 -30.969  1.00  0.00     0.242 C 
ATOM     24  H52 UNL     1     -46.605  42.352 -32.160  1.00  0.00     0.280 HD
ATOM     25  H51 UNL     1     -45.871  42.040 -30.830  1.00  0.00     0.280 HD
HETATM   26  C14 UNL     1     -45.851  45.238 -31.597  1.00  0.00     0.182 C 
HETATM   27  C15 UNL     1     -45.446  45.113 -33.013  1.00  0.00     0.181 C 
HETATM   28  C16 UNL     1     -45.004  43.758 -33.460  1.00  0.00     0.200 C 
BRANCH  23  29
HETATM   29  C13 UNL     1     -46.081  44.012 -29.493  1.00  0.00     0.199 C 
BRANCH  29  30
HETATM   30  O1  UNL     1     -46.876  43.099 -28.797  1.00  0.00    -0.399 OA
ATOM     31  H1  UNL     1     -46.338  42.457 -28.351  1.00  0.00     0.209 HD
ENDBRANCH  29  30
ENDBRANCH  23  29
BRANCH  26  32
HETATM   32  O2  UNL     1     -46.815  46.254 -31.461  1.00  0.00    -0.391 OA
ATOM     33  H2  UNL     1     -47.205  46.382 -32.318  1.00  0.00     0.210 HD
ENDBRANCH  26  32
BRANCH  27  34
HETATM   34  O3  UNL     1     -46.424  45.558 -33.914  1.00  0.00    -0.390 OA
ATOM     35  H3  UNL     1     -46.939  44.854 -34.290  1.00  0.00     0.210 HD
ENDBRANCH  27  34
BRANCH  28  36
HETATM   36  O4  UNL     1     -46.062  43.158 -34.131  1.00  0.00    -0.389 OA
ATOM     37  H4  UNL     1     -46.709  43.809 -34.373  1.00  0.00     0.210 HD
ENDBRANCH  28  36
ENDBRANCH   1  21
TORSDOF 14
ENDMDL
MODEL 3
REMARK VINA RESULT: -7.425986450      0.644      1.119
REMARK  14 active torsions:
REMARK  status: ('A' for Active; 'I' for Inactive)
REMARK    1  A    between atoms: C2_2  and  C3_3 
REMARK    2  A    between atoms: C3_3  and  C4_4 
REMARK    3  A    between atoms: C4_4  and  C5_5 
REMARK    4  A    between atoms: C5_5  and  C6_6 
REMARK    5  A    between atoms: C6_6  and  C7_7 
REMARK    6  A    between atoms: C7_7  and  C8_8 
REMARK    7  A    between atoms: C8_8  and  N1_9 
REMARK    8  A    between atoms: C10_16  and  N4_17 
REMARK    9  A    between atoms: N4_17  and  C11_19 
REMARK   10  A    between atoms: C12_23  and  C13_24 
REMARK   11  A    between atoms: C13_24  and  O1_25 
REMARK   12  A    between atoms: C14_27  and  O2_28 
REMARK   13  A    between atoms: C15_30  and  O3_31 
REMARK   14  A    between atoms: C16_33  and  O4_34 
ROOT
HETATM    1  N4  UNL     1     -44.641  42.450 -33.098  1.00  0.00    -0.192 N 
ATOM      2  H4  UNL     1     -43.848  43.066 -32.920  1.00  0.00     0.180 HD
ENDROOT
BRANCH   1   3
HETATM    3  C10 UNL     1     -44.290  41.375 -33.661  1.00  0.00     0.709 A 
HETATM    4  N3  UNL     1     -43.967  41.135 -34.924  1.00  0.00    -0.117 N 
HETATM    5  N2  UNL     1     -43.670  39.849 -35.022  1.00  0.00    -0.117 N 
ATOM      6  H3  UNL     1     -43.950  41.816 -35.682  1.00  0.00     0.206 HD
HETATM    7  C9  UNL     1     -43.803  39.264 -33.823  1.00  0.00     0.707 A 
ATOM      8  H2  UNL     1     -43.385  39.375 -35.878  1.00  0.00     0.206 HD
HETATM    9  N1  UNL     1     -43.592  38.007 -33.552  1.00  0.00    -0.224 N 
HETATM   10  N6  UNL     1     -44.189  40.199 -32.960  1.00  0.00    -0.020 N 
ATOM     11  H1  UNL     1     -43.296  37.358 -34.281  1.00  0.00     0.177 HD
ATOM     12  H6  UNL     1     -44.375  40.066 -31.966  1.00  0.00     0.203 HD
BRANCH   9  13
HETATM   13  C8  UNL     1     -43.788  37.554 -32.194  1.00  0.00     0.138 C 
BRANCH  13  14
HETATM   14  C7  UNL     1     -42.443  37.115 -31.654  1.00  0.00     0.020 C 
BRANCH  14  15
HETATM   15  C6  UNL     1     -42.470  35.614 -31.351  1.00  0.00     0.002 C 
BRANCH  15  16
HETATM   16  C5  UNL     1     -41.747  35.408 -30.037  1.00  0.00     0.000 C 
BRANCH  16  17
HETATM   17  C4  UNL     1     -42.126  34.130 -29.364  1.00  0.00     0.000 C 
BRANCH  17  18
HETATM   18  C3  UNL     1     -41.804  32.910 -30.163  1.00  0.00    -0.000 C 
BRANCH  18  19
HETATM   19  C2  UNL     1     -42.951  31.923 -30.208  1.00  0.00    -0.005 C 
HETATM   20  C1  UNL     1     -43.956  32.204 -29.132  1.00  0.00     0.005 C 
ENDBRANCH  18  19
ENDBRANCH  17  18
ENDBRANCH  16  17
ENDBRANCH  15  16
ENDBRANCH  14  15
ENDBRANCH  13  14
ENDBRANCH   9  13
ENDBRANCH   1   3
BRANCH   1  21
HETATM   21  C11 UNL     1     -45.838  43.002 -32.660  1.00  0.00     0.331 C 
HETATM   22  N5  UNL     1     -46.315  44.173 -33.324  1.00  0.00    -0.042 N 
HETATM   23  C12 UNL     1     -47.719  44.388 -33.083  1.00  0.00     0.242 C 
ATOM     24  H52 UNL     1     -45.764  44.993 -33.073  1.00  0.00     0.280 HD
ATOM     25  H51 UNL     1     -46.109  44.142 -34.323  1.00  0.00     0.280 HD
HETATM   26  C14 UNL     1     -48.230  43.718 -31.845  1.00  0.00     0.182 C 
HETATM   27  C15 UNL     1     -47.249  43.538 -30.755  1.00  0.00     0.181 C 
HETATM   28  C16 UNL     1     -45.821  43.383 -31.166  1.00  0.00     0.200 C 
BRANCH  23  29
HETATM   29  C13 UNL     1     -48.483  43.848 -34.275  1.00  0.00     0.199 C 
BRANCH  29  30
HETATM   30  O1  UNL     1     -47.748  44.019 -35.451  1.00  0.00    -0.399 OA
ATOM     31  H1  UNL     1     -47.709  44.937 -35.691  1.00  0.00     0.209 HD
ENDBRANCH  29  30
ENDBRANCH  23  29
BRANCH  26  32
HETATM   32  O2  UNL     1     -49.322  44.480 -31.388  1.00  0.00    -0.391 OA
ATOM     33  H2  UNL     1     -49.153  44.685 -30.475  1.00  0.00     0.210 HD
ENDBRANCH  26  32
BRANCH  27  34
HETATM   34  O3  UNL     1     -47.303  44.548 -29.784  1.00  0.00    -0.390 OA
ATOM     35  H3  UNL     1     -46.509  45.067 -29.734  1.00  0.00     0.210 HD
ENDBRANCH  27  34
BRANCH  28  36
HETATM   36  O4  UNL     1     -45.186  44.606 -30.989  1.00  0.00    -0.389 OA
ATOM     37  H4  UNL     1     -44.511  44.724 -31.648  1.00  0.00     0.210 HD
ENDBRANCH  28  36
ENDBRANCH   1  21
TORSDOF 14
ENDMDL
MODEL 4
REMARK VINA RESULT: -7.360159923      1.360      2.567
REMARK  14 active torsions:
REMARK  status: ('A' for Active; 'I' for Inactive)
REMARK    1  A    between atoms: C2_2  and  C3_3 
REMARK    2  A    between atoms: C3_3  and  C4_4 
REMARK    3  A    between atoms: C4_4  and  C5_5 
REMARK    4  A    between atoms: C5_5  and  C6_6 
REMARK    5  A    between atoms: C6_6  and  C7_7 
REMARK    6  A    between atoms: C7_7  and  C8_8 
REMARK    7  A    between atoms: C8_8  and  N1_9 
REMARK    8  A    between atoms: C10_16  and  N4_17 
REMARK    9  A    between atoms: N4_17  and  C11_19 
REMARK   10  A    between atoms: C12_23  and  C13_24 
REMARK   11  A    between atoms: C13_24  and  O1_25 
REMARK   12  A    between atoms: C14_27  and  O2_28 
REMARK   13  A    between atoms: C15_30  and  O3_31 
REMARK   14  A    between atoms: C16_33  and  O4_34 
ROOT
HETATM    1  N4  UNL     1     -44.327  42.567 -32.769  1.00  0.00    -0.192 N 
ATOM      2  H4  UNL     1     -43.427  43.038 -32.669  1.00  0.00     0.180 HD
ENDROOT
BRANCH   1   3
HETATM    3  C10 UNL     1     -44.226  41.487 -33.416  1.00  0.00     0.709 A 
HETATM    4  N3  UNL     1     -44.211  41.268 -34.723  1.00  0.00    -0.117 N 
HETATM    5  N2  UNL     1     -44.087  39.963 -34.907  1.00  0.00    -0.117 N 
ATOM      6  H3  UNL     1     -44.281  41.975 -35.454  1.00  0.00     0.206 HD
HETATM    7  C9  UNL     1     -44.023  39.345 -33.719  1.00  0.00     0.707 A 
ATOM      8  H2  UNL     1     -44.047  39.499 -35.814  1.00  0.00     0.206 HD
HETATM    9  N1  UNL     1     -43.900  38.063 -33.524  1.00  0.00    -0.224 N 
HETATM   10  N6  UNL     1     -44.108  40.278 -32.776  1.00  0.00    -0.020 N 
ATOM     11  H1  UNL     1     -43.842  37.418 -34.312  1.00  0.00     0.177 HD
ATOM     12  H6  UNL     1     -44.090  40.124 -31.767  1.00  0.00     0.203 HD
BRANCH   9  13
HETATM   13  C8  UNL     1     -43.848  37.576 -32.165  1.00  0.00     0.138 C 
BRANCH  13  14
HETATM   14  C7  UNL     1     -42.852  36.436 -32.119  1.00  0.00     0.020 C 
BRANCH  14  15
HETATM   15  C6  UNL     1     -41.730  36.767 -31.132  1.00  0.00     0.002 C 
BRANCH  15  16
HETATM   16  C5  UNL     1     -41.097  35.457 -30.715  1.00  0.00     0.000 C 
BRANCH  16  17
HETATM   17  C4  UNL     1     -41.312  35.145 -29.271  1.00  0.00     0.000 C 
BRANCH  17  18
HETATM   18  C3  UNL     1     -42.443  34.202 -29.019  1.00  0.00    -0.000 C 
BRANCH  18  19
HETATM   19  C2  UNL     1     -42.419  33.002 -29.942  1.00  0.00    -0.005 C 
HETATM   20  C1  UNL     1     -43.584  32.093 -29.687  1.00  0.00     0.005 C 
ENDBRANCH  18  19
ENDBRANCH  17  18
ENDBRANCH  16  17
ENDBRANCH  15  16
ENDBRANCH  14  15
ENDBRANCH  13  14
ENDBRANCH   9  13
ENDBRANCH   1   3
BRANCH   1  21
HETATM   21  C11 UNL     1     -45.356  43.275 -32.161  1.00  0.00     0.331 C 
HETATM   22  N5  UNL     1     -45.908  42.746 -30.956  1.00  0.00    -0.042 N 
HETATM   23  C12 UNL     1     -46.633  43.748 -30.217  1.00  0.00     0.242 C 
ATOM     24  H52 UNL     1     -46.487  41.927 -31.140  1.00  0.00     0.280 HD
ATOM     25  H51 UNL     1     -45.190  42.307 -30.380  1.00  0.00     0.280 HD
HETATM   26  C14 UNL     1     -47.097  44.900 -31.054  1.00  0.00     0.182 C 
HETATM   27  C15 UNL     1     -47.370  44.598 -32.475  1.00  0.00     0.181 C 
HETATM   28  C16 UNL     1     -46.572  43.491 -33.083  1.00  0.00     0.200 C 
BRANCH  23  29
HETATM   29  C13 UNL     1     -45.719  44.277 -29.131  1.00  0.00     0.199 C 
BRANCH  29  30
HETATM   30  O1  UNL     1     -46.429  45.080 -28.236  1.00  0.00    -0.399 OA
ATOM     31  H1  UNL     1     -47.003  45.675 -28.702  1.00  0.00     0.209 HD
ENDBRANCH  29  30
ENDBRANCH  23  29
BRANCH  26  32
HETATM   32  O2  UNL     1     -48.256  45.411 -30.440  1.00  0.00    -0.391 OA
ATOM     33  H2  UNL     1     -48.260  46.349 -30.595  1.00  0.00     0.210 HD
ENDBRANCH  26  32
BRANCH  27  34
HETATM   34  O3  UNL     1     -48.723  44.341 -32.740  1.00  0.00    -0.390 OA
ATOM     35  H3  UNL     1     -49.169  43.893 -32.031  1.00  0.00     0.210 HD
ENDBRANCH  27  34
BRANCH  28  36
HETATM   36  O4  UNL     1     -47.365  42.351 -33.109  1.00  0.00    -0.389 OA
ATOM     37  H4  UNL     1     -47.673  42.146 -32.234  1.00  0.00     0.210 HD
ENDBRANCH  28  36
ENDBRANCH   1  21
TORSDOF 14
ENDMDL
MODEL 5
REMARK VINA RESULT: -7.147106790      1.160      1.573
REMARK  14 active torsions:
REMARK  status: ('A' for Active; 'I' for Inactive)
REMARK    1  A    between atoms: C2_2  and  C3_3 
REMARK    2  A    between atoms: C3_3  and  C4_4 
REMARK    3  A    between atoms: C4_4  and  C5_5 
REMARK    4  A    between atoms: C5_5  and  C6_6 
REMARK    5  A    between atoms: C6_6  and  C7_7 
REMARK    6  A    between atoms: C7_7  and  C8_8 
REMARK    7  A    between atoms: C8_8  and  N1_9 
REMARK    8  A    between atoms: C10_16  and  N4_17 
REMARK    9  A    between atoms: N4_17  and  C11_19 
REMARK   10  A    between atoms: C12_23  and  C13_24 
REMARK   11  A    between atoms: C13_24  and  O1_25 
REMARK   12  A    between atoms: C14_27  and  O2_28 
REMARK   13  A    between atoms: C15_30  and  O3_31 
REMARK   14  A    between atoms: C16_33  and  O4_34 
ROOT
HETATM    1  N4  UNL     1     -44.326  42.032 -32.253  1.00  0.00    -0.192 N 
ATOM      2  H4  UNL     1     -43.440  42.421 -31.931  1.00  0.00     0.180 HD
ENDROOT
BRANCH   1   3
HETATM    3  C10 UNL     1     -44.162  40.979 -32.932  1.00  0.00     0.709 A 
HETATM    4  N3  UNL     1     -44.242  40.781 -34.240  1.00  0.00    -0.117 N 
HETATM    5  N2  UNL     1     -43.987  39.502 -34.465  1.00  0.00    -0.117 N 
ATOM      6  H3  UNL     1     -44.459  41.485 -34.945  1.00  0.00     0.206 HD
HETATM    7  C9  UNL     1     -43.744  38.880 -33.303  1.00  0.00     0.707 A 
ATOM      8  H2  UNL     1     -43.977  39.058 -35.383  1.00  0.00     0.206 HD
HETATM    9  N1  UNL     1     -43.458  37.618 -33.150  1.00  0.00    -0.224 N 
HETATM   10  N6  UNL     1     -43.849  39.783 -32.334  1.00  0.00    -0.020 N 
ATOM     11  H1  UNL     1     -43.399  36.995 -33.956  1.00  0.00     0.177 HD
ATOM     12  H6  UNL     1     -43.720  39.619 -31.335  1.00  0.00     0.203 HD
BRANCH   9  13
HETATM   13  C8  UNL     1     -43.227  37.122 -31.814  1.00  0.00     0.138 C 
BRANCH  13  14
HETATM   14  C7  UNL     1     -41.976  36.269 -31.846  1.00  0.00     0.020 C 
BRANCH  14  15
HETATM   15  C6  UNL     1     -41.199  36.437 -30.537  1.00  0.00     0.002 C 
BRANCH  15  16
HETATM   16  C5  UNL     1     -40.950  35.051 -29.982  1.00  0.00     0.000 C 
BRANCH  16  17
HETATM   17  C4  UNL     1     -42.044  34.585 -29.078  1.00  0.00     0.000 C 
BRANCH  17  18
HETATM   18  C3  UNL     1     -42.656  33.287 -29.490  1.00  0.00    -0.000 C 
BRANCH  18  19
HETATM   19  C2  UNL     1     -42.049  32.732 -30.761  1.00  0.00    -0.005 C 
HETATM   20  C1  UNL     1     -43.063  32.656 -31.862  1.00  0.00     0.005 C 
ENDBRANCH  18  19
ENDBRANCH  17  18
ENDBRANCH  16  17
ENDBRANCH  15  16
ENDBRANCH  14  15
ENDBRANCH  13  14
ENDBRANCH   9  13
ENDBRANCH   1   3
BRANCH   1  21
HETATM   21  C11 UNL     1     -45.412  42.792 -31.836  1.00  0.00     0.331 C 
HETATM   22  N5  UNL     1     -45.593  44.078 -32.429  1.00  0.00    -0.042 N 
HETATM   23  C12 UNL     1     -46.936  44.565 -32.245  1.00  0.00     0.242 C 
ATOM     24  H52 UNL     1     -44.904  44.746 -32.086  1.00  0.00     0.280 HD
ATOM     25  H51 UNL     1     -45.331  44.072 -33.415  1.00  0.00     0.280 HD
HETATM   26  C14 UNL     1     -47.656  43.936 -31.093  1.00  0.00     0.182 C 
HETATM   27  C15 UNL     1     -46.807  43.483 -29.971  1.00  0.00     0.181 C 
HETATM   28  C16 UNL     1     -45.417  43.061 -30.318  1.00  0.00     0.200 C 
BRANCH  23  29
HETATM   29  C13 UNL     1     -47.712  44.278 -33.514  1.00  0.00     0.199 C 
BRANCH  29  30
HETATM   30  O1  UNL     1     -48.872  43.555 -33.231  1.00  0.00    -0.399 OA
ATOM     31  H1  UNL     1     -49.613  43.908 -33.708  1.00  0.00     0.209 HD
ENDBRANCH  29  30
ENDBRANCH  23  29
BRANCH  26  32
HETATM   32  O2  UNL     1     -48.596  44.877 -30.634  1.00  0.00    -0.391 OA
ATOM     33  H2  UNL     1     -48.189  45.733 -30.706  1.00  0.00     0.210 HD
ENDBRANCH  26  32
BRANCH  27  34
HETATM   34  O3  UNL     1     -46.719  44.414 -28.926  1.00  0.00    -0.390 OA
ATOM     35  H3  UNL     1     -46.105  45.118 -29.099  1.00  0.00     0.210 HD
ENDBRANCH  27  34
BRANCH  28  36
HETATM   36  O4  UNL     1     -44.558  44.109 -30.012  1.00  0.00    -0.389 OA
ATOM     37  H4  UNL     1     -44.639  44.799 -30.659  1.00  0.00     0.210 HD
ENDBRANCH  28  36
ENDBRANCH   1  21
TORSDOF 14
ENDMDL
