MODEL 1
REMARK VINA RESULT: -6.033092573      0.000      0.000
REMARK  15 active torsions:
REMARK  status: ('A' for Active; 'I' for Inactive)
REMARK    1  A    between atoms: C2_3  and  C3_4 
REMARK    2  A    between atoms: C3_4  and  O1_5 
REMARK    3  A    between atoms: N2_7  and  C4_8 
REMARK    4  A    between atoms: C4_8  and  C5_9 
REMARK    5  A    between atoms: C5_9  and  C6_10 
REMARK    6  A    between atoms: C6_10  and  O2_11 
REMARK    7  A    between atoms: O2_11  and  C7_12 
REMARK    8  A    between atoms: C7_12  and  C8_13 
REMARK    9  A    between atoms: C7_12  and  C10_19 
REMARK   10  A    between atoms: C8_13  and  C9_14 
REMARK   11  A    between atoms: C9_14  and  N3_15 
REMARK   12  A    between atoms: C10_19  and  C11_20 
REMARK   13  A    between atoms: C11_20  and  N4_21 
REMARK   14  A    between atoms: C13_28  and  N6_29 
REMARK   15  A    between atoms: C14_34  and  N8_35 
ROOT
HETATM    1  C1  UNL     1     -46.522  43.626 -29.519  1.00  0.00     0.158 C 
HETATM    2  N1  UNL     1     -46.109  43.492 -30.884  1.00  0.00    -0.333 N 
HETATM    3  C2  UNL     1     -44.835  43.149 -31.256  1.00  0.00     0.111 A 
HETATM    4  N2  UNL     1     -44.736  43.091 -32.572  1.00  0.00    -0.318 N 
HETATM    5  C12 UNL     1     -45.958  43.403 -33.083  1.00  0.00     0.155 A 
HETATM    6  N5  UNL     1     -46.417  43.495 -34.346  1.00  0.00    -0.174 N 
ATOM      7  H5  UNL     1     -45.787  43.311 -35.125  1.00  0.00     0.186 HD
HETATM    8  C13 UNL     1     -47.693  43.827 -34.589  1.00  0.00     0.679 A 
HETATM    9  N7  UNL     1     -48.531  44.070 -33.580  1.00  0.00    -0.175 N 
ATOM     10  H7  UNL     1     -49.500  44.320 -33.781  1.00  0.00     0.186 HD
HETATM   11  C14 UNL     1     -48.112  43.989 -32.273  1.00  0.00     0.145 A 
HETATM   12  C15 UNL     1     -46.785  43.644 -32.016  1.00  0.00     0.125 A 
ENDROOT
BRANCH   4  13
HETATM   13  C4  UNL     1     -43.616  42.732 -33.434  1.00  0.00     0.134 C 
BRANCH  13  14
HETATM   14  C5  UNL     1     -43.717  41.384 -34.044  1.00  0.00     0.046 C 
BRANCH  14  15
HETATM   15  C6  UNL     1     -44.334  40.282 -33.313  1.00  0.00     0.169 C 
BRANCH  15  16
HETATM   16  O2  UNL     1     -43.787  39.768 -32.189  1.00  0.00    -0.386 OA
BRANCH  16  17
HETATM   17  C7  UNL     1     -42.913  38.735 -32.313  1.00  0.00     0.124 C 
BRANCH  17  18
HETATM   18  C8  UNL     1     -41.862  38.854 -31.232  1.00  0.00     0.059 C 
BRANCH  18  19
HETATM   19  C9  UNL     1     -40.678  39.642 -31.724  1.00  0.00     0.232 C 
BRANCH  19  20
HETATM   20  N3  UNL     1     -41.008  41.063 -31.582  1.00  0.00    -0.079 N 
ATOM     21  H33 UNL     1     -41.268  41.501 -32.466  1.00  0.00     0.274 HD
ATOM     22  H32 UNL     1     -41.890  41.219 -31.092  1.00  0.00     0.274 HD
ATOM     23  H31 UNL     1     -40.215  41.517 -31.130  1.00  0.00     0.274 HD
ENDBRANCH  19  20
ENDBRANCH  18  19
ENDBRANCH  17  18
BRANCH  17  24
HETATM   24  C10 UNL     1     -43.479  37.349 -32.206  1.00  0.00     0.059 C 
BRANCH  24  25
HETATM   25  C11 UNL     1     -42.630  36.334 -31.531  1.00  0.00     0.232 C 
BRANCH  25  26
HETATM   26  N4  UNL     1     -42.612  35.073 -32.244  1.00  0.00    -0.079 N 
ATOM     27  H43 UNL     1     -42.225  34.328 -31.666  1.00  0.00     0.274 HD
ATOM     28  H42 UNL     1     -43.556  34.707 -32.371  1.00  0.00     0.274 HD
ATOM     29  H41 UNL     1     -42.120  35.141 -33.135  1.00  0.00     0.274 HD
ENDBRANCH  25  26
ENDBRANCH  24  25
ENDBRANCH  17  24
ENDBRANCH  16  17
ENDBRANCH  15  16
ENDBRANCH  14  15
ENDBRANCH  13  14
ENDBRANCH   4  13
BRANCH   3  30
HETATM   30  C3  UNL     1     -43.717  42.908 -30.301  1.00  0.00     0.241 C 
BRANCH  30  31
HETATM   31  O1  UNL     1     -43.679  41.555 -29.929  1.00  0.00    -0.393 OA
ATOM     32  H1  UNL     1     -43.025  41.091 -30.438  1.00  0.00     0.209 HD
ENDBRANCH  30  31
ENDBRANCH   3  30
BRANCH   8  33
HETATM   33  N6  UNL     1     -48.161  43.923 -35.806  1.00  0.00    -0.234 N 
ATOM     34  H62 UNL     1     -47.499  43.841 -36.578  1.00  0.00     0.174 HD
ATOM     35  H61 UNL     1     -49.152  44.076 -35.992  1.00  0.00     0.174 HD
ENDBRANCH   8  33
BRANCH  11  36
HETATM   36  N8  UNL     1     -48.895  44.217 -31.325  1.00  0.00    -0.383 N 
ATOM     37  H82 UNL     1     -49.412  43.452 -30.893  1.00  0.00     0.157 HD
ATOM     38  H81 UNL     1     -49.033  45.163 -30.969  1.00  0.00     0.157 HD
ENDBRANCH  11  36
TORSDOF 15
ENDMDL
MODEL 2
REMARK VINA RESULT: -5.940583129      0.506      2.076
REMARK  15 active torsions:
REMARK  status: ('A' for Active; 'I' for Inactive)
REMARK    1  A    between atoms: C2_3  and  C3_4 
REMARK    2  A    between atoms: C3_4  and  O1_5 
REMARK    3  A    between atoms: N2_7  and  C4_8 
REMARK    4  A    between atoms: C4_8  and  C5_9 
REMARK    5  A    between atoms: C5_9  and  C6_10 
REMARK    6  A    between atoms: C6_10  and  O2_11 
REMARK    7  A    between atoms: O2_11  and  C7_12 
REMARK    8  A    between atoms: C7_12  and  C8_13 
REMARK    9  A    between atoms: C7_12  and  C10_19 
REMARK   10  A    between atoms: C8_13  and  C9_14 
REMARK   11  A    between atoms: C9_14  and  N3_15 
REMARK   12  A    between atoms: C10_19  and  C11_20 
REMARK   13  A    between atoms: C11_20  and  N4_21 
REMARK   14  A    between atoms: C13_28  and  N6_29 
REMARK   15  A    between atoms: C14_34  and  N8_35 
ROOT
HETATM    1  C1  UNL     1     -46.544  43.602 -29.514  1.00  0.00     0.158 C 
HETATM    2  N1  UNL     1     -46.137  43.453 -30.878  1.00  0.00    -0.333 N 
HETATM    3  C2  UNL     1     -44.872  43.075 -31.250  1.00  0.00     0.111 A 
HETATM    4  N2  UNL     1     -44.776  43.010 -32.566  1.00  0.00    -0.318 N 
HETATM    5  C12 UNL     1     -45.990  43.352 -33.077  1.00  0.00     0.155 A 
HETATM    6  N5  UNL     1     -46.448  43.451 -34.340  1.00  0.00    -0.174 N 
ATOM      7  H5  UNL     1     -45.824  43.248 -35.119  1.00  0.00     0.186 HD
HETATM    8  C13 UNL     1     -47.715  43.815 -34.584  1.00  0.00     0.679 A 
HETATM    9  N7  UNL     1     -48.545  44.084 -33.574  1.00  0.00    -0.175 N 
ATOM     10  H7  UNL     1     -49.507  44.358 -33.775  1.00  0.00     0.186 HD
HETATM   11  C14 UNL     1     -48.127  43.997 -32.267  1.00  0.00     0.145 A 
HETATM   12  C15 UNL     1     -46.809  43.619 -32.011  1.00  0.00     0.125 A 
ENDROOT
BRANCH   4  13
HETATM   13  C4  UNL     1     -43.667  42.618 -33.427  1.00  0.00     0.134 C 
BRANCH  13  14
HETATM   14  C5  UNL     1     -43.903  41.382 -34.212  1.00  0.00     0.046 C 
BRANCH  14  15
HETATM   15  C6  UNL     1     -44.309  40.147 -33.548  1.00  0.00     0.169 C 
BRANCH  15  16
HETATM   16  O2  UNL     1     -43.920  39.846 -32.290  1.00  0.00    -0.386 OA
BRANCH  16  17
HETATM   17  C7  UNL     1     -43.024  38.839 -32.116  1.00  0.00     0.124 C 
BRANCH  17  18
HETATM   18  C8  UNL     1     -43.722  37.519 -32.357  1.00  0.00     0.059 C 
BRANCH  18  19
HETATM   19  C9  UNL     1     -42.724  36.397 -32.456  1.00  0.00     0.232 C 
BRANCH  19  20
HETATM   20  N3  UNL     1     -42.474  35.912 -31.097  1.00  0.00    -0.079 N 
ATOM     21  H33 UNL     1     -43.066  36.362 -30.398  1.00  0.00     0.274 HD
ATOM     22  H32 UNL     1     -42.799  34.956 -30.950  1.00  0.00     0.274 HD
ATOM     23  H31 UNL     1     -41.479  36.027 -30.909  1.00  0.00     0.274 HD
ENDBRANCH  19  20
ENDBRANCH  18  19
ENDBRANCH  17  18
BRANCH  17  24
HETATM   24  C10 UNL     1     -41.812  38.847 -33.001  1.00  0.00     0.059 C 
BRANCH  24  25
HETATM   25  C11 UNL     1     -40.714  39.770 -32.617  1.00  0.00     0.232 C 
BRANCH  25  26
HETATM   26  N4  UNL     1     -41.125  40.718 -31.601  1.00  0.00    -0.079 N 
ATOM     27  H43 UNL     1     -42.124  40.645 -31.410  1.00  0.00     0.274 HD
ATOM     28  H42 UNL     1     -40.766  40.455 -30.683  1.00  0.00     0.274 HD
ATOM     29  H41 UNL     1     -40.865  41.675 -31.839  1.00  0.00     0.274 HD
ENDBRANCH  25  26
ENDBRANCH  24  25
ENDBRANCH  17  24
ENDBRANCH  16  17
ENDBRANCH  15  16
ENDBRANCH  14  15
ENDBRANCH  13  14
ENDBRANCH   4  13
BRANCH   3  30
HETATM   30  C3  UNL     1     -43.760  42.808 -30.296  1.00  0.00     0.241 C 
BRANCH  30  31
HETATM   31  O1  UNL     1     -43.767  41.460 -29.906  1.00  0.00    -0.393 OA
ATOM     32  H1  UNL     1     -44.623  41.218 -29.572  1.00  0.00     0.209 HD
ENDBRANCH  30  31
ENDBRANCH   3  30
BRANCH   8  33
HETATM   33  N6  UNL     1     -48.182  43.919 -35.800  1.00  0.00    -0.234 N 
ATOM     34  H62 UNL     1     -47.836  43.262 -36.500  1.00  0.00     0.174 HD
ATOM     35  H61 UNL     1     -48.867  44.630 -36.056  1.00  0.00     0.174 HD
ENDBRANCH   8  33
BRANCH  11  36
HETATM   36  N8  UNL     1     -48.903  44.249 -31.320  1.00  0.00    -0.383 N 
ATOM     37  H82 UNL     1     -49.770  43.721 -31.214  1.00  0.00     0.157 HD
ATOM     38  H81 UNL     1     -48.689  44.980 -30.641  1.00  0.00     0.157 HD
ENDBRANCH  11  36
TORSDOF 15
ENDMDL
MODEL 3
REMARK VINA RESULT: -5.787845204      1.489      1.692
REMARK  15 active torsions:
REMARK  status: ('A' for Active; 'I' for Inactive)
REMARK    1  A    between atoms: C2_3  and  C3_4 
REMARK    2  A    between atoms: C3_4  and  O1_5 
REMARK    3  A    between atoms: N2_7  and  C4_8 
REMARK    4  A    between atoms: C4_8  and  C5_9 
REMARK    5  A    between atoms: C5_9  and  C6_10 
REMARK    6  A    between atoms: C6_10  and  O2_11 
REMARK    7  A    between atoms: O2_11  and  C7_12 
REMARK    8  A    between atoms: C7_12  and  C8_13 
REMARK    9  A    between atoms: C7_12  and  C10_19 
REMARK   10  A    between atoms: C8_13  and  C9_14 
REMARK   11  A    between atoms: C9_14  and  N3_15 
REMARK   12  A    between atoms: C10_19  and  C11_20 
REMARK   13  A    between atoms: C11_20  and  N4_21 
REMARK   14  A    between atoms: C13_28  and  N6_29 
REMARK   15  A    between atoms: C14_34  and  N8_35 
ROOT
HETATM    1  C1  UNL     1     -46.475  43.576 -29.501  1.00  0.00     0.158 C 
HETATM    2  N1  UNL     1     -46.079  43.462 -30.873  1.00  0.00    -0.333 N 
HETATM    3  C2  UNL     1     -44.807  43.133 -31.266  1.00  0.00     0.111 A 
HETATM    4  N2  UNL     1     -44.726  43.092 -32.584  1.00  0.00    -0.318 N 
HETATM    5  C12 UNL     1     -45.956  43.401 -33.075  1.00  0.00     0.155 A 
HETATM    6  N5  UNL     1     -46.433  43.506 -34.330  1.00  0.00    -0.174 N 
ATOM      7  H5  UNL     1     -45.812  43.336 -35.120  1.00  0.00     0.186 HD
HETATM    8  C13 UNL     1     -47.714  43.831 -34.553  1.00  0.00     0.679 A 
HETATM    9  N7  UNL     1     -48.541  44.056 -33.530  1.00  0.00    -0.175 N 
ATOM     10  H7  UNL     1     -49.513  44.301 -33.715  1.00  0.00     0.186 HD
HETATM   11  C14 UNL     1     -48.104  43.961 -32.229  1.00  0.00     0.145 A 
HETATM   12  C15 UNL     1     -46.771  43.624 -31.995  1.00  0.00     0.125 A 
ENDROOT
BRANCH   4  13
HETATM   13  C4  UNL     1     -43.614  42.751 -33.465  1.00  0.00     0.134 C 
BRANCH  13  14
HETATM   14  C5  UNL     1     -43.867  41.591 -34.354  1.00  0.00     0.046 C 
BRANCH  14  15
HETATM   15  C6  UNL     1     -42.758  40.809 -34.888  1.00  0.00     0.169 C 
BRANCH  15  16
HETATM   16  O2  UNL     1     -42.254  39.737 -34.238  1.00  0.00    -0.386 OA
BRANCH  16  17
HETATM   17  C7  UNL     1     -42.736  38.507 -34.556  1.00  0.00     0.124 C 
BRANCH  17  18
HETATM   18  C8  UNL     1     -41.738  37.462 -34.107  1.00  0.00     0.059 C 
BRANCH  18  19
HETATM   19  C9  UNL     1     -40.441  38.105 -33.697  1.00  0.00     0.232 C 
BRANCH  19  20
HETATM   20  N3  UNL     1     -40.476  38.275 -32.242  1.00  0.00    -0.079 N 
ATOM     21  H33 UNL     1     -40.652  39.238 -31.958  1.00  0.00     0.274 HD
ATOM     22  H32 UNL     1     -41.302  37.856 -31.813  1.00  0.00     0.274 HD
ATOM     23  H31 UNL     1     -39.602  37.903 -31.870  1.00  0.00     0.274 HD
ENDBRANCH  19  20
ENDBRANCH  18  19
ENDBRANCH  17  18
BRANCH  17  24
HETATM   24  C10 UNL     1     -44.057  38.118 -33.961  1.00  0.00     0.059 C 
BRANCH  24  25
HETATM   25  C11 UNL     1     -44.109  37.991 -32.482  1.00  0.00     0.232 C 
BRANCH  25  26
HETATM   26  N4  UNL     1     -43.962  39.270 -31.817  1.00  0.00    -0.079 N 
ATOM     27  H43 UNL     1     -44.835  39.798 -31.835  1.00  0.00     0.274 HD
ATOM     28  H42 UNL     1     -43.866  39.153 -30.808  1.00  0.00     0.274 HD
ATOM     29  H41 UNL     1     -43.192  39.818 -32.200  1.00  0.00     0.274 HD
ENDBRANCH  25  26
ENDBRANCH  24  25
ENDBRANCH  17  24
ENDBRANCH  16  17
ENDBRANCH  15  16
ENDBRANCH  14  15
ENDBRANCH  13  14
ENDBRANCH   4  13
BRANCH   3  30
HETATM   30  C3  UNL     1     -43.676  42.888 -30.329  1.00  0.00     0.241 C 
BRANCH  30  31
HETATM   31  O1  UNL     1     -43.695  41.558 -29.881  1.00  0.00    -0.393 OA
ATOM     32  H1  UNL     1     -42.822  41.185 -29.919  1.00  0.00     0.209 HD
ENDBRANCH  30  31
ENDBRANCH   3  30
BRANCH   8  33
HETATM   33  N6  UNL     1     -48.199  43.939 -35.763  1.00  0.00    -0.234 N 
ATOM     34  H62 UNL     1     -47.808  44.660 -36.369  1.00  0.00     0.174 HD
ATOM     35  H61 UNL     1     -48.944  43.330 -36.101  1.00  0.00     0.174 HD
ENDBRANCH   8  33
BRANCH  11  36
HETATM   36  N8  UNL     1     -48.876  44.173 -31.269  1.00  0.00    -0.383 N 
ATOM     37  H82 UNL     1     -49.525  43.447 -30.966  1.00  0.00     0.157 HD
ATOM     38  H81 UNL     1     -48.873  45.065 -30.775  1.00  0.00     0.157 HD
ENDBRANCH  11  36
TORSDOF 15
ENDMDL
MODEL 4
REMARK VINA RESULT: -5.706784157      1.789      2.583
REMARK  15 active torsions:
REMARK  status: ('A' for Active; 'I' for Inactive)
REMARK    1  A    between atoms: C2_3  and  C3_4 
REMARK    2  A    between atoms: C3_4  and  O1_5 
REMARK    3  A    between atoms: N2_7  and  C4_8 
REMARK    4  A    between atoms: C4_8  and  C5_9 
REMARK    5  A    between atoms: C5_9  and  C6_10 
REMARK    6  A    between atoms: C6_10  and  O2_11 
REMARK    7  A    between atoms: O2_11  and  C7_12 
REMARK    8  A    between atoms: C7_12  and  C8_13 
REMARK    9  A    between atoms: C7_12  and  C10_19 
REMARK   10  A    between atoms: C8_13  and  C9_14 
REMARK   11  A    between atoms: C9_14  and  N3_15 
REMARK   12  A    between atoms: C10_19  and  C11_20 
REMARK   13  A    between atoms: C11_20  and  N4_21 
REMARK   14  A    between atoms: C13_28  and  N6_29 
REMARK   15  A    between atoms: C14_34  and  N8_35 
ROOT
HETATM    1  C1  UNL     1     -46.557  43.687 -29.522  1.00  0.00     0.158 C 
HETATM    2  N1  UNL     1     -46.132  43.539 -30.881  1.00  0.00    -0.333 N 
HETATM    3  C2  UNL     1     -44.850  43.205 -31.238  1.00  0.00     0.111 A 
HETATM    4  N2  UNL     1     -44.741  43.131 -32.552  1.00  0.00    -0.318 N 
HETATM    5  C12 UNL     1     -45.961  43.422 -33.078  1.00  0.00     0.155 A 
HETATM    6  N5  UNL     1     -46.411  43.493 -34.345  1.00  0.00    -0.174 N 
ATOM      7  H5  UNL     1     -45.773  43.305 -35.117  1.00  0.00     0.186 HD
HETATM    8  C13 UNL     1     -47.689  43.807 -34.604  1.00  0.00     0.679 A 
HETATM    9  N7  UNL     1     -48.537  44.054 -33.604  1.00  0.00    -0.175 N 
ATOM     10  H7  UNL     1     -49.507  44.291 -33.817  1.00  0.00     0.186 HD
HETATM   11  C14 UNL     1     -48.128  43.996 -32.293  1.00  0.00     0.145 A 
HETATM   12  C15 UNL     1     -46.800  43.669 -32.021  1.00  0.00     0.125 A 
ENDROOT
BRANCH   4  13
HETATM   13  C4  UNL     1     -43.609  42.772 -33.400  1.00  0.00     0.134 C 
BRANCH  13  14
HETATM   14  C5  UNL     1     -43.401  41.312 -33.563  1.00  0.00     0.046 C 
BRANCH  14  15
HETATM   15  C6  UNL     1     -43.606  40.673 -34.858  1.00  0.00     0.169 C 
BRANCH  15  16
HETATM   16  O2  UNL     1     -43.038  39.488 -35.174  1.00  0.00    -0.386 OA
BRANCH  16  17
HETATM   17  C7  UNL     1     -42.162  38.939 -34.292  1.00  0.00     0.124 C 
BRANCH  17  18
HETATM   18  C8  UNL     1     -42.634  37.546 -33.940  1.00  0.00     0.059 C 
BRANCH  18  19
HETATM   19  C9  UNL     1     -43.415  37.557 -32.653  1.00  0.00     0.232 C 
BRANCH  19  20
HETATM   20  N3  UNL     1     -44.764  38.037 -32.964  1.00  0.00    -0.079 N 
ATOM     21  H33 UNL     1     -45.320  38.229 -32.131  1.00  0.00     0.274 HD
ATOM     22  H32 UNL     1     -44.771  38.982 -33.349  1.00  0.00     0.274 HD
ATOM     23  H31 UNL     1     -45.197  37.351 -33.583  1.00  0.00     0.274 HD
ENDBRANCH  19  20
ENDBRANCH  18  19
ENDBRANCH  17  18
BRANCH  17  24
HETATM   24  C10 UNL     1     -40.738  38.804 -34.744  1.00  0.00     0.059 C 
BRANCH  24  25
HETATM   25  C11 UNL     1     -40.032  40.060 -35.106  1.00  0.00     0.232 C 
BRANCH  25  26
HETATM   26  N4  UNL     1     -40.324  40.480 -36.462  1.00  0.00    -0.079 N 
ATOM     27  H43 UNL     1     -39.823  39.908 -37.141  1.00  0.00     0.274 HD
ATOM     28  H42 UNL     1     -41.280  40.242 -36.725  1.00  0.00     0.274 HD
ATOM     29  H41 UNL     1     -40.137  41.472 -36.607  1.00  0.00     0.274 HD
ENDBRANCH  25  26
ENDBRANCH  24  25
ENDBRANCH  17  24
ENDBRANCH  16  17
ENDBRANCH  15  16
ENDBRANCH  14  15
ENDBRANCH  13  14
ENDBRANCH   4  13
BRANCH   3  30
HETATM   30  C3  UNL     1     -43.739  42.988 -30.272  1.00  0.00     0.241 C 
BRANCH  30  31
HETATM   31  O1  UNL     1     -43.707  41.648 -29.858  1.00  0.00    -0.393 OA
ATOM     32  H1  UNL     1     -42.938  41.213 -30.206  1.00  0.00     0.209 HD
ENDBRANCH  30  31
ENDBRANCH   3  30
BRANCH   8  33
HETATM   33  N6  UNL     1     -48.148  43.882 -35.826  1.00  0.00    -0.234 N 
ATOM     34  H62 UNL     1     -48.353  44.808 -36.200  1.00  0.00     0.174 HD
ATOM     35  H61 UNL     1     -48.300  43.050 -36.396  1.00  0.00     0.174 HD
ENDBRANCH   8  33
BRANCH  11  36
HETATM   36  N8  UNL     1     -48.922  44.228 -31.355  1.00  0.00    -0.383 N 
ATOM     37  H82 UNL     1     -49.128  45.190 -31.087  1.00  0.00     0.157 HD
ATOM     38  H81 UNL     1     -49.374  43.470 -30.845  1.00  0.00     0.157 HD
ENDBRANCH  11  36
TORSDOF 15
ENDMDL
MODEL 5
REMARK VINA RESULT: -5.694379962      1.051      1.147
REMARK  15 active torsions:
REMARK  status: ('A' for Active; 'I' for Inactive)
REMARK    1  A    between atoms: C2_3  and  C3_4 
REMARK    2  A    between atoms: C3_4  and  O1_5 
REMARK    3  A    between atoms: N2_7  and  C4_8 
REMARK    4  A    between atoms: C4_8  and  C5_9 
REMARK    5  A    between atoms: C5_9  and  C6_10 
REMARK    6  A    between atoms: C6_10  and  O2_11 
REMARK    7  A    between atoms: O2_11  and  C7_12 
REMARK    8  A    between atoms: C7_12  and  C8_13 
REMARK    9  A    between atoms: C7_12  and  C10_19 
REMARK   10  A    between atoms: C8_13  and  C9_14 
REMARK   11  A    between atoms: C9_14  and  N3_15 
REMARK   12  A    between atoms: C10_19  and  C11_20 
REMARK   13  A    between atoms: C11_20  and  N4_21 
REMARK   14  A    between atoms: C13_28  and  N6_29 
REMARK   15  A    between atoms: C14_34  and  N8_35 
ROOT
HETATM    1  C1  UNL     1     -46.522  43.608 -29.513  1.00  0.00     0.158 C 
HETATM    2  N1  UNL     1     -46.119  43.472 -30.881  1.00  0.00    -0.333 N 
HETATM    3  C2  UNL     1     -44.850  43.117 -31.262  1.00  0.00     0.111 A 
HETATM    4  N2  UNL     1     -44.761  43.061 -32.578  1.00  0.00    -0.318 N 
HETATM    5  C12 UNL     1     -45.982  43.386 -33.081  1.00  0.00     0.155 A 
HETATM    6  N5  UNL     1     -46.449  43.486 -34.341  1.00  0.00    -0.174 N 
ATOM      7  H5  UNL     1     -45.825  43.297 -35.125  1.00  0.00     0.186 HD
HETATM    8  C13 UNL     1     -47.722  43.831 -34.576  1.00  0.00     0.679 A 
HETATM    9  N7  UNL     1     -48.552  44.081 -33.561  1.00  0.00    -0.175 N 
ATOM     10  H7  UNL     1     -49.518  44.341 -33.756  1.00  0.00     0.186 HD
HETATM   11  C14 UNL     1     -48.125  43.993 -32.257  1.00  0.00     0.145 A 
HETATM   12  C15 UNL     1     -46.800  43.634 -32.009  1.00  0.00     0.125 A 
ENDROOT
BRANCH   4  13
HETATM   13  C4  UNL     1     -43.650  42.691 -33.448  1.00  0.00     0.134 C 
BRANCH  13  14
HETATM   14  C5  UNL     1     -43.748  41.329 -34.027  1.00  0.00     0.046 C 
BRANCH  14  15
HETATM   15  C6  UNL     1     -44.393  40.251 -33.285  1.00  0.00     0.169 C 
BRANCH  15  16
HETATM   16  O2  UNL     1     -43.769  39.595 -32.282  1.00  0.00    -0.386 OA
BRANCH  16  17
HETATM   17  C7  UNL     1     -42.580  38.992 -32.549  1.00  0.00     0.124 C 
BRANCH  17  18
HETATM   18  C8  UNL     1     -41.810  38.842 -31.256  1.00  0.00     0.059 C 
BRANCH  18  19
HETATM   19  C9  UNL     1     -40.547  39.659 -31.289  1.00  0.00     0.232 C 
BRANCH  19  20
HETATM   20  N3  UNL     1     -40.919  41.025 -31.666  1.00  0.00    -0.079 N 
ATOM     21  H33 UNL     1     -40.674  41.253 -32.630  1.00  0.00     0.274 HD
ATOM     22  H32 UNL     1     -41.928  41.153 -31.752  1.00  0.00     0.274 HD
ATOM     23  H31 UNL     1     -40.494  41.656 -30.987  1.00  0.00     0.274 HD
ENDBRANCH  19  20
ENDBRANCH  18  19
ENDBRANCH  17  18
BRANCH  17  24
HETATM   24  C10 UNL     1     -42.633  37.630 -33.174  1.00  0.00     0.059 C 
BRANCH  24  25
HETATM   25  C11 UNL     1     -41.705  37.380 -34.306  1.00  0.00     0.232 C 
BRANCH  25  26
HETATM   26  N4  UNL     1     -41.008  38.581 -34.718  1.00  0.00    -0.079 N 
ATOM     27  H43 UNL     1     -40.277  38.369 -35.396  1.00  0.00     0.274 HD
ATOM     28  H42 UNL     1     -41.602  39.171 -35.301  1.00  0.00     0.274 HD
ATOM     29  H41 UNL     1     -40.636  39.103 -33.925  1.00  0.00     0.274 HD
ENDBRANCH  25  26
ENDBRANCH  24  25
ENDBRANCH  17  24
ENDBRANCH  16  17
ENDBRANCH  15  16
ENDBRANCH  14  15
ENDBRANCH  13  14
ENDBRANCH   4  13
BRANCH   3  30
HETATM   30  C3  UNL     1     -43.730  42.862 -30.315  1.00  0.00     0.241 C 
BRANCH  30  31
HETATM   31  O1  UNL     1     -43.671  41.499 -29.986  1.00  0.00    -0.393 OA
ATOM     32  H1  UNL     1     -43.792  41.379 -29.052  1.00  0.00     0.209 HD
ENDBRANCH  30  31
ENDBRANCH   3  30
BRANCH   8  33
HETATM   33  N6  UNL     1     -48.197  43.935 -35.790  1.00  0.00    -0.234 N 
ATOM     34  H62 UNL     1     -49.078  44.433 -35.915  1.00  0.00     0.174 HD
ATOM     35  H61 UNL     1     -47.713  43.535 -36.594  1.00  0.00     0.174 HD
ENDBRANCH   8  33
BRANCH  11  36
HETATM   36  N8  UNL     1     -48.900  44.228 -31.304  1.00  0.00    -0.383 N 
ATOM     37  H82 UNL     1     -48.525  44.465 -30.386  1.00  0.00     0.157 HD
ATOM     38  H81 UNL     1     -49.912  44.187 -31.424  1.00  0.00     0.157 HD
ENDBRANCH  11  36
TORSDOF 15
ENDMDL
