MODEL 1
REMARK VINA RESULT: -5.942272718      0.000      0.000
REMARK  14 active torsions:
REMARK  status: ('A' for Active; 'I' for Inactive)
REMARK    1  A    between atoms: N1_1  and  C1_4 
REMARK    2  A    between atoms: C4_10  and  N3_11 
REMARK    3  A    between atoms: N3_11  and  C5_13 
REMARK    4  A    between atoms: C5_13  and  C6_14 
REMARK    5  A    between atoms: C6_14  and  C7_15 
REMARK    6  A    between atoms: C7_15  and  N4_16 
REMARK    7  A    between atoms: N4_16  and  C8_19 
REMARK    8  A    between atoms: C8_19  and  C9_20 
REMARK    9  A    between atoms: C9_20  and  C10_21 
REMARK   10  A    between atoms: C10_21  and  N5_22 
REMARK   11  A    between atoms: N5_22  and  C11_24 
REMARK   12  A    between atoms: C11_24  and  C12_25 
REMARK   13  A    between atoms: C12_25  and  O2_26 
REMARK   14  A    between atoms: C13_30  and  N7_31 
ROOT
HETATM    1  C1  UNL     1     -47.351  44.608 -33.921  1.00  0.00     0.680 A 
HETATM    2  N2  UNL     1     -46.676  43.433 -33.973  1.00  0.00    -0.155 N 
ATOM      3  H2  UNL     1     -46.653  42.892 -34.838  1.00  0.00     0.187 HD
HETATM    4  C2  UNL     1     -46.037  42.986 -32.881  1.00  0.00     0.277 A 
HETATM    5  O1  UNL     1     -45.423  41.907 -32.954  1.00  0.00    -0.266 OA
HETATM    6  C3  UNL     1     -46.073  43.722 -31.722  1.00  0.00     0.122 A 
HETATM    7  C4  UNL     1     -45.423  43.245 -30.614  1.00  0.00     0.136 A 
HETATM    8  N6  UNL     1     -45.467  43.965 -29.479  1.00  0.00    -0.176 N 
ATOM      9  H6  UNL     1     -44.987  43.619 -28.648  1.00  0.00     0.186 HD
HETATM   10  C13 UNL     1     -46.135  45.138 -29.422  1.00  0.00     0.679 A 
HETATM   11  N8  UNL     1     -46.760  45.575 -30.516  1.00  0.00    -0.175 N 
ATOM     12  H8  UNL     1     -47.263  46.461 -30.459  1.00  0.00     0.186 HD
HETATM   13  C14 UNL     1     -46.768  44.926 -31.677  1.00  0.00     0.156 A 
HETATM   14  N9  UNL     1     -47.391  45.340 -32.783  1.00  0.00    -0.175 N 
ATOM     15  H9  UNL     1     -47.905  46.221 -32.771  1.00  0.00     0.186 HD
ENDROOT
BRANCH   7  16
HETATM   16  N3  UNL     1     -44.793  42.120 -30.676  1.00  0.00    -0.375 N 
ATOM     17  H3  UNL     1     -45.280  41.301 -31.040  1.00  0.00     0.161 HD
BRANCH  16  18
HETATM   18  C5  UNL     1     -43.413  41.982 -30.243  1.00  0.00     0.123 C 
BRANCH  18  19
HETATM   19  C6  UNL     1     -42.673  41.308 -31.377  1.00  0.00     0.047 C 
BRANCH  19  20
HETATM   20  C7  UNL     1     -42.902  39.799 -31.359  1.00  0.00     0.234 C 
BRANCH  20  21
HETATM   21  N4  UNL     1     -43.966  39.534 -32.266  1.00  0.00    -0.075 N 
ATOM     22  H42 UNL     1     -44.848  39.874 -31.885  1.00  0.00     0.277 HD
ATOM     23  H41 UNL     1     -43.887  40.134 -33.088  1.00  0.00     0.277 HD
BRANCH  21  24
HETATM   24  C8  UNL     1     -44.092  38.144 -32.667  1.00  0.00     0.237 C 
BRANCH  24  25
HETATM   25  C9  UNL     1     -42.639  37.699 -32.950  1.00  0.00     0.072 C 
BRANCH  25  26
HETATM   26  C10 UNL     1     -42.258  37.856 -34.381  1.00  0.00     0.062 C 
BRANCH  26  27
HETATM   27  N5  UNL     1     -41.448  38.943 -34.699  1.00  0.00    -0.380 N 
ATOM     28  H5  UNL     1     -40.439  38.794 -34.695  1.00  0.00     0.164 HD
BRANCH  27  29
HETATM   29  C11 UNL     1     -41.902  40.208 -35.020  1.00  0.00     0.086 C 
BRANCH  29  30
HETATM   30  C12 UNL     1     -42.992  40.444 -35.989  1.00  0.00     0.208 C 
BRANCH  30  31
HETATM   31  O2  UNL     1     -44.139  40.768 -35.190  1.00  0.00    -0.396 OA
ATOM     32  H2  UNL     1     -44.733  41.214 -35.781  1.00  0.00     0.209 HD
ENDBRANCH  30  31
ENDBRANCH  29  30
ENDBRANCH  27  29
ENDBRANCH  26  27
ENDBRANCH  25  26
ENDBRANCH  24  25
ENDBRANCH  21  24
ENDBRANCH  20  21
ENDBRANCH  19  20
ENDBRANCH  18  19
ENDBRANCH  16  18
ENDBRANCH   7  16
BRANCH  10  33
HETATM   33  N7  UNL     1     -46.144  45.792 -28.290  1.00  0.00    -0.234 N 
ATOM     34  H72 UNL     1     -47.002  46.129 -27.851  1.00  0.00     0.174 HD
ATOM     35  H71 UNL     1     -45.253  45.966 -27.826  1.00  0.00     0.174 HD
ENDBRANCH  10  33
BRANCH   1  36
HETATM   36  N1  UNL     1     -47.979  45.060 -34.961  1.00  0.00    -0.234 N 
ATOM     37  H12 UNL     1     -47.640  45.920 -35.392  1.00  0.00     0.174 HD
ATOM     38  H11 UNL     1     -48.791  44.568 -35.335  1.00  0.00     0.174 HD
ENDBRANCH   1  36
TORSDOF 14
ENDMDL
MODEL 2
REMARK VINA RESULT: -5.933859624      1.305      2.110
REMARK  14 active torsions:
REMARK  status: ('A' for Active; 'I' for Inactive)
REMARK    1  A    between atoms: N1_1  and  C1_4 
REMARK    2  A    between atoms: C4_10  and  N3_11 
REMARK    3  A    between atoms: N3_11  and  C5_13 
REMARK    4  A    between atoms: C5_13  and  C6_14 
REMARK    5  A    between atoms: C6_14  and  C7_15 
REMARK    6  A    between atoms: C7_15  and  N4_16 
REMARK    7  A    between atoms: N4_16  and  C8_19 
REMARK    8  A    between atoms: C8_19  and  C9_20 
REMARK    9  A    between atoms: C9_20  and  C10_21 
REMARK   10  A    between atoms: C10_21  and  N5_22 
REMARK   11  A    between atoms: N5_22  and  C11_24 
REMARK   12  A    between atoms: C11_24  and  C12_25 
REMARK   13  A    between atoms: C12_25  and  O2_26 
REMARK   14  A    between atoms: C13_30  and  N7_31 
ROOT
HETATM    1  C1  UNL     1     -47.403  44.220 -34.075  1.00  0.00     0.680 A 
HETATM    2  N2  UNL     1     -46.594  43.131 -34.030  1.00  0.00    -0.155 N 
ATOM      3  H2  UNL     1     -46.504  42.525 -34.846  1.00  0.00     0.187 HD
HETATM    4  C2  UNL     1     -45.915  42.856 -32.906  1.00  0.00     0.277 A 
HETATM    5  O1  UNL     1     -45.179  41.853 -32.890  1.00  0.00    -0.266 OA
HETATM    6  C3  UNL     1     -46.044  43.678 -31.814  1.00  0.00     0.122 A 
HETATM    7  C4  UNL     1     -45.349  43.376 -30.671  1.00  0.00     0.136 A 
HETATM    8  N6  UNL     1     -45.483  44.179 -29.602  1.00  0.00    -0.176 N 
ATOM      9  H6  UNL     1     -44.971  43.964 -28.746  1.00  0.00     0.186 HD
HETATM   10  C13 UNL     1     -46.284  45.267 -29.642  1.00  0.00     0.679 A 
HETATM   11  N8  UNL     1     -46.948  45.534 -30.767  1.00  0.00    -0.175 N 
ATOM     12  H8  UNL     1     -47.551  46.358 -30.784  1.00  0.00     0.186 HD
HETATM   13  C14 UNL     1     -46.874  44.792 -31.869  1.00  0.00     0.156 A 
HETATM   14  N9  UNL     1     -47.534  45.036 -33.004  1.00  0.00    -0.175 N 
ATOM     15  H9  UNL     1     -48.147  45.849 -33.064  1.00  0.00     0.186 HD
ENDROOT
BRANCH   7  16
HETATM   16  N3  UNL     1     -44.592  42.330 -30.640  1.00  0.00    -0.375 N 
ATOM     17  H3  UNL     1     -44.968  41.439 -30.963  1.00  0.00     0.161 HD
BRANCH  16  18
HETATM   18  C5  UNL     1     -43.222  42.382 -30.159  1.00  0.00     0.123 C 
BRANCH  18  19
HETATM   19  C6  UNL     1     -42.424  43.110 -31.218  1.00  0.00     0.047 C 
BRANCH  19  20
HETATM   20  C7  UNL     1     -41.356  42.199 -31.819  1.00  0.00     0.234 C 
BRANCH  20  21
HETATM   21  N4  UNL     1     -42.037  41.242 -32.622  1.00  0.00    -0.075 N 
ATOM     22  H42 UNL     1     -42.210  40.391 -32.087  1.00  0.00     0.277 HD
ATOM     23  H41 UNL     1     -42.997  41.542 -32.791  1.00  0.00     0.277 HD
BRANCH  21  24
HETATM   24  C8  UNL     1     -41.381  40.922 -33.878  1.00  0.00     0.237 C 
BRANCH  24  25
HETATM   25  C9  UNL     1     -42.478  41.139 -34.944  1.00  0.00     0.072 C 
BRANCH  25  26
HETATM   26  C10 UNL     1     -43.236  39.893 -35.251  1.00  0.00     0.062 C 
BRANCH  26  27
HETATM   27  N5  UNL     1     -44.401  39.672 -34.521  1.00  0.00    -0.380 N 
ATOM     28  H5  UNL     1     -45.091  40.424 -34.498  1.00  0.00     0.164 HD
BRANCH  27  29
HETATM   29  C11 UNL     1     -44.699  38.515 -33.827  1.00  0.00     0.086 C 
BRANCH  29  30
HETATM   30  C12 UNL     1     -44.120  38.205 -32.504  1.00  0.00     0.208 C 
BRANCH  30  31
HETATM   31  O2  UNL     1     -44.071  39.463 -31.815  1.00  0.00    -0.396 OA
ATOM     32  H2  UNL     1     -43.453  39.332 -31.105  1.00  0.00     0.209 HD
ENDBRANCH  30  31
ENDBRANCH  29  30
ENDBRANCH  27  29
ENDBRANCH  26  27
ENDBRANCH  25  26
ENDBRANCH  24  25
ENDBRANCH  21  24
ENDBRANCH  20  21
ENDBRANCH  19  20
ENDBRANCH  18  19
ENDBRANCH  16  18
ENDBRANCH   7  16
BRANCH  10  33
HETATM   33  N7  UNL     1     -46.375  46.009 -28.570  1.00  0.00    -0.234 N 
ATOM     34  H72 UNL     1     -45.875  45.799 -27.706  1.00  0.00     0.174 HD
ATOM     35  H71 UNL     1     -46.971  46.837 -28.604  1.00  0.00     0.174 HD
ENDBRANCH  10  33
BRANCH   1  36
HETATM   36  N1  UNL     1     -48.073  44.505 -35.148  1.00  0.00    -0.234 N 
ATOM     37  H12 UNL     1     -48.448  43.735 -35.700  1.00  0.00     0.174 HD
ATOM     38  H11 UNL     1     -48.218  45.474 -35.430  1.00  0.00     0.174 HD
ENDBRANCH   1  36
TORSDOF 14
ENDMDL
MODEL 3
REMARK VINA RESULT: -5.781104652      3.042      4.770
REMARK  14 active torsions:
REMARK  status: ('A' for Active; 'I' for Inactive)
REMARK    1  A    between atoms: N1_1  and  C1_4 
REMARK    2  A    between atoms: C4_10  and  N3_11 
REMARK    3  A    between atoms: N3_11  and  C5_13 
REMARK    4  A    between atoms: C5_13  and  C6_14 
REMARK    5  A    between atoms: C6_14  and  C7_15 
REMARK    6  A    between atoms: C7_15  and  N4_16 
REMARK    7  A    between atoms: N4_16  and  C8_19 
REMARK    8  A    between atoms: C8_19  and  C9_20 
REMARK    9  A    between atoms: C9_20  and  C10_21 
REMARK   10  A    between atoms: C10_21  and  N5_22 
REMARK   11  A    between atoms: N5_22  and  C11_24 
REMARK   12  A    between atoms: C11_24  and  C12_25 
REMARK   13  A    between atoms: C12_25  and  O2_26 
REMARK   14  A    between atoms: C13_30  and  N7_31 
ROOT
HETATM    1  C1  UNL     1     -46.184  45.034 -29.561  1.00  0.00     0.680 A 
HETATM    2  N2  UNL     1     -45.397  43.930 -29.563  1.00  0.00    -0.155 N 
ATOM      3  H2  UNL     1     -44.885  43.663 -28.721  1.00  0.00     0.187 HD
HETATM    4  C2  UNL     1     -45.295  43.191 -30.678  1.00  0.00     0.277 A 
HETATM    5  O1  UNL     1     -44.568  42.181 -30.654  1.00  0.00    -0.266 OA
HETATM    6  C3  UNL     1     -45.987  43.559 -31.805  1.00  0.00     0.122 A 
HETATM    7  C4  UNL     1     -45.863  42.797 -32.938  1.00  0.00     0.136 A 
HETATM    8  N6  UNL     1     -46.537  43.164 -34.041  1.00  0.00    -0.176 N 
ATOM      9  H6  UNL     1     -46.452  42.605 -34.890  1.00  0.00     0.186 HD
HETATM   10  C13 UNL     1     -47.326  44.261 -34.044  1.00  0.00     0.679 A 
HETATM   11  N8  UNL     1     -47.426  44.984 -32.928  1.00  0.00    -0.175 N 
ATOM     12  H8  UNL     1     -48.023  45.811 -32.944  1.00  0.00     0.186 HD
HETATM   13  C14 UNL     1     -46.793  44.692 -31.794  1.00  0.00     0.156 A 
HETATM   14  N9  UNL     1     -46.872  45.404 -30.667  1.00  0.00    -0.175 N 
ATOM     15  H9  UNL     1     -47.458  46.238 -30.639  1.00  0.00     0.186 HD
ENDROOT
BRANCH   7  16
HETATM   16  N3  UNL     1     -45.101  41.754 -32.927  1.00  0.00    -0.375 N 
ATOM     17  H3  UNL     1     -45.161  41.107 -32.142  1.00  0.00     0.161 HD
BRANCH  16  18
HETATM   18  C5  UNL     1     -44.161  41.473 -33.999  1.00  0.00     0.123 C 
BRANCH  18  19
HETATM   19  C6  UNL     1     -43.586  40.103 -33.716  1.00  0.00     0.047 C 
BRANCH  19  20
HETATM   20  C7  UNL     1     -44.675  39.033 -33.762  1.00  0.00     0.234 C 
BRANCH  20  21
HETATM   21  N4  UNL     1     -44.320  38.045 -32.802  1.00  0.00    -0.075 N 
ATOM     22  H42 UNL     1     -44.408  38.422 -31.858  1.00  0.00     0.277 HD
ATOM     23  H41 UNL     1     -45.032  37.315 -32.766  1.00  0.00     0.277 HD
BRANCH  21  24
HETATM   24  C8  UNL     1     -43.005  37.458 -32.990  1.00  0.00     0.237 C 
BRANCH  24  25
HETATM   25  C9  UNL     1     -42.869  36.454 -31.822  1.00  0.00     0.072 C 
BRANCH  25  26
HETATM   26  C10 UNL     1     -42.450  35.098 -32.276  1.00  0.00     0.062 C 
BRANCH  26  27
HETATM   27  N5  UNL     1     -42.716  34.038 -31.413  1.00  0.00    -0.380 N 
ATOM     28  H5  UNL     1     -42.551  34.191 -30.418  1.00  0.00     0.164 HD
BRANCH  27  29
HETATM   29  C11 UNL     1     -43.185  32.796 -31.797  1.00  0.00     0.086 C 
BRANCH  29  30
HETATM   30  C12 UNL     1     -43.959  31.920 -30.895  1.00  0.00     0.208 C 
BRANCH  30  31
HETATM   31  O2  UNL     1     -45.253  31.807 -31.504  1.00  0.00    -0.396 OA
ATOM     32  H2  UNL     1     -45.373  30.877 -31.658  1.00  0.00     0.209 HD
ENDBRANCH  30  31
ENDBRANCH  29  30
ENDBRANCH  27  29
ENDBRANCH  26  27
ENDBRANCH  25  26
ENDBRANCH  24  25
ENDBRANCH  21  24
ENDBRANCH  20  21
ENDBRANCH  19  20
ENDBRANCH  18  19
ENDBRANCH  16  18
ENDBRANCH   7  16
BRANCH  10  33
HETATM   33  N7  UNL     1     -47.955  44.569 -35.148  1.00  0.00    -0.234 N 
ATOM     34  H72 UNL     1     -48.174  43.883 -35.871  1.00  0.00     0.174 HD
ATOM     35  H71 UNL     1     -48.241  45.538 -35.287  1.00  0.00     0.174 HD
ENDBRANCH  10  33
BRANCH   1  36
HETATM   36  N1  UNL     1     -46.297  45.768 -28.498  1.00  0.00    -0.234 N 
ATOM     37  H12 UNL     1     -45.853  45.442 -27.640  1.00  0.00     0.174 HD
ATOM     38  H11 UNL     1     -46.818  46.644 -28.521  1.00  0.00     0.174 HD
ENDBRANCH   1  36
TORSDOF 14
ENDMDL
MODEL 4
REMARK VINA RESULT: -5.762061560      1.977      2.766
REMARK  14 active torsions:
REMARK  status: ('A' for Active; 'I' for Inactive)
REMARK    1  A    between atoms: N1_1  and  C1_4 
REMARK    2  A    between atoms: C4_10  and  N3_11 
REMARK    3  A    between atoms: N3_11  and  C5_13 
REMARK    4  A    between atoms: C5_13  and  C6_14 
REMARK    5  A    between atoms: C6_14  and  C7_15 
REMARK    6  A    between atoms: C7_15  and  N4_16 
REMARK    7  A    between atoms: N4_16  and  C8_19 
REMARK    8  A    between atoms: C8_19  and  C9_20 
REMARK    9  A    between atoms: C9_20  and  C10_21 
REMARK   10  A    between atoms: C10_21  and  N5_22 
REMARK   11  A    between atoms: N5_22  and  C11_24 
REMARK   12  A    between atoms: C11_24  and  C12_25 
REMARK   13  A    between atoms: C12_25  and  O2_26 
REMARK   14  A    between atoms: C13_30  and  N7_31 
ROOT
HETATM    1  C1  UNL     1     -47.740  44.143 -34.558  1.00  0.00     0.680 A 
HETATM    2  N2  UNL     1     -47.601  43.282 -33.519  1.00  0.00    -0.155 N 
ATOM      3  H2  UNL     1     -48.134  42.413 -33.498  1.00  0.00     0.187 HD
HETATM    4  C2  UNL     1     -46.758  43.582 -32.519  1.00  0.00     0.277 A 
HETATM    5  O1  UNL     1     -46.646  42.776 -31.578  1.00  0.00    -0.266 OA
HETATM    6  C3  UNL     1     -46.045  44.754 -32.557  1.00  0.00     0.122 A 
HETATM    7  C4  UNL     1     -45.196  45.048 -31.521  1.00  0.00     0.136 A 
HETATM    8  N6  UNL     1     -44.505  46.200 -31.558  1.00  0.00    -0.176 N 
ATOM      9  H6  UNL     1     -43.870  46.429 -30.793  1.00  0.00     0.186 HD
HETATM   10  C13 UNL     1     -44.637  47.060 -32.593  1.00  0.00     0.679 A 
HETATM   11  N8  UNL     1     -45.472  46.748 -33.585  1.00  0.00    -0.175 N 
ATOM     12  H8  UNL     1     -45.563  47.406 -34.359  1.00  0.00     0.186 HD
HETATM   13  C14 UNL     1     -46.193  45.631 -33.626  1.00  0.00     0.156 A 
HETATM   14  N9  UNL     1     -47.040  45.301 -34.604  1.00  0.00    -0.175 N 
ATOM     15  H9  UNL     1     -47.162  45.930 -35.398  1.00  0.00     0.186 HD
ENDROOT
BRANCH   7  16
HETATM   16  N3  UNL     1     -45.082  44.224 -30.534  1.00  0.00    -0.375 N 
ATOM     17  H3  UNL     1     -45.907  43.712 -30.220  1.00  0.00     0.161 HD
BRANCH  16  18
HETATM   18  C5  UNL     1     -43.817  44.001 -29.854  1.00  0.00     0.123 C 
BRANCH  18  19
HETATM   19  C6  UNL     1     -43.082  42.947 -30.652  1.00  0.00     0.047 C 
BRANCH  19  20
HETATM   20  C7  UNL     1     -43.636  41.555 -30.359  1.00  0.00     0.234 C 
BRANCH  20  21
HETATM   21  N4  UNL     1     -44.024  40.997 -31.609  1.00  0.00    -0.075 N 
ATOM     22  H42 UNL     1     -43.887  39.986 -31.603  1.00  0.00     0.277 HD
ATOM     23  H41 UNL     1     -45.037  41.037 -31.715  1.00  0.00     0.277 HD
BRANCH  21  24
HETATM   24  C8  UNL     1     -43.373  41.586 -32.767  1.00  0.00     0.237 C 
BRANCH  24  25
HETATM   25  C9  UNL     1     -44.285  41.195 -33.952  1.00  0.00     0.072 C 
BRANCH  25  26
HETATM   26  C10 UNL     1     -43.575  40.383 -34.980  1.00  0.00     0.062 C 
BRANCH  26  27
HETATM   27  N5  UNL     1     -42.853  39.284 -34.522  1.00  0.00    -0.380 N 
ATOM     28  H5  UNL     1     -41.843  39.393 -34.429  1.00  0.00     0.164 HD
BRANCH  27  29
HETATM   29  C11 UNL     1     -43.395  38.058 -34.185  1.00  0.00     0.086 C 
BRANCH  29  30
HETATM   30  C12 UNL     1     -43.540  37.607 -32.785  1.00  0.00     0.208 C 
BRANCH  30  31
HETATM   31  O2  UNL     1     -44.883  37.955 -32.419  1.00  0.00    -0.396 OA
ATOM     32  H2  UNL     1     -45.369  37.140 -32.459  1.00  0.00     0.209 HD
ENDBRANCH  30  31
ENDBRANCH  29  30
ENDBRANCH  27  29
ENDBRANCH  26  27
ENDBRANCH  25  26
ENDBRANCH  24  25
ENDBRANCH  21  24
ENDBRANCH  20  21
ENDBRANCH  19  20
ENDBRANCH  18  19
ENDBRANCH  16  18
ENDBRANCH   7  16
BRANCH  10  33
HETATM   33  N7  UNL     1     -43.940  48.166 -32.572  1.00  0.00    -0.234 N 
ATOM     34  H72 UNL     1     -42.924  48.182 -32.661  1.00  0.00     0.174 HD
ATOM     35  H71 UNL     1     -44.439  49.049 -32.467  1.00  0.00     0.174 HD
ENDBRANCH  10  33
BRANCH   1  36
HETATM   36  N1  UNL     1     -48.550  43.879 -35.535  1.00  0.00    -0.234 N 
ATOM     37  H12 UNL     1     -48.699  42.902 -35.786  1.00  0.00     0.174 HD
ATOM     38  H11 UNL     1     -49.023  44.629 -36.039  1.00  0.00     0.174 HD
ENDBRANCH   1  36
TORSDOF 14
ENDMDL
MODEL 5
REMARK VINA RESULT: -5.679518550      1.428      2.253
REMARK  14 active torsions:
REMARK  status: ('A' for Active; 'I' for Inactive)
REMARK    1  A    between atoms: N1_1  and  C1_4 
REMARK    2  A    between atoms: C4_10  and  N3_11 
REMARK    3  A    between atoms: N3_11  and  C5_13 
REMARK    4  A    between atoms: C5_13  and  C6_14 
REMARK    5  A    between atoms: C6_14  and  C7_15 
REMARK    6  A    between atoms: C7_15  and  N4_16 
REMARK    7  A    between atoms: N4_16  and  C8_19 
REMARK    8  A    between atoms: C8_19  and  C9_20 
REMARK    9  A    between atoms: C9_20  and  C10_21 
REMARK   10  A    between atoms: C10_21  and  N5_22 
REMARK   11  A    between atoms: N5_22  and  C11_24 
REMARK   12  A    between atoms: C11_24  and  C12_25 
REMARK   13  A    between atoms: C12_25  and  O2_26 
REMARK   14  A    between atoms: C13_30  and  N7_31 
ROOT
HETATM    1  C1  UNL     1     -47.359  44.315 -34.067  1.00  0.00     0.680 A 
HETATM    2  N2  UNL     1     -46.614  43.181 -34.047  1.00  0.00    -0.155 N 
ATOM      3  H2  UNL     1     -46.554  42.592 -34.878  1.00  0.00     0.187 HD
HETATM    4  C2  UNL     1     -45.958  42.839 -32.928  1.00  0.00     0.277 A 
HETATM    5  O1  UNL     1     -45.280  41.796 -32.934  1.00  0.00    -0.266 OA
HETATM    6  C3  UNL     1     -46.046  43.638 -31.815  1.00  0.00     0.122 A 
HETATM    7  C4  UNL     1     -45.377  43.268 -30.678  1.00  0.00     0.136 A 
HETATM    8  N6  UNL     1     -45.471  44.049 -29.588  1.00  0.00    -0.176 N 
ATOM      9  H6  UNL     1     -44.978  43.783 -28.736  1.00  0.00     0.186 HD
HETATM   10  C13 UNL     1     -46.209  45.182 -29.603  1.00  0.00     0.679 A 
HETATM   11  N8  UNL     1     -46.851  45.515 -30.723  1.00  0.00    -0.175 N 
ATOM     12  H8  UNL     1     -47.406  46.372 -30.721  1.00  0.00     0.186 HD
HETATM   13  C14 UNL     1     -46.812  44.799 -31.844  1.00  0.00     0.156 A 
HETATM   14  N9  UNL     1     -47.451  45.109 -32.975  1.00  0.00    -0.175 N 
ATOM     15  H9  UNL     1     -48.017  45.957 -33.017  1.00  0.00     0.186 HD
ENDROOT
BRANCH   7  16
HETATM   16  N3  UNL     1     -44.681  42.180 -30.670  1.00  0.00    -0.375 N 
ATOM     17  H3  UNL     1     -45.135  41.302 -30.917  1.00  0.00     0.161 HD
BRANCH  16  18
HETATM   18  C5  UNL     1     -43.270  42.168 -30.321  1.00  0.00     0.123 C 
BRANCH  18  19
HETATM   19  C6  UNL     1     -42.675  40.947 -30.987  1.00  0.00     0.047 C 
BRANCH  19  20
HETATM   20  C7  UNL     1     -41.575  41.342 -31.969  1.00  0.00     0.234 C 
BRANCH  20  21
HETATM   21  N4  UNL     1     -42.212  41.596 -33.217  1.00  0.00    -0.075 N 
ATOM     22  H42 UNL     1     -43.218  41.457 -33.135  1.00  0.00     0.277 HD
ATOM     23  H41 UNL     1     -42.189  42.594 -33.427  1.00  0.00     0.277 HD
BRANCH  21  24
HETATM   24  C8  UNL     1     -41.686  40.833 -34.335  1.00  0.00     0.237 C 
BRANCH  24  25
HETATM   25  C9  UNL     1     -42.947  40.326 -35.072  1.00  0.00     0.072 C 
BRANCH  25  26
HETATM   26  C10 UNL     1     -43.363  38.965 -34.631  1.00  0.00     0.062 C 
BRANCH  26  27
HETATM   27  N5  UNL     1     -44.337  38.897 -33.637  1.00  0.00    -0.380 N 
ATOM     28  H5  UNL     1     -45.112  39.559 -33.694  1.00  0.00     0.164 HD
BRANCH  27  29
HETATM   29  C11 UNL     1     -44.338  38.006 -32.582  1.00  0.00     0.086 C 
BRANCH  29  30
HETATM   30  C12 UNL     1     -43.104  37.384 -32.059  1.00  0.00     0.208 C 
BRANCH  30  31
HETATM   31  O2  UNL     1     -43.268  35.978 -32.289  1.00  0.00    -0.396 OA
ATOM     32  H2  UNL     1     -42.902  35.558 -31.520  1.00  0.00     0.209 HD
ENDBRANCH  30  31
ENDBRANCH  29  30
ENDBRANCH  27  29
ENDBRANCH  26  27
ENDBRANCH  25  26
ENDBRANCH  24  25
ENDBRANCH  21  24
ENDBRANCH  20  21
ENDBRANCH  19  20
ENDBRANCH  18  19
ENDBRANCH  16  18
ENDBRANCH   7  16
BRANCH  10  33
HETATM   33  N7  UNL     1     -46.265  45.900 -28.512  1.00  0.00    -0.234 N 
ATOM     34  H72 UNL     1     -47.070  45.893 -27.885  1.00  0.00     0.174 HD
ATOM     35  H71 UNL     1     -45.465  46.488 -28.279  1.00  0.00     0.174 HD
ENDBRANCH  10  33
BRANCH   1  36
HETATM   36  N1  UNL     1     -48.006  44.666 -35.135  1.00  0.00    -0.234 N 
ATOM     37  H12 UNL     1     -47.851  44.130 -35.988  1.00  0.00     0.174 HD
ATOM     38  H11 UNL     1     -48.649  45.457 -35.119  1.00  0.00     0.174 HD
ENDBRANCH   1  36
TORSDOF 14
ENDMDL
