MODEL 1
REMARK VINA RESULT: -6.848438307      0.000      0.000
REMARK  13 active torsions:
REMARK  status: ('A' for Active; 'I' for Inactive)
REMARK    1  A    between atoms: N1_1  and  C1_4 
REMARK    2  A    between atoms: N3_10  and  C5_12 
REMARK    3  A    between atoms: C5_12  and  C6_13 
REMARK    4  A    between atoms: C6_13  and  O1_14 
REMARK    5  A    between atoms: O1_14  and  C7_15 
REMARK    6  A    between atoms: C7_15  and  C8_16 
REMARK    7  A    between atoms: C8_16  and  N4_17 
REMARK    8  A    between atoms: N4_17  and  C9_20 
REMARK    9  A    between atoms: C9_20  and  C10_21 
REMARK   10  A    between atoms: C10_21  and  C11_22 
REMARK   11  A    between atoms: C11_22  and  N5_23 
REMARK   12  A    between atoms: N5_23  and  C12_25 
REMARK   13  A    between atoms: C14_34  and  N9_35 
ROOT
HETATM    1  N4  UNL     1     -44.447  37.933 -32.848  1.00  0.00    -0.073 N 
ATOM      2  H41 UNL     1     -45.090  37.897 -32.057  1.00  0.00     0.277 HD
ATOM      3  H42 UNL     1     -44.911  37.249 -33.445  1.00  0.00     0.277 HD
ENDROOT
BRANCH   1   4
HETATM    4  C8  UNL     1     -43.090  37.513 -32.477  1.00  0.00     0.258 C 
BRANCH   4   5
HETATM    5  C7  UNL     1     -42.819  36.136 -32.094  1.00  0.00     0.195 C 
BRANCH   5   6
HETATM    6  O1  UNL     1     -42.273  36.014 -30.847  1.00  0.00    -0.385 OA
BRANCH   6   7
HETATM    7  C6  UNL     1     -41.180  35.396 -30.459  1.00  0.00     0.212 C 
BRANCH   7   8
HETATM    8  C5  UNL     1     -41.259  33.880 -30.352  1.00  0.00     0.088 C 
BRANCH   8   9
HETATM    9  N3  UNL     1     -42.241  33.404 -29.466  1.00  0.00    -0.353 N 
HETATM   10  C4  UNL     1     -43.293  32.730 -29.744  1.00  0.00     0.121 A 
HETATM   11  C3  UNL     1     -43.623  32.370 -30.992  1.00  0.00     0.066 A 
HETATM   12  N11 UNL     1     -44.098  32.304 -28.711  1.00  0.00    -0.177 N 
HETATM   13  C2  UNL     1     -44.761  31.583 -31.239  1.00  0.00     0.110 A 
HETATM   14  N2  UNL     1     -45.565  31.161 -30.214  1.00  0.00    -0.202 N 
HETATM   15  C1  UNL     1     -45.175  31.551 -28.987  1.00  0.00     0.677 A 
ATOM     16  H2  UNL     1     -46.398  30.594 -30.370  1.00  0.00     0.183 HD
ATOM     17  H11 UNL     1     -43.879  32.557 -27.748  1.00  0.00     0.185 HD
ATOM     18  H3  UNL     1     -42.098  33.623 -28.481  1.00  0.00     0.166 HD
BRANCH  15  19
HETATM   19  N1  UNL     1     -45.907  31.122 -27.997  1.00  0.00    -0.234 N 
ATOM     20  H12 UNL     1     -46.590  31.758 -27.582  1.00  0.00     0.174 HD
ATOM     21  H11 UNL     1     -45.723  30.167 -27.690  1.00  0.00     0.174 HD
ENDBRANCH  15  19
ENDBRANCH   8   9
ENDBRANCH   7   8
ENDBRANCH   6   7
ENDBRANCH   5   6
ENDBRANCH   4   5
ENDBRANCH   1   4
BRANCH   1  22
HETATM   22  C9  UNL     1     -44.401  39.279 -33.471  1.00  0.00     0.234 C 
BRANCH  22  23
HETATM   23  C10 UNL     1     -43.394  40.107 -32.769  1.00  0.00     0.048 C 
BRANCH  23  24
HETATM   24  C11 UNL     1     -43.967  41.467 -32.434  1.00  0.00     0.139 C 
BRANCH  24  25
HETATM   25  N5  UNL     1     -45.111  41.708 -33.236  1.00  0.00    -0.225 N 
ATOM     26  H5  UNL     1     -45.723  40.953 -33.545  1.00  0.00     0.177 HD
BRANCH  25  27
HETATM   27  C12 UNL     1     -45.325  42.889 -33.539  1.00  0.00     0.707 A 
HETATM   28  N6  UNL     1     -45.545  44.038 -33.833  1.00  0.00    -0.022 N 
HETATM   29  C13 UNL     1     -46.302  45.122 -33.621  1.00  0.00     0.705 A 
ATOM     30  H6  UNL     1     -44.863  44.293 -34.548  1.00  0.00     0.203 HD
HETATM   31  N7  UNL     1     -46.156  46.208 -34.281  1.00  0.00    -0.234 N 
HETATM   32  N8  UNL     1     -47.286  44.972 -32.683  1.00  0.00    -0.022 N 
ATOM     33  H72 UNL     1     -45.422  46.319 -34.981  1.00  0.00     0.174 HD
ATOM     34  H71 UNL     1     -46.733  47.033 -34.119  1.00  0.00     0.174 HD
HETATM   35  C14 UNL     1     -47.325  43.746 -32.133  1.00  0.00     0.705 A 
ATOM     36  H8  UNL     1     -47.929  45.720 -32.424  1.00  0.00     0.203 HD
HETATM   37  N10 UNL     1     -46.545  42.796 -32.432  1.00  0.00    -0.022 N 
ATOM     38  H10 UNL     1     -46.680  41.905 -31.953  1.00  0.00     0.203 HD
BRANCH  35  39
HETATM   39  N9  UNL     1     -48.287  43.570 -31.213  1.00  0.00    -0.234 N 
ATOM     40  H92 UNL     1     -49.259  43.789 -31.434  1.00  0.00     0.174 HD
ATOM     41  H91 UNL     1     -47.960  43.220 -30.312  1.00  0.00     0.174 HD
ENDBRANCH  35  39
ENDBRANCH  25  27
ENDBRANCH  24  25
ENDBRANCH  23  24
ENDBRANCH  22  23
ENDBRANCH   1  22
TORSDOF 13
ENDMDL
MODEL 2
REMARK VINA RESULT: -6.742594574      1.769      2.797
REMARK  13 active torsions:
REMARK  status: ('A' for Active; 'I' for Inactive)
REMARK    1  A    between atoms: N1_1  and  C1_4 
REMARK    2  A    between atoms: N3_10  and  C5_12 
REMARK    3  A    between atoms: C5_12  and  C6_13 
REMARK    4  A    between atoms: C6_13  and  O1_14 
REMARK    5  A    between atoms: O1_14  and  C7_15 
REMARK    6  A    between atoms: C7_15  and  C8_16 
REMARK    7  A    between atoms: C8_16  and  N4_17 
REMARK    8  A    between atoms: N4_17  and  C9_20 
REMARK    9  A    between atoms: C9_20  and  C10_21 
REMARK   10  A    between atoms: C10_21  and  C11_22 
REMARK   11  A    between atoms: C11_22  and  N5_23 
REMARK   12  A    between atoms: N5_23  and  C12_25 
REMARK   13  A    between atoms: C14_34  and  N9_35 
ROOT
HETATM    1  N4  UNL     1     -44.876  39.715 -33.881  1.00  0.00    -0.073 N 
ATOM      2  H41 UNL     1     -45.032  40.281 -33.047  1.00  0.00     0.277 HD
ATOM      3  H42 UNL     1     -45.797  39.823 -34.307  1.00  0.00     0.277 HD
ENDROOT
BRANCH   1   4
HETATM    4  C8  UNL     1     -44.581  38.315 -33.552  1.00  0.00     0.258 C 
BRANCH   4   5
HETATM    5  C7  UNL     1     -44.144  37.945 -32.214  1.00  0.00     0.195 C 
BRANCH   5   6
HETATM    6  O1  UNL     1     -42.813  38.163 -31.995  1.00  0.00    -0.385 OA
BRANCH   6   7
HETATM    7  C6  UNL     1     -41.766  37.778 -32.690  1.00  0.00     0.212 C 
BRANCH   7   8
HETATM    8  C5  UNL     1     -41.082  36.498 -32.232  1.00  0.00     0.088 C 
BRANCH   8   9
HETATM    9  N3  UNL     1     -41.804  35.320 -32.490  1.00  0.00    -0.353 N 
HETATM   10  C4  UNL     1     -42.200  34.438 -31.651  1.00  0.00     0.121 A 
HETATM   11  C3  UNL     1     -41.959  34.520 -30.335  1.00  0.00     0.066 A 
HETATM   12  N11 UNL     1     -42.955  33.381 -32.108  1.00  0.00    -0.177 N 
HETATM   13  C2  UNL     1     -42.462  33.552 -29.448  1.00  0.00     0.110 A 
HETATM   14  N2  UNL     1     -43.210  32.499 -29.900  1.00  0.00    -0.202 N 
HETATM   15  C1  UNL     1     -43.420  32.479 -31.230  1.00  0.00     0.677 A 
ATOM     16  H2  UNL     1     -43.581  31.783 -29.277  1.00  0.00     0.183 HD
ATOM     17  H11 UNL     1     -43.160  33.286 -33.103  1.00  0.00     0.185 HD
ATOM     18  H3  UNL     1     -42.042  35.147 -33.466  1.00  0.00     0.166 HD
BRANCH  15  19
HETATM   19  N1  UNL     1     -44.166  31.505 -31.670  1.00  0.00    -0.234 N 
ATOM     20  H12 UNL     1     -44.237  30.652 -31.113  1.00  0.00     0.174 HD
ATOM     21  H11 UNL     1     -44.616  31.663 -32.572  1.00  0.00     0.174 HD
ENDBRANCH  15  19
ENDBRANCH   8   9
ENDBRANCH   7   8
ENDBRANCH   6   7
ENDBRANCH   5   6
ENDBRANCH   4   5
ENDBRANCH   1   4
BRANCH   1  22
HETATM   22  C9  UNL     1     -43.796  40.265 -34.737  1.00  0.00     0.234 C 
BRANCH  22  23
HETATM   23  C10 UNL     1     -43.120  41.370 -34.020  1.00  0.00     0.048 C 
BRANCH  23  24
HETATM   24  C11 UNL     1     -44.018  41.925 -32.937  1.00  0.00     0.139 C 
BRANCH  24  25
HETATM   25  N5  UNL     1     -44.772  43.008 -33.457  1.00  0.00    -0.225 N 
ATOM     26  H5  UNL     1     -44.486  43.511 -34.296  1.00  0.00     0.177 HD
BRANCH  25  27
HETATM   27  C12 UNL     1     -45.799  43.306 -32.832  1.00  0.00     0.707 A 
HETATM   28  N6  UNL     1     -46.802  43.605 -32.233  1.00  0.00    -0.022 N 
HETATM   29  C13 UNL     1     -48.089  43.966 -32.315  1.00  0.00     0.705 A 
ATOM     30  H6  UNL     1     -46.572  43.564 -31.240  1.00  0.00     0.203 HD
HETATM   31  N7  UNL     1     -48.797  44.241 -31.286  1.00  0.00    -0.234 N 
HETATM   32  N8  UNL     1     -48.584  44.075 -33.585  1.00  0.00    -0.022 N 
ATOM     33  H72 UNL     1     -48.427  44.160 -30.339  1.00  0.00     0.174 HD
ATOM     34  H71 UNL     1     -49.777  44.517 -31.349  1.00  0.00     0.174 HD
HETATM   35  C14 UNL     1     -47.681  43.801 -34.542  1.00  0.00     0.705 A 
ATOM     36  H8  UNL     1     -49.549  44.339 -33.787  1.00  0.00     0.203 HD
HETATM   37  N10 UNL     1     -46.478  43.474 -34.327  1.00  0.00    -0.022 N 
ATOM     38  H10 UNL     1     -45.884  43.301 -35.138  1.00  0.00     0.203 HD
BRANCH  35  39
HETATM   39  N9  UNL     1     -48.141  43.908 -35.799  1.00  0.00    -0.234 N 
ATOM     40  H92 UNL     1     -49.142  43.992 -35.978  1.00  0.00     0.174 HD
ATOM     41  H91 UNL     1     -47.421  43.889 -36.523  1.00  0.00     0.174 HD
ENDBRANCH  35  39
ENDBRANCH  25  27
ENDBRANCH  24  25
ENDBRANCH  23  24
ENDBRANCH  22  23
ENDBRANCH   1  22
TORSDOF 13
ENDMDL
MODEL 3
REMARK VINA RESULT: -6.739715076      1.639     10.676
REMARK  13 active torsions:
REMARK  status: ('A' for Active; 'I' for Inactive)
REMARK    1  A    between atoms: N1_1  and  C1_4 
REMARK    2  A    between atoms: N3_10  and  C5_12 
REMARK    3  A    between atoms: C5_12  and  C6_13 
REMARK    4  A    between atoms: C6_13  and  O1_14 
REMARK    5  A    between atoms: O1_14  and  C7_15 
REMARK    6  A    between atoms: C7_15  and  C8_16 
REMARK    7  A    between atoms: C8_16  and  N4_17 
REMARK    8  A    between atoms: N4_17  and  C9_20 
REMARK    9  A    between atoms: C9_20  and  C10_21 
REMARK   10  A    between atoms: C10_21  and  C11_22 
REMARK   11  A    between atoms: C11_22  and  N5_23 
REMARK   12  A    between atoms: N5_23  and  C12_25 
REMARK   13  A    between atoms: C14_34  and  N9_35 
ROOT
HETATM    1  N4  UNL     1     -42.695  36.689 -31.338  1.00  0.00    -0.073 N 
ATOM      2  H41 UNL     1     -43.429  36.028 -31.084  1.00  0.00     0.277 HD
ATOM      3  H42 UNL     1     -42.722  37.268 -30.499  1.00  0.00     0.277 HD
ENDROOT
BRANCH   1   4
HETATM    4  C8  UNL     1     -43.031  37.450 -32.547  1.00  0.00     0.258 C 
BRANCH   4   5
HETATM    5  C7  UNL     1     -44.371  37.981 -32.739  1.00  0.00     0.195 C 
BRANCH   5   6
HETATM    6  O1  UNL     1     -44.410  39.091 -33.535  1.00  0.00    -0.385 OA
BRANCH   6   7
HETATM    7  C6  UNL     1     -43.495  40.010 -33.752  1.00  0.00     0.212 C 
BRANCH   7   8
HETATM    8  C5  UNL     1     -43.994  41.439 -33.908  1.00  0.00     0.088 C 
BRANCH   8   9
HETATM    9  N3  UNL     1     -45.166  41.734 -33.190  1.00  0.00    -0.353 N 
HETATM   10  C4  UNL     1     -45.696  42.881 -32.983  1.00  0.00     0.121 A 
HETATM   11  C3  UNL     1     -45.170  44.024 -33.445  1.00  0.00     0.066 A 
HETATM   12  N11 UNL     1     -46.891  42.946 -32.302  1.00  0.00    -0.177 N 
HETATM   13  C2  UNL     1     -45.819  45.253 -33.236  1.00  0.00     0.110 A 
HETATM   14  N2  UNL     1     -47.005  45.320 -32.556  1.00  0.00    -0.202 N 
HETATM   15  C1  UNL     1     -47.482  44.138 -32.125  1.00  0.00     0.677 A 
ATOM     16  H2  UNL     1     -47.492  46.201 -32.388  1.00  0.00     0.183 HD
ATOM     17  H11 UNL     1     -47.322  42.097 -31.936  1.00  0.00     0.185 HD
ATOM     18  H3  UNL     1     -45.655  40.937 -32.785  1.00  0.00     0.166 HD
BRANCH  15  19
HETATM   19  N1  UNL     1     -48.632  44.180 -31.512  1.00  0.00    -0.234 N 
ATOM     20  H12 UNL     1     -49.484  44.195 -32.072  1.00  0.00     0.174 HD
ATOM     21  H11 UNL     1     -48.590  44.219 -30.494  1.00  0.00     0.174 HD
ENDBRANCH  15  19
ENDBRANCH   8   9
ENDBRANCH   7   8
ENDBRANCH   6   7
ENDBRANCH   5   6
ENDBRANCH   4   5
ENDBRANCH   1   4
BRANCH   1  22
HETATM   22  C9  UNL     1     -41.380  36.023 -31.516  1.00  0.00     0.234 C 
BRANCH  22  23
HETATM   23  C10 UNL     1     -40.785  35.753 -30.188  1.00  0.00     0.048 C 
BRANCH  23  24
HETATM   24  C11 UNL     1     -41.733  34.932 -29.340  1.00  0.00     0.139 C 
BRANCH  24  25
HETATM   25  N5  UNL     1     -41.680  33.577 -29.753  1.00  0.00    -0.225 N 
ATOM     26  H5  UNL     1     -40.812  33.138 -30.058  1.00  0.00     0.177 HD
BRANCH  25  27
HETATM   27  C12 UNL     1     -42.752  32.956 -29.722  1.00  0.00     0.707 A 
HETATM   28  N6  UNL     1     -43.798  32.357 -29.702  1.00  0.00    -0.022 N 
HETATM   29  C13 UNL     1     -44.685  31.632 -30.396  1.00  0.00     0.705 A 
ATOM     30  H6  UNL     1     -44.162  32.434 -28.753  1.00  0.00     0.203 HD
HETATM   31  N7  UNL     1     -45.780  31.208 -29.888  1.00  0.00    -0.234 N 
HETATM   32  N8  UNL     1     -44.366  31.420 -31.709  1.00  0.00    -0.022 N 
ATOM     33  H72 UNL     1     -46.018  31.367 -28.910  1.00  0.00     0.174 HD
ATOM     34  H71 UNL     1     -46.455  30.656 -30.417  1.00  0.00     0.174 HD
HETATM   35  C14 UNL     1     -43.204  31.986 -32.081  1.00  0.00     0.705 A 
ATOM     36  H8  UNL     1     -44.953  30.882 -32.346  1.00  0.00     0.203 HD
HETATM   37  N10 UNL     1     -42.454  32.661 -31.317  1.00  0.00    -0.022 N 
ATOM     38  H10 UNL     1     -41.601  33.051 -31.719  1.00  0.00     0.203 HD
BRANCH  35  39
HETATM   39  N9  UNL     1     -42.871  31.798 -33.367  1.00  0.00    -0.234 N 
ATOM     40  H92 UNL     1     -43.122  30.932 -33.845  1.00  0.00     0.174 HD
ATOM     41  H91 UNL     1     -42.359  32.570 -33.795  1.00  0.00     0.174 HD
ENDBRANCH  35  39
ENDBRANCH  25  27
ENDBRANCH  24  25
ENDBRANCH  23  24
ENDBRANCH  22  23
ENDBRANCH   1  22
TORSDOF 13
ENDMDL
MODEL 4
REMARK VINA RESULT: -6.713829493      0.838      1.672
REMARK  13 active torsions:
REMARK  status: ('A' for Active; 'I' for Inactive)
REMARK    1  A    between atoms: N1_1  and  C1_4 
REMARK    2  A    between atoms: N3_10  and  C5_12 
REMARK    3  A    between atoms: C5_12  and  C6_13 
REMARK    4  A    between atoms: C6_13  and  O1_14 
REMARK    5  A    between atoms: O1_14  and  C7_15 
REMARK    6  A    between atoms: C7_15  and  C8_16 
REMARK    7  A    between atoms: C8_16  and  N4_17 
REMARK    8  A    between atoms: N4_17  and  C9_20 
REMARK    9  A    between atoms: C9_20  and  C10_21 
REMARK   10  A    between atoms: C10_21  and  C11_22 
REMARK   11  A    between atoms: C11_22  and  N5_23 
REMARK   12  A    between atoms: N5_23  and  C12_25 
REMARK   13  A    between atoms: C14_34  and  N9_35 
ROOT
HETATM    1  N4  UNL     1     -44.171  38.425 -32.222  1.00  0.00    -0.073 N 
ATOM      2  H41 UNL     1     -44.579  38.708 -31.331  1.00  0.00     0.277 HD
ATOM      3  H42 UNL     1     -45.036  38.313 -32.751  1.00  0.00     0.277 HD
ENDROOT
BRANCH   1   4
HETATM    4  C8  UNL     1     -43.423  37.166 -32.113  1.00  0.00     0.258 C 
BRANCH   4   5
HETATM    5  C7  UNL     1     -42.135  37.126 -31.438  1.00  0.00     0.195 C 
BRANCH   5   6
HETATM    6  O1  UNL     1     -41.988  36.052 -30.607  1.00  0.00    -0.385 OA
BRANCH   6   7
HETATM    7  C6  UNL     1     -40.941  35.285 -30.393  1.00  0.00     0.212 C 
BRANCH   7   8
HETATM    8  C5  UNL     1     -41.188  33.783 -30.405  1.00  0.00     0.088 C 
BRANCH   8   9
HETATM    9  N3  UNL     1     -42.177  33.343 -29.509  1.00  0.00    -0.353 N 
HETATM   10  C4  UNL     1     -43.246  32.689 -29.774  1.00  0.00     0.121 A 
HETATM   11  C3  UNL     1     -43.588  32.318 -31.016  1.00  0.00     0.066 A 
HETATM   12  N11 UNL     1     -44.057  32.296 -28.733  1.00  0.00    -0.177 N 
HETATM   13  C2  UNL     1     -44.745  31.554 -31.248  1.00  0.00     0.110 A 
HETATM   14  N2  UNL     1     -45.555  31.166 -30.214  1.00  0.00    -0.202 N 
HETATM   15  C1  UNL     1     -45.152  31.564 -28.994  1.00  0.00     0.677 A 
ATOM     16  H2  UNL     1     -46.401  30.616 -30.359  1.00  0.00     0.183 HD
ATOM     17  H11 UNL     1     -43.828  32.558 -27.774  1.00  0.00     0.185 HD
ATOM     18  H3  UNL     1     -42.026  33.572 -28.528  1.00  0.00     0.166 HD
BRANCH  15  19
HETATM   19  N1  UNL     1     -45.890  31.167 -27.996  1.00  0.00    -0.234 N 
ATOM     20  H12 UNL     1     -45.659  31.492 -27.056  1.00  0.00     0.174 HD
ATOM     21  H11 UNL     1     -46.649  30.528 -28.233  1.00  0.00     0.174 HD
ENDBRANCH  15  19
ENDBRANCH   8   9
ENDBRANCH   7   8
ENDBRANCH   6   7
ENDBRANCH   5   6
ENDBRANCH   4   5
ENDBRANCH   1   4
BRANCH   1  22
HETATM   22  C9  UNL     1     -43.296  39.477 -32.797  1.00  0.00     0.234 C 
BRANCH  22  23
HETATM   23  C10 UNL     1     -44.088  40.320 -33.720  1.00  0.00     0.048 C 
BRANCH  23  24
HETATM   24  C11 UNL     1     -43.821  41.787 -33.459  1.00  0.00     0.139 C 
BRANCH  24  25
HETATM   25  N5  UNL     1     -44.940  42.551 -33.878  1.00  0.00    -0.225 N 
ATOM     26  H5  UNL     1     -45.020  42.916 -34.826  1.00  0.00     0.177 HD
BRANCH  25  27
HETATM   27  C12 UNL     1     -45.814  42.750 -33.023  1.00  0.00     0.707 A 
HETATM   28  N6  UNL     1     -46.666  42.956 -32.195  1.00  0.00    -0.022 N 
HETATM   29  C13 UNL     1     -47.804  43.594 -31.896  1.00  0.00     0.705 A 
ATOM     30  H6  UNL     1     -46.410  42.412 -31.371  1.00  0.00     0.203 HD
HETATM   31  N7  UNL     1     -48.360  43.515 -30.746  1.00  0.00    -0.234 N 
HETATM   32  N8  UNL     1     -48.309  44.385 -32.890  1.00  0.00    -0.022 N 
ATOM     33  H72 UNL     1     -47.984  42.925 -30.004  1.00  0.00     0.174 HD
ATOM     34  H71 UNL     1     -49.227  44.001 -30.518  1.00  0.00     0.174 HD
HETATM   35  C14 UNL     1     -47.562  44.389 -34.008  1.00  0.00     0.705 A 
ATOM     36  H8  UNL     1     -49.171  44.922 -32.793  1.00  0.00     0.203 HD
HETATM   37  N10 UNL     1     -46.488  43.737 -34.160  1.00  0.00    -0.022 N 
ATOM     38  H10 UNL     1     -46.003  43.829 -35.054  1.00  0.00     0.203 HD
BRANCH  35  39
HETATM   39  N9  UNL     1     -48.032  45.164 -34.999  1.00  0.00    -0.234 N 
ATOM     40  H92 UNL     1     -47.511  45.986 -35.302  1.00  0.00     0.174 HD
ATOM     41  H91 UNL     1     -48.925  44.864 -35.392  1.00  0.00     0.174 HD
ENDBRANCH  35  39
ENDBRANCH  25  27
ENDBRANCH  24  25
ENDBRANCH  23  24
ENDBRANCH  22  23
ENDBRANCH   1  22
TORSDOF 13
ENDMDL
MODEL 5
REMARK VINA RESULT: -6.676234485      1.341      1.382
REMARK  13 active torsions:
REMARK  status: ('A' for Active; 'I' for Inactive)
REMARK    1  A    between atoms: N1_1  and  C1_4 
REMARK    2  A    between atoms: N3_10  and  C5_12 
REMARK    3  A    between atoms: C5_12  and  C6_13 
REMARK    4  A    between atoms: C6_13  and  O1_14 
REMARK    5  A    between atoms: O1_14  and  C7_15 
REMARK    6  A    between atoms: C7_15  and  C8_16 
REMARK    7  A    between atoms: C8_16  and  N4_17 
REMARK    8  A    between atoms: N4_17  and  C9_20 
REMARK    9  A    between atoms: C9_20  and  C10_21 
REMARK   10  A    between atoms: C10_21  and  C11_22 
REMARK   11  A    between atoms: C11_22  and  N5_23 
REMARK   12  A    between atoms: N5_23  and  C12_25 
REMARK   13  A    between atoms: C14_34  and  N9_35 
ROOT
HETATM    1  N4  UNL     1     -44.368  38.940 -32.711  1.00  0.00    -0.073 N 
ATOM      2  H41 UNL     1     -45.167  39.357 -32.232  1.00  0.00     0.277 HD
ATOM      3  H42 UNL     1     -44.780  38.858 -33.640  1.00  0.00     0.277 HD
ENDROOT
BRANCH   1   4
HETATM    4  C8  UNL     1     -44.007  37.633 -32.149  1.00  0.00     0.258 C 
BRANCH   4   5
HETATM    5  C7  UNL     1     -42.668  37.094 -32.329  1.00  0.00     0.195 C 
BRANCH   5   6
HETATM    6  O1  UNL     1     -42.185  36.450 -31.225  1.00  0.00    -0.385 OA
BRANCH   6   7
HETATM    7  C6  UNL     1     -40.946  36.206 -30.861  1.00  0.00     0.212 C 
BRANCH   7   8
HETATM    8  C5  UNL     1     -40.744  35.090 -29.847  1.00  0.00     0.088 C 
BRANCH   8   9
HETATM    9  N3  UNL     1     -41.929  34.580 -29.291  1.00  0.00    -0.353 N 
HETATM   10  C4  UNL     1     -42.480  33.445 -29.511  1.00  0.00     0.121 A 
HETATM   11  C3  UNL     1     -41.971  32.538 -30.358  1.00  0.00     0.066 A 
HETATM   12  N11 UNL     1     -43.616  33.111 -28.809  1.00  0.00    -0.177 N 
HETATM   13  C2  UNL     1     -42.585  31.284 -30.525  1.00  0.00     0.110 A 
HETATM   14  N2  UNL     1     -43.716  30.952 -29.830  1.00  0.00    -0.202 N 
HETATM   15  C1  UNL     1     -44.170  31.903 -28.993  1.00  0.00     0.677 A 
ATOM     16  H2  UNL     1     -44.181  30.051 -29.939  1.00  0.00     0.183 HD
ATOM     17  H11 UNL     1     -44.031  33.775 -28.155  1.00  0.00     0.185 HD
ATOM     18  H3  UNL     1     -42.411  35.188 -28.630  1.00  0.00     0.166 HD
BRANCH  15  19
HETATM   19  N1  UNL     1     -45.224  31.586 -28.294  1.00  0.00    -0.234 N 
ATOM     20  H12 UNL     1     -45.210  31.751 -27.286  1.00  0.00     0.174 HD
ATOM     21  H11 UNL     1     -45.992  31.165 -28.815  1.00  0.00     0.174 HD
ENDBRANCH  15  19
ENDBRANCH   8   9
ENDBRANCH   7   8
ENDBRANCH   6   7
ENDBRANCH   5   6
ENDBRANCH   4   5
ENDBRANCH   1   4
BRANCH   1  22
HETATM   22  C9  UNL     1     -43.182  39.833 -32.701  1.00  0.00     0.234 C 
BRANCH  22  23
HETATM   23  C10 UNL     1     -43.547  41.137 -33.299  1.00  0.00     0.048 C 
BRANCH  23  24
HETATM   24  C11 UNL     1     -43.725  42.183 -32.220  1.00  0.00     0.139 C 
BRANCH  24  25
HETATM   25  N5  UNL     1     -45.109  42.402 -32.000  1.00  0.00    -0.225 N 
ATOM     26  H5  UNL     1     -45.543  42.240 -31.092  1.00  0.00     0.177 HD
BRANCH  25  27
HETATM   27  C12 UNL     1     -45.758  42.804 -32.975  1.00  0.00     0.707 A 
HETATM   28  N6  UNL     1     -46.401  43.191 -33.919  1.00  0.00    -0.022 N 
HETATM   29  C13 UNL     1     -47.529  43.777 -34.339  1.00  0.00     0.705 A 
ATOM     30  H6  UNL     1     -45.852  42.983 -34.752  1.00  0.00     0.203 HD
HETATM   31  N7  UNL     1     -47.799  43.950 -35.578  1.00  0.00    -0.234 N 
HETATM   32  N8  UNL     1     -48.405  44.134 -33.351  1.00  0.00    -0.022 N 
ATOM     33  H72 UNL     1     -47.146  43.684 -36.314  1.00  0.00     0.174 HD
ATOM     34  H71 UNL     1     -48.658  44.397 -35.898  1.00  0.00     0.174 HD
HETATM   35  C14 UNL     1     -47.978  43.825 -32.114  1.00  0.00     0.705 A 
ATOM     36  H8  UNL     1     -49.298  44.591 -33.536  1.00  0.00     0.203 HD
HETATM   37  N10 UNL     1     -46.879  43.257 -31.852  1.00  0.00    -0.022 N 
ATOM     38  H10 UNL     1     -46.670  43.064 -30.872  1.00  0.00     0.203 HD
BRANCH  35  39
HETATM   39  N9  UNL     1     -48.823  44.158 -31.126  1.00  0.00    -0.234 N 
ATOM     40  H92 UNL     1     -48.687  43.792 -30.184  1.00  0.00     0.174 HD
ATOM     41  H91 UNL     1     -49.584  44.780 -31.403  1.00  0.00     0.174 HD
ENDBRANCH  35  39
ENDBRANCH  25  27
ENDBRANCH  24  25
ENDBRANCH  23  24
ENDBRANCH  22  23
ENDBRANCH   1  22
TORSDOF 13
ENDMDL
