MODEL 1
REMARK VINA RESULT: -5.180010075      0.000      0.000
REMARK  2 active torsions:
REMARK  status: ('A' for Active; 'I' for Inactive)
REMARK       I    between atoms: C1_2  and  N2_4 
REMARK    1  A    between atoms: N2_4  and  N3_5 
REMARK    2  A    between atoms: N2_4  and  N4_8 
ROOT
HETATM    1  N1  UNL     1     -10.355   5.745 -26.111  1.00  0.00    -0.037 NA
HETATM    2  C1  UNL     1     -10.566   5.060 -27.329  1.00  0.00     0.368 C 
HETATM    3  O1  UNL     1     -11.725   4.746 -27.685  1.00  0.00    -0.247 OA
HETATM    4  N2  UNL     1      -9.436   4.749 -28.116  1.00  0.00    -0.149 N 
ENDROOT
BRANCH   4   5
HETATM    5  N3  UNL     1      -9.672   4.080 -29.301  1.00  0.00    -0.320 N 
ATOM      6  H32 UNL     1      -9.156   3.253 -29.602  1.00  0.00     0.179 HD
ATOM      7  H31 UNL     1     -10.412   4.451 -29.897  1.00  0.00     0.179 HD
ENDBRANCH   4   5
BRANCH   4   8
HETATM    8  N4  UNL     1      -8.167   5.122 -27.671  1.00  0.00    -0.251 N 
HETATM    9  C2  UNL     1      -7.515   6.133 -28.091  1.00  0.00     0.217 C 
HETATM   10  N5  UNL     1      -8.073   6.975 -29.082  1.00  0.00    -0.065 NA
HETATM   11  N6  UNL     1      -6.240   6.396 -27.556  1.00  0.00    -0.065 NA
ATOM     12  H4  UNL     1      -7.727   4.542 -26.955  1.00  0.00     0.191 HD
ENDBRANCH   4   8
TORSDOF 2
ENDMDL
MODEL 2
REMARK VINA RESULT: -5.170744136      1.969      3.532
REMARK  2 active torsions:
REMARK  status: ('A' for Active; 'I' for Inactive)
REMARK       I    between atoms: C1_2  and  N2_4 
REMARK    1  A    between atoms: N2_4  and  N3_5 
REMARK    2  A    between atoms: N2_4  and  N4_8 
ROOT
HETATM    1  N1  UNL     1      -7.668   6.604 -28.365  1.00  0.00    -0.037 NA
HETATM    2  C1  UNL     1      -8.029   5.240 -28.289  1.00  0.00     0.368 C 
HETATM    3  O1  UNL     1      -7.156   4.348 -28.392  1.00  0.00    -0.247 OA
HETATM    4  N2  UNL     1      -9.392   4.928 -28.094  1.00  0.00    -0.149 N 
ENDROOT
BRANCH   4   5
HETATM    5  N3  UNL     1      -9.716   3.587 -28.023  1.00  0.00    -0.320 N 
ATOM      6  H32 UNL     1      -9.029   2.833 -28.039  1.00  0.00     0.179 HD
ATOM      7  H31 UNL     1     -10.708   3.360 -27.950  1.00  0.00     0.179 HD
ENDBRANCH   4   5
BRANCH   4   8
HETATM    8  N4  UNL     1     -10.323   5.962 -27.985  1.00  0.00    -0.251 N 
HETATM    9  C2  UNL     1     -10.818   6.385 -26.890  1.00  0.00     0.217 C 
HETATM   10  N5  UNL     1     -10.430   5.800 -25.662  1.00  0.00    -0.065 NA
HETATM   11  N6  UNL     1     -11.752   7.439 -26.923  1.00  0.00    -0.065 NA
ATOM     12  H4  UNL     1     -10.631   6.413 -28.847  1.00  0.00     0.191 HD
ENDBRANCH   4   8
TORSDOF 2
ENDMDL
MODEL 3
REMARK VINA RESULT: -5.147127370      1.375      1.736
REMARK  2 active torsions:
REMARK  status: ('A' for Active; 'I' for Inactive)
REMARK       I    between atoms: C1_2  and  N2_4 
REMARK    1  A    between atoms: N2_4  and  N3_5 
REMARK    2  A    between atoms: N2_4  and  N4_8 
ROOT
HETATM    1  N1  UNL     1     -10.754   7.003 -29.095  1.00  0.00    -0.037 NA
HETATM    2  C1  UNL     1     -10.866   5.641 -28.733  1.00  0.00     0.368 C 
HETATM    3  O1  UNL     1     -11.887   4.986 -29.044  1.00  0.00    -0.247 OA
HETATM    4  N2  UNL     1      -9.798   5.059 -28.017  1.00  0.00    -0.149 N 
ENDROOT
BRANCH   4   5
HETATM    5  N3  UNL     1      -9.934   3.727 -27.676  1.00  0.00    -0.320 N 
ATOM      6  H32 UNL     1     -10.210   3.401 -26.749  1.00  0.00     0.179 HD
ATOM      7  H31 UNL     1      -9.743   3.045 -28.410  1.00  0.00     0.179 HD
ENDBRANCH   4   5
BRANCH   4   8
HETATM    8  N4  UNL     1      -8.684   5.836 -27.695  1.00  0.00    -0.251 N 
HETATM    9  C2  UNL     1      -7.479   5.536 -27.982  1.00  0.00     0.217 C 
HETATM   10  N5  UNL     1      -7.191   4.338 -28.677  1.00  0.00    -0.065 NA
HETATM   11  N6  UNL     1      -6.446   6.412 -27.597  1.00  0.00    -0.065 NA
ATOM     12  H4  UNL     1      -8.846   6.710 -27.194  1.00  0.00     0.191 HD
ENDBRANCH   4   8
TORSDOF 2
ENDMDL
MODEL 4
REMARK VINA RESULT: -5.039267935      2.299      2.812
REMARK  2 active torsions:
REMARK  status: ('A' for Active; 'I' for Inactive)
REMARK       I    between atoms: C1_2  and  N2_4 
REMARK    1  A    between atoms: N2_4  and  N3_5 
REMARK    2  A    between atoms: N2_4  and  N4_8 
ROOT
HETATM    1  N1  UNL     1     -12.691   4.457 -28.366  1.00  0.00    -0.037 NA
HETATM    2  C1  UNL     1     -11.494   4.230 -29.084  1.00  0.00     0.368 C 
HETATM    3  O1  UNL     1     -11.528   4.017 -30.318  1.00  0.00    -0.247 OA
HETATM    4  N2  UNL     1     -10.279   4.253 -28.366  1.00  0.00    -0.149 N 
ENDROOT
BRANCH   4   5
HETATM    5  N3  UNL     1      -9.126   4.028 -29.092  1.00  0.00    -0.320 N 
ATOM      6  H32 UNL     1      -8.798   4.637 -29.843  1.00  0.00     0.179 HD
ATOM      7  H31 UNL     1      -8.585   3.200 -28.847  1.00  0.00     0.179 HD
ENDBRANCH   4   5
BRANCH   4   8
HETATM    8  N4  UNL     1     -10.300   4.495 -26.991  1.00  0.00    -0.251 N 
HETATM    9  C2  UNL     1     -10.199   5.645 -26.452  1.00  0.00     0.217 C 
HETATM   10  N5  UNL     1     -10.053   6.798 -27.260  1.00  0.00    -0.065 NA
HETATM   11  N6  UNL     1     -10.235   5.749 -25.048  1.00  0.00    -0.065 NA
ATOM     12  H4  UNL     1     -10.404   3.691 -26.371  1.00  0.00     0.191 HD
ENDBRANCH   4   8
TORSDOF 2
ENDMDL
MODEL 5
REMARK VINA RESULT: -5.016742199      2.105      3.550
REMARK  2 active torsions:
REMARK  status: ('A' for Active; 'I' for Inactive)
REMARK       I    between atoms: C1_2  and  N2_4 
REMARK    1  A    between atoms: N2_4  and  N3_5 
REMARK    2  A    between atoms: N2_4  and  N4_8 
ROOT
HETATM    1  N1  UNL     1      -7.768   6.512 -28.175  1.00  0.00    -0.037 NA
HETATM    2  C1  UNL     1      -8.247   5.183 -28.234  1.00  0.00     0.368 C 
HETATM    3  O1  UNL     1      -7.569   4.291 -28.795  1.00  0.00    -0.247 OA
HETATM    4  N2  UNL     1      -9.500   4.906 -27.647  1.00  0.00    -0.149 N 
ENDROOT
BRANCH   4   5
HETATM    5  N3  UNL     1      -9.943   3.600 -27.719  1.00  0.00    -0.320 N 
ATOM      6  H32 UNL     1     -10.321   3.082 -26.926  1.00  0.00     0.179 HD
ATOM      7  H31 UNL     1      -9.881   3.146 -28.630  1.00  0.00     0.179 HD
ENDBRANCH   4   5
BRANCH   4   8
HETATM    8  N4  UNL     1     -10.214   5.939 -27.035  1.00  0.00    -0.251 N 
HETATM    9  C2  UNL     1     -11.390   6.304 -27.361  1.00  0.00     0.217 C 
HETATM   10  N5  UNL     1     -12.073   5.648 -28.412  1.00  0.00    -0.065 NA
HETATM   11  N6  UNL     1     -11.997   7.364 -26.660  1.00  0.00    -0.065 NA
ATOM     12  H4  UNL     1      -9.759   6.439 -26.271  1.00  0.00     0.191 HD
ENDBRANCH   4   8
TORSDOF 2
ENDMDL
