MODEL 1
REMARK VINA RESULT: -5.885073457      0.000      0.000
REMARK  0 active torsions:
REMARK  status: ('A' for Active; 'I' for Inactive)
ROOT
HETATM    1  O1  UNL     1      -6.542   6.054 -27.945  1.00  0.00    -0.245 OA
HETATM    2  C1  UNL     1      -7.665   5.512 -28.095  1.00  0.00     0.341 A 
HETATM    3  N1  UNL     1      -7.813   4.541 -29.016  1.00  0.00    -0.248 N 
ATOM      4  H1  UNL     1      -7.029   4.238 -29.595  1.00  0.00     0.192 HD
HETATM    5  N2  UNL     1      -9.013   3.992 -29.145  1.00  0.00    -0.258 N 
ATOM      6  H2  UNL     1      -9.140   3.256 -29.839  1.00  0.00     0.190 HD
HETATM    7  C2  UNL     1     -10.066   4.363 -28.404  1.00  0.00     0.328 A 
HETATM    8  O2  UNL     1     -11.214   3.860 -28.506  1.00  0.00    -0.261 OA
HETATM    9  C3  UNL     1      -9.903   5.359 -27.462  1.00  0.00     0.319 A 
HETATM   10  O3  UNL     1     -10.877   5.739 -26.738  1.00  0.00    -0.262 OA
HETATM   11  N3  UNL     1      -8.688   5.925 -27.321  1.00  0.00    -0.270 N 
ATOM     12  H3  UNL     1      -8.544   6.663 -26.631  1.00  0.00     0.174 HD
ENDROOT
TORSDOF 0
ENDMDL
MODEL 2
REMARK VINA RESULT: -5.864526863      1.361      3.075
REMARK  0 active torsions:
REMARK  status: ('A' for Active; 'I' for Inactive)
ROOT
HETATM    1  O1  UNL     1     -11.768   3.497 -29.439  1.00  0.00    -0.245 OA
HETATM    2  C1  UNL     1     -10.828   4.223 -29.030  1.00  0.00     0.341 A 
HETATM    3  N1  UNL     1      -9.563   3.926 -29.385  1.00  0.00    -0.248 N 
ATOM      4  H1  UNL     1      -9.355   3.124 -29.978  1.00  0.00     0.192 HD
HETATM    5  N2  UNL     1      -8.597   4.716 -28.934  1.00  0.00    -0.258 N 
ATOM      6  H2  UNL     1      -7.634   4.504 -29.194  1.00  0.00     0.190 HD
HETATM    7  C2  UNL     1      -8.831   5.779 -28.152  1.00  0.00     0.328 A 
HETATM    8  O2  UNL     1      -7.935   6.542 -27.712  1.00  0.00    -0.261 OA
HETATM    9  C3  UNL     1     -10.133   6.073 -27.796  1.00  0.00     0.319 A 
HETATM   10  O3  UNL     1     -10.397   7.073 -27.057  1.00  0.00    -0.262 OA
HETATM   11  N3  UNL     1     -11.123   5.278 -28.248  1.00  0.00    -0.270 N 
ATOM     12  H3  UNL     1     -12.092   5.476 -27.997  1.00  0.00     0.174 HD
ENDROOT
TORSDOF 0
ENDMDL
MODEL 3
REMARK VINA RESULT: -5.783445742      1.000      1.000
REMARK  0 active torsions:
REMARK  status: ('A' for Active; 'I' for Inactive)
ROOT
HETATM    1  O1  UNL     1      -7.636   6.567 -27.745  1.00  0.00    -0.245 OA
HETATM    2  C1  UNL     1      -8.610   5.854 -28.093  1.00  0.00     0.341 A 
HETATM    3  N1  UNL     1      -8.409   4.834 -28.950  1.00  0.00    -0.248 N 
ATOM      4  H1  UNL     1      -7.481   4.630 -29.321  1.00  0.00     0.192 HD
HETATM    5  N2  UNL     1      -9.461   4.104 -29.295  1.00  0.00    -0.258 N 
ATOM      6  H2  UNL     1      -9.325   3.328 -29.943  1.00  0.00     0.190 HD
HETATM    7  C2  UNL     1     -10.696   4.340 -28.829  1.00  0.00     0.328 A 
HETATM    8  O2  UNL     1     -11.709   3.664 -29.139  1.00  0.00    -0.261 OA
HETATM    9  C3  UNL     1     -10.889   5.388 -27.950  1.00  0.00     0.319 A 
HETATM   10  O3  UNL     1     -12.044   5.645 -27.485  1.00  0.00    -0.262 OA
HETATM   11  N3  UNL     1      -9.828   6.138 -27.592  1.00  0.00    -0.270 N 
ATOM     12  H3  UNL     1      -9.947   6.917 -26.945  1.00  0.00     0.174 HD
ENDROOT
TORSDOF 0
ENDMDL
MODEL 4
REMARK VINA RESULT: -5.677501310      1.394      2.354
REMARK  0 active torsions:
REMARK  status: ('A' for Active; 'I' for Inactive)
ROOT
HETATM    1  O1  UNL     1      -7.315   4.021 -28.649  1.00  0.00    -0.245 OA
HETATM    2  C1  UNL     1      -8.445   4.543 -28.476  1.00  0.00     0.341 A 
HETATM    3  N1  UNL     1      -8.582   5.541 -27.582  1.00  0.00    -0.248 N 
ATOM      4  H1  UNL     1      -7.786   5.881 -27.043  1.00  0.00     0.192 HD
HETATM    5  N2  UNL     1      -9.790   6.065 -27.426  1.00  0.00    -0.258 N 
ATOM      6  H2  UNL     1      -9.910   6.822 -26.753  1.00  0.00     0.190 HD
HETATM    7  C2  UNL     1     -10.860   5.646 -28.116  1.00  0.00     0.328 A 
HETATM    8  O2  UNL     1     -12.015   6.125 -27.987  1.00  0.00    -0.261 OA
HETATM    9  C3  UNL     1     -10.707   4.622 -29.030  1.00  0.00     0.319 A 
HETATM   10  O3  UNL     1     -11.697   4.196 -29.704  1.00  0.00    -0.262 OA
HETATM   11  N3  UNL     1      -9.485   4.080 -29.197  1.00  0.00    -0.270 N 
ATOM     12  H3  UNL     1      -9.348   3.323 -29.867  1.00  0.00     0.174 HD
ENDROOT
TORSDOF 0
ENDMDL
MODEL 5
REMARK VINA RESULT: -5.628889092      1.857      3.294
REMARK  0 active torsions:
REMARK  status: ('A' for Active; 'I' for Inactive)
ROOT
HETATM    1  O1  UNL     1     -12.898   5.092 -29.835  1.00  0.00    -0.245 OA
HETATM    2  C1  UNL     1     -11.708   4.979 -29.450  1.00  0.00     0.341 A 
HETATM    3  N1  UNL     1     -10.905   4.074 -30.042  1.00  0.00    -0.248 N 
ATOM      4  H1  UNL     1     -11.246   3.478 -30.796  1.00  0.00     0.192 HD
HETATM    5  N2  UNL     1      -9.655   3.984 -29.608  1.00  0.00    -0.258 N 
ATOM      6  H2  UNL     1      -9.035   3.303 -30.047  1.00  0.00     0.190 HD
HETATM    7  C2  UNL     1      -9.171   4.749 -28.620  1.00  0.00     0.328 A 
HETATM    8  O2  UNL     1      -7.991   4.683 -28.191  1.00  0.00    -0.261 OA
HETATM    9  C3  UNL     1     -10.003   5.674 -28.022  1.00  0.00     0.319 A 
HETATM   10  O3  UNL     1      -9.581   6.419 -27.082  1.00  0.00    -0.262 OA
HETATM   11  N3  UNL     1     -11.276   5.775 -28.453  1.00  0.00    -0.270 N 
ATOM     12  H3  UNL     1     -11.909   6.451 -28.025  1.00  0.00     0.174 HD
ENDROOT
TORSDOF 0
ENDMDL
