MODEL 1
REMARK VINA RESULT: -8.355022216      0.000      0.000
REMARK  13 active torsions:
REMARK  status: ('A' for Active; 'I' for Inactive)
REMARK    1  A    between atoms: C5_5  and  C6_6 
REMARK    2  A    between atoms: C6_6  and  C7_7 
REMARK    3  A    between atoms: C7_7  and  O1_8 
REMARK    4  A    between atoms: C7_7  and  C15_16 
REMARK    5  A    between atoms: O1_8  and  C8_9 
REMARK    6  A    between atoms: C8_9  and  C9_10 
REMARK    7  A    between atoms: C16_19  and  C17_20 
REMARK    8  A    between atoms: C17_20  and  S1_21 
REMARK    9  A    between atoms: S1_21  and  C18_22 
REMARK   10  A    between atoms: C18_22  and  O4_23 
REMARK   11  A    between atoms: N1_25  and  O5_27 
REMARK   12  A    between atoms: C19_29  and  O6_30 
REMARK   13  A    between atoms: C20_32  and  O7_33 
ROOT
HETATM    1  C15 UNL     1      65.847  37.898  24.263  1.00  0.00     0.220 C 
HETATM    2  O2  UNL     1      67.100  38.478  24.137  1.00  0.00    -0.230 OA
HETATM    3  O3  UNL     1      67.306  39.494  24.915  1.00  0.00    -0.232 OA
HETATM    4  C16 UNL     1      67.502  39.135  26.243  1.00  0.00     0.201 C 
HETATM    5  C19 UNL     1      66.277  38.379  26.697  1.00  0.00     0.182 C 
HETATM    6  C20 UNL     1      65.270  38.448  25.563  1.00  0.00     0.184 C 
ENDROOT
BRANCH   1   7
HETATM    7  C7  UNL     1      65.899  36.422  24.352  1.00  0.00     0.162 C 
BRANCH   7   8
HETATM    8  C6  UNL     1      65.986  35.668  23.060  1.00  0.00     0.100 C 
BRANCH   8   9
HETATM    9  C5  UNL     1      65.976  36.473  21.828  1.00  0.00     0.056 A 
HETATM   10  C4  UNL     1      64.874  36.864  21.064  1.00  0.00     0.035 A 
HETATM   11  C3  UNL     1      65.356  37.598  20.012  1.00  0.00     0.035 A 
HETATM   12  C2  UNL     1      66.724  37.640  20.154  1.00  0.00     0.049 A 
HETATM   13  C1  UNL     1      67.664  38.352  19.206  1.00  0.00     0.076 C 
HETATM   14  O8  UNL     1      67.024  36.974  21.218  1.00  0.00    -0.320 OA
ENDBRANCH   8   9
ENDBRANCH   7   8
BRANCH   7  15
HETATM   15  O1  UNL     1      64.721  35.972  24.980  1.00  0.00    -0.378 OA
BRANCH  15  16
HETATM   16  C8  UNL     1      64.263  34.767  24.524  1.00  0.00     0.207 C 
BRANCH  16  17
HETATM   17  C9  UNL     1      64.142  33.881  25.738  1.00  0.00    -0.035 A 
HETATM   18  C10 UNL     1      62.962  33.607  26.353  1.00  0.00     0.009 A 
HETATM   19  C11 UNL     1      62.970  32.778  27.465  1.00  0.00     0.001 A 
HETATM   20  C12 UNL     1      64.129  32.224  27.967  1.00  0.00     0.000 A 
HETATM   21  C13 UNL     1      65.314  32.521  27.320  1.00  0.00     0.001 A 
HETATM   22  C14 UNL     1      65.322  33.346  26.212  1.00  0.00     0.009 A 
ENDBRANCH  16  17
ENDBRANCH  15  16
ENDBRANCH   7  15
ENDBRANCH   1   7
BRANCH   6  23
HETATM   23  O7  UNL     1      64.867  39.786  25.364  1.00  0.00    -0.390 OA
ATOM     24  H7  UNL     1      64.956  40.264  26.180  1.00  0.00     0.210 HD
ENDBRANCH   6  23
BRANCH   5  25
HETATM   25  O6  UNL     1      65.671  38.989  27.797  1.00  0.00    -0.390 OA
ATOM     26  H6  UNL     1      65.823  38.501  28.598  1.00  0.00     0.210 HD
ENDBRANCH   5  25
BRANCH   4  27
HETATM   27  C17 UNL     1      67.642  40.365  27.105  1.00  0.00     0.120 C 
BRANCH  27  28
HETATM   28  S1  UNL     1      69.078  40.245  28.208  1.00  0.00    -0.082 SA
BRANCH  28  29
HETATM   29  C18 UNL     1      68.751  39.006  29.452  1.00  0.00     0.199 C 
HETATM   30  N1  UNL     1      69.208  37.814  29.314  1.00  0.00    -0.242 N 
ATOM     31  H1  UNL     1      69.757  37.602  28.480  1.00  0.00     0.197 HD
BRANCH  29  32
HETATM   32  O4  UNL     1      68.005  39.298  30.584  1.00  0.00    -0.340 OA
ATOM     33  H4  UNL     1      68.223  38.925  31.430  1.00  0.00     0.220 HD
ENDBRANCH  29  32
BRANCH  30  34
HETATM   34  O5  UNL     1      69.003  36.816  30.217  1.00  0.00    -0.287 OA
ATOM     35  H5  UNL     1      68.415  36.083  30.069  1.00  0.00     0.244 HD
ENDBRANCH  30  34
ENDBRANCH  28  29
ENDBRANCH  27  28
ENDBRANCH   4  27
TORSDOF 13
ENDMDL
MODEL 2
REMARK VINA RESULT: -8.044780409      2.232      4.684
REMARK  13 active torsions:
REMARK  status: ('A' for Active; 'I' for Inactive)
REMARK    1  A    between atoms: C5_5  and  C6_6 
REMARK    2  A    between atoms: C6_6  and  C7_7 
REMARK    3  A    between atoms: C7_7  and  O1_8 
REMARK    4  A    between atoms: C7_7  and  C15_16 
REMARK    5  A    between atoms: O1_8  and  C8_9 
REMARK    6  A    between atoms: C8_9  and  C9_10 
REMARK    7  A    between atoms: C16_19  and  C17_20 
REMARK    8  A    between atoms: C17_20  and  S1_21 
REMARK    9  A    between atoms: S1_21  and  C18_22 
REMARK   10  A    between atoms: C18_22  and  O4_23 
REMARK   11  A    between atoms: N1_25  and  O5_27 
REMARK   12  A    between atoms: C19_29  and  O6_30 
REMARK   13  A    between atoms: C20_32  and  O7_33 
ROOT
HETATM    1  C15 UNL     1      68.447  37.611  26.221  1.00  0.00     0.220 C 
HETATM    2  O2  UNL     1      69.034  37.726  27.473  1.00  0.00    -0.230 OA
HETATM    3  O3  UNL     1      69.048  38.929  27.954  1.00  0.00    -0.232 OA
HETATM    4  C16 UNL     1      67.801  39.356  28.396  1.00  0.00     0.201 C 
HETATM    5  C19 UNL     1      66.852  39.281  27.225  1.00  0.00     0.182 C 
HETATM    6  C20 UNL     1      67.681  38.912  26.008  1.00  0.00     0.184 C 
ENDROOT
BRANCH   1   7
HETATM    7  C7  UNL     1      67.499  36.479  26.130  1.00  0.00     0.162 C 
BRANCH   7   8
HETATM    8  C6  UNL     1      68.088  35.119  25.911  1.00  0.00     0.100 C 
BRANCH   8   9
HETATM    9  C5  UNL     1      67.160  33.980  25.990  1.00  0.00     0.056 A 
HETATM   10  C4  UNL     1      67.132  32.835  25.191  1.00  0.00     0.035 A 
HETATM   11  C3  UNL     1      66.094  32.059  25.638  1.00  0.00     0.035 A 
HETATM   12  C2  UNL     1      65.518  32.739  26.687  1.00  0.00     0.049 A 
HETATM   13  C1  UNL     1      64.329  32.242  27.481  1.00  0.00     0.076 C 
HETATM   14  O8  UNL     1      66.174  33.838  26.844  1.00  0.00    -0.320 OA
ENDBRANCH   8   9
ENDBRANCH   7   8
BRANCH   7  15
HETATM   15  O1  UNL     1      66.640  36.705  25.036  1.00  0.00    -0.378 OA
BRANCH  15  16
HETATM   16  C8  UNL     1      65.311  36.733  25.357  1.00  0.00     0.207 C 
BRANCH  16  17
HETATM   17  C9  UNL     1      64.588  36.098  24.196  1.00  0.00    -0.035 A 
HETATM   18  C10 UNL     1      63.916  34.921  24.283  1.00  0.00     0.009 A 
HETATM   19  C11 UNL     1      63.288  34.430  23.149  1.00  0.00     0.001 A 
HETATM   20  C12 UNL     1      63.321  35.094  21.939  1.00  0.00     0.000 A 
HETATM   21  C13 UNL     1      64.012  36.289  21.882  1.00  0.00     0.001 A 
HETATM   22  C14 UNL     1      64.644  36.789  23.003  1.00  0.00     0.009 A 
ENDBRANCH  16  17
ENDBRANCH  15  16
ENDBRANCH   7  15
ENDBRANCH   1   7
BRANCH   6  23
HETATM   23  O7  UNL     1      68.594  39.948  25.720  1.00  0.00    -0.390 OA
ATOM     24  H7  UNL     1      68.163  40.787  25.835  1.00  0.00     0.210 HD
ENDBRANCH   6  23
BRANCH   5  25
HETATM   25  O6  UNL     1      66.277  40.522  26.946  1.00  0.00    -0.390 OA
ATOM     26  H6  UNL     1      66.545  40.851  26.095  1.00  0.00     0.210 HD
ENDBRANCH   5  25
BRANCH   4  27
HETATM   27  C17 UNL     1      67.869  40.791  28.856  1.00  0.00     0.120 C 
BRANCH  27  28
HETATM   28  S1  UNL     1      67.881  40.910  30.666  1.00  0.00    -0.082 SA
BRANCH  28  29
HETATM   29  C18 UNL     1      66.663  39.785  31.329  1.00  0.00     0.199 C 
HETATM   30  N1  UNL     1      66.988  38.946  32.245  1.00  0.00    -0.242 N 
ATOM     31  H1  UNL     1      67.952  38.944  32.577  1.00  0.00     0.197 HD
BRANCH  29  32
HETATM   32  O4  UNL     1      65.352  39.791  30.875  1.00  0.00    -0.340 OA
ATOM     33  H4  UNL     1      64.727  39.134  31.160  1.00  0.00     0.220 HD
ENDBRANCH  29  32
BRANCH  30  34
HETATM   34  O5  UNL     1      66.117  38.058  32.800  1.00  0.00    -0.287 OA
ATOM     35  H5  UNL     1      65.829  38.098  33.705  1.00  0.00     0.244 HD
ENDBRANCH  30  34
ENDBRANCH  28  29
ENDBRANCH  27  28
ENDBRANCH   4  27
TORSDOF 13
ENDMDL
MODEL 3
REMARK VINA RESULT: -8.031525172      1.395      1.852
REMARK  13 active torsions:
REMARK  status: ('A' for Active; 'I' for Inactive)
REMARK    1  A    between atoms: C5_5  and  C6_6 
REMARK    2  A    between atoms: C6_6  and  C7_7 
REMARK    3  A    between atoms: C7_7  and  O1_8 
REMARK    4  A    between atoms: C7_7  and  C15_16 
REMARK    5  A    between atoms: O1_8  and  C8_9 
REMARK    6  A    between atoms: C8_9  and  C9_10 
REMARK    7  A    between atoms: C16_19  and  C17_20 
REMARK    8  A    between atoms: C17_20  and  S1_21 
REMARK    9  A    between atoms: S1_21  and  C18_22 
REMARK   10  A    between atoms: C18_22  and  O4_23 
REMARK   11  A    between atoms: N1_25  and  O5_27 
REMARK   12  A    between atoms: C19_29  and  O6_30 
REMARK   13  A    between atoms: C20_32  and  O7_33 
ROOT
HETATM    1  C15 UNL     1      64.901  36.995  24.841  1.00  0.00     0.220 C 
HETATM    2  O2  UNL     1      65.031  38.364  24.659  1.00  0.00    -0.230 OA
HETATM    3  O3  UNL     1      66.067  38.889  25.233  1.00  0.00    -0.232 OA
HETATM    4  C16 UNL     1      67.260  38.595  24.584  1.00  0.00     0.201 C 
HETATM    5  C19 UNL     1      67.400  37.092  24.545  1.00  0.00     0.182 C 
HETATM    6  C20 UNL     1      66.254  36.522  25.361  1.00  0.00     0.184 C 
ENDROOT
BRANCH   1   7
HETATM    7  C7  UNL     1      64.593  36.272  23.588  1.00  0.00     0.162 C 
BRANCH   7   8
HETATM    8  C6  UNL     1      64.146  37.099  22.421  1.00  0.00     0.100 C 
BRANCH   8   9
HETATM    9  C5  UNL     1      65.143  37.340  21.366  1.00  0.00     0.056 A 
HETATM   10  C4  UNL     1      66.407  36.763  21.228  1.00  0.00     0.035 A 
HETATM   11  C3  UNL     1      66.969  37.295  20.097  1.00  0.00     0.035 A 
HETATM   12  C2  UNL     1      66.048  38.174  19.575  1.00  0.00     0.049 A 
HETATM   13  C1  UNL     1      66.257  38.989  18.317  1.00  0.00     0.076 C 
HETATM   14  O8  UNL     1      65.016  38.159  20.349  1.00  0.00    -0.320 OA
ENDBRANCH   8   9
ENDBRANCH   7   8
BRANCH   7  15
HETATM   15  O1  UNL     1      63.541  35.369  23.842  1.00  0.00    -0.378 OA
BRANCH  15  16
HETATM   16  C8  UNL     1      63.884  34.051  23.709  1.00  0.00     0.207 C 
BRANCH  16  17
HETATM   17  C9  UNL     1      63.966  33.499  25.110  1.00  0.00    -0.035 A 
HETATM   18  C10 UNL     1      62.940  33.552  25.999  1.00  0.00     0.009 A 
HETATM   19  C11 UNL     1      63.129  33.012  27.262  1.00  0.00     0.001 A 
HETATM   20  C12 UNL     1      64.317  32.424  27.646  1.00  0.00     0.000 A 
HETATM   21  C13 UNL     1      65.342  32.385  26.719  1.00  0.00     0.001 A 
HETATM   22  C14 UNL     1      65.169  32.920  25.458  1.00  0.00     0.009 A 
ENDBRANCH  16  17
ENDBRANCH  15  16
ENDBRANCH   7  15
ENDBRANCH   1   7
BRANCH   6  23
HETATM   23  O7  UNL     1      66.393  36.904  26.712  1.00  0.00    -0.390 OA
ATOM     24  H7  UNL     1      66.496  36.127  27.249  1.00  0.00     0.210 HD
ENDBRANCH   6  23
BRANCH   5  25
HETATM   25  O6  UNL     1      68.574  36.666  25.168  1.00  0.00    -0.390 OA
ATOM     26  H6  UNL     1      69.317  36.697  24.577  1.00  0.00     0.210 HD
ENDBRANCH   5  25
BRANCH   4  27
HETATM   27  C17 UNL     1      68.430  39.157  25.353  1.00  0.00     0.120 C 
BRANCH  27  28
HETATM   28  S1  UNL     1      67.886  40.021  26.853  1.00  0.00    -0.082 SA
BRANCH  28  29
HETATM   29  C18 UNL     1      68.331  39.043  28.279  1.00  0.00     0.199 C 
HETATM   30  N1  UNL     1      68.841  37.874  28.128  1.00  0.00    -0.242 N 
ATOM     31  H1  UNL     1      68.980  37.528  27.179  1.00  0.00     0.197 HD
BRANCH  29  32
HETATM   32  O4  UNL     1      68.141  39.518  29.568  1.00  0.00    -0.340 OA
ATOM     33  H4  UNL     1      68.662  39.197  30.296  1.00  0.00     0.220 HD
ENDBRANCH  29  32
BRANCH  30  34
HETATM   34  O5  UNL     1      69.206  37.069  29.164  1.00  0.00    -0.287 OA
ATOM     35  H5  UNL     1      69.840  37.319  29.828  1.00  0.00     0.244 HD
ENDBRANCH  30  34
ENDBRANCH  28  29
ENDBRANCH  27  28
ENDBRANCH   4  27
TORSDOF 13
ENDMDL
MODEL 4
REMARK VINA RESULT: -8.019162337      1.370      5.597
REMARK  13 active torsions:
REMARK  status: ('A' for Active; 'I' for Inactive)
REMARK    1  A    between atoms: C5_5  and  C6_6 
REMARK    2  A    between atoms: C6_6  and  C7_7 
REMARK    3  A    between atoms: C7_7  and  O1_8 
REMARK    4  A    between atoms: C7_7  and  C15_16 
REMARK    5  A    between atoms: O1_8  and  C8_9 
REMARK    6  A    between atoms: C8_9  and  C9_10 
REMARK    7  A    between atoms: C16_19  and  C17_20 
REMARK    8  A    between atoms: C17_20  and  S1_21 
REMARK    9  A    between atoms: S1_21  and  C18_22 
REMARK   10  A    between atoms: C18_22  and  O4_23 
REMARK   11  A    between atoms: N1_25  and  O5_27 
REMARK   12  A    between atoms: C19_29  and  O6_30 
REMARK   13  A    between atoms: C20_32  and  O7_33 
ROOT
HETATM    1  C15 UNL     1      66.397  36.515  24.632  1.00  0.00     0.220 C 
HETATM    2  O2  UNL     1      66.551  36.483  26.010  1.00  0.00    -0.230 OA
HETATM    3  O3  UNL     1      67.490  37.250  26.467  1.00  0.00    -0.232 OA
HETATM    4  C16 UNL     1      67.155  38.598  26.442  1.00  0.00     0.201 C 
HETATM    5  C19 UNL     1      66.842  38.965  25.012  1.00  0.00     0.182 C 
HETATM    6  C20 UNL     1      67.164  37.747  24.164  1.00  0.00     0.184 C 
ENDROOT
BRANCH   1   7
HETATM    7  C7  UNL     1      64.985  36.645  24.211  1.00  0.00     0.162 C 
BRANCH   7   8
HETATM    8  C6  UNL     1      64.257  35.377  23.882  1.00  0.00     0.100 C 
BRANCH   8   9
HETATM    9  C5  UNL     1      63.956  34.480  25.008  1.00  0.00     0.056 A 
HETATM   10  C4  UNL     1      62.708  34.165  25.549  1.00  0.00     0.035 A 
HETATM   11  C3  UNL     1      62.926  33.292  26.582  1.00  0.00     0.035 A 
HETATM   12  C2  UNL     1      64.286  33.094  26.649  1.00  0.00     0.049 A 
HETATM   13  C1  UNL     1      64.973  32.195  27.654  1.00  0.00     0.076 C 
HETATM   14  O8  UNL     1      64.828  33.804  25.719  1.00  0.00    -0.320 OA
ENDBRANCH   8   9
ENDBRANCH   7   8
BRANCH   7  15
HETATM   15  O1  UNL     1      64.939  37.428  23.041  1.00  0.00    -0.378 OA
BRANCH  15  16
HETATM   16  C8  UNL     1      64.655  36.727  21.902  1.00  0.00     0.207 C 
BRANCH  16  17
HETATM   17  C9  UNL     1      65.479  37.357  20.808  1.00  0.00    -0.035 A 
HETATM   18  C10 UNL     1      66.814  37.152  20.661  1.00  0.00     0.009 A 
HETATM   19  C11 UNL     1      67.471  37.785  19.617  1.00  0.00     0.001 A 
HETATM   20  C12 UNL     1      66.820  38.613  18.725  1.00  0.00     0.000 A 
HETATM   21  C13 UNL     1      65.462  38.801  18.901  1.00  0.00     0.001 A 
HETATM   22  C14 UNL     1      64.794  38.178  19.936  1.00  0.00     0.009 A 
ENDBRANCH  16  17
ENDBRANCH  15  16
ENDBRANCH   7  15
ENDBRANCH   1   7
BRANCH   6  23
HETATM   23  O7  UNL     1      68.549  37.482  24.217  1.00  0.00    -0.390 OA
ATOM     24  H7  UNL     1      68.920  37.906  24.982  1.00  0.00     0.210 HD
ENDBRANCH   6  23
BRANCH   5  25
HETATM   25  O6  UNL     1      67.664  39.993  24.549  1.00  0.00    -0.390 OA
ATOM     26  H6  UNL     1      68.544  39.684  24.364  1.00  0.00     0.210 HD
ENDBRANCH   5  25
BRANCH   4  27
HETATM   27  C17 UNL     1      68.322  39.439  26.898  1.00  0.00     0.120 C 
BRANCH  27  28
HETATM   28  S1  UNL     1      68.175  39.887  28.650  1.00  0.00    -0.082 SA
BRANCH  28  29
HETATM   29  C18 UNL     1      68.717  38.510  29.649  1.00  0.00     0.199 C 
HETATM   30  N1  UNL     1      69.181  37.450  29.091  1.00  0.00    -0.242 N 
ATOM     31  H1  UNL     1      69.228  37.422  28.073  1.00  0.00     0.197 HD
BRANCH  29  32
HETATM   32  O4  UNL     1      68.652  38.552  31.033  1.00  0.00    -0.340 OA
ATOM     33  H4  UNL     1      67.945  38.130  31.509  1.00  0.00     0.220 HD
ENDBRANCH  29  32
BRANCH  30  34
HETATM   34  O5  UNL     1      69.614  36.360  29.783  1.00  0.00    -0.287 OA
ATOM     35  H5  UNL     1      69.743  35.504  29.392  1.00  0.00     0.244 HD
ENDBRANCH  30  34
ENDBRANCH  28  29
ENDBRANCH  27  28
ENDBRANCH   4  27
TORSDOF 13
ENDMDL
MODEL 5
REMARK VINA RESULT: -8.005933716      3.748      6.596
REMARK  13 active torsions:
REMARK  status: ('A' for Active; 'I' for Inactive)
REMARK    1  A    between atoms: C5_5  and  C6_6 
REMARK    2  A    between atoms: C6_6  and  C7_7 
REMARK    3  A    between atoms: C7_7  and  O1_8 
REMARK    4  A    between atoms: C7_7  and  C15_16 
REMARK    5  A    between atoms: O1_8  and  C8_9 
REMARK    6  A    between atoms: C8_9  and  C9_10 
REMARK    7  A    between atoms: C16_19  and  C17_20 
REMARK    8  A    between atoms: C17_20  and  S1_21 
REMARK    9  A    between atoms: S1_21  and  C18_22 
REMARK   10  A    between atoms: C18_22  and  O4_23 
REMARK   11  A    between atoms: N1_25  and  O5_27 
REMARK   12  A    between atoms: C19_29  and  O6_30 
REMARK   13  A    between atoms: C20_32  and  O7_33 
ROOT
HETATM    1  C15 UNL     1      67.067  38.201  25.094  1.00  0.00     0.220 C 
HETATM    2  O2  UNL     1      65.770  38.469  24.683  1.00  0.00    -0.230 OA
HETATM    3  O3  UNL     1      65.373  37.780  23.661  1.00  0.00    -0.232 OA
HETATM    4  C16 UNL     1      65.101  36.452  23.968  1.00  0.00     0.201 C 
HETATM    5  C19 UNL     1      66.361  35.848  24.539  1.00  0.00     0.182 C 
HETATM    6  C20 UNL     1      67.451  36.895  24.405  1.00  0.00     0.184 C 
ENDROOT
BRANCH   1   7
HETATM    7  C7  UNL     1      67.185  38.020  26.557  1.00  0.00     0.162 C 
BRANCH   7   8
HETATM    8  C6  UNL     1      67.918  39.086  27.314  1.00  0.00     0.100 C 
BRANCH   8   9
HETATM    9  C5  UNL     1      67.813  40.455  26.788  1.00  0.00     0.056 A 
HETATM   10  C4  UNL     1      68.834  41.264  26.283  1.00  0.00     0.035 A 
HETATM   11  C3  UNL     1      68.259  42.452  25.914  1.00  0.00     0.035 A 
HETATM   12  C2  UNL     1      66.917  42.345  26.197  1.00  0.00     0.049 A 
HETATM   13  C1  UNL     1      65.898  43.435  25.947  1.00  0.00     0.076 C 
HETATM   14  O8  UNL     1      66.719  41.173  26.700  1.00  0.00    -0.320 OA
ENDBRANCH   8   9
ENDBRANCH   7   8
BRANCH   7  15
HETATM   15  O1  UNL     1      67.886  36.823  26.803  1.00  0.00    -0.378 OA
BRANCH  15  16
HETATM   16  C8  UNL     1      68.916  36.945  27.696  1.00  0.00     0.207 C 
BRANCH  16  17
HETATM   17  C9  UNL     1      69.885  35.837  27.368  1.00  0.00    -0.035 A 
HETATM   18  C10 UNL     1      71.104  35.709  27.953  1.00  0.00     0.009 A 
HETATM   19  C11 UNL     1      71.914  34.650  27.573  1.00  0.00     0.001 A 
HETATM   20  C12 UNL     1      71.527  33.725  26.625  1.00  0.00     0.000 A 
HETATM   21  C13 UNL     1      70.281  33.882  26.048  1.00  0.00     0.001 A 
HETATM   22  C14 UNL     1      69.463  34.932  26.416  1.00  0.00     0.009 A 
ENDBRANCH  16  17
ENDBRANCH  15  16
ENDBRANCH   7  15
ENDBRANCH   1   7
BRANCH   6  23
HETATM   23  O7  UNL     1      67.707  37.147  23.041  1.00  0.00    -0.390 OA
ATOM     24  H7  UNL     1      68.618  36.952  22.852  1.00  0.00     0.210 HD
ENDBRANCH   6  23
BRANCH   5  25
HETATM   25  O6  UNL     1      66.785  34.743  23.799  1.00  0.00    -0.390 OA
ATOM     26  H6  UNL     1      67.713  34.788  23.600  1.00  0.00     0.210 HD
ENDBRANCH   5  25
BRANCH   4  27
HETATM   27  C17 UNL     1      64.735  35.687  22.721  1.00  0.00     0.120 C 
BRANCH  27  28
HETATM   28  S1  UNL     1      63.219  34.718  22.954  1.00  0.00    -0.082 SA
BRANCH  28  29
HETATM   29  C18 UNL     1      63.270  33.941  24.561  1.00  0.00     0.199 C 
HETATM   30  N1  UNL     1      62.334  34.155  25.413  1.00  0.00    -0.242 N 
ATOM     31  H1  UNL     1      61.571  34.776  25.145  1.00  0.00     0.197 HD
BRANCH  29  32
HETATM   32  O4  UNL     1      64.309  33.096  24.921  1.00  0.00    -0.340 OA
ATOM     33  H4  UNL     1      64.143  32.247  25.316  1.00  0.00     0.220 HD
ENDBRANCH  29  32
BRANCH  30  34
HETATM   34  O5  UNL     1      62.302  33.599  26.656  1.00  0.00    -0.287 OA
ATOM     35  H5  UNL     1      61.784  33.944  27.375  1.00  0.00     0.244 HD
ENDBRANCH  30  34
ENDBRANCH  28  29
ENDBRANCH  27  28
ENDBRANCH   4  27
TORSDOF 13
ENDMDL
