MODEL 1
REMARK VINA RESULT: -8.861587794      0.000      0.000
REMARK  10 active torsions:
REMARK  status: ('A' for Active; 'I' for Inactive)
REMARK    1  A    between atoms: C5_6  and  C6_7 
REMARK    2  A    between atoms: C7_12  and  S1_13 
REMARK    3  A    between atoms: S1_13  and  C8_14 
REMARK    4  A    between atoms: C8_14  and  C9_15 
REMARK    5  A    between atoms: C9_15  and  O2_16 
REMARK    6  A    between atoms: C9_15  and  N3_18 
REMARK    7  A    between atoms: N3_18  and  N4_20 
REMARK    8  A    between atoms: C10_22  and  C11_23 
REMARK    9  A    between atoms: C16_28  and  O3_29 
REMARK   10  A    between atoms: N5_31  and  C17_32 
ROOT
HETATM    1  C6  UNL     1      64.250  34.542  23.931  1.00  0.00     0.156 A 
HETATM    2  N1  UNL     1      63.501  33.982  22.905  1.00  0.00    -0.281 N 
ATOM      3  H1  UNL     1      63.012  33.087  22.928  1.00  0.00     0.188 HD
HETATM    4  N2  UNL     1      63.541  34.807  21.920  1.00  0.00    -0.278 N 
ATOM      5  H2  UNL     1      63.073  34.644  21.029  1.00  0.00     0.189 HD
HETATM    6  C7  UNL     1      64.254  35.886  22.183  1.00  0.00     0.168 A 
HETATM    7  N5  UNL     1      64.697  35.696  23.470  1.00  0.00    -0.274 N 
ENDROOT
BRANCH   6   8
HETATM    8  S1  UNL     1      64.639  37.311  21.219  1.00  0.00    -0.084 SA
BRANCH   8   9
HETATM    9  C8  UNL     1      66.304  37.435  20.644  1.00  0.00     0.167 C 
BRANCH   9  10
HETATM   10  C9  UNL     1      66.531  37.407  19.176  1.00  0.00     0.140 C 
BRANCH  10  11
HETATM   11  O2  UNL     1      65.416  36.950  18.449  1.00  0.00    -0.348 OA
ATOM     12  H2  UNL     1      64.903  37.653  18.069  1.00  0.00     0.219 HD
ENDBRANCH  10  11
BRANCH  10  13
HETATM   13  N3  UNL     1      67.211  38.508  18.595  1.00  0.00    -0.283 N 
ATOM     14  H3  UNL     1      66.712  39.123  17.952  1.00  0.00     0.188 HD
BRANCH  13  15
HETATM   15  N4  UNL     1      68.542  38.765  18.884  1.00  0.00    -0.309 N 
HETATM   16  C10 UNL     1      69.264  39.694  18.367  1.00  0.00     0.121 C 
ATOM     17  H4  UNL     1      68.990  38.160  19.573  1.00  0.00     0.186 HD
BRANCH  16  18
HETATM   18  C11 UNL     1      70.662  39.799  18.810  1.00  0.00     0.014 A 
HETATM   19  C12 UNL     1      71.061  40.821  19.641  1.00  0.00     0.015 A 
HETATM   20  C13 UNL     1      72.382  40.903  20.044  1.00  0.00     0.001 A 
HETATM   21  C14 UNL     1      73.340  39.996  19.650  1.00  0.00     0.003 A 
HETATM   22  C15 UNL     1      72.923  38.977  18.816  1.00  0.00     0.037 A 
HETATM   23  C16 UNL     1      71.602  38.889  18.408  1.00  0.00     0.077 A 
BRANCH  23  24
HETATM   24  O3  UNL     1      71.166  37.857  17.561  1.00  0.00    -0.360 OA
ATOM     25  H3  UNL     1      71.795  37.522  16.933  1.00  0.00     0.217 HD
ENDBRANCH  23  24
ENDBRANCH  16  18
ENDBRANCH  13  15
ENDBRANCH  10  13
ENDBRANCH   9  10
ENDBRANCH   8   9
ENDBRANCH   6   8
BRANCH   7  26
HETATM   26  C17 UNL     1      65.507  36.658  24.109  1.00  0.00     0.043 A 
HETATM   27  C18 UNL     1      64.976  37.691  24.882  1.00  0.00     0.030 A 
HETATM   28  C19 UNL     1      65.732  38.614  25.554  1.00  0.00     0.002 A 
HETATM   29  C20 UNL     1      67.107  38.518  25.466  1.00  0.00     0.000 A 
HETATM   30  C21 UNL     1      67.704  37.526  24.722  1.00  0.00     0.002 A 
HETATM   31  C22 UNL     1      66.908  36.618  24.061  1.00  0.00     0.030 A 
ENDBRANCH   7  26
BRANCH   1  32
HETATM   32  C5  UNL     1      64.381  33.828  25.175  1.00  0.00     0.081 A 
HETATM   33  C4  UNL     1      65.551  33.507  25.773  1.00  0.00     0.034 A 
HETATM   34  C3  UNL     1      65.620  32.802  27.000  1.00  0.00     0.008 A 
HETATM   35  C2  UNL     1      64.466  32.427  27.613  1.00  0.00     0.074 A 
HETATM   36  C1  UNL     1      63.286  32.761  26.992  1.00  0.00     0.245 A 
HETATM   37  O1  UNL     1      62.220  32.425  27.540  1.00  0.00    -0.268 OA
HETATM   38  N6  UNL     1      63.265  33.431  25.827  1.00  0.00    -0.320 N 
ATOM     39  H6  UNL     1      62.360  33.651  25.412  1.00  0.00     0.169 HD
ENDBRANCH   1  32
TORSDOF 10
ENDMDL
MODEL 2
REMARK VINA RESULT: -8.821994238      3.494      4.405
REMARK  10 active torsions:
REMARK  status: ('A' for Active; 'I' for Inactive)
REMARK    1  A    between atoms: C5_6  and  C6_7 
REMARK    2  A    between atoms: C7_12  and  S1_13 
REMARK    3  A    between atoms: S1_13  and  C8_14 
REMARK    4  A    between atoms: C8_14  and  C9_15 
REMARK    5  A    between atoms: C9_15  and  O2_16 
REMARK    6  A    between atoms: C9_15  and  N3_18 
REMARK    7  A    between atoms: N3_18  and  N4_20 
REMARK    8  A    between atoms: C10_22  and  C11_23 
REMARK    9  A    between atoms: C16_28  and  O3_29 
REMARK   10  A    between atoms: N5_31  and  C17_32 
ROOT
HETATM    1  C6  UNL     1      63.530  33.693  25.192  1.00  0.00     0.156 A 
HETATM    2  N1  UNL     1      62.496  33.872  24.282  1.00  0.00    -0.281 N 
ATOM      3  H1  UNL     1      61.541  33.525  24.372  1.00  0.00     0.188 HD
HETATM    4  N2  UNL     1      62.972  34.559  23.306  1.00  0.00    -0.278 N 
ATOM      5  H2  UNL     1      62.425  34.836  22.491  1.00  0.00     0.189 HD
HETATM    6  C7  UNL     1      64.245  34.868  23.469  1.00  0.00     0.168 A 
HETATM    7  N5  UNL     1      64.580  34.305  24.677  1.00  0.00    -0.274 N 
ENDROOT
BRANCH   6   8
HETATM    8  S1  UNL     1      65.378  35.774  22.467  1.00  0.00    -0.084 SA
BRANCH   8   9
HETATM    9  C8  UNL     1      64.668  36.747  21.175  1.00  0.00     0.167 C 
BRANCH   9  10
HETATM   10  C9  UNL     1      65.591  37.362  20.187  1.00  0.00     0.140 C 
BRANCH  10  11
HETATM   11  O2  UNL     1      66.940  37.316  20.582  1.00  0.00    -0.348 OA
ATOM     12  H2  UNL     1      67.512  36.943  19.922  1.00  0.00     0.219 HD
ENDBRANCH  10  11
BRANCH  10  13
HETATM   13  N3  UNL     1      65.362  37.086  18.814  1.00  0.00    -0.283 N 
ATOM     14  H3  UNL     1      65.401  36.122  18.483  1.00  0.00     0.188 HD
BRANCH  13  15
HETATM   15  N4  UNL     1      65.088  38.103  17.913  1.00  0.00    -0.309 N 
HETATM   16  C10 UNL     1      65.810  39.146  17.704  1.00  0.00     0.121 C 
ATOM     17  H4  UNL     1      64.233  38.015  17.363  1.00  0.00     0.186 HD
BRANCH  16  18
HETATM   18  C11 UNL     1      65.340  40.112  16.701  1.00  0.00     0.014 A 
HETATM   19  C12 UNL     1      65.008  41.397  17.063  1.00  0.00     0.015 A 
HETATM   20  C13 UNL     1      64.566  42.290  16.104  1.00  0.00     0.001 A 
HETATM   21  C14 UNL     1      64.437  41.953  14.774  1.00  0.00     0.003 A 
HETATM   22  C15 UNL     1      64.773  40.659  14.427  1.00  0.00     0.037 A 
HETATM   23  C16 UNL     1      65.216  39.761  15.384  1.00  0.00     0.077 A 
BRANCH  23  24
HETATM   24  O3  UNL     1      65.562  38.442  15.043  1.00  0.00    -0.360 OA
ATOM     25  H3  UNL     1      65.888  37.889  15.743  1.00  0.00     0.217 HD
ENDBRANCH  23  24
ENDBRANCH  16  18
ENDBRANCH  13  15
ENDBRANCH  10  13
ENDBRANCH   9  10
ENDBRANCH   8   9
ENDBRANCH   6   8
BRANCH   7  26
HETATM   26  C17 UNL     1      65.886  34.426  25.197  1.00  0.00     0.043 A 
HETATM   27  C18 UNL     1      66.799  33.371  25.185  1.00  0.00     0.030 A 
HETATM   28  C19 UNL     1      68.087  33.464  25.638  1.00  0.00     0.002 A 
HETATM   29  C20 UNL     1      68.516  34.679  26.137  1.00  0.00     0.000 A 
HETATM   30  C21 UNL     1      67.673  35.766  26.181  1.00  0.00     0.002 A 
HETATM   31  C22 UNL     1      66.384  35.630  25.716  1.00  0.00     0.030 A 
ENDBRANCH   7  26
BRANCH   1  32
HETATM   32  C5  UNL     1      63.281  32.950  26.400  1.00  0.00     0.081 A 
HETATM   33  C4  UNL     1      64.098  32.913  27.478  1.00  0.00     0.034 A 
HETATM   34  C3  UNL     1      63.801  32.163  28.643  1.00  0.00     0.008 A 
HETATM   35  C2  UNL     1      62.646  31.446  28.691  1.00  0.00     0.074 A 
HETATM   36  C1  UNL     1      61.828  31.495  27.588  1.00  0.00     0.245 A 
HETATM   37  O1  UNL     1      60.767  30.844  27.616  1.00  0.00    -0.268 OA
HETATM   38  N6  UNL     1      62.147  32.219  26.502  1.00  0.00    -0.320 N 
ATOM     39  H6  UNL     1      61.502  32.218  25.713  1.00  0.00     0.169 HD
ENDBRANCH   1  32
TORSDOF 10
ENDMDL
MODEL 3
REMARK VINA RESULT: -8.712617628      2.870      3.930
REMARK  10 active torsions:
REMARK  status: ('A' for Active; 'I' for Inactive)
REMARK    1  A    between atoms: C5_6  and  C6_7 
REMARK    2  A    between atoms: C7_12  and  S1_13 
REMARK    3  A    between atoms: S1_13  and  C8_14 
REMARK    4  A    between atoms: C8_14  and  C9_15 
REMARK    5  A    between atoms: C9_15  and  O2_16 
REMARK    6  A    between atoms: C9_15  and  N3_18 
REMARK    7  A    between atoms: N3_18  and  N4_20 
REMARK    8  A    between atoms: C10_22  and  C11_23 
REMARK    9  A    between atoms: C16_28  and  O3_29 
REMARK   10  A    between atoms: N5_31  and  C17_32 
ROOT
HETATM    1  C6  UNL     1      64.121  34.439  24.168  1.00  0.00     0.156 A 
HETATM    2  N1  UNL     1      63.262  33.925  23.206  1.00  0.00    -0.281 N 
ATOM      3  H1  UNL     1      62.723  33.061  23.271  1.00  0.00     0.188 HD
HETATM    4  N2  UNL     1      63.276  34.745  22.216  1.00  0.00    -0.278 N 
ATOM      5  H2  UNL     1      62.732  34.612  21.365  1.00  0.00     0.189 HD
HETATM    6  C7  UNL     1      64.072  35.780  22.419  1.00  0.00     0.168 A 
HETATM    7  N5  UNL     1      64.600  35.563  23.669  1.00  0.00    -0.274 N 
ENDROOT
BRANCH   6   8
HETATM    8  S1  UNL     1      64.467  37.179  21.421  1.00  0.00    -0.084 SA
BRANCH   8   9
HETATM    9  C8  UNL     1      65.820  36.981  20.304  1.00  0.00     0.167 C 
BRANCH   9  10
HETATM   10  C9  UNL     1      66.613  38.188  19.959  1.00  0.00     0.140 C 
BRANCH  10  11
HETATM   11  O2  UNL     1      67.423  38.642  21.016  1.00  0.00    -0.348 OA
ATOM     12  H2  UNL     1      68.146  39.186  20.727  1.00  0.00     0.219 HD
ENDBRANCH  10  11
BRANCH  10  13
HETATM   13  N3  UNL     1      67.224  38.230  18.679  1.00  0.00    -0.283 N 
ATOM     14  H3  UNL     1      68.034  37.639  18.491  1.00  0.00     0.188 HD
BRANCH  13  15
HETATM   15  N4  UNL     1      66.741  39.058  17.678  1.00  0.00    -0.309 N 
HETATM   16  C10 UNL     1      65.519  39.424  17.522  1.00  0.00     0.121 C 
ATOM     17  H4  UNL     1      67.419  39.411  17.003  1.00  0.00     0.186 HD
BRANCH  16  18
HETATM   18  C11 UNL     1      65.211  40.310  16.390  1.00  0.00     0.014 A 
HETATM   19  C12 UNL     1      64.882  41.630  16.600  1.00  0.00     0.015 A 
HETATM   20  C13 UNL     1      64.593  42.447  15.522  1.00  0.00     0.001 A 
HETATM   21  C14 UNL     1      64.618  41.999  14.219  1.00  0.00     0.003 A 
HETATM   22  C15 UNL     1      64.949  40.672  14.026  1.00  0.00     0.037 A 
HETATM   23  C16 UNL     1      65.239  39.850  15.102  1.00  0.00     0.077 A 
BRANCH  23  24
HETATM   24  O3  UNL     1      65.578  38.498  14.918  1.00  0.00    -0.360 OA
ATOM     25  H3  UNL     1      66.271  38.151  15.467  1.00  0.00     0.217 HD
ENDBRANCH  23  24
ENDBRANCH  16  18
ENDBRANCH  13  15
ENDBRANCH  10  13
ENDBRANCH   9  10
ENDBRANCH   8   9
ENDBRANCH   6   8
BRANCH   7  26
HETATM   26  C17 UNL     1      65.513  36.474  24.239  1.00  0.00     0.043 A 
HETATM   27  C18 UNL     1      65.136  37.415  25.198  1.00  0.00     0.030 A 
HETATM   28  C19 UNL     1      66.002  38.282  25.806  1.00  0.00     0.002 A 
HETATM   29  C20 UNL     1      67.336  38.225  25.453  1.00  0.00     0.000 A 
HETATM   30  C21 UNL     1      67.785  37.324  24.515  1.00  0.00     0.002 A 
HETATM   31  C22 UNL     1      66.881  36.469  23.926  1.00  0.00     0.030 A 
ENDBRANCH   7  26
BRANCH   1  32
HETATM   32  C5  UNL     1      64.304  33.718  25.402  1.00  0.00     0.081 A 
HETATM   33  C4  UNL     1      65.498  33.385  25.943  1.00  0.00     0.034 A 
HETATM   34  C3  UNL     1      65.619  32.674  27.163  1.00  0.00     0.008 A 
HETATM   35  C2  UNL     1      64.490  32.306  27.827  1.00  0.00     0.074 A 
HETATM   36  C1  UNL     1      63.286  32.653  27.264  1.00  0.00     0.245 A 
HETATM   37  O1  UNL     1      62.244  32.324  27.860  1.00  0.00    -0.268 OA
HETATM   38  N6  UNL     1      63.216  33.328  26.104  1.00  0.00    -0.320 N 
ATOM     39  H6  UNL     1      62.294  33.558  25.734  1.00  0.00     0.169 HD
ENDBRANCH   1  32
TORSDOF 10
ENDMDL
MODEL 4
REMARK VINA RESULT: -8.708689015      4.250      7.725
REMARK  10 active torsions:
REMARK  status: ('A' for Active; 'I' for Inactive)
REMARK    1  A    between atoms: C5_6  and  C6_7 
REMARK    2  A    between atoms: C7_12  and  S1_13 
REMARK    3  A    between atoms: S1_13  and  C8_14 
REMARK    4  A    between atoms: C8_14  and  C9_15 
REMARK    5  A    between atoms: C9_15  and  O2_16 
REMARK    6  A    between atoms: C9_15  and  N3_18 
REMARK    7  A    between atoms: N3_18  and  N4_20 
REMARK    8  A    between atoms: C10_22  and  C11_23 
REMARK    9  A    between atoms: C16_28  and  O3_29 
REMARK   10  A    between atoms: N5_31  and  C17_32 
ROOT
HETATM    1  C6  UNL     1      68.103  35.653  25.444  1.00  0.00     0.156 A 
HETATM    2  N1  UNL     1      67.677  34.555  24.709  1.00  0.00    -0.281 N 
ATOM      3  H1  UNL     1      68.039  33.603  24.774  1.00  0.00     0.188 HD
HETATM    4  N2  UNL     1      66.741  34.966  23.930  1.00  0.00    -0.278 N 
ATOM      5  H2  UNL     1      66.247  34.361  23.274  1.00  0.00     0.189 HD
HETATM    6  C7  UNL     1      66.486  36.253  24.070  1.00  0.00     0.168 A 
HETATM    7  N5  UNL     1      67.366  36.671  25.039  1.00  0.00    -0.274 N 
ENDROOT
BRANCH   6   8
HETATM    8  S1  UNL     1      65.330  37.322  23.276  1.00  0.00    -0.084 SA
BRANCH   8   9
HETATM    9  C8  UNL     1      63.681  36.708  23.124  1.00  0.00     0.167 C 
BRANCH   9  10
HETATM   10  C9  UNL     1      63.410  35.712  22.056  1.00  0.00     0.140 C 
BRANCH  10  11
HETATM   11  O2  UNL     1      64.384  35.707  21.041  1.00  0.00    -0.348 OA
ATOM     12  H2  UNL     1      64.132  35.195  20.282  1.00  0.00     0.219 HD
ENDBRANCH  10  11
BRANCH  10  13
HETATM   13  N3  UNL     1      62.956  34.428  22.454  1.00  0.00    -0.283 N 
ATOM     14  H3  UNL     1      62.531  33.810  21.762  1.00  0.00     0.188 HD
BRANCH  13  15
HETATM   15  N4  UNL     1      63.079  33.997  23.765  1.00  0.00    -0.309 N 
HETATM   16  C10 UNL     1      64.082  33.367  24.264  1.00  0.00     0.121 C 
ATOM     17  H4  UNL     1      62.300  34.198  24.393  1.00  0.00     0.186 HD
BRANCH  16  18
HETATM   18  C11 UNL     1      64.016  32.995  25.685  1.00  0.00     0.014 A 
HETATM   19  C12 UNL     1      62.858  33.176  26.406  1.00  0.00     0.015 A 
HETATM   20  C13 UNL     1      62.817  32.822  27.743  1.00  0.00     0.001 A 
HETATM   21  C14 UNL     1      63.900  32.287  28.406  1.00  0.00     0.003 A 
HETATM   22  C15 UNL     1      65.055  32.113  27.668  1.00  0.00     0.037 A 
HETATM   23  C16 UNL     1      65.101  32.465  26.329  1.00  0.00     0.077 A 
BRANCH  23  24
HETATM   24  O3  UNL     1      66.269  32.292  25.568  1.00  0.00    -0.360 OA
ATOM     25  H3  UNL     1      67.016  31.907  26.010  1.00  0.00     0.217 HD
ENDBRANCH  23  24
ENDBRANCH  16  18
ENDBRANCH  13  15
ENDBRANCH  10  13
ENDBRANCH   9  10
ENDBRANCH   8   9
ENDBRANCH   6   8
BRANCH   7  26
HETATM   26  C17 UNL     1      67.394  38.016  25.464  1.00  0.00     0.043 A 
HETATM   27  C18 UNL     1      66.807  38.438  26.657  1.00  0.00     0.030 A 
HETATM   28  C19 UNL     1      66.854  39.724  27.124  1.00  0.00     0.002 A 
HETATM   29  C20 UNL     1      67.526  40.666  26.370  1.00  0.00     0.000 A 
HETATM   30  C21 UNL     1      68.130  40.326  25.181  1.00  0.00     0.002 A 
HETATM   31  C22 UNL     1      68.059  39.021  24.747  1.00  0.00     0.030 A 
ENDBRANCH   7  26
BRANCH   1  32
HETATM   32  C5  UNL     1      69.159  35.485  26.409  1.00  0.00     0.081 A 
HETATM   33  C4  UNL     1      70.338  34.865  26.177  1.00  0.00     0.034 A 
HETATM   34  C3  UNL     1      71.344  34.728  27.166  1.00  0.00     0.008 A 
HETATM   35  C2  UNL     1      71.124  35.240  28.407  1.00  0.00     0.074 A 
HETATM   36  C1  UNL     1      69.921  35.867  28.625  1.00  0.00     0.245 A 
HETATM   37  O1  UNL     1      69.703  36.341  29.756  1.00  0.00    -0.268 OA
HETATM   38  N6  UNL     1      68.993  35.974  27.659  1.00  0.00    -0.320 N 
ATOM     39  H6  UNL     1      68.118  36.450  27.879  1.00  0.00     0.169 HD
ENDBRANCH   1  32
TORSDOF 10
ENDMDL
MODEL 5
REMARK VINA RESULT: -8.681427920      0.883      1.128
REMARK  10 active torsions:
REMARK  status: ('A' for Active; 'I' for Inactive)
REMARK    1  A    between atoms: C5_6  and  C6_7 
REMARK    2  A    between atoms: C7_12  and  S1_13 
REMARK    3  A    between atoms: S1_13  and  C8_14 
REMARK    4  A    between atoms: C8_14  and  C9_15 
REMARK    5  A    between atoms: C9_15  and  O2_16 
REMARK    6  A    between atoms: C9_15  and  N3_18 
REMARK    7  A    between atoms: N3_18  and  N4_20 
REMARK    8  A    between atoms: C10_22  and  C11_23 
REMARK    9  A    between atoms: C16_28  and  O3_29 
REMARK   10  A    between atoms: N5_31  and  C17_32 
ROOT
HETATM    1  C6  UNL     1      63.939  34.733  23.813  1.00  0.00     0.156 A 
HETATM    2  N1  UNL     1      63.253  34.237  22.712  1.00  0.00    -0.281 N 
ATOM      3  H1  UNL     1      62.714  33.371  22.672  1.00  0.00     0.188 HD
HETATM    4  N2  UNL     1      63.426  35.076  21.754  1.00  0.00    -0.278 N 
ATOM      5  H2  UNL     1      63.029  34.957  20.822  1.00  0.00     0.189 HD
HETATM    6  C7  UNL     1      64.172  36.107  22.105  1.00  0.00     0.168 A 
HETATM    7  N5  UNL     1      64.488  35.867  23.420  1.00  0.00    -0.274 N 
ENDROOT
BRANCH   6   8
HETATM    8  S1  UNL     1      64.719  37.525  21.212  1.00  0.00    -0.084 SA
BRANCH   8   9
HETATM    9  C8  UNL     1      66.393  37.494  20.650  1.00  0.00     0.167 C 
BRANCH   9  10
HETATM   10  C9  UNL     1      66.630  37.403  19.187  1.00  0.00     0.140 C 
BRANCH  10  11
HETATM   11  O2  UNL     1      65.514  36.931  18.472  1.00  0.00    -0.348 OA
ATOM     12  H2  UNL     1      64.709  37.384  18.691  1.00  0.00     0.219 HD
ENDBRANCH  10  11
BRANCH  10  13
HETATM   13  N3  UNL     1      67.327  38.472  18.566  1.00  0.00    -0.283 N 
ATOM     14  H3  UNL     1      66.835  39.074  17.906  1.00  0.00     0.188 HD
BRANCH  13  15
HETATM   15  N4  UNL     1      68.663  38.714  18.840  1.00  0.00    -0.309 N 
HETATM   16  C10 UNL     1      69.347  39.726  18.441  1.00  0.00     0.121 C 
ATOM     17  H4  UNL     1      69.150  38.023  19.413  1.00  0.00     0.186 HD
BRANCH  16  18
HETATM   18  C11 UNL     1      70.760  39.796  18.843  1.00  0.00     0.014 A 
HETATM   19  C12 UNL     1      71.203  40.790  19.685  1.00  0.00     0.015 A 
HETATM   20  C13 UNL     1      72.537  40.840  20.049  1.00  0.00     0.001 A 
HETATM   21  C14 UNL     1      73.467  39.927  19.601  1.00  0.00     0.003 A 
HETATM   22  C15 UNL     1      73.006  38.937  18.756  1.00  0.00     0.037 A 
HETATM   23  C16 UNL     1      71.671  38.882  18.389  1.00  0.00     0.077 A 
BRANCH  23  24
HETATM   24  O3  UNL     1      71.190  37.879  17.530  1.00  0.00    -0.360 OA
ATOM     25  H3  UNL     1      70.248  37.807  17.439  1.00  0.00     0.217 HD
ENDBRANCH  23  24
ENDBRANCH  16  18
ENDBRANCH  13  15
ENDBRANCH  10  13
ENDBRANCH   9  10
ENDBRANCH   8   9
ENDBRANCH   6   8
BRANCH   7  26
HETATM   26  C17 UNL     1      65.291  36.769  24.150  1.00  0.00     0.043 A 
HETATM   27  C18 UNL     1      64.753  37.820  24.893  1.00  0.00     0.030 A 
HETATM   28  C19 UNL     1      65.497  38.684  25.650  1.00  0.00     0.002 A 
HETATM   29  C20 UNL     1      66.866  38.508  25.684  1.00  0.00     0.000 A 
HETATM   30  C21 UNL     1      67.470  37.494  24.977  1.00  0.00     0.002 A 
HETATM   31  C22 UNL     1      66.686  36.646  24.227  1.00  0.00     0.030 A 
ENDBRANCH   7  26
BRANCH   1  32
HETATM   32  C5  UNL     1      63.919  33.989  25.046  1.00  0.00     0.081 A 
HETATM   33  C4  UNL     1      62.807  33.523  25.659  1.00  0.00     0.034 A 
HETATM   34  C3  UNL     1      62.846  32.794  26.874  1.00  0.00     0.008 A 
HETATM   35  C2  UNL     1      64.049  32.546  27.457  1.00  0.00     0.074 A 
HETATM   36  C1  UNL     1      65.168  33.026  26.821  1.00  0.00     0.245 A 
HETATM   37  O1  UNL     1      66.278  32.808  27.342  1.00  0.00    -0.268 OA
HETATM   38  N6  UNL     1      65.087  33.714  25.669  1.00  0.00    -0.320 N 
ATOM     39  H6  UNL     1      65.951  34.046  25.242  1.00  0.00     0.169 HD
ENDBRANCH   1  32
TORSDOF 10
ENDMDL
