MODEL 1
REMARK VINA RESULT: -7.669533389      0.000      0.000
REMARK  11 active torsions:
REMARK  status: ('A' for Active; 'I' for Inactive)
REMARK    1  A    between atoms: C2_2  and  C3_3 
REMARK    2  A    between atoms: C2_2  and  O6_29 
REMARK    3  A    between atoms: C3_3  and  C4_4 
REMARK    4  A    between atoms: C4_4  and  O1_5 
REMARK    5  A    between atoms: C4_4  and  C5_7 
REMARK    6  A    between atoms: C11_13  and  O2_14 
REMARK    7  A    between atoms: C12_16  and  C13_17 
REMARK    8  A    between atoms: C13_17  and  C14_18 
REMARK    9  A    between atoms: C13_17  and  C17_21 
REMARK   10  A    between atoms: C20_25  and  O4_26 
REMARK   11  A    between atoms: O6_29  and  C21_30 
ROOT
HETATM    1  C5  UNL     1      67.550  35.873  25.462  1.00  0.00     0.158 C 
HETATM    2  C6  UNL     1      68.480  35.688  26.655  1.00  0.00     0.040 C 
HETATM    3  C7  UNL     1      68.814  36.967  27.330  1.00  0.00     0.047 C 
HETATM    4  C8  UNL     1      67.985  38.140  26.976  1.00  0.00     0.009 A 
HETATM    5  C9  UNL     1      66.810  37.968  26.293  1.00  0.00     0.081 A 
HETATM    6  C10 UNL     1      66.061  39.036  25.899  1.00  0.00     0.074 A 
HETATM    7  C11 UNL     1      66.518  40.288  26.193  1.00  0.00     0.081 A 
HETATM    8  C12 UNL     1      67.707  40.538  26.873  1.00  0.00     0.037 A 
HETATM    9  C20 UNL     1      68.435  39.407  27.270  1.00  0.00     0.088 A 
HETATM   10  O5  UNL     1      66.459  36.639  26.039  1.00  0.00    -0.343 OA
ENDROOT
BRANCH   1  11
HETATM   11  C4  UNL     1      67.058  34.625  24.889  1.00  0.00     0.150 C 
BRANCH  11  12
HETATM   12  C3  UNL     1      67.398  33.316  25.422  1.00  0.00     0.066 C 
BRANCH  12  13
HETATM   13  C2  UNL     1      66.488  32.639  26.381  1.00  0.00     0.129 C 
HETATM   14  C1  UNL     1      65.887  31.429  25.569  1.00  0.00     0.040 C 
BRANCH  13  15
HETATM   15  O6  UNL     1      65.377  33.419  26.719  1.00  0.00    -0.325 OA
BRANCH  15  16
HETATM   16  C21 UNL     1      64.118  32.944  27.041  1.00  0.00     0.236 A 
HETATM   17  N1  UNL     1      63.656  32.357  28.125  1.00  0.00    -0.215 N 
HETATM   18  O7  UNL     1      62.360  32.060  27.997  1.00  0.00    -0.152 OA
ATOM     19  H1  UNL     1      64.214  32.155  28.955  1.00  0.00     0.199 HD
HETATM   20  N2  UNL     1      62.027  32.483  26.791  1.00  0.00    -0.202 N 
HETATM   21  C22 UNL     1      63.041  33.026  26.165  1.00  0.00     0.319 A 
ATOM     22  H2  UNL     1      61.091  32.397  26.394  1.00  0.00     0.200 HD
HETATM   23  O8  UNL     1      63.135  33.552  24.995  1.00  0.00    -0.261 OA
ENDBRANCH  15  16
ENDBRANCH  13  15
ENDBRANCH  12  13
ENDBRANCH  11  12
BRANCH  11  24
HETATM   24  O1  UNL     1      65.877  34.654  24.172  1.00  0.00    -0.393 OA
ATOM     25  H1  UNL     1      65.244  35.288  24.490  1.00  0.00     0.210 HD
ENDBRANCH  11  24
ENDBRANCH   1  11
BRANCH   9  26
HETATM   26  O4  UNL     1      69.645  39.546  27.987  1.00  0.00    -0.359 OA
ATOM     27  H4  UNL     1      69.604  39.762  28.910  1.00  0.00     0.217 HD
ENDBRANCH   9  26
BRANCH   7  28
HETATM   28  O2  UNL     1      65.687  41.339  25.766  1.00  0.00    -0.360 OA
ATOM     29  H2  UNL     1      65.702  41.508  24.832  1.00  0.00     0.217 HD
ENDBRANCH   7  28
BRANCH   8  30
HETATM   30  C13 UNL     1      68.310  41.847  26.901  1.00  0.00    -0.025 C 
BRANCH  30  31
HETATM   31  C14 UNL     1      69.024  42.467  25.791  1.00  0.00     0.010 C 
HETATM   32  C15 UNL     1      68.265  43.517  24.994  1.00  0.00     0.014 C 
HETATM   33  C16 UNL     1      69.543  41.436  24.818  1.00  0.00     0.014 C 
ENDBRANCH  30  31
BRANCH  30  34
HETATM   34  C17 UNL     1      68.433  42.491  28.259  1.00  0.00     0.103 A 
HETATM   35  C18 UNL     1      69.715  43.411  28.416  1.00  0.00     0.053 C 
HETATM   36  C19 UNL     1      67.580  42.425  29.390  1.00  0.00     0.211 A 
HETATM   37  O3  UNL     1      67.317  43.493  28.570  1.00  0.00    -0.370 OA
ENDBRANCH  30  34
ENDBRANCH   8  30
TORSDOF 11
ENDMDL
MODEL 2
REMARK VINA RESULT: -7.655720367      0.709      1.884
REMARK  11 active torsions:
REMARK  status: ('A' for Active; 'I' for Inactive)
REMARK    1  A    between atoms: C2_2  and  C3_3 
REMARK    2  A    between atoms: C2_2  and  O6_29 
REMARK    3  A    between atoms: C3_3  and  C4_4 
REMARK    4  A    between atoms: C4_4  and  O1_5 
REMARK    5  A    between atoms: C4_4  and  C5_7 
REMARK    6  A    between atoms: C11_13  and  O2_14 
REMARK    7  A    between atoms: C12_16  and  C13_17 
REMARK    8  A    between atoms: C13_17  and  C14_18 
REMARK    9  A    between atoms: C13_17  and  C17_21 
REMARK   10  A    between atoms: C20_25  and  O4_26 
REMARK   11  A    between atoms: O6_29  and  C21_30 
ROOT
HETATM    1  C5  UNL     1      67.513  35.919  25.449  1.00  0.00     0.158 C 
HETATM    2  C6  UNL     1      68.458  35.675  26.619  1.00  0.00     0.040 C 
HETATM    3  C7  UNL     1      68.845  36.926  27.318  1.00  0.00     0.047 C 
HETATM    4  C8  UNL     1      68.050  38.134  27.008  1.00  0.00     0.009 A 
HETATM    5  C9  UNL     1      66.857  38.017  26.343  1.00  0.00     0.081 A 
HETATM    6  C10 UNL     1      66.137  39.118  25.988  1.00  0.00     0.074 A 
HETATM    7  C11 UNL     1      66.640  40.347  26.304  1.00  0.00     0.081 A 
HETATM    8  C12 UNL     1      67.849  40.541  26.967  1.00  0.00     0.037 A 
HETATM    9  C20 UNL     1      68.546  39.378  27.323  1.00  0.00     0.088 A 
HETATM   10  O5  UNL     1      66.458  36.706  26.064  1.00  0.00    -0.343 OA
ENDROOT
BRANCH   1  11
HETATM   11  C4  UNL     1      66.969  34.702  24.856  1.00  0.00     0.150 C 
BRANCH  11  12
HETATM   12  C3  UNL     1      67.311  33.369  25.323  1.00  0.00     0.066 C 
BRANCH  12  13
HETATM   13  C2  UNL     1      66.468  32.693  26.342  1.00  0.00     0.129 C 
HETATM   14  C1  UNL     1      65.854  31.453  25.588  1.00  0.00     0.040 C 
BRANCH  13  15
HETATM   15  O6  UNL     1      65.359  33.456  26.721  1.00  0.00    -0.325 OA
BRANCH  15  16
HETATM   16  C21 UNL     1      64.105  32.965  27.038  1.00  0.00     0.236 A 
HETATM   17  N1  UNL     1      63.646  32.369  28.119  1.00  0.00    -0.215 N 
HETATM   18  O7  UNL     1      62.354  32.057  27.985  1.00  0.00    -0.152 OA
ATOM     19  H1  UNL     1      64.204  32.170  28.949  1.00  0.00     0.199 HD
HETATM   20  N2  UNL     1      62.020  32.480  26.780  1.00  0.00    -0.202 N 
HETATM   21  C22 UNL     1      63.030  33.038  26.159  1.00  0.00     0.319 A 
ATOM     22  H2  UNL     1      61.087  32.385  26.379  1.00  0.00     0.200 HD
HETATM   23  O8  UNL     1      63.122  33.569  24.991  1.00  0.00    -0.261 OA
ENDBRANCH  15  16
ENDBRANCH  13  15
ENDBRANCH  12  13
ENDBRANCH  11  12
BRANCH  11  24
HETATM   24  O1  UNL     1      65.754  34.778  24.202  1.00  0.00    -0.393 OA
ATOM     25  H1  UNL     1      65.019  34.453  24.708  1.00  0.00     0.210 HD
ENDBRANCH  11  24
ENDBRANCH   1  11
BRANCH   9  26
HETATM   26  O4  UNL     1      69.772  39.460  28.020  1.00  0.00    -0.359 OA
ATOM     27  H4  UNL     1      69.851  39.016  28.855  1.00  0.00     0.217 HD
ENDBRANCH   9  26
BRANCH   7  28
HETATM   28  O2  UNL     1      65.837  41.434  25.917  1.00  0.00    -0.360 OA
ATOM     29  H2  UNL     1      66.075  41.836  25.090  1.00  0.00     0.217 HD
ENDBRANCH   7  28
BRANCH   8  30
HETATM   30  C13 UNL     1      68.495  41.829  27.014  1.00  0.00    -0.025 C 
BRANCH  30  31
HETATM   31  C14 UNL     1      68.474  42.739  28.154  1.00  0.00     0.010 C 
HETATM   32  C15 UNL     1      69.776  42.893  28.926  1.00  0.00     0.014 C 
HETATM   33  C16 UNL     1      67.395  42.367  29.142  1.00  0.00     0.014 C 
ENDBRANCH  30  31
BRANCH  30  34
HETATM   34  C17 UNL     1      68.993  42.369  25.697  1.00  0.00     0.103 A 
HETATM   35  C18 UNL     1      68.797  43.934  25.534  1.00  0.00     0.053 C 
HETATM   36  C19 UNL     1      69.623  41.711  24.610  1.00  0.00     0.211 A 
HETATM   37  O3  UNL     1      70.508  42.246  25.512  1.00  0.00    -0.370 OA
ENDBRANCH  30  34
ENDBRANCH   8  30
TORSDOF 11
ENDMDL
MODEL 3
REMARK VINA RESULT: -7.608608605      3.186      8.008
REMARK  11 active torsions:
REMARK  status: ('A' for Active; 'I' for Inactive)
REMARK    1  A    between atoms: C2_2  and  C3_3 
REMARK    2  A    between atoms: C2_2  and  O6_29 
REMARK    3  A    between atoms: C3_3  and  C4_4 
REMARK    4  A    between atoms: C4_4  and  O1_5 
REMARK    5  A    between atoms: C4_4  and  C5_7 
REMARK    6  A    between atoms: C11_13  and  O2_14 
REMARK    7  A    between atoms: C12_16  and  C13_17 
REMARK    8  A    between atoms: C13_17  and  C14_18 
REMARK    9  A    between atoms: C13_17  and  C17_21 
REMARK   10  A    between atoms: C20_25  and  O4_26 
REMARK   11  A    between atoms: O6_29  and  C21_30 
ROOT
HETATM    1  C5  UNL     1      68.229  39.907  26.862  1.00  0.00     0.158 C 
HETATM    2  C6  UNL     1      66.801  40.297  27.221  1.00  0.00     0.040 C 
HETATM    3  C7  UNL     1      65.800  39.297  26.771  1.00  0.00     0.047 C 
HETATM    4  C8  UNL     1      66.321  37.978  26.350  1.00  0.00     0.009 A 
HETATM    5  C9  UNL     1      67.613  37.626  26.644  1.00  0.00     0.081 A 
HETATM    6  C10 UNL     1      68.137  36.446  26.213  1.00  0.00     0.074 A 
HETATM    7  C11 UNL     1      67.344  35.621  25.467  1.00  0.00     0.081 A 
HETATM    8  C12 UNL     1      66.028  35.919  25.121  1.00  0.00     0.037 A 
HETATM    9  C20 UNL     1      65.530  37.139  25.600  1.00  0.00     0.088 A 
HETATM   10  O5  UNL     1      68.326  38.562  27.401  1.00  0.00    -0.343 OA
ENDROOT
BRANCH   1  11
HETATM   11  C4  UNL     1      69.249  40.771  27.447  1.00  0.00     0.150 C 
BRANCH  11  12
HETATM   12  C3  UNL     1      68.936  41.984  28.184  1.00  0.00     0.066 C 
BRANCH  12  13
HETATM   13  C2  UNL     1      68.536  41.910  29.613  1.00  0.00     0.129 C 
HETATM   14  C1  UNL     1      69.568  42.835  30.361  1.00  0.00     0.040 C 
BRANCH  13  15
HETATM   15  O6  UNL     1      68.737  40.641  30.167  1.00  0.00    -0.325 OA
BRANCH  15  16
HETATM   16  C21 UNL     1      67.911  40.015  31.083  1.00  0.00     0.236 A 
HETATM   17  N1  UNL     1      66.693  40.296  31.499  1.00  0.00    -0.215 N 
HETATM   18  O7  UNL     1      66.277  39.410  32.408  1.00  0.00    -0.152 OA
ATOM     19  H1  UNL     1      66.139  41.088  31.171  1.00  0.00     0.199 HD
HETATM   20  N2  UNL     1      67.280  38.563  32.546  1.00  0.00    -0.202 N 
HETATM   21  C22 UNL     1      68.293  38.871  31.775  1.00  0.00     0.319 A 
ATOM     22  H2  UNL     1      67.268  37.762  33.179  1.00  0.00     0.200 HD
HETATM   23  O8  UNL     1      69.439  38.310  31.612  1.00  0.00    -0.261 OA
ENDBRANCH  15  16
ENDBRANCH  13  15
ENDBRANCH  12  13
ENDBRANCH  11  12
BRANCH  11  24
HETATM   24  O1  UNL     1      70.474  40.216  27.764  1.00  0.00    -0.393 OA
ATOM     25  H1  UNL     1      70.568  39.977  28.679  1.00  0.00     0.210 HD
ENDBRANCH  11  24
ENDBRANCH   1  11
BRANCH   9  26
HETATM   26  O4  UNL     1      64.200  37.528  25.327  1.00  0.00    -0.359 OA
ATOM     27  H4  UNL     1      64.052  38.265  24.747  1.00  0.00     0.217 HD
ENDBRANCH   9  26
BRANCH   7  28
HETATM   28  O2  UNL     1      67.948  34.416  25.068  1.00  0.00    -0.360 OA
ATOM     29  H2  UNL     1      67.359  33.675  25.002  1.00  0.00     0.217 HD
ENDBRANCH   7  28
BRANCH   8  30
HETATM   30  C13 UNL     1      65.326  35.190  24.095  1.00  0.00    -0.025 C 
BRANCH  30  31
HETATM   31  C14 UNL     1      65.310  35.535  22.678  1.00  0.00     0.010 C 
HETATM   32  C15 UNL     1      66.450  36.411  22.178  1.00  0.00     0.014 C 
HETATM   33  C16 UNL     1      64.013  36.198  22.282  1.00  0.00     0.014 C 
ENDBRANCH  30  31
BRANCH  30  34
HETATM   34  C17 UNL     1      64.329  34.164  24.576  1.00  0.00     0.103 A 
HETATM   35  C18 UNL     1      64.941  33.103  25.582  1.00  0.00     0.053 C 
HETATM   36  C19 UNL     1      62.947  34.019  24.292  1.00  0.00     0.211 A 
HETATM   37  O3  UNL     1      63.199  34.752  25.425  1.00  0.00    -0.370 OA
ENDBRANCH  30  34
ENDBRANCH   8  30
TORSDOF 11
ENDMDL
MODEL 4
REMARK VINA RESULT: -7.459769339      1.336      2.306
REMARK  11 active torsions:
REMARK  status: ('A' for Active; 'I' for Inactive)
REMARK    1  A    between atoms: C2_2  and  C3_3 
REMARK    2  A    between atoms: C2_2  and  O6_29 
REMARK    3  A    between atoms: C3_3  and  C4_4 
REMARK    4  A    between atoms: C4_4  and  O1_5 
REMARK    5  A    between atoms: C4_4  and  C5_7 
REMARK    6  A    between atoms: C11_13  and  O2_14 
REMARK    7  A    between atoms: C12_16  and  C13_17 
REMARK    8  A    between atoms: C13_17  and  C14_18 
REMARK    9  A    between atoms: C13_17  and  C17_21 
REMARK   10  A    between atoms: C20_25  and  O4_26 
REMARK   11  A    between atoms: O6_29  and  C21_30 
ROOT
HETATM    1  C5  UNL     1      68.067  35.817  25.846  1.00  0.00     0.158 C 
HETATM    2  C6  UNL     1      68.866  35.781  27.143  1.00  0.00     0.040 C 
HETATM    3  C7  UNL     1      69.034  37.122  27.755  1.00  0.00     0.047 C 
HETATM    4  C8  UNL     1      68.174  38.205  27.229  1.00  0.00     0.009 A 
HETATM    5  C9  UNL     1      67.097  37.901  26.437  1.00  0.00     0.081 A 
HETATM    6  C10 UNL     1      66.328  38.881  25.887  1.00  0.00     0.074 A 
HETATM    7  C11 UNL     1      66.662  40.181  26.137  1.00  0.00     0.081 A 
HETATM    8  C12 UNL     1      67.748  40.563  26.922  1.00  0.00     0.037 A 
HETATM    9  C20 UNL     1      68.501  39.518  27.477  1.00  0.00     0.088 A 
HETATM   10  O5  UNL     1      66.868  36.535  26.244  1.00  0.00    -0.343 OA
ENDROOT
BRANCH   1  11
HETATM   11  C4  UNL     1      67.728  34.502  25.315  1.00  0.00     0.150 C 
BRANCH  11  12
HETATM   12  C3  UNL     1      67.548  33.328  26.154  1.00  0.00     0.066 C 
BRANCH  12  13
HETATM   13  C2  UNL     1      66.194  32.953  26.636  1.00  0.00     0.129 C 
HETATM   14  C1  UNL     1      65.721  31.822  25.647  1.00  0.00     0.040 C 
BRANCH  13  15
HETATM   15  O6  UNL     1      65.256  33.977  26.470  1.00  0.00    -0.325 OA
BRANCH  15  16
HETATM   16  C21 UNL     1      64.201  33.976  25.574  1.00  0.00     0.236 A 
HETATM   17  N1  UNL     1      64.155  34.201  24.277  1.00  0.00    -0.215 N 
HETATM   18  O7  UNL     1      62.906  34.096  23.815  1.00  0.00    -0.152 OA
ATOM     19  H1  UNL     1      64.966  34.427  23.701  1.00  0.00     0.199 HD
HETATM   20  N2  UNL     1      62.172  33.797  24.870  1.00  0.00    -0.202 N 
HETATM   21  C22 UNL     1      62.893  33.708  25.960  1.00  0.00     0.319 A 
ATOM     22  H2  UNL     1      61.162  33.651  24.841  1.00  0.00     0.200 HD
HETATM   23  O8  UNL     1      62.568  33.440  27.175  1.00  0.00    -0.261 OA
ENDBRANCH  15  16
ENDBRANCH  13  15
ENDBRANCH  12  13
ENDBRANCH  11  12
BRANCH  11  24
HETATM   24  O1  UNL     1      67.074  34.434  24.100  1.00  0.00    -0.393 OA
ATOM     25  H1  UNL     1      67.329  35.110  23.483  1.00  0.00     0.210 HD
ENDBRANCH  11  24
ENDBRANCH   1  11
BRANCH   9  26
HETATM   26  O4  UNL     1      69.609  39.794  28.308  1.00  0.00    -0.359 OA
ATOM     27  H4  UNL     1      70.032  40.641  28.236  1.00  0.00     0.217 HD
ENDBRANCH   9  26
BRANCH   7  28
HETATM   28  O2  UNL     1      65.817  41.137  25.547  1.00  0.00    -0.360 OA
ATOM     29  H2  UNL     1      65.013  40.789  25.181  1.00  0.00     0.217 HD
ENDBRANCH   7  28
BRANCH   8  30
HETATM   30  C13 UNL     1      68.254  41.913  26.920  1.00  0.00    -0.025 C 
BRANCH  30  31
HETATM   31  C14 UNL     1      67.856  42.961  27.852  1.00  0.00     0.010 C 
HETATM   32  C15 UNL     1      67.775  42.573  29.321  1.00  0.00     0.014 C 
HETATM   33  C16 UNL     1      66.532  43.576  27.465  1.00  0.00     0.014 C 
ENDBRANCH  30  31
BRANCH  30  34
HETATM   34  C17 UNL     1      69.044  42.322  25.702  1.00  0.00     0.103 A 
HETATM   35  C18 UNL     1      69.242  43.889  25.567  1.00  0.00     0.053 C 
HETATM   36  C19 UNL     1      69.649  41.535  24.689  1.00  0.00     0.211 A 
HETATM   37  O3  UNL     1      70.499  41.846  25.721  1.00  0.00    -0.370 OA
ENDBRANCH  30  34
ENDBRANCH   8  30
TORSDOF 11
ENDMDL
MODEL 5
REMARK VINA RESULT: -7.447932262      1.052      1.388
REMARK  11 active torsions:
REMARK  status: ('A' for Active; 'I' for Inactive)
REMARK    1  A    between atoms: C2_2  and  C3_3 
REMARK    2  A    between atoms: C2_2  and  O6_29 
REMARK    3  A    between atoms: C3_3  and  C4_4 
REMARK    4  A    between atoms: C4_4  and  O1_5 
REMARK    5  A    between atoms: C4_4  and  C5_7 
REMARK    6  A    between atoms: C11_13  and  O2_14 
REMARK    7  A    between atoms: C12_16  and  C13_17 
REMARK    8  A    between atoms: C13_17  and  C14_18 
REMARK    9  A    between atoms: C13_17  and  C17_21 
REMARK   10  A    between atoms: C20_25  and  O4_26 
REMARK   11  A    between atoms: O6_29  and  C21_30 
ROOT
HETATM    1  C5  UNL     1      68.059  35.905  25.820  1.00  0.00     0.158 C 
HETATM    2  C6  UNL     1      68.904  35.854  27.087  1.00  0.00     0.040 C 
HETATM    3  C7  UNL     1      69.096  37.189  27.707  1.00  0.00     0.047 C 
HETATM    4  C8  UNL     1      68.220  38.278  27.223  1.00  0.00     0.009 A 
HETATM    5  C9  UNL     1      67.115  37.984  26.467  1.00  0.00     0.081 A 
HETATM    6  C10 UNL     1      66.329  38.971  25.955  1.00  0.00     0.074 A 
HETATM    7  C11 UNL     1      66.674  40.268  26.206  1.00  0.00     0.081 A 
HETATM    8  C12 UNL     1      67.788  40.640  26.956  1.00  0.00     0.037 A 
HETATM    9  C20 UNL     1      68.558  39.589  27.472  1.00  0.00     0.088 A 
HETATM   10  O5  UNL     1      66.877  36.621  26.268  1.00  0.00    -0.343 OA
ENDROOT
BRANCH   1  11
HETATM   11  C4  UNL     1      67.698  34.596  25.289  1.00  0.00     0.150 C 
BRANCH  11  12
HETATM   12  C3  UNL     1      67.532  33.417  26.123  1.00  0.00     0.066 C 
BRANCH  12  13
HETATM   13  C2  UNL     1      66.189  33.048  26.638  1.00  0.00     0.129 C 
HETATM   14  C1  UNL     1      65.712  31.878  25.696  1.00  0.00     0.040 C 
BRANCH  13  15
HETATM   15  O6  UNL     1      65.239  34.058  26.449  1.00  0.00    -0.325 OA
BRANCH  15  16
HETATM   16  C21 UNL     1      64.188  34.027  25.551  1.00  0.00     0.236 A 
HETATM   17  N1  UNL     1      64.142  34.235  24.250  1.00  0.00    -0.215 N 
HETATM   18  O7  UNL     1      62.897  34.103  23.786  1.00  0.00    -0.152 OA
ATOM     19  H1  UNL     1      64.951  34.467  23.674  1.00  0.00     0.199 HD
HETATM   20  N2  UNL     1      62.164  33.804  24.843  1.00  0.00    -0.202 N 
HETATM   21  C22 UNL     1      62.883  33.742  25.936  1.00  0.00     0.319 A 
ATOM     22  H2  UNL     1      61.157  33.641  24.812  1.00  0.00     0.200 HD
HETATM   23  O8  UNL     1      62.558  33.483  27.153  1.00  0.00    -0.261 OA
ENDBRANCH  15  16
ENDBRANCH  13  15
ENDBRANCH  12  13
ENDBRANCH  11  12
BRANCH  11  24
HETATM   24  O1  UNL     1      67.014  34.541  24.090  1.00  0.00    -0.393 OA
ATOM     25  H1  UNL     1      66.345  35.208  23.992  1.00  0.00     0.210 HD
ENDBRANCH  11  24
ENDBRANCH   1  11
BRANCH   9  26
HETATM   26  O4  UNL     1      69.696  39.854  28.266  1.00  0.00    -0.359 OA
ATOM     27  H4  UNL     1      70.329  40.489  27.955  1.00  0.00     0.217 HD
ENDBRANCH   9  26
BRANCH   7  28
HETATM   28  O2  UNL     1      65.810  41.231  25.657  1.00  0.00    -0.360 OA
ATOM     29  H2  UNL     1      65.200  40.899  25.009  1.00  0.00     0.217 HD
ENDBRANCH   7  28
BRANCH   8  30
HETATM   30  C13 UNL     1      68.296  41.989  26.949  1.00  0.00    -0.025 C 
BRANCH  30  31
HETATM   31  C14 UNL     1      69.044  42.600  25.856  1.00  0.00     0.010 C 
HETATM   32  C15 UNL     1      68.244  43.433  24.865  1.00  0.00     0.014 C 
HETATM   33  C16 UNL     1      69.821  41.571  25.070  1.00  0.00     0.014 C 
ENDBRANCH  30  31
BRANCH  30  34
HETATM   34  C17 UNL     1      68.277  42.711  28.273  1.00  0.00     0.103 A 
HETATM   35  C18 UNL     1      69.391  43.831  28.405  1.00  0.00     0.053 C 
HETATM   36  C19 UNL     1      67.414  42.565  29.389  1.00  0.00     0.211 A 
HETATM   37  O3  UNL     1      67.008  43.535  28.508  1.00  0.00    -0.370 OA
ENDBRANCH  30  34
ENDBRANCH   8  30
TORSDOF 11
ENDMDL
