MODEL 1
REMARK VINA RESULT: -9.048934942      0.000      0.000
REMARK  9 active torsions:
REMARK  status: ('A' for Active; 'I' for Inactive)
REMARK    1  A    between atoms: N3_7  and  C3_8 
REMARK    2  A    between atoms: C4_14  and  N6_15 
REMARK    3  A    between atoms: C5_18  and  C6_19 
REMARK    4  A    between atoms: C6_19  and  C7_20 
REMARK    5  A    between atoms: C6_19  and  N7_27 
REMARK    6  A    between atoms: C7_20  and  C8_21 
REMARK       I    between atoms: N7_27  and  C14_29 
REMARK    7  A    between atoms: C14_29  and  C15_31 
REMARK    8  A    between atoms: C15_31  and  C16_32 
REMARK    9  A    between atoms: C16_32  and  C17_33 
ROOT
HETATM    1  C6  UNL     1      66.585  35.814  24.923  1.00  0.00     0.043 C 
ENDROOT
BRANCH   1   2
HETATM    2  C5  UNL     1      67.078  36.796  25.923  1.00  0.00     0.106 A 
HETATM    3  C2  UNL     1      66.354  37.888  26.390  1.00  0.00     0.054 A 
HETATM    4  C1  UNL     1      65.041  38.424  26.017  1.00  0.00     0.072 C 
HETATM    5  N1  UNL     1      67.102  38.536  27.352  1.00  0.00    -0.288 N 
HETATM    6  N2  UNL     1      68.193  37.884  27.454  1.00  0.00    -0.234 N 
ATOM      7  H1  UNL     1      66.835  39.370  27.876  1.00  0.00     0.188 HD
HETATM    8  N3  UNL     1      68.216  36.825  26.605  1.00  0.00    -0.216 N 
ATOM      9  H2  UNL     1      68.951  38.127  28.091  1.00  0.00     0.209 HD
BRANCH   8  10
HETATM   10  C3  UNL     1      69.360  35.985  26.592  1.00  0.00     0.196 A 
HETATM   11  N4  UNL     1      69.936  35.299  25.584  1.00  0.00    -0.220 N 
HETATM   12  O1  UNL     1      71.016  34.703  26.027  1.00  0.00    -0.153 OA
ATOM     13  H4  UNL     1      69.586  35.251  24.627  1.00  0.00     0.198 HD
HETATM   14  N5  UNL     1      71.218  34.939  27.277  1.00  0.00    -0.222 N 
HETATM   15  C4  UNL     1      70.193  35.745  27.677  1.00  0.00     0.169 A 
ATOM     16  H5  UNL     1      71.987  34.592  27.850  1.00  0.00     0.198 HD
BRANCH  15  17
HETATM   17  N6  UNL     1      70.090  36.166  28.884  1.00  0.00    -0.381 N 
ATOM     18  H62 UNL     1      70.203  37.151  29.125  1.00  0.00     0.157 HD
ATOM     19  H61 UNL     1      69.899  35.637  29.735  1.00  0.00     0.157 HD
ENDBRANCH  15  17
ENDBRANCH   8  10
ENDBRANCH   1   2
BRANCH   1  20
HETATM   20  C7  UNL     1      66.476  34.434  25.418  1.00  0.00     0.064 C 
BRANCH  20  21
HETATM   21  C8  UNL     1      65.209  33.645  25.048  1.00  0.00    -0.009 C 
HETATM   22  C9  UNL     1      64.963  32.488  25.908  1.00  0.00     0.005 C 
HETATM   23  C10 UNL     1      63.473  32.162  26.069  1.00  0.00     0.000 C 
HETATM   24  C11 UNL     1      62.845  33.393  26.675  1.00  0.00     0.000 C 
HETATM   25  C12 UNL     1      62.824  34.413  25.558  1.00  0.00     0.000 C 
HETATM   26  C13 UNL     1      64.137  34.684  24.965  1.00  0.00     0.005 C 
ENDBRANCH  20  21
ENDBRANCH   1  20
BRANCH   1  27
HETATM   27  N7  UNL     1      67.057  36.006  23.597  1.00  0.00    -0.328 N 
HETATM   28  C14 UNL     1      66.254  36.764  22.663  1.00  0.00     0.222 C 
HETATM   29  O2  UNL     1      65.146  37.248  23.032  1.00  0.00    -0.273 OA
ATOM     30  H7  UNL     1      67.953  35.614  23.307  1.00  0.00     0.168 HD
BRANCH  28  31
HETATM   31  C15 UNL     1      66.703  36.981  21.289  1.00  0.00     0.109 C 
BRANCH  31  32
HETATM   32  C16 UNL     1      65.532  37.094  20.334  1.00  0.00     0.068 C 
BRANCH  32  33
HETATM   33  C17 UNL     1      65.879  37.987  19.214  1.00  0.00     0.035 A 
HETATM   34  C18 UNL     1      66.958  38.831  19.074  1.00  0.00     0.170 A 
HETATM   35  O3  UNL     1      66.863  39.434  17.930  1.00  0.00    -0.295 OA
HETATM   36  C19 UNL     1      65.797  39.053  17.292  1.00  0.00     0.219 A 
HETATM   37  S1  UNL     1      65.346  39.596  15.820  1.00  0.00    -0.033 SA
HETATM   38  N8  UNL     1      65.170  38.160  18.063  1.00  0.00    -0.329 N 
ATOM     39  H8  UNL     1      64.300  37.683  17.827  1.00  0.00     0.168 HD
ENDBRANCH  32  33
ENDBRANCH  31  32
ENDBRANCH  28  31
ENDBRANCH   1  27
TORSDOF 9
ENDMDL
MODEL 2
REMARK VINA RESULT: -8.812205188      2.679      5.224
REMARK  9 active torsions:
REMARK  status: ('A' for Active; 'I' for Inactive)
REMARK    1  A    between atoms: N3_7  and  C3_8 
REMARK    2  A    between atoms: C4_14  and  N6_15 
REMARK    3  A    between atoms: C5_18  and  C6_19 
REMARK    4  A    between atoms: C6_19  and  C7_20 
REMARK    5  A    between atoms: C6_19  and  N7_27 
REMARK    6  A    between atoms: C7_20  and  C8_21 
REMARK       I    between atoms: N7_27  and  C14_29 
REMARK    7  A    between atoms: C14_29  and  C15_31 
REMARK    8  A    between atoms: C15_31  and  C16_32 
REMARK    9  A    between atoms: C16_32  and  C17_33 
ROOT
HETATM    1  C6  UNL     1      66.510  35.878  24.745  1.00  0.00     0.043 C 
ENDROOT
BRANCH   1   2
HETATM    2  C5  UNL     1      66.286  34.437  25.024  1.00  0.00     0.106 A 
HETATM    3  C2  UNL     1      67.208  33.591  25.631  1.00  0.00     0.054 A 
HETATM    4  C1  UNL     1      68.593  33.801  26.065  1.00  0.00     0.072 C 
HETATM    5  N1  UNL     1      66.632  32.345  25.783  1.00  0.00    -0.288 N 
HETATM    6  N2  UNL     1      65.455  32.436  25.302  1.00  0.00    -0.234 N 
ATOM      7  H1  UNL     1      67.063  31.518  26.197  1.00  0.00     0.188 HD
HETATM    8  N3  UNL     1      65.208  33.685  24.833  1.00  0.00    -0.216 N 
ATOM      9  H2  UNL     1      64.785  31.668  25.274  1.00  0.00     0.209 HD
BRANCH   8  10
HETATM   10  C3  UNL     1      63.937  33.963  24.265  1.00  0.00     0.196 A 
HETATM   11  N4  UNL     1      63.585  34.253  22.995  1.00  0.00    -0.220 N 
HETATM   12  O1  UNL     1      62.283  34.377  22.925  1.00  0.00    -0.153 OA
ATOM     13  H4  UNL     1      64.232  34.359  22.213  1.00  0.00     0.198 HD
HETATM   14  N5  UNL     1      61.719  34.190  24.066  1.00  0.00    -0.222 N 
HETATM   15  C4  UNL     1      62.728  33.925  24.945  1.00  0.00     0.169 A 
ATOM     16  H5  UNL     1      60.720  34.230  24.272  1.00  0.00     0.198 HD
BRANCH  15  17
HETATM   17  N6  UNL     1      62.506  33.694  26.187  1.00  0.00    -0.381 N 
ATOM     18  H62 UNL     1      62.570  32.756  26.583  1.00  0.00     0.157 HD
ATOM     19  H61 UNL     1      62.246  34.348  26.926  1.00  0.00     0.157 HD
ENDBRANCH  15  17
ENDBRANCH   8  10
ENDBRANCH   1   2
BRANCH   1  20
HETATM   20  C7  UNL     1      65.510  36.782  25.334  1.00  0.00     0.064 C 
BRANCH  20  21
HETATM   21  C8  UNL     1      66.003  37.811  26.365  1.00  0.00    -0.009 C 
HETATM   22  C9  UNL     1      67.422  37.680  26.696  1.00  0.00     0.005 C 
HETATM   23  C10 UNL     1      68.078  39.013  27.074  1.00  0.00     0.000 C 
HETATM   24  C11 UNL     1      67.915  39.908  25.871  1.00  0.00     0.000 C 
HETATM   25  C12 UNL     1      66.447  40.276  25.852  1.00  0.00     0.000 C 
HETATM   26  C13 UNL     1      65.539  39.126  25.827  1.00  0.00     0.005 C 
ENDBRANCH  20  21
ENDBRANCH   1  20
BRANCH   1  27
HETATM   27  N7  UNL     1      66.988  36.180  23.442  1.00  0.00    -0.328 N 
HETATM   28  C14 UNL     1      66.079  36.741  22.467  1.00  0.00     0.222 C 
HETATM   29  O2  UNL     1      64.874  36.960  22.781  1.00  0.00    -0.273 OA
ATOM     30  H7  UNL     1      67.961  36.002  23.197  1.00  0.00     0.168 HD
BRANCH  28  31
HETATM   31  C15 UNL     1      66.531  37.061  21.115  1.00  0.00     0.109 C 
BRANCH  31  32
HETATM   32  C16 UNL     1      65.367  37.172  20.151  1.00  0.00     0.068 C 
BRANCH  32  33
HETATM   33  C17 UNL     1      65.730  38.044  19.020  1.00  0.00     0.035 A 
HETATM   34  C18 UNL     1      66.866  38.797  18.829  1.00  0.00     0.170 A 
HETATM   35  O3  UNL     1      66.764  39.416  17.694  1.00  0.00    -0.295 OA
HETATM   36  C19 UNL     1      65.638  39.131  17.110  1.00  0.00     0.219 A 
HETATM   37  S1  UNL     1      65.159  39.723  15.666  1.00  0.00    -0.033 SA
HETATM   38  N8  UNL     1      64.980  38.286  17.908  1.00  0.00    -0.329 N 
ATOM     39  H8  UNL     1      64.062  37.885  17.715  1.00  0.00     0.168 HD
ENDBRANCH  32  33
ENDBRANCH  31  32
ENDBRANCH  28  31
ENDBRANCH   1  27
TORSDOF 9
ENDMDL
MODEL 3
REMARK VINA RESULT: -8.743187203      0.545      1.046
REMARK  9 active torsions:
REMARK  status: ('A' for Active; 'I' for Inactive)
REMARK    1  A    between atoms: N3_7  and  C3_8 
REMARK    2  A    between atoms: C4_14  and  N6_15 
REMARK    3  A    between atoms: C5_18  and  C6_19 
REMARK    4  A    between atoms: C6_19  and  C7_20 
REMARK    5  A    between atoms: C6_19  and  N7_27 
REMARK    6  A    between atoms: C7_20  and  C8_21 
REMARK       I    between atoms: N7_27  and  C14_29 
REMARK    7  A    between atoms: C14_29  and  C15_31 
REMARK    8  A    between atoms: C15_31  and  C16_32 
REMARK    9  A    between atoms: C16_32  and  C17_33 
ROOT
HETATM    1  C6  UNL     1      66.571  36.153  24.631  1.00  0.00     0.043 C 
ENDROOT
BRANCH   1   2
HETATM    2  C5  UNL     1      67.036  37.001  25.758  1.00  0.00     0.106 A 
HETATM    3  C2  UNL     1      66.332  38.076  26.288  1.00  0.00     0.054 A 
HETATM    4  C1  UNL     1      65.074  38.717  25.888  1.00  0.00     0.072 C 
HETATM    5  N1  UNL     1      67.039  38.583  27.359  1.00  0.00    -0.288 N 
HETATM    6  N2  UNL     1      68.088  37.868  27.464  1.00  0.00    -0.234 N 
ATOM      7  H1  UNL     1      66.774  39.372  27.950  1.00  0.00     0.188 HD
HETATM    8  N3  UNL     1      68.124  36.900  26.513  1.00  0.00    -0.216 N 
ATOM      9  H2  UNL     1      68.810  38.005  28.172  1.00  0.00     0.209 HD
BRANCH   8  10
HETATM   10  C3  UNL     1      69.226  36.007  26.487  1.00  0.00     0.196 A 
HETATM   11  N4  UNL     1      69.743  35.276  25.477  1.00  0.00    -0.220 N 
HETATM   12  O1  UNL     1      70.804  34.638  25.904  1.00  0.00    -0.153 OA
ATOM     13  H4  UNL     1      69.366  35.229  24.530  1.00  0.00     0.198 HD
HETATM   14  N5  UNL     1      71.049  34.885  27.144  1.00  0.00    -0.222 N 
HETATM   15  C4  UNL     1      70.074  35.747  27.554  1.00  0.00     0.169 A 
ATOM     16  H5  UNL     1      71.815  34.513  27.704  1.00  0.00     0.198 HD
BRANCH  15  17
HETATM   17  N6  UNL     1      70.022  36.193  28.755  1.00  0.00    -0.381 N 
ATOM     18  H62 UNL     1      69.465  35.737  29.479  1.00  0.00     0.157 HD
ATOM     19  H61 UNL     1      70.484  37.009  29.158  1.00  0.00     0.157 HD
ENDBRANCH  15  17
ENDBRANCH   8  10
ENDBRANCH   1   2
BRANCH   1  20
HETATM   20  C7  UNL     1      66.320  34.747  24.980  1.00  0.00     0.064 C 
BRANCH  20  21
HETATM   21  C8  UNL     1      65.252  34.460  26.048  1.00  0.00    -0.009 C 
HETATM   22  C9  UNL     1      63.880  34.620  25.566  1.00  0.00     0.005 C 
HETATM   23  C10 UNL     1      62.881  33.694  26.271  1.00  0.00     0.000 C 
HETATM   24  C11 UNL     1      63.359  32.289  25.997  1.00  0.00     0.000 C 
HETATM   25  C12 UNL     1      64.597  32.123  26.851  1.00  0.00     0.000 C 
HETATM   26  C13 UNL     1      65.635  33.128  26.608  1.00  0.00     0.005 C 
ENDBRANCH  20  21
ENDBRANCH   1  20
BRANCH   1  27
HETATM   27  N7  UNL     1      67.176  36.425  23.374  1.00  0.00    -0.328 N 
HETATM   28  C14 UNL     1      66.409  37.101  22.351  1.00  0.00     0.222 C 
HETATM   29  O2  UNL     1      65.214  37.444  22.582  1.00  0.00    -0.273 OA
ATOM     30  H7  UNL     1      68.140  36.146  23.196  1.00  0.00     0.168 HD
BRANCH  28  31
HETATM   31  C15 UNL     1      66.994  37.394  21.044  1.00  0.00     0.109 C 
BRANCH  31  32
HETATM   32  C16 UNL     1      65.969  37.266  19.935  1.00  0.00     0.068 C 
BRANCH  32  33
HETATM   33  C17 UNL     1      66.263  38.232  18.862  1.00  0.00     0.035 A 
HETATM   34  C18 UNL     1      67.331  39.091  18.731  1.00  0.00     0.170 A 
HETATM   35  O3  UNL     1      67.184  39.766  17.633  1.00  0.00    -0.295 OA
HETATM   36  C19 UNL     1      66.092  39.420  17.019  1.00  0.00     0.219 A 
HETATM   37  S1  UNL     1      65.574  40.053  15.606  1.00  0.00    -0.033 SA
HETATM   38  N8  UNL     1      65.504  38.474  17.757  1.00  0.00    -0.329 N 
ATOM     39  H8  UNL     1      64.626  38.007  17.529  1.00  0.00     0.168 HD
ENDBRANCH  32  33
ENDBRANCH  31  32
ENDBRANCH  28  31
ENDBRANCH   1  27
TORSDOF 9
ENDMDL
MODEL 4
REMARK VINA RESULT: -8.734502625      3.938      7.650
REMARK  9 active torsions:
REMARK  status: ('A' for Active; 'I' for Inactive)
REMARK    1  A    between atoms: N3_7  and  C3_8 
REMARK    2  A    between atoms: C4_14  and  N6_15 
REMARK    3  A    between atoms: C5_18  and  C6_19 
REMARK    4  A    between atoms: C6_19  and  C7_20 
REMARK    5  A    between atoms: C6_19  and  N7_27 
REMARK    6  A    between atoms: C7_20  and  C8_21 
REMARK       I    between atoms: N7_27  and  C14_29 
REMARK    7  A    between atoms: C14_29  and  C15_31 
REMARK    8  A    between atoms: C15_31  and  C16_32 
REMARK    9  A    between atoms: C16_32  and  C17_33 
ROOT
HETATM    1  C6  UNL     1      65.721  36.132  24.809  1.00  0.00     0.043 C 
ENDROOT
BRANCH   1   2
HETATM    2  C5  UNL     1      64.757  35.508  23.867  1.00  0.00     0.106 A 
HETATM    3  C2  UNL     1      64.715  35.746  22.497  1.00  0.00     0.054 A 
HETATM    4  C1  UNL     1      65.468  36.666  21.639  1.00  0.00     0.072 C 
HETATM    5  N1  UNL     1      63.737  34.948  21.939  1.00  0.00    -0.288 N 
HETATM    6  N2  UNL     1      63.229  34.282  22.901  1.00  0.00    -0.234 N 
ATOM      7  H1  UNL     1      63.473  34.900  20.955  1.00  0.00     0.188 HD
HETATM    8  N3  UNL     1      63.819  34.593  24.083  1.00  0.00    -0.216 N 
ATOM      9  H2  UNL     1      62.476  33.603  22.795  1.00  0.00     0.209 HD
BRANCH   8  10
HETATM   10  C3  UNL     1      63.376  33.938  25.261  1.00  0.00     0.196 A 
HETATM   11  N4  UNL     1      62.330  34.198  26.072  1.00  0.00    -0.220 N 
HETATM   12  O1  UNL     1      62.275  33.288  27.013  1.00  0.00    -0.153 OA
ATOM     13  H4  UNL     1      61.684  34.980  25.969  1.00  0.00     0.198 HD
HETATM   14  N5  UNL     1      63.217  32.418  26.898  1.00  0.00    -0.222 N 
HETATM   15  C4  UNL     1      63.940  32.791  25.802  1.00  0.00     0.169 A 
ATOM     16  H5  UNL     1      63.388  31.615  27.502  1.00  0.00     0.198 HD
BRANCH  15  17
HETATM   17  N6  UNL     1      64.966  32.131  25.408  1.00  0.00    -0.381 N 
ATOM     18  H62 UNL     1      65.704  31.842  26.051  1.00  0.00     0.157 HD
ATOM     19  H61 UNL     1      65.204  31.813  24.468  1.00  0.00     0.157 HD
ENDBRANCH  15  17
ENDBRANCH   8  10
ENDBRANCH   1   2
BRANCH   1  20
HETATM   20  C7  UNL     1      65.604  37.593  24.932  1.00  0.00     0.064 C 
BRANCH  20  21
HETATM   21  C8  UNL     1      66.808  38.354  25.511  1.00  0.00    -0.009 C 
HETATM   22  C9  UNL     1      67.675  38.948  24.494  1.00  0.00     0.005 C 
HETATM   23  C10 UNL     1      68.368  40.232  24.966  1.00  0.00     0.000 C 
HETATM   24  C11 UNL     1      67.258  41.193  25.317  1.00  0.00     0.000 C 
HETATM   25  C12 UNL     1      66.672  40.661  26.607  1.00  0.00     0.000 C 
HETATM   26  C13 UNL     1      66.211  39.271  26.530  1.00  0.00     0.005 C 
ENDBRANCH  20  21
ENDBRANCH   1  20
BRANCH   1  27
HETATM   27  N7  UNL     1      67.026  35.570  24.805  1.00  0.00    -0.328 N 
HETATM   28  C14 UNL     1      67.389  34.619  25.832  1.00  0.00     0.222 C 
HETATM   29  O2  UNL     1      66.548  34.295  26.718  1.00  0.00    -0.273 OA
ATOM     30  H7  UNL     1      67.699  35.835  24.087  1.00  0.00     0.168 HD
BRANCH  28  31
HETATM   31  C15 UNL     1      68.723  34.022  25.866  1.00  0.00     0.109 C 
BRANCH  31  32
HETATM   32  C16 UNL     1      69.802  35.079  25.980  1.00  0.00     0.068 C 
BRANCH  32  33
HETATM   33  C17 UNL     1      69.656  35.813  27.249  1.00  0.00     0.035 A 
HETATM   34  C18 UNL     1      70.007  35.430  28.524  1.00  0.00     0.170 A 
HETATM   35  O3  UNL     1      69.693  36.385  29.342  1.00  0.00    -0.295 OA
HETATM   36  C19 UNL     1      69.158  37.384  28.706  1.00  0.00     0.219 A 
HETATM   37  S1  UNL     1      68.637  38.765  29.403  1.00  0.00    -0.033 SA
HETATM   38  N8  UNL     1      69.122  37.057  27.411  1.00  0.00    -0.329 N 
ATOM     39  H8  UNL     1      68.755  37.644  26.663  1.00  0.00     0.168 HD
ENDBRANCH  32  33
ENDBRANCH  31  32
ENDBRANCH  28  31
ENDBRANCH   1  27
TORSDOF 9
ENDMDL
MODEL 5
REMARK VINA RESULT: -8.709223645      1.706      2.987
REMARK  9 active torsions:
REMARK  status: ('A' for Active; 'I' for Inactive)
REMARK    1  A    between atoms: N3_7  and  C3_8 
REMARK    2  A    between atoms: C4_14  and  N6_15 
REMARK    3  A    between atoms: C5_18  and  C6_19 
REMARK    4  A    between atoms: C6_19  and  C7_20 
REMARK    5  A    between atoms: C6_19  and  N7_27 
REMARK    6  A    between atoms: C7_20  and  C8_21 
REMARK       I    between atoms: N7_27  and  C14_29 
REMARK    7  A    between atoms: C14_29  and  C15_31 
REMARK    8  A    between atoms: C15_31  and  C16_32 
REMARK    9  A    between atoms: C16_32  and  C17_33 
ROOT
HETATM    1  C6  UNL     1      66.909  36.481  25.466  1.00  0.00     0.043 C 
ENDROOT
BRANCH   1   2
HETATM    2  C5  UNL     1      68.043  36.467  26.425  1.00  0.00     0.106 A 
HETATM    3  C2  UNL     1      68.936  35.414  26.586  1.00  0.00     0.054 A 
HETATM    4  C1  UNL     1      68.990  34.075  25.991  1.00  0.00     0.072 C 
HETATM    5  N1  UNL     1      69.889  35.780  27.515  1.00  0.00    -0.288 N 
HETATM    6  N2  UNL     1      69.590  36.963  27.885  1.00  0.00    -0.234 N 
ATOM      7  H1  UNL     1      70.676  35.217  27.840  1.00  0.00     0.188 HD
HETATM    8  N3  UNL     1      68.479  37.414  27.248  1.00  0.00    -0.216 N 
ATOM      9  H2  UNL     1      70.117  37.502  28.571  1.00  0.00     0.209 HD
BRANCH   8  10
HETATM   10  C3  UNL     1      68.007  38.719  27.539  1.00  0.00     0.196 A 
HETATM   11  N4  UNL     1      67.749  39.319  28.720  1.00  0.00    -0.220 N 
HETATM   12  O1  UNL     1      67.384  40.559  28.506  1.00  0.00    -0.153 OA
ATOM     13  H4  UNL     1      67.827  38.876  29.636  1.00  0.00     0.198 HD
HETATM   14  N5  UNL     1      67.376  40.849  27.252  1.00  0.00    -0.222 N 
HETATM   15  C4  UNL     1      67.762  39.713  26.602  1.00  0.00     0.169 A 
ATOM     16  H5  UNL     1      67.130  41.744  26.831  1.00  0.00     0.198 HD
BRANCH  15  17
HETATM   17  N6  UNL     1      67.854  39.659  25.324  1.00  0.00    -0.381 N 
ATOM     18  H62 UNL     1      68.115  38.802  24.836  1.00  0.00     0.157 HD
ATOM     19  H61 UNL     1      67.700  40.397  24.636  1.00  0.00     0.157 HD
ENDBRANCH  15  17
ENDBRANCH   8  10
ENDBRANCH   1   2
BRANCH   1  20
HETATM   20  C7  UNL     1      65.670  35.868  25.967  1.00  0.00     0.064 C 
BRANCH  20  21
HETATM   21  C8  UNL     1      65.253  34.516  25.364  1.00  0.00    -0.009 C 
HETATM   22  C9  UNL     1      65.420  33.386  26.278  1.00  0.00     0.005 C 
HETATM   23  C10 UNL     1      64.403  32.264  26.040  1.00  0.00     0.000 C 
HETATM   24  C11 UNL     1      63.044  32.889  26.243  1.00  0.00     0.000 C 
HETATM   25  C12 UNL     1      62.831  33.766  25.028  1.00  0.00     0.000 C 
HETATM   26  C13 UNL     1      63.885  34.763  24.814  1.00  0.00     0.005 C 
ENDBRANCH  20  21
ENDBRANCH   1  20
BRANCH   1  27
HETATM   27  N7  UNL     1      67.258  36.253  24.107  1.00  0.00    -0.328 N 
HETATM   28  C14 UNL     1      66.619  37.035  23.072  1.00  0.00     0.222 C 
HETATM   29  O2  UNL     1      65.762  37.910  23.381  1.00  0.00    -0.273 OA
ATOM     30  H7  UNL     1      67.951  35.546  23.865  1.00  0.00     0.168 HD
BRANCH  28  31
HETATM   31  C15 UNL     1      66.947  36.827  21.663  1.00  0.00     0.109 C 
BRANCH  31  32
HETATM   32  C16 UNL     1      65.714  36.909  20.787  1.00  0.00     0.068 C 
BRANCH  32  33
HETATM   33  C17 UNL     1      65.976  37.775  19.625  1.00  0.00     0.035 A 
HETATM   34  C18 UNL     1      67.117  38.473  19.297  1.00  0.00     0.170 A 
HETATM   35  O3  UNL     1      66.905  39.111  18.188  1.00  0.00    -0.295 OA
HETATM   36  C19 UNL     1      65.703  38.890  17.748  1.00  0.00     0.219 A 
HETATM   37  S1  UNL     1      65.078  39.522  16.379  1.00  0.00    -0.033 SA
HETATM   38  N8  UNL     1      65.107  38.068  18.617  1.00  0.00    -0.329 N 
ATOM     39  H8  UNL     1      64.153  37.715  18.538  1.00  0.00     0.168 HD
ENDBRANCH  32  33
ENDBRANCH  31  32
ENDBRANCH  28  31
ENDBRANCH   1  27
TORSDOF 9
ENDMDL
