MODEL 1
REMARK VINA RESULT: -6.964501207      0.000      0.000
REMARK  2 active torsions:
REMARK  status: ('A' for Active; 'I' for Inactive)
REMARK    1  A    between atoms: C5_7  and  N1_8 
REMARK    2  A    between atoms: N1_8  and  C6_10 
ROOT
HETATM    1  C1  UNL     1      -2.369  -7.504 -15.759  1.00  0.00     0.021 C 
HETATM    2  C2  UNL     1      -2.796  -8.414 -16.873  1.00  0.00     0.086 C 
HETATM    3  C3  UNL     1      -3.632  -9.484 -16.250  1.00  0.00     0.191 C 
HETATM    4  O1  UNL     1      -4.190  -9.535 -15.168  1.00  0.00    -0.285 OA
HETATM    5  S1  UNL     1      -3.662 -10.763 -17.480  1.00  0.00    -0.090 SA
HETATM    6  C4  UNL     1      -2.113 -10.245 -18.341  1.00  0.00     0.107 C 
HETATM    7  C5  UNL     1      -1.572  -9.153 -17.467  1.00  0.00     0.098 C 
ENDROOT
BRANCH   7   8
HETATM    8  N1  UNL     1      -0.753  -8.215 -18.117  1.00  0.00    -0.411 N 
ATOM      9  H1  UNL     1      -1.166  -7.349 -18.463  1.00  0.00     0.154 HD
BRANCH   8  10
HETATM   10  C6  UNL     1       0.623  -8.439 -18.303  1.00  0.00     0.077 C 
HETATM   11  C7  UNL     1       1.478  -8.351 -17.065  1.00  0.00     0.024 C 
HETATM   12  C8  UNL     1       2.851  -8.121 -17.721  1.00  0.00     0.002 C 
HETATM   13  C9  UNL     1       2.539  -7.000 -18.649  1.00  0.00     0.002 C 
HETATM   14  C10 UNL     1       1.179  -7.327 -19.180  1.00  0.00     0.024 C 
ENDBRANCH   8  10
ENDBRANCH   7   8
TORSDOF 2
ENDMDL
MODEL 2
REMARK VINA RESULT: -6.791134554      1.199      1.593
REMARK  2 active torsions:
REMARK  status: ('A' for Active; 'I' for Inactive)
REMARK    1  A    between atoms: C5_7  and  N1_8 
REMARK    2  A    between atoms: N1_8  and  C6_10 
ROOT
HETATM    1  C1  UNL     1      -1.466  -8.607 -14.682  1.00  0.00     0.021 C 
HETATM    2  C2  UNL     1      -1.962  -8.292 -16.064  1.00  0.00     0.086 C 
HETATM    3  C3  UNL     1      -3.453  -8.347 -16.002  1.00  0.00     0.191 C 
HETATM    4  O1  UNL     1      -4.217  -8.310 -15.053  1.00  0.00    -0.285 OA
HETATM    5  S1  UNL     1      -3.940  -8.485 -17.703  1.00  0.00    -0.090 SA
HETATM    6  C4  UNL     1      -2.340  -9.180 -18.309  1.00  0.00     0.107 C 
HETATM    7  C5  UNL     1      -1.558  -9.414 -17.051  1.00  0.00     0.098 C 
ENDROOT
BRANCH   7   8
HETATM    8  N1  UNL     1      -0.162  -9.400 -17.202  1.00  0.00    -0.411 N 
ATOM      9  H1  UNL     1       0.356 -10.275 -17.125  1.00  0.00     0.154 HD
BRANCH   8  10
HETATM   10  C6  UNL     1       0.542  -8.210 -17.457  1.00  0.00     0.077 C 
HETATM   11  C7  UNL     1       0.609  -7.780 -18.900  1.00  0.00     0.024 C 
HETATM   12  C8  UNL     1       1.822  -6.836 -18.829  1.00  0.00     0.002 C 
HETATM   13  C9  UNL     1       2.812  -7.698 -18.127  1.00  0.00     0.002 C 
HETATM   14  C10 UNL     1       2.006  -8.428 -17.100  1.00  0.00     0.024 C 
ENDBRANCH   8  10
ENDBRANCH   7   8
TORSDOF 2
ENDMDL
MODEL 3
REMARK VINA RESULT: -6.588088082      1.533      2.126
REMARK  2 active torsions:
REMARK  status: ('A' for Active; 'I' for Inactive)
REMARK    1  A    between atoms: C5_7  and  N1_8 
REMARK    2  A    between atoms: N1_8  and  C6_10 
ROOT
HETATM    1  C1  UNL     1      -2.330 -10.079 -18.189  1.00  0.00     0.021 C 
HETATM    2  C2  UNL     1      -2.153  -9.603 -16.777  1.00  0.00     0.086 C 
HETATM    3  C3  UNL     1      -3.361  -8.788 -16.449  1.00  0.00     0.191 C 
HETATM    4  O1  UNL     1      -4.454  -8.727 -16.985  1.00  0.00    -0.285 OA
HETATM    5  S1  UNL     1      -2.866  -7.858 -15.021  1.00  0.00    -0.090 SA
HETATM    6  C4  UNL     1      -1.050  -7.966 -15.337  1.00  0.00     0.107 C 
HETATM    7  C5  UNL     1      -0.964  -8.616 -16.685  1.00  0.00     0.098 C 
ENDROOT
BRANCH   7   8
HETATM    8  N1  UNL     1       0.226  -9.319 -16.936  1.00  0.00    -0.411 N 
ATOM      9  H1  UNL     1       0.406 -10.187 -16.431  1.00  0.00     0.154 HD
BRANCH   8  10
HETATM   10  C6  UNL     1       1.174  -8.860 -17.867  1.00  0.00     0.077 C 
HETATM   11  C7  UNL     1       2.417  -8.235 -17.287  1.00  0.00     0.024 C 
HETATM   12  C8  UNL     1       2.893  -7.433 -18.510  1.00  0.00     0.002 C 
HETATM   13  C9  UNL     1       1.645  -6.713 -18.882  1.00  0.00     0.002 C 
HETATM   14  C10 UNL     1       0.558  -7.717 -18.660  1.00  0.00     0.024 C 
ENDBRANCH   8  10
ENDBRANCH   7   8
TORSDOF 2
ENDMDL
MODEL 4
REMARK VINA RESULT: -6.576105746      1.202      2.199
REMARK  2 active torsions:
REMARK  status: ('A' for Active; 'I' for Inactive)
REMARK    1  A    between atoms: C5_7  and  N1_8 
REMARK    2  A    between atoms: N1_8  and  C6_10 
ROOT
HETATM    1  C1  UNL     1      -2.582 -10.904 -18.345  1.00  0.00     0.021 C 
HETATM    2  C2  UNL     1      -2.422 -10.155 -17.054  1.00  0.00     0.086 C 
HETATM    3  C3  UNL     1      -3.800  -9.806 -16.594  1.00  0.00     0.191 C 
HETATM    4  O1  UNL     1      -4.888 -10.252 -16.914  1.00  0.00    -0.285 OA
HETATM    5  S1  UNL     1      -3.531  -8.522 -15.398  1.00  0.00    -0.090 SA
HETATM    6  C4  UNL     1      -1.881  -7.998 -16.042  1.00  0.00     0.107 C 
HETATM    7  C5  UNL     1      -1.723  -8.796 -17.301  1.00  0.00     0.098 C 
ENDROOT
BRANCH   7   8
HETATM    8  N1  UNL     1      -0.397  -9.038 -17.696  1.00  0.00    -0.411 N 
ATOM      9  H1  UNL     1      -0.132  -9.975 -17.999  1.00  0.00     0.154 HD
BRANCH   8  10
HETATM   10  C6  UNL     1       0.574  -8.022 -17.685  1.00  0.00     0.077 C 
HETATM   11  C7  UNL     1       1.000  -7.502 -19.034  1.00  0.00     0.024 C 
HETATM   12  C8  UNL     1       2.347  -6.867 -18.649  1.00  0.00     0.002 C 
HETATM   13  C9  UNL     1       2.986  -7.985 -17.901  1.00  0.00     0.002 C 
HETATM   14  C10 UNL     1       1.866  -8.594 -17.119  1.00  0.00     0.024 C 
ENDBRANCH   8  10
ENDBRANCH   7   8
TORSDOF 2
ENDMDL
MODEL 5
REMARK VINA RESULT: -6.283017333      1.339      2.060
REMARK  2 active torsions:
REMARK  status: ('A' for Active; 'I' for Inactive)
REMARK    1  A    between atoms: C5_7  and  N1_8 
REMARK    2  A    between atoms: N1_8  and  C6_10 
ROOT
HETATM    1  C1  UNL     1      -2.439  -7.558 -14.997  1.00  0.00     0.021 C 
HETATM    2  C2  UNL     1      -2.503  -8.208 -16.348  1.00  0.00     0.086 C 
HETATM    3  C3  UNL     1      -3.508  -9.308 -16.243  1.00  0.00     0.191 C 
HETATM    4  O1  UNL     1      -4.383  -9.516 -15.419  1.00  0.00    -0.285 OA
HETATM    5  S1  UNL     1      -3.164 -10.330 -17.652  1.00  0.00    -0.090 SA
HETATM    6  C4  UNL     1      -1.414  -9.782 -17.869  1.00  0.00     0.107 C 
HETATM    7  C5  UNL     1      -1.164  -8.917 -16.670  1.00  0.00     0.098 C 
ENDROOT
BRANCH   7   8
HETATM    8  N1  UNL     1      -0.167  -7.941 -16.832  1.00  0.00    -0.411 N 
ATOM      9  H1  UNL     1      -0.376  -7.101 -17.371  1.00  0.00     0.154 HD
BRANCH   8  10
HETATM   10  C6  UNL     1       1.113  -8.092 -16.271  1.00  0.00     0.077 C 
HETATM   11  C7  UNL     1       2.145  -8.752 -17.150  1.00  0.00     0.024 C 
HETATM   12  C8  UNL     1       3.151  -9.195 -16.073  1.00  0.00     0.002 C 
HETATM   13  C9  UNL     1       2.251  -9.887 -15.110  1.00  0.00     0.002 C 
HETATM   14  C10 UNL     1       1.014  -9.046 -15.089  1.00  0.00     0.024 C 
ENDBRANCH   8  10
ENDBRANCH   7   8
TORSDOF 2
ENDMDL
