MODEL 1
REMARK VINA RESULT: -6.880019883      0.000      0.000
REMARK  3 active torsions:
REMARK  status: ('A' for Active; 'I' for Inactive)
REMARK    1  A    between atoms: C2_2  and  C4_4 
REMARK    2  A    between atoms: C7_9  and  C8_10 
REMARK    3  A    between atoms: C8_10  and  O3_11 
ROOT
HETATM    1  C4  UNL     1       1.244  -8.956 -15.900  1.00  0.00     0.105 C 
HETATM    2  C5  UNL     1       0.433  -7.723 -15.485  1.00  0.00     0.077 C 
HETATM    3  C6  UNL     1      -0.826  -8.245 -16.212  1.00  0.00     0.170 C 
HETATM    4  O1  UNL     1      -0.854  -9.535 -15.700  1.00  0.00    -0.234 OA
HETATM    5  O2  UNL     1       0.358  -9.941 -15.486  1.00  0.00    -0.228 OA
HETATM    6  C7  UNL     1      -0.281  -8.344 -17.617  1.00  0.00     0.048 C 
HETATM    7  C9  UNL     1       1.151  -8.849 -17.378  1.00  0.00     0.028 C 
HETATM    8  C10 UNL     1       2.073  -7.855 -18.001  1.00  0.00     0.014 C 
ENDROOT
BRANCH   1   9
HETATM    9  C2  UNL     1       2.586  -9.032 -15.325  1.00  0.00     0.016 C 
HETATM   10  C1  UNL     1       3.007 -10.511 -15.372  1.00  0.00     0.012 C 
HETATM   11  C3  UNL     1       2.716  -8.600 -13.903  1.00  0.00     0.012 C 
ENDBRANCH   1   9
BRANCH   6  12
HETATM   12  C8  UNL     1      -0.986  -9.394 -18.419  1.00  0.00     0.172 C 
BRANCH  12  13
HETATM   13  O3  UNL     1      -0.432 -10.657 -18.263  1.00  0.00    -0.400 OA
ATOM     14  H3  UNL     1      -0.006 -10.975 -19.050  1.00  0.00     0.209 HD
ENDBRANCH  12  13
ENDBRANCH   6  12
TORSDOF 3
ENDMDL
MODEL 2
REMARK VINA RESULT: -6.520898623      1.487      3.567
REMARK  3 active torsions:
REMARK  status: ('A' for Active; 'I' for Inactive)
REMARK    1  A    between atoms: C2_2  and  C4_4 
REMARK    2  A    between atoms: C7_9  and  C8_10 
REMARK    3  A    between atoms: C8_10  and  O3_11 
ROOT
HETATM    1  C4  UNL     1      -0.072  -8.784 -15.634  1.00  0.00     0.105 C 
HETATM    2  C5  UNL     1       0.336  -7.689 -16.628  1.00  0.00     0.077 C 
HETATM    3  C6  UNL     1       1.540  -8.520 -17.125  1.00  0.00     0.170 C 
HETATM    4  O1  UNL     1       0.891  -9.727 -17.355  1.00  0.00    -0.234 OA
HETATM    5  O2  UNL     1      -0.074  -9.868 -16.502  1.00  0.00    -0.228 OA
HETATM    6  C7  UNL     1       2.295  -8.670 -15.826  1.00  0.00     0.048 C 
HETATM    7  C9  UNL     1       1.160  -8.863 -14.807  1.00  0.00     0.028 C 
HETATM    8  C10 UNL     1       1.306  -7.787 -13.784  1.00  0.00     0.014 C 
ENDROOT
BRANCH   1   9
HETATM    9  C2  UNL     1      -1.328  -8.537 -14.929  1.00  0.00     0.016 C 
HETATM   10  C1  UNL     1      -2.225  -9.763 -15.178  1.00  0.00     0.012 C 
HETATM   11  C3  UNL     1      -2.107  -7.346 -15.372  1.00  0.00     0.012 C 
ENDBRANCH   1   9
BRANCH   6  12
HETATM   12  C8  UNL     1       3.122  -9.919 -15.799  1.00  0.00     0.172 C 
BRANCH  12  13
HETATM   13  O3  UNL     1       2.530 -10.944 -15.075  1.00  0.00    -0.400 OA
ATOM     14  H3  UNL     1       2.614 -11.791 -15.496  1.00  0.00     0.209 HD
ENDBRANCH  12  13
ENDBRANCH   6  12
TORSDOF 3
ENDMDL
MODEL 3
REMARK VINA RESULT: -6.200197795      1.331      2.180
REMARK  3 active torsions:
REMARK  status: ('A' for Active; 'I' for Inactive)
REMARK    1  A    between atoms: C2_2  and  C4_4 
REMARK    2  A    between atoms: C7_9  and  C8_10 
REMARK    3  A    between atoms: C8_10  and  O3_11 
ROOT
HETATM    1  C4  UNL     1       0.521  -8.889 -16.482  1.00  0.00     0.105 C 
HETATM    2  C5  UNL     1       0.130  -7.464 -16.069  1.00  0.00     0.077 C 
HETATM    3  C6  UNL     1      -1.112  -7.973 -15.305  1.00  0.00     0.170 C 
HETATM    4  O1  UNL     1      -0.511  -8.978 -14.557  1.00  0.00    -0.234 OA
HETATM    5  O2  UNL     1       0.467  -9.493 -15.233  1.00  0.00    -0.228 OA
HETATM    6  C7  UNL     1      -1.844  -8.651 -16.439  1.00  0.00     0.048 C 
HETATM    7  C9  UNL     1      -0.695  -9.288 -17.237  1.00  0.00     0.028 C 
HETATM    8  C10 UNL     1      -0.781  -8.755 -18.627  1.00  0.00     0.014 C 
ENDROOT
BRANCH   1   9
HETATM    9  C2  UNL     1       1.800  -8.998 -17.181  1.00  0.00     0.016 C 
HETATM   10  C1  UNL     1       2.867  -9.288 -16.111  1.00  0.00     0.012 C 
HETATM   11  C3  UNL     1       2.254  -7.780 -17.912  1.00  0.00     0.012 C 
ENDBRANCH   1   9
BRANCH   6  12
HETATM   12  C8  UNL     1      -2.713  -9.771 -15.956  1.00  0.00     0.172 C 
BRANCH  12  13
HETATM   13  O3  UNL     1      -2.052 -10.990 -15.916  1.00  0.00    -0.400 OA
ATOM     14  H3  UNL     1      -1.942 -11.380 -16.775  1.00  0.00     0.209 HD
ENDBRANCH  12  13
ENDBRANCH   6  12
TORSDOF 3
ENDMDL
MODEL 4
REMARK VINA RESULT: -5.966886124      2.666      3.833
REMARK  3 active torsions:
REMARK  status: ('A' for Active; 'I' for Inactive)
REMARK    1  A    between atoms: C2_2  and  C4_4 
REMARK    2  A    between atoms: C7_9  and  C8_10 
REMARK    3  A    between atoms: C8_10  and  O3_11 
ROOT
HETATM    1  C4  UNL     1      -2.272  -9.496 -16.148  1.00  0.00     0.105 C 
HETATM    2  C5  UNL     1      -3.758  -9.784 -15.898  1.00  0.00     0.077 C 
HETATM    3  C6  UNL     1      -3.649 -11.176 -16.559  1.00  0.00     0.170 C 
HETATM    4  O1  UNL     1      -2.530 -11.650 -15.885  1.00  0.00    -0.234 OA
HETATM    5  O2  UNL     1      -1.738 -10.661 -15.615  1.00  0.00    -0.228 OA
HETATM    6  C7  UNL     1      -3.188 -10.765 -17.936  1.00  0.00     0.048 C 
HETATM    7  C9  UNL     1      -2.226  -9.606 -17.628  1.00  0.00     0.028 C 
HETATM    8  C10 UNL     1      -2.730  -8.413 -18.369  1.00  0.00     0.014 C 
ENDROOT
BRANCH   1   9
HETATM    9  C2  UNL     1      -1.781  -8.250 -15.561  1.00  0.00     0.016 C 
HETATM   10  C1  UNL     1      -0.574  -8.620 -14.681  1.00  0.00     0.012 C 
HETATM   11  C3  UNL     1      -2.736  -7.517 -14.681  1.00  0.00     0.012 C 
ENDBRANCH   1   9
BRANCH   6  12
HETATM   12  C8  UNL     1      -2.379 -11.837 -18.601  1.00  0.00     0.172 C 
BRANCH  12  13
HETATM   13  O3  UNL     1      -1.014 -11.601 -18.540  1.00  0.00    -0.400 OA
ATOM     14  H3  UNL     1      -0.501 -12.287 -18.950  1.00  0.00     0.209 HD
ENDBRANCH  12  13
ENDBRANCH   6  12
TORSDOF 3
ENDMDL
MODEL 5
REMARK VINA RESULT: -5.887234588      1.498      3.972
REMARK  3 active torsions:
REMARK  status: ('A' for Active; 'I' for Inactive)
REMARK    1  A    between atoms: C2_2  and  C4_4 
REMARK    2  A    between atoms: C7_9  and  C8_10 
REMARK    3  A    between atoms: C8_10  and  O3_11 
ROOT
HETATM    1  C4  UNL     1      -0.692  -9.224 -16.857  1.00  0.00     0.105 C 
HETATM    2  C5  UNL     1      -0.340  -7.796 -17.293  1.00  0.00     0.077 C 
HETATM    3  C6  UNL     1       1.132  -7.974 -16.858  1.00  0.00     0.170 C 
HETATM    4  O1  UNL     1       1.400  -9.182 -17.488  1.00  0.00    -0.234 OA
HETATM    5  O2  UNL     1       0.324  -9.903 -17.516  1.00  0.00    -0.228 OA
HETATM    6  C7  UNL     1       0.926  -8.279 -15.394  1.00  0.00     0.048 C 
HETATM    7  C9  UNL     1      -0.337  -9.155 -15.416  1.00  0.00     0.028 C 
HETATM    8  C10 UNL     1      -1.347  -8.487 -14.545  1.00  0.00     0.014 C 
ENDROOT
BRANCH   1   9
HETATM    9  C2  UNL     1      -2.052  -9.649 -17.184  1.00  0.00     0.016 C 
HETATM   10  C1  UNL     1      -1.932 -10.693 -18.308  1.00  0.00     0.012 C 
HETATM   11  C3  UNL     1      -2.968  -8.587 -17.689  1.00  0.00     0.012 C 
ENDBRANCH   1   9
BRANCH   6  12
HETATM   12  C8  UNL     1       2.032  -9.122 -14.836  1.00  0.00     0.172 C 
BRANCH  12  13
HETATM   13  O3  UNL     1       1.778 -10.482 -14.934  1.00  0.00    -0.400 OA
ATOM     14  H3  UNL     1       2.004 -10.959 -14.144  1.00  0.00     0.209 HD
ENDBRANCH  12  13
ENDBRANCH   6  12
TORSDOF 3
ENDMDL
