MODEL 1
REMARK VINA RESULT: -5.493322380      0.000      0.000
REMARK  5 active torsions:
REMARK  status: ('A' for Active; 'I' for Inactive)
REMARK    1  A    between atoms: N1_2  and  C4_5 
REMARK    2  A    between atoms: C4_5  and  C5_6 
REMARK    3  A    between atoms: C6_8  and  O2_9 
REMARK    4  A    between atoms: C7_11  and  O3_12 
REMARK    5  A    between atoms: C8_14  and  C9_15 
REMARK       I    between atoms: C9_15  and  N2_17 
ROOT
HETATM    1  C5  UNL     1     -48.024 -22.762 -19.354  1.00  0.00     0.166 C 
HETATM    2  O1  UNL     1     -48.741 -23.408 -18.366  1.00  0.00    -0.351 OA
HETATM    3  C6  UNL     1     -48.607 -22.718 -17.197  1.00  0.00     0.286 C 
HETATM    4  C7  UNL     1     -47.501 -21.711 -17.360  1.00  0.00     0.188 C 
HETATM    5  C8  UNL     1     -46.811 -22.274 -18.628  1.00  0.00     0.142 C 
ENDROOT
BRANCH   5   6
HETATM    6  C9  UNL     1     -46.087 -21.170 -19.315  1.00  0.00     0.233 C 
HETATM    7  O4  UNL     1     -46.513 -20.630 -20.368  1.00  0.00    -0.273 OA
HETATM    8  N2  UNL     1     -44.869 -20.758 -18.698  1.00  0.00    -0.303 N 
HETATM    9  C10 UNL     1     -43.790 -21.432 -18.664  1.00  0.00     0.203 C 
ATOM     10  H2  UNL     1     -44.862 -19.844 -18.245  1.00  0.00     0.171 HD
HETATM   11  N3  UNL     1     -42.651 -20.911 -18.019  1.00  0.00    -0.066 NA
HETATM   12  N4  UNL     1     -43.720 -22.702 -19.267  1.00  0.00    -0.066 NA
ENDBRANCH   5   6
BRANCH   1  13
HETATM   13  C4  UNL     1     -47.852 -23.447 -20.614  1.00  0.00     0.268 C 
BRANCH  13  14
HETATM   14  N1  UNL     1     -48.072 -24.818 -20.798  1.00  0.00    -0.076 N 
HETATM   15  C1  UNL     1     -47.448 -25.174 -22.097  1.00  0.00     0.271 C 
HETATM   16  C2  UNL     1     -49.491 -25.135 -21.073  1.00  0.00     0.271 C 
HETATM   17  C3  UNL     1     -47.516 -25.740 -19.864  1.00  0.00     0.271 C 
ENDBRANCH  13  14
ENDBRANCH   1  13
BRANCH   4  18
HETATM   18  O3  UNL     1     -47.965 -20.451 -17.725  1.00  0.00    -0.390 OA
ATOM     19  H3  UNL     1     -47.465 -19.745 -17.332  1.00  0.00     0.210 HD
ENDBRANCH   4  18
BRANCH   3  20
HETATM   20  O2  UNL     1     -49.799 -22.126 -16.778  1.00  0.00    -0.369 OA
ATOM     21  H2  UNL     1     -49.733 -21.734 -15.916  1.00  0.00     0.212 HD
ENDBRANCH   3  20
TORSDOF 5
ENDMDL
MODEL 2
REMARK VINA RESULT: -5.482470138      2.456      4.520
REMARK  5 active torsions:
REMARK  status: ('A' for Active; 'I' for Inactive)
REMARK    1  A    between atoms: N1_2  and  C4_5 
REMARK    2  A    between atoms: C4_5  and  C5_6 
REMARK    3  A    between atoms: C6_8  and  O2_9 
REMARK    4  A    between atoms: C7_11  and  O3_12 
REMARK    5  A    between atoms: C8_14  and  C9_15 
REMARK       I    between atoms: C9_15  and  N2_17 
ROOT
HETATM    1  C5  UNL     1     -46.754 -22.670 -19.745  1.00  0.00     0.166 C 
HETATM    2  O1  UNL     1     -46.293 -23.907 -20.148  1.00  0.00    -0.351 OA
HETATM    3  C6  UNL     1     -47.157 -24.868 -19.709  1.00  0.00     0.286 C 
HETATM    4  C7  UNL     1     -48.094 -24.246 -18.709  1.00  0.00     0.188 C 
HETATM    5  C8  UNL     1     -47.318 -22.944 -18.387  1.00  0.00     0.142 C 
ENDROOT
BRANCH   5   6
HETATM    6  C9  UNL     1     -48.278 -21.916 -17.902  1.00  0.00     0.233 C 
HETATM    7  O4  UNL     1     -48.715 -20.994 -18.636  1.00  0.00    -0.273 OA
HETATM    8  N2  UNL     1     -48.677 -22.044 -16.538  1.00  0.00    -0.303 N 
HETATM    9  C10 UNL     1     -47.939 -21.820 -15.526  1.00  0.00     0.203 C 
ATOM     10  H2  UNL     1     -49.636 -22.341 -16.360  1.00  0.00     0.171 HD
HETATM   11  N3  UNL     1     -48.454 -21.985 -14.225  1.00  0.00    -0.066 NA
HETATM   12  N4  UNL     1     -46.603 -21.406 -15.691  1.00  0.00    -0.066 NA
ENDBRANCH   5   6
BRANCH   1  13
HETATM   13  C4  UNL     1     -45.872 -21.538 -19.916  1.00  0.00     0.268 C 
BRANCH  13  14
HETATM   14  N1  UNL     1     -44.683 -21.355 -19.200  1.00  0.00    -0.076 N 
HETATM   15  C1  UNL     1     -43.827 -20.465 -20.024  1.00  0.00     0.271 C 
HETATM   16  C2  UNL     1     -43.852 -22.579 -19.154  1.00  0.00     0.271 C 
HETATM   17  C3  UNL     1     -44.733 -20.727 -17.921  1.00  0.00     0.271 C 
ENDBRANCH  13  14
ENDBRANCH   1  13
BRANCH   4  18
HETATM   18  O3  UNL     1     -49.292 -23.826 -19.279  1.00  0.00    -0.390 OA
ATOM     19  H3  UNL     1     -49.168 -23.176 -19.961  1.00  0.00     0.210 HD
ENDBRANCH   4  18
BRANCH   3  20
HETATM   20  O2  UNL     1     -47.840 -25.498 -20.749  1.00  0.00    -0.369 OA
ATOM     21  H2  UNL     1     -47.768 -26.444 -20.717  1.00  0.00     0.212 HD
ENDBRANCH   3  20
TORSDOF 5
ENDMDL
MODEL 3
REMARK VINA RESULT: -4.895787040      0.815      1.173
REMARK  5 active torsions:
REMARK  status: ('A' for Active; 'I' for Inactive)
REMARK    1  A    between atoms: N1_2  and  C4_5 
REMARK    2  A    between atoms: C4_5  and  C5_6 
REMARK    3  A    between atoms: C6_8  and  O2_9 
REMARK    4  A    between atoms: C7_11  and  O3_12 
REMARK    5  A    between atoms: C8_14  and  C9_15 
REMARK       I    between atoms: C9_15  and  N2_17 
ROOT
HETATM    1  C5  UNL     1     -47.774 -23.245 -18.717  1.00  0.00     0.166 C 
HETATM    2  O1  UNL     1     -48.417 -23.510 -17.523  1.00  0.00    -0.351 OA
HETATM    3  C6  UNL     1     -48.648 -22.333 -16.873  1.00  0.00     0.286 C 
HETATM    4  C7  UNL     1     -47.853 -21.249 -17.549  1.00  0.00     0.188 C 
HETATM    5  C8  UNL     1     -46.860 -22.114 -18.366  1.00  0.00     0.142 C 
ENDROOT
BRANCH   5   6
HETATM    6  C9  UNL     1     -46.382 -21.327 -19.535  1.00  0.00     0.233 C 
HETATM    7  O4  UNL     1     -47.054 -21.201 -20.590  1.00  0.00    -0.273 OA
HETATM    8  N2  UNL     1     -45.101 -20.719 -19.382  1.00  0.00    -0.303 N 
HETATM    9  C10 UNL     1     -43.987 -21.334 -19.350  1.00  0.00     0.203 C 
ATOM     10  H2  UNL     1     -45.075 -19.704 -19.289  1.00  0.00     0.171 HD
HETATM   11  N3  UNL     1     -42.786 -20.615 -19.192  1.00  0.00    -0.066 NA
HETATM   12  N4  UNL     1     -43.939 -22.736 -19.473  1.00  0.00    -0.066 NA
ENDBRANCH   5   6
BRANCH   1  13
HETATM   13  C4  UNL     1     -47.241 -24.367 -19.454  1.00  0.00     0.268 C 
BRANCH  13  14
HETATM   14  N1  UNL     1     -47.744 -24.807 -20.685  1.00  0.00    -0.076 N 
HETATM   15  C1  UNL     1     -47.421 -26.253 -20.780  1.00  0.00     0.271 C 
HETATM   16  C2  UNL     1     -46.980 -24.274 -21.835  1.00  0.00     0.271 C 
HETATM   17  C3  UNL     1     -49.146 -24.732 -20.927  1.00  0.00     0.271 C 
ENDBRANCH  13  14
ENDBRANCH   1  13
BRANCH   4  18
HETATM   18  O3  UNL     1     -48.592 -20.547 -18.497  1.00  0.00    -0.390 OA
ATOM     19  H3  UNL     1     -48.326 -19.638 -18.573  1.00  0.00     0.210 HD
ENDBRANCH   4  18
BRANCH   3  20
HETATM   20  O2  UNL     1     -50.004 -22.017 -16.791  1.00  0.00    -0.369 OA
ATOM     21  H2  UNL     1     -50.244 -21.633 -15.956  1.00  0.00     0.212 HD
ENDBRANCH   3  20
TORSDOF 5
ENDMDL
MODEL 4
REMARK VINA RESULT: -4.840651714      0.858      1.167
REMARK  5 active torsions:
REMARK  status: ('A' for Active; 'I' for Inactive)
REMARK    1  A    between atoms: N1_2  and  C4_5 
REMARK    2  A    between atoms: C4_5  and  C5_6 
REMARK    3  A    between atoms: C6_8  and  O2_9 
REMARK    4  A    between atoms: C7_11  and  O3_12 
REMARK    5  A    between atoms: C8_14  and  C9_15 
REMARK       I    between atoms: C9_15  and  N2_17 
ROOT
HETATM    1  C5  UNL     1     -47.660 -23.194 -18.707  1.00  0.00     0.166 C 
HETATM    2  O1  UNL     1     -48.319 -23.509 -17.535  1.00  0.00    -0.351 OA
HETATM    3  C6  UNL     1     -48.580 -22.358 -16.849  1.00  0.00     0.286 C 
HETATM    4  C7  UNL     1     -47.789 -21.240 -17.474  1.00  0.00     0.188 C 
HETATM    5  C8  UNL     1     -46.769 -22.063 -18.301  1.00  0.00     0.142 C 
ENDROOT
BRANCH   5   6
HETATM    6  C9  UNL     1     -46.282 -21.229 -19.433  1.00  0.00     0.233 C 
HETATM    7  O4  UNL     1     -46.957 -21.036 -20.475  1.00  0.00    -0.273 OA
HETATM    8  N2  UNL     1     -44.987 -20.657 -19.259  1.00  0.00    -0.303 N 
HETATM    9  C10 UNL     1     -43.886 -21.296 -19.267  1.00  0.00     0.203 C 
ATOM     10  H2  UNL     1     -44.939 -19.648 -19.117  1.00  0.00     0.171 HD
HETATM   11  N3  UNL     1     -42.669 -20.610 -19.082  1.00  0.00    -0.066 NA
HETATM   12  N4  UNL     1     -43.869 -22.690 -19.459  1.00  0.00    -0.066 NA
ENDBRANCH   5   6
BRANCH   1  13
HETATM   13  C4  UNL     1     -47.096 -24.282 -19.472  1.00  0.00     0.268 C 
BRANCH  13  14
HETATM   14  N1  UNL     1     -47.448 -24.575 -20.795  1.00  0.00    -0.076 N 
HETATM   15  C1  UNL     1     -48.802 -24.007 -21.007  1.00  0.00     0.271 C 
HETATM   16  C2  UNL     1     -47.713 -26.016 -21.008  1.00  0.00     0.271 C 
HETATM   17  C3  UNL     1     -46.661 -24.041 -21.856  1.00  0.00     0.271 C 
ENDBRANCH  13  14
ENDBRANCH   1  13
BRANCH   4  18
HETATM   18  O3  UNL     1     -48.522 -20.517 -18.410  1.00  0.00    -0.390 OA
ATOM     19  H3  UNL     1     -48.281 -19.599 -18.438  1.00  0.00     0.210 HD
ENDBRANCH   4  18
BRANCH   3  20
HETATM   20  O2  UNL     1     -49.943 -22.065 -16.782  1.00  0.00    -0.369 OA
ATOM     21  H2  UNL     1     -50.114 -21.170 -16.518  1.00  0.00     0.212 HD
ENDBRANCH   3  20
TORSDOF 5
ENDMDL
MODEL 5
REMARK VINA RESULT: -4.809525768      2.710      4.657
REMARK  5 active torsions:
REMARK  status: ('A' for Active; 'I' for Inactive)
REMARK    1  A    between atoms: N1_2  and  C4_5 
REMARK    2  A    between atoms: C4_5  and  C5_6 
REMARK    3  A    between atoms: C6_8  and  O2_9 
REMARK    4  A    between atoms: C7_11  and  O3_12 
REMARK    5  A    between atoms: C8_14  and  C9_15 
REMARK       I    between atoms: C9_15  and  N2_17 
ROOT
HETATM    1  C5  UNL     1     -46.061 -21.089 -18.188  1.00  0.00     0.166 C 
HETATM    2  O1  UNL     1     -45.144 -21.157 -17.157  1.00  0.00    -0.351 OA
HETATM    3  C6  UNL     1     -43.898 -21.337 -17.683  1.00  0.00     0.286 C 
HETATM    4  C7  UNL     1     -44.040 -21.693 -19.139  1.00  0.00     0.188 C 
HETATM    5  C8  UNL     1     -45.539 -22.085 -19.174  1.00  0.00     0.142 C 
ENDROOT
BRANCH   5   6
HETATM    6  C9  UNL     1     -46.053 -21.906 -20.559  1.00  0.00     0.233 C 
HETATM    7  O4  UNL     1     -46.282 -20.775 -21.057  1.00  0.00    -0.273 OA
HETATM    8  N2  UNL     1     -46.270 -23.110 -21.292  1.00  0.00    -0.303 N 
HETATM    9  C10 UNL     1     -47.192 -23.958 -21.069  1.00  0.00     0.203 C 
ATOM     10  H2  UNL     1     -45.631 -23.308 -22.062  1.00  0.00     0.171 HD
HETATM   11  N3  UNL     1     -47.299 -25.113 -21.869  1.00  0.00    -0.066 NA
HETATM   12  N4  UNL     1     -48.114 -23.755 -20.024  1.00  0.00    -0.066 NA
ENDBRANCH   5   6
BRANCH   1  13
HETATM   13  C4  UNL     1     -47.463 -21.123 -17.841  1.00  0.00     0.268 C 
BRANCH  13  14
HETATM   14  N1  UNL     1     -48.023 -22.023 -16.926  1.00  0.00    -0.076 N 
HETATM   15  C1  UNL     1     -49.494 -21.953 -17.111  1.00  0.00     0.271 C 
HETATM   16  C2  UNL     1     -47.894 -21.564 -15.525  1.00  0.00     0.271 C 
HETATM   17  C3  UNL     1     -47.710 -23.409 -17.037  1.00  0.00     0.271 C 
ENDBRANCH  13  14
ENDBRANCH   1  13
BRANCH   4  18
HETATM   18  O3  UNL     1     -43.931 -20.590 -19.979  1.00  0.00    -0.390 OA
ATOM     19  H3  UNL     1     -44.696 -20.467 -20.528  1.00  0.00     0.210 HD
ENDBRANCH   4  18
BRANCH   3  20
HETATM   20  O2  UNL     1     -43.066 -20.233 -17.491  1.00  0.00    -0.369 OA
ATOM     21  H2  UNL     1     -42.626 -20.245 -16.650  1.00  0.00     0.212 HD
ENDBRANCH   3  20
TORSDOF 5
ENDMDL
