MODEL 1
REMARK VINA RESULT: -4.269234871      0.000      0.000
REMARK  6 active torsions:
REMARK  status: ('A' for Active; 'I' for Inactive)
REMARK    1  A    between atoms: N2_4  and  N3_6 
REMARK       I    between atoms: N3_6  and  C1_8 
REMARK       I    between atoms: C1_8  and  N5_12 
REMARK    2  A    between atoms: S1_15  and  C4_16 
REMARK    3  A    between atoms: C4_16  and  C5_17 
REMARK    4  A    between atoms: C5_17  and  N6_18 
REMARK    5  A    between atoms: C5_17  and  C6_22 
REMARK    6  A    between atoms: N8_24  and  O1_26 
ROOT
HETATM    1  N3  UNL     1     -54.198 -16.040 -18.622  1.00  0.00    -0.118 N 
ATOM      2  H3  UNL     1     -53.577 -15.610 -17.937  1.00  0.00     0.207 HD
HETATM    3  C1  UNL     1     -54.070 -15.639 -19.957  1.00  0.00     0.690 C 
HETATM    4  N4  UNL     1     -55.062 -15.113 -20.575  1.00  0.00    -0.233 N 
ATOM      5  H41 UNL     1     -54.970 -14.821 -21.548  1.00  0.00     0.174 HD
ATOM      6  H42 UNL     1     -55.941 -14.996 -20.072  1.00  0.00     0.174 HD
HETATM    7  N5  UNL     1     -52.851 -15.802 -20.657  1.00  0.00    -0.208 N 
HETATM    8  C2  UNL     1     -52.060 -17.042 -20.617  1.00  0.00     0.151 C 
HETATM    9  C3  UNL     1     -50.775 -16.491 -19.956  1.00  0.00     0.085 C 
HETATM   10  S1  UNL     1     -50.451 -15.213 -21.124  1.00  0.00    -0.197 SA
HETATM   11  C7  UNL     1     -52.185 -14.822 -21.501  1.00  0.00     0.205 C 
ENDROOT
BRANCH  10  12
HETATM   12  C4  UNL     1     -49.748 -15.887 -22.595  1.00  0.00     0.105 C 
BRANCH  12  13
HETATM   13  C5  UNL     1     -48.604 -16.813 -22.387  1.00  0.00     0.258 C 
BRANCH  13  14
HETATM   14  N6  UNL     1     -48.976 -18.164 -22.210  1.00  0.00    -0.068 N 
ATOM     15  H63 UNL     1     -49.922 -18.227 -21.834  1.00  0.00     0.275 HD
ATOM     16  H62 UNL     1     -49.118 -18.616 -23.113  1.00  0.00     0.275 HD
ATOM     17  H61 UNL     1     -48.329 -18.706 -21.637  1.00  0.00     0.275 HD
ENDBRANCH  13  14
BRANCH  13  18
HETATM   18  C6  UNL     1     -47.601 -16.734 -23.472  1.00  0.00     0.144 C 
HETATM   19  N7  UNL     1     -46.326 -17.408 -23.190  1.00  0.00    -0.083 NA
HETATM   20  N8  UNL     1     -47.756 -16.174 -24.561  1.00  0.00    -0.257 N 
ATOM     21  H8  UNL     1     -46.932 -16.241 -25.157  1.00  0.00     0.195 HD
BRANCH  20  22
HETATM   22  O1  UNL     1     -48.743 -15.508 -25.133  1.00  0.00    -0.289 OA
ATOM     23  H1  UNL     1     -49.238 -14.726 -24.916  1.00  0.00     0.244 HD
ENDBRANCH  20  22
ENDBRANCH  13  18
ENDBRANCH  12  13
ENDBRANCH  10  12
BRANCH   1  24
HETATM   24  N2  UNL     1     -55.106 -16.980 -18.163  1.00  0.00    -0.235 N 
HETATM   25  N1  UNL     1     -54.842 -18.209 -18.187  1.00  0.00    -0.330 N 
ATOM     26  H12 UNL     1     -53.937 -18.503 -18.554  1.00  0.00     0.178 HD
ATOM     27  H11 UNL     1     -55.511 -18.901 -17.849  1.00  0.00     0.178 HD
ATOM     28  H2  UNL     1     -56.007 -16.669 -17.799  1.00  0.00     0.208 HD
ENDBRANCH   1  24
TORSDOF 6
ENDMDL
MODEL 2
REMARK VINA RESULT: -4.180205513      5.899      7.279
REMARK  6 active torsions:
REMARK  status: ('A' for Active; 'I' for Inactive)
REMARK    1  A    between atoms: N2_4  and  N3_6 
REMARK       I    between atoms: N3_6  and  C1_8 
REMARK       I    between atoms: C1_8  and  N5_12 
REMARK    2  A    between atoms: S1_15  and  C4_16 
REMARK    3  A    between atoms: C4_16  and  C5_17 
REMARK    4  A    between atoms: C5_17  and  N6_18 
REMARK    5  A    between atoms: C5_17  and  C6_22 
REMARK    6  A    between atoms: N8_24  and  O1_26 
ROOT
HETATM    1  N3  UNL     1     -49.573 -18.275 -20.219  1.00  0.00    -0.118 N 
ATOM      2  H3  UNL     1     -49.119 -17.863 -19.405  1.00  0.00     0.207 HD
HETATM    3  C1  UNL     1     -48.771 -18.986 -21.120  1.00  0.00     0.690 C 
HETATM    4  N4  UNL     1     -48.691 -18.622 -22.346  1.00  0.00    -0.233 N 
ATOM      5  H41 UNL     1     -48.107 -19.140 -23.002  1.00  0.00     0.174 HD
ATOM      6  H42 UNL     1     -49.225 -17.807 -22.647  1.00  0.00     0.174 HD
HETATM    7  N5  UNL     1     -48.029 -20.117 -20.703  1.00  0.00    -0.208 N 
HETATM    8  C2  UNL     1     -48.596 -21.186 -19.866  1.00  0.00     0.151 C 
HETATM    9  C3  UNL     1     -47.686 -21.031 -18.624  1.00  0.00     0.085 C 
HETATM   10  S1  UNL     1     -46.142 -21.212 -19.453  1.00  0.00    -0.197 SA
HETATM   11  C7  UNL     1     -46.640 -20.418 -21.011  1.00  0.00     0.205 C 
ENDROOT
BRANCH  10  12
HETATM   12  C4  UNL     1     -45.835 -22.909 -19.820  1.00  0.00     0.105 C 
BRANCH  12  13
HETATM   13  C5  UNL     1     -46.696 -23.497 -20.880  1.00  0.00     0.258 C 
BRANCH  13  14
HETATM   14  N6  UNL     1     -45.995 -23.910 -22.035  1.00  0.00    -0.068 N 
ATOM     15  H63 UNL     1     -46.265 -23.342 -22.838  1.00  0.00     0.275 HD
ATOM     16  H62 UNL     1     -45.010 -23.653 -21.964  1.00  0.00     0.275 HD
ATOM     17  H61 UNL     1     -46.090 -24.902 -22.252  1.00  0.00     0.275 HD
ENDBRANCH  13  14
BRANCH  13  18
HETATM   18  C6  UNL     1     -47.514 -24.629 -20.390  1.00  0.00     0.144 C 
HETATM   19  N7  UNL     1     -47.468 -24.846 -18.938  1.00  0.00    -0.083 NA
HETATM   20  N8  UNL     1     -48.215 -25.369 -21.086  1.00  0.00    -0.257 N 
ATOM     21  H8  UNL     1     -48.691 -26.086 -20.540  1.00  0.00     0.195 HD
BRANCH  20  22
HETATM   22  O1  UNL     1     -48.492 -25.447 -22.375  1.00  0.00    -0.289 OA
ATOM     23  H1  UNL     1     -48.644 -26.160 -22.985  1.00  0.00     0.244 HD
ENDBRANCH  20  22
ENDBRANCH  13  18
ENDBRANCH  12  13
ENDBRANCH  10  12
BRANCH   1  24
HETATM   24  N2  UNL     1     -50.940 -18.092 -20.354  1.00  0.00    -0.235 N 
HETATM   25  N1  UNL     1     -51.558 -17.255 -19.649  1.00  0.00    -0.330 N 
ATOM     26  H12 UNL     1     -51.030 -16.709 -18.970  1.00  0.00     0.178 HD
ATOM     27  H11 UNL     1     -52.565 -17.120 -19.749  1.00  0.00     0.178 HD
ATOM     28  H2  UNL     1     -51.453 -18.648 -21.038  1.00  0.00     0.208 HD
ENDBRANCH   1  24
TORSDOF 6
ENDMDL
MODEL 3
REMARK VINA RESULT: -4.134970330      6.683      9.084
REMARK  6 active torsions:
REMARK  status: ('A' for Active; 'I' for Inactive)
REMARK    1  A    between atoms: N2_4  and  N3_6 
REMARK       I    between atoms: N3_6  and  C1_8 
REMARK       I    between atoms: C1_8  and  N5_12 
REMARK    2  A    between atoms: S1_15  and  C4_16 
REMARK    3  A    between atoms: C4_16  and  C5_17 
REMARK    4  A    between atoms: C5_17  and  N6_18 
REMARK    5  A    between atoms: C5_17  and  C6_22 
REMARK    6  A    between atoms: N8_24  and  O1_26 
ROOT
HETATM    1  N3  UNL     1     -46.098 -19.550 -22.830  1.00  0.00    -0.118 N 
ATOM      2  H3  UNL     1     -45.992 -20.333 -23.474  1.00  0.00     0.207 HD
HETATM    3  C1  UNL     1     -47.066 -19.663 -21.825  1.00  0.00     0.690 C 
HETATM    4  N4  UNL     1     -48.027 -18.819 -21.749  1.00  0.00    -0.233 N 
ATOM      5  H41 UNL     1     -48.732 -18.901 -21.017  1.00  0.00     0.174 HD
ATOM      6  H42 UNL     1     -48.068 -18.066 -22.437  1.00  0.00     0.174 HD
HETATM    7  N5  UNL     1     -47.010 -20.707 -20.870  1.00  0.00    -0.208 N 
HETATM    8  C2  UNL     1     -45.775 -21.093 -20.172  1.00  0.00     0.151 C 
HETATM    9  C3  UNL     1     -45.638 -22.540 -20.699  1.00  0.00     0.085 C 
HETATM   10  S1  UNL     1     -47.221 -23.117 -20.185  1.00  0.00    -0.197 SA
HETATM   11  C7  UNL     1     -48.110 -21.550 -20.426  1.00  0.00     0.205 C 
ENDROOT
BRANCH  10  12
HETATM   12  C4  UNL     1     -47.225 -23.444 -18.452  1.00  0.00     0.105 C 
BRANCH  12  13
HETATM   13  C5  UNL     1     -48.322 -22.799 -17.684  1.00  0.00     0.258 C 
BRANCH  13  14
HETATM   14  N6  UNL     1     -49.325 -23.691 -17.244  1.00  0.00    -0.068 N 
ATOM     15  H63 UNL     1     -49.974 -23.217 -16.617  1.00  0.00     0.275 HD
ATOM     16  H62 UNL     1     -49.960 -23.920 -18.010  1.00  0.00     0.275 HD
ATOM     17  H61 UNL     1     -48.968 -24.542 -16.810  1.00  0.00     0.275 HD
ENDBRANCH  13  14
BRANCH  13  18
HETATM   18  C6  UNL     1     -47.829 -22.026 -16.522  1.00  0.00     0.144 C 
HETATM   19  N7  UNL     1     -47.321 -20.685 -16.839  1.00  0.00    -0.083 NA
HETATM   20  N8  UNL     1     -47.826 -22.409 -15.349  1.00  0.00    -0.257 N 
ATOM     21  H8  UNL     1     -47.438 -21.714 -14.711  1.00  0.00     0.195 HD
BRANCH  20  22
HETATM   22  O1  UNL     1     -48.209 -23.509 -14.727  1.00  0.00    -0.289 OA
ATOM     23  H1  UNL     1     -48.312 -23.763 -13.817  1.00  0.00     0.244 HD
ENDBRANCH  20  22
ENDBRANCH  13  18
ENDBRANCH  12  13
ENDBRANCH  10  12
BRANCH   1  24
HETATM   24  N2  UNL     1     -45.275 -18.451 -23.013  1.00  0.00    -0.235 N 
HETATM   25  N1  UNL     1     -45.573 -17.541 -23.828  1.00  0.00    -0.330 N 
ATOM     26  H12 UNL     1     -46.441 -17.629 -24.357  1.00  0.00     0.178 HD
ATOM     27  H11 UNL     1     -44.967 -16.732 -23.962  1.00  0.00     0.178 HD
ATOM     28  H2  UNL     1     -44.411 -18.379 -22.477  1.00  0.00     0.208 HD
ENDBRANCH   1  24
TORSDOF 6
ENDMDL
MODEL 4
REMARK VINA RESULT: -4.134456892      8.202      9.535
REMARK  6 active torsions:
REMARK  status: ('A' for Active; 'I' for Inactive)
REMARK    1  A    between atoms: N2_4  and  N3_6 
REMARK       I    between atoms: N3_6  and  C1_8 
REMARK       I    between atoms: C1_8  and  N5_12 
REMARK    2  A    between atoms: S1_15  and  C4_16 
REMARK    3  A    between atoms: C4_16  and  C5_17 
REMARK    4  A    between atoms: C5_17  and  N6_18 
REMARK    5  A    between atoms: C5_17  and  C6_22 
REMARK    6  A    between atoms: N8_24  and  O1_26 
ROOT
HETATM    1  N3  UNL     1     -43.987 -20.179 -17.669  1.00  0.00    -0.118 N 
ATOM      2  H3  UNL     1     -44.094 -19.366 -18.276  1.00  0.00     0.207 HD
HETATM    3  C1  UNL     1     -45.152 -20.828 -17.242  1.00  0.00     0.690 C 
HETATM    4  N4  UNL     1     -45.418 -20.930 -15.993  1.00  0.00    -0.233 N 
ATOM      5  H41 UNL     1     -46.266 -21.403 -15.681  1.00  0.00     0.174 HD
ATOM      6  H42 UNL     1     -44.763 -20.529 -15.322  1.00  0.00     0.174 HD
HETATM    7  N5  UNL     1     -46.062 -21.384 -18.172  1.00  0.00    -0.208 N 
HETATM    8  C2  UNL     1     -45.640 -22.204 -19.319  1.00  0.00     0.151 C 
HETATM    9  C3  UNL     1     -46.139 -21.295 -20.466  1.00  0.00     0.085 C 
HETATM   10  S1  UNL     1     -47.823 -21.196 -19.957  1.00  0.00    -0.197 SA
HETATM   11  C7  UNL     1     -47.511 -21.255 -18.168  1.00  0.00     0.205 C 
ENDROOT
BRANCH  10  12
HETATM   12  C4  UNL     1     -48.681 -22.679 -20.375  1.00  0.00     0.105 C 
BRANCH  12  13
HETATM   13  C5  UNL     1     -47.899 -23.933 -20.217  1.00  0.00     0.258 C 
BRANCH  13  14
HETATM   14  N6  UNL     1     -48.267 -24.710 -19.096  1.00  0.00    -0.068 N 
ATOM     15  H63 UNL     1     -47.910 -25.660 -19.188  1.00  0.00     0.275 HD
ATOM     16  H62 UNL     1     -47.751 -24.409 -18.269  1.00  0.00     0.275 HD
ATOM     17  H61 UNL     1     -49.269 -24.723 -18.907  1.00  0.00     0.275 HD
ENDBRANCH  13  14
BRANCH  13  18
HETATM   18  C6  UNL     1     -47.941 -24.789 -21.424  1.00  0.00     0.144 C 
HETATM   19  N7  UNL     1     -46.702 -24.813 -22.213  1.00  0.00    -0.083 NA
HETATM   20  N8  UNL     1     -48.903 -25.468 -21.795  1.00  0.00    -0.257 N 
ATOM     21  H8  UNL     1     -48.712 -25.979 -22.657  1.00  0.00     0.195 HD
BRANCH  20  22
HETATM   22  O1  UNL     1     -50.121 -25.686 -21.335  1.00  0.00    -0.289 OA
ATOM     23  H1  UNL     1     -50.559 -26.421 -20.921  1.00  0.00     0.244 HD
ENDBRANCH  20  22
ENDBRANCH  13  18
ENDBRANCH  12  13
ENDBRANCH  10  12
BRANCH   1  24
HETATM   24  N2  UNL     1     -42.700 -20.561 -17.328  1.00  0.00    -0.235 N 
HETATM   25  N1  UNL     1     -41.723 -20.300 -18.074  1.00  0.00    -0.330 N 
ATOM     26  H12 UNL     1     -41.897 -19.797 -18.944  1.00  0.00     0.178 HD
ATOM     27  H11 UNL     1     -40.775 -20.581 -17.822  1.00  0.00     0.178 HD
ATOM     28  H2  UNL     1     -42.543 -21.063 -16.454  1.00  0.00     0.208 HD
ENDBRANCH   1  24
TORSDOF 6
ENDMDL
MODEL 5
REMARK VINA RESULT: -4.131573256      8.401      9.900
REMARK  6 active torsions:
REMARK  status: ('A' for Active; 'I' for Inactive)
REMARK    1  A    between atoms: N2_4  and  N3_6 
REMARK       I    between atoms: N3_6  and  C1_8 
REMARK       I    between atoms: C1_8  and  N5_12 
REMARK    2  A    between atoms: S1_15  and  C4_16 
REMARK    3  A    between atoms: C4_16  and  C5_17 
REMARK    4  A    between atoms: C5_17  and  N6_18 
REMARK    5  A    between atoms: C5_17  and  C6_22 
REMARK    6  A    between atoms: N8_24  and  O1_26 
ROOT
HETATM    1  N3  UNL     1     -43.912 -20.131 -17.918  1.00  0.00    -0.118 N 
ATOM      2  H3  UNL     1     -43.979 -19.421 -18.647  1.00  0.00     0.207 HD
HETATM    3  C1  UNL     1     -45.058 -20.885 -17.638  1.00  0.00     0.690 C 
HETATM    4  N4  UNL     1     -45.573 -20.873 -16.465  1.00  0.00    -0.233 N 
ATOM      5  H41 UNL     1     -46.408 -21.423 -16.260  1.00  0.00     0.174 HD
ATOM      6  H42 UNL     1     -45.129 -20.304 -15.745  1.00  0.00     0.174 HD
HETATM    7  N5  UNL     1     -45.676 -21.675 -18.637  1.00  0.00    -0.208 N 
HETATM    8  C2  UNL     1     -44.925 -22.557 -19.543  1.00  0.00     0.151 C 
HETATM    9  C3  UNL     1     -45.268 -21.874 -20.888  1.00  0.00     0.085 C 
HETATM   10  S1  UNL     1     -47.021 -21.959 -20.742  1.00  0.00    -0.197 SA
HETATM   11  C7  UNL     1     -47.097 -21.757 -18.938  1.00  0.00     0.205 C 
ENDROOT
BRANCH  10  12
HETATM   12  C4  UNL     1     -47.591 -23.590 -21.097  1.00  0.00     0.105 C 
BRANCH  12  13
HETATM   13  C5  UNL     1     -48.717 -24.069 -20.253  1.00  0.00     0.258 C 
BRANCH  13  14
HETATM   14  N6  UNL     1     -49.488 -25.096 -20.842  1.00  0.00    -0.068 N 
ATOM     15  H63 UNL     1     -49.389 -25.078 -21.857  1.00  0.00     0.275 HD
ATOM     16  H62 UNL     1     -49.077 -26.008 -20.644  1.00  0.00     0.275 HD
ATOM     17  H61 UNL     1     -50.473 -25.083 -20.579  1.00  0.00     0.275 HD
ENDBRANCH  13  14
BRANCH  13  18
HETATM   18  C6  UNL     1     -48.277 -24.513 -18.912  1.00  0.00     0.144 C 
HETATM   19  N7  UNL     1     -47.054 -25.327 -18.897  1.00  0.00    -0.083 NA
HETATM   20  N8  UNL     1     -48.836 -24.248 -17.844  1.00  0.00    -0.257 N 
ATOM     21  H8  UNL     1     -48.361 -24.660 -17.040  1.00  0.00     0.195 HD
BRANCH  20  22
HETATM   22  O1  UNL     1     -49.905 -23.554 -17.499  1.00  0.00    -0.289 OA
ATOM     23  H1  UNL     1     -50.572 -23.640 -16.827  1.00  0.00     0.244 HD
ENDBRANCH  20  22
ENDBRANCH  13  18
ENDBRANCH  12  13
ENDBRANCH  10  12
BRANCH   1  24
HETATM   24  N2  UNL     1     -42.693 -20.279 -17.277  1.00  0.00    -0.235 N 
HETATM   25  N1  UNL     1     -41.615 -20.299 -17.922  1.00  0.00    -0.330 N 
ATOM     26  H12 UNL     1     -41.655 -20.202 -18.936  1.00  0.00     0.178 HD
ATOM     27  H11 UNL     1     -40.717 -20.408 -17.449  1.00  0.00     0.178 HD
ATOM     28  H2  UNL     1     -42.671 -20.375 -16.262  1.00  0.00     0.208 HD
ENDBRANCH   1  24
TORSDOF 6
ENDMDL
