MODEL 1
REMARK VINA RESULT: -6.546081050      0.000      0.000
REMARK  6 active torsions:
REMARK  status: ('A' for Active; 'I' for Inactive)
REMARK    1  A    between atoms: C1_2  and  C2_4 
REMARK    2  A    between atoms: C2_4  and  N2_5 
REMARK    3  A    between atoms: C2_4  and  C3_9 
REMARK    4  A    between atoms: C3_9  and  O1_10 
REMARK    5  A    between atoms: N3_12  and  S2_14 
REMARK    6  A    between atoms: S2_14  and  N4_17 
ROOT
HETATM    1  C3  UNL     1     -47.331 -21.464 -17.881  1.00  0.00     0.164 C 
HETATM    2  N3  UNL     1     -47.505 -22.604 -17.309  1.00  0.00    -0.249 N 
ATOM      3  H3  UNL     1     -46.755 -22.994 -16.738  1.00  0.00     0.182 HD
ENDROOT
BRANCH   1   4
HETATM    4  C2  UNL     1     -46.072 -20.689 -17.743  1.00  0.00     0.316 C 
BRANCH   4   5
HETATM    5  C1  UNL     1     -45.065 -21.130 -18.736  1.00  0.00     0.129 C 
HETATM    6  N1  UNL     1     -45.520 -21.756 -19.923  1.00  0.00    -0.092 NA
HETATM    7  S1  UNL     1     -43.498 -20.899 -18.465  1.00  0.00    -0.066 SA
ENDBRANCH   4   5
BRANCH   4   8
HETATM    8  N2  UNL     1     -45.497 -20.902 -16.428  1.00  0.00    -0.062 N 
ATOM      9  H23 UNL     1     -44.483 -21.014 -16.448  1.00  0.00     0.275 HD
ATOM     10  H22 UNL     1     -45.525 -20.070 -15.839  1.00  0.00     0.275 HD
ATOM     11  H21 UNL     1     -45.979 -21.701 -16.015  1.00  0.00     0.275 HD
ENDBRANCH   4   8
ENDBRANCH   1   4
BRANCH   1  12
HETATM   12  O1  UNL     1     -48.363 -20.954 -18.650  1.00  0.00    -0.347 OA
ATOM     13  H1  UNL     1     -48.952 -21.551 -19.096  1.00  0.00     0.219 HD
ENDBRANCH   1  12
BRANCH   2  14
HETATM   14  S2  UNL     1     -48.969 -23.485 -17.481  1.00  0.00     0.326 S 
HETATM   15  O2  UNL     1     -48.931 -24.626 -16.492  1.00  0.00    -0.182 OA
HETATM   16  O3  UNL     1     -50.167 -22.625 -17.138  1.00  0.00    -0.182 OA
BRANCH  14  17
HETATM   17  N4  UNL     1     -49.176 -24.053 -19.096  1.00  0.00    -0.243 N 
HETATM   18  C4  UNL     1     -48.262 -24.639 -19.761  1.00  0.00     0.211 C 
HETATM   19  N5  UNL     1     -48.530 -25.065 -21.075  1.00  0.00    -0.066 NA
HETATM   20  N6  UNL     1     -46.993 -24.862 -19.199  1.00  0.00    -0.066 NA
ATOM     21  H4  UNL     1     -50.082 -23.912 -19.543  1.00  0.00     0.182 HD
ENDBRANCH  14  17
ENDBRANCH   2  14
TORSDOF 6
ENDMDL
MODEL 2
REMARK VINA RESULT: -5.801983171      2.557      3.760
REMARK  6 active torsions:
REMARK  status: ('A' for Active; 'I' for Inactive)
REMARK    1  A    between atoms: C1_2  and  C2_4 
REMARK    2  A    between atoms: C2_4  and  N2_5 
REMARK    3  A    between atoms: C2_4  and  C3_9 
REMARK    4  A    between atoms: C3_9  and  O1_10 
REMARK    5  A    between atoms: N3_12  and  S2_14 
REMARK    6  A    between atoms: S2_14  and  N4_17 
ROOT
HETATM    1  C3  UNL     1     -47.815 -22.249 -18.457  1.00  0.00     0.164 C 
HETATM    2  N3  UNL     1     -46.659 -22.806 -18.564  1.00  0.00    -0.249 N 
ATOM      3  H3  UNL     1     -46.275 -23.312 -17.765  1.00  0.00     0.182 HD
ENDROOT
BRANCH   1   4
HETATM    4  C2  UNL     1     -48.616 -22.314 -17.209  1.00  0.00     0.316 C 
BRANCH   4   5
HETATM    5  C1  UNL     1     -47.854 -21.772 -16.059  1.00  0.00     0.129 C 
HETATM    6  N1  UNL     1     -48.170 -22.244 -14.761  1.00  0.00    -0.092 NA
HETATM    7  S1  UNL     1     -46.699 -20.680 -16.289  1.00  0.00    -0.066 SA
ENDBRANCH   4   5
BRANCH   4   8
HETATM    8  N2  UNL     1     -48.940 -23.693 -16.894  1.00  0.00    -0.062 N 
ATOM      9  H23 UNL     1     -48.159 -24.331 -17.042  1.00  0.00     0.275 HD
ATOM     10  H22 UNL     1     -49.057 -23.858 -15.894  1.00  0.00     0.275 HD
ATOM     11  H21 UNL     1     -49.766 -23.938 -17.440  1.00  0.00     0.275 HD
ENDBRANCH   4   8
ENDBRANCH   1   4
BRANCH   1  12
HETATM   12  O1  UNL     1     -48.318 -21.569 -19.553  1.00  0.00    -0.347 OA
ATOM     13  H1  UNL     1     -47.905 -20.759 -19.829  1.00  0.00     0.219 HD
ENDBRANCH   1  12
BRANCH   2  14
HETATM   14  S2  UNL     1     -45.748 -22.720 -20.017  1.00  0.00     0.326 S 
HETATM   15  O2  UNL     1     -45.594 -21.260 -20.371  1.00  0.00    -0.182 OA
HETATM   16  O3  UNL     1     -44.358 -23.290 -19.823  1.00  0.00    -0.182 OA
BRANCH  14  17
HETATM   17  N4  UNL     1     -46.505 -23.604 -21.289  1.00  0.00    -0.243 N 
HETATM   18  C4  UNL     1     -47.223 -24.639 -21.100  1.00  0.00     0.211 C 
HETATM   19  N5  UNL     1     -47.798 -25.291 -22.206  1.00  0.00    -0.066 NA
HETATM   20  N6  UNL     1     -47.446 -25.133 -19.802  1.00  0.00    -0.066 NA
ATOM     21  H4  UNL     1     -46.370 -23.280 -22.247  1.00  0.00     0.182 HD
ENDBRANCH  14  17
ENDBRANCH   2  14
TORSDOF 6
ENDMDL
MODEL 3
REMARK VINA RESULT: -5.760151063      2.546      3.432
REMARK  6 active torsions:
REMARK  status: ('A' for Active; 'I' for Inactive)
REMARK    1  A    between atoms: C1_2  and  C2_4 
REMARK    2  A    between atoms: C2_4  and  N2_5 
REMARK    3  A    between atoms: C2_4  and  C3_9 
REMARK    4  A    between atoms: C3_9  and  O1_10 
REMARK    5  A    between atoms: N3_12  and  S2_14 
REMARK    6  A    between atoms: S2_14  and  N4_17 
ROOT
HETATM    1  C3  UNL     1     -45.884 -22.787 -19.860  1.00  0.00     0.164 C 
HETATM    2  N3  UNL     1     -47.152 -22.926 -20.038  1.00  0.00    -0.249 N 
ATOM      3  H3  UNL     1     -47.655 -22.232 -20.592  1.00  0.00     0.182 HD
ENDROOT
BRANCH   1   4
HETATM    4  C2  UNL     1     -45.120 -21.652 -20.435  1.00  0.00     0.316 C 
BRANCH   4   5
HETATM    5  C1  UNL     1     -44.354 -20.941 -19.384  1.00  0.00     0.129 C 
HETATM    6  N1  UNL     1     -43.073 -20.433 -19.713  1.00  0.00    -0.092 NA
HETATM    7  S1  UNL     1     -44.969 -20.755 -17.912  1.00  0.00    -0.066 SA
ENDBRANCH   4   5
BRANCH   4   8
HETATM    8  N2  UNL     1     -46.028 -20.687 -21.027  1.00  0.00    -0.062 N 
ATOM      9  H23 UNL     1     -46.754 -21.119 -21.598  1.00  0.00     0.275 HD
ATOM     10  H22 UNL     1     -46.645 -20.246 -20.344  1.00  0.00     0.275 HD
ATOM     11  H21 UNL     1     -45.459 -20.017 -21.543  1.00  0.00     0.275 HD
ENDBRANCH   4   8
ENDBRANCH   1   4
BRANCH   1  12
HETATM   12  O1  UNL     1     -45.222 -23.740 -19.105  1.00  0.00    -0.347 OA
ATOM     13  H1  UNL     1     -45.330 -23.746 -18.162  1.00  0.00     0.219 HD
ENDBRANCH   1  12
BRANCH   2  14
HETATM   14  S2  UNL     1     -48.018 -24.247 -19.365  1.00  0.00     0.326 S 
HETATM   15  O2  UNL     1     -49.387 -24.264 -20.002  1.00  0.00    -0.182 OA
HETATM   16  O3  UNL     1     -47.346 -25.563 -19.696  1.00  0.00    -0.182 OA
BRANCH  14  17
HETATM   17  N4  UNL     1     -48.120 -24.126 -17.648  1.00  0.00    -0.243 N 
HETATM   18  C4  UNL     1     -48.369 -23.040 -17.031  1.00  0.00     0.211 C 
HETATM   19  N5  UNL     1     -48.431 -23.045 -15.625  1.00  0.00    -0.066 NA
HETATM   20  N6  UNL     1     -48.583 -21.843 -17.737  1.00  0.00    -0.066 NA
ATOM     21  H4  UNL     1     -47.972 -24.970 -17.097  1.00  0.00     0.182 HD
ENDBRANCH  14  17
ENDBRANCH   2  14
TORSDOF 6
ENDMDL
MODEL 4
REMARK VINA RESULT: -5.566959643      2.675      5.024
REMARK  6 active torsions:
REMARK  status: ('A' for Active; 'I' for Inactive)
REMARK    1  A    between atoms: C1_2  and  C2_4 
REMARK    2  A    between atoms: C2_4  and  N2_5 
REMARK    3  A    between atoms: C2_4  and  C3_9 
REMARK    4  A    between atoms: C3_9  and  O1_10 
REMARK    5  A    between atoms: N3_12  and  S2_14 
REMARK    6  A    between atoms: S2_14  and  N4_17 
ROOT
HETATM    1  C3  UNL     1     -47.371 -22.172 -18.540  1.00  0.00     0.164 C 
HETATM    2  N3  UNL     1     -46.142 -21.796 -18.454  1.00  0.00    -0.249 N 
ATOM      3  H3  UNL     1     -45.771 -21.515 -17.547  1.00  0.00     0.182 HD
ENDROOT
BRANCH   1   4
HETATM    4  C2  UNL     1     -48.274 -22.211 -17.362  1.00  0.00     0.316 C 
BRANCH   4   5
HETATM    5  C1  UNL     1     -47.692 -21.465 -16.221  1.00  0.00     0.129 C 
HETATM    6  N1  UNL     1     -46.814 -20.390 -16.500  1.00  0.00    -0.092 NA
HETATM    7  S1  UNL     1     -48.055 -21.874 -14.711  1.00  0.00    -0.066 SA
ENDBRANCH   4   5
BRANCH   4   8
HETATM    8  N2  UNL     1     -48.463 -23.582 -16.924  1.00  0.00    -0.062 N 
ATOM      9  H23 UNL     1     -48.921 -23.651 -16.015  1.00  0.00     0.275 HD
ATOM     10  H22 UNL     1     -49.170 -24.081 -17.465  1.00  0.00     0.275 HD
ATOM     11  H21 UNL     1     -47.549 -24.033 -16.947  1.00  0.00     0.275 HD
ENDBRANCH   4   8
ENDBRANCH   1   4
BRANCH   1  12
HETATM   12  O1  UNL     1     -47.855 -22.551 -19.781  1.00  0.00    -0.347 OA
ATOM     13  H1  UNL     1     -47.285 -23.017 -20.381  1.00  0.00     0.219 HD
ENDBRANCH   1  12
BRANCH   2  14
HETATM   14  S2  UNL     1     -45.114 -21.758 -19.829  1.00  0.00     0.326 S 
HETATM   15  O2  UNL     1     -44.684 -23.177 -20.115  1.00  0.00    -0.182 OA
HETATM   16  O3  UNL     1     -45.854 -21.252 -21.049  1.00  0.00    -0.182 OA
BRANCH  14  17
HETATM   17  N4  UNL     1     -43.757 -20.725 -19.572  1.00  0.00    -0.243 N 
HETATM   18  C4  UNL     1     -43.118 -20.660 -18.472  1.00  0.00     0.211 C 
HETATM   19  N5  UNL     1     -42.022 -19.784 -18.362  1.00  0.00    -0.066 NA
HETATM   20  N6  UNL     1     -43.494 -21.451 -17.372  1.00  0.00    -0.066 NA
ATOM     21  H4  UNL     1     -43.449 -20.134 -20.344  1.00  0.00     0.182 HD
ENDBRANCH  14  17
ENDBRANCH   2  14
TORSDOF 6
ENDMDL
MODEL 5
REMARK VINA RESULT: -5.307662033      2.455      3.187
REMARK  6 active torsions:
REMARK  status: ('A' for Active; 'I' for Inactive)
REMARK    1  A    between atoms: C1_2  and  C2_4 
REMARK    2  A    between atoms: C2_4  and  N2_5 
REMARK    3  A    between atoms: C2_4  and  C3_9 
REMARK    4  A    between atoms: C3_9  and  O1_10 
REMARK    5  A    between atoms: N3_12  and  S2_14 
REMARK    6  A    between atoms: S2_14  and  N4_17 
ROOT
HETATM    1  C3  UNL     1     -45.246 -21.528 -18.518  1.00  0.00     0.164 C 
HETATM    2  N3  UNL     1     -46.398 -21.111 -18.915  1.00  0.00    -0.249 N 
ATOM      3  H3  UNL     1     -46.691 -20.162 -18.682  1.00  0.00     0.182 HD
ENDROOT
BRANCH   1   4
HETATM    4  C2  UNL     1     -44.321 -20.676 -17.729  1.00  0.00     0.316 C 
BRANCH   4   5
HETATM    5  C1  UNL     1     -43.135 -20.295 -18.531  1.00  0.00     0.129 C 
HETATM    6  N1  UNL     1     -43.180 -20.494 -19.933  1.00  0.00    -0.092 NA
HETATM    7  S1  UNL     1     -41.836 -19.672 -17.821  1.00  0.00    -0.066 SA
ENDBRANCH   4   5
BRANCH   4   8
HETATM    8  N2  UNL     1     -43.837 -21.403 -16.571  1.00  0.00    -0.062 N 
ATOM      9  H23 UNL     1     -42.851 -21.231 -16.374  1.00  0.00     0.275 HD
ATOM     10  H22 UNL     1     -44.210 -21.047 -15.690  1.00  0.00     0.275 HD
ATOM     11  H21 UNL     1     -44.049 -22.388 -16.725  1.00  0.00     0.275 HD
ENDBRANCH   4   8
ENDBRANCH   1   4
BRANCH   1  12
HETATM   12  O1  UNL     1     -44.868 -22.819 -18.847  1.00  0.00    -0.347 OA
ATOM     13  H1  UNL     1     -44.468 -23.370 -18.185  1.00  0.00     0.219 HD
ENDBRANCH   1  12
BRANCH   2  14
HETATM   14  S2  UNL     1     -47.453 -22.113 -19.827  1.00  0.00     0.326 S 
HETATM   15  O2  UNL     1     -48.558 -21.236 -20.367  1.00  0.00    -0.182 OA
HETATM   16  O3  UNL     1     -46.736 -22.722 -21.014  1.00  0.00    -0.182 OA
BRANCH  14  17
HETATM   17  N4  UNL     1     -48.079 -23.405 -18.872  1.00  0.00    -0.243 N 
HETATM   18  C4  UNL     1     -48.502 -23.260 -17.679  1.00  0.00     0.211 C 
HETATM   19  N5  UNL     1     -48.995 -24.378 -16.982  1.00  0.00    -0.066 NA
HETATM   20  N6  UNL     1     -48.482 -21.999 -17.056  1.00  0.00    -0.066 NA
ATOM     21  H4  UNL     1     -48.112 -24.336 -19.285  1.00  0.00     0.182 HD
ENDBRANCH  14  17
ENDBRANCH   2  14
TORSDOF 6
ENDMDL
