MODEL 1
REMARK VINA RESULT: -7.452865875      0.000      0.000
REMARK  6 active torsions:
REMARK  status: ('A' for Active; 'I' for Inactive)
REMARK    1  A    between atoms: N1_1  and  C1_4 
REMARK    2  A    between atoms: C2_7  and  O1_8 
REMARK    3  A    between atoms: O1_8  and  C3_9 
REMARK    4  A    between atoms: C3_9  and  C4_10 
REMARK    5  A    between atoms: C11_20  and  N4_21 
REMARK    6  A    between atoms: N4_21  and  C12_23 
ROOT
HETATM    1  C1  UNL     1      11.115  36.312  14.567  1.00  0.00     0.679 A 
HETATM    2  N2  UNL     1      11.556  35.639  15.657  1.00  0.00    -0.171 N 
ATOM      3  H2  UNL     1      12.534  35.718  15.934  1.00  0.00     0.186 HD
HETATM    4  C2  UNL     1      10.727  34.868  16.380  1.00  0.00     0.161 A 
HETATM    5  C10 UNL     1       9.422  34.803  15.953  1.00  0.00     0.105 A 
HETATM    6  C11 UNL     1       8.960  35.497  14.826  1.00  0.00     0.121 A 
HETATM    7  N5  UNL     1       9.840  36.242  14.160  1.00  0.00    -0.177 N 
ATOM      8  H5  UNL     1       9.543  36.762  13.335  1.00  0.00     0.185 HD
ENDROOT
BRANCH   4   9
HETATM    9  O1  UNL     1      11.199  34.188  17.491  1.00  0.00    -0.335 OA
BRANCH   9  10
HETATM   10  C3  UNL     1      12.577  34.011  17.752  1.00  0.00     0.183 C 
BRANCH  10  11
HETATM   11  C4  UNL     1      13.073  34.921  18.837  1.00  0.00     0.028 C 
HETATM   12  C5  UNL     1      13.707  34.184  19.978  1.00  0.00     0.009 C 
HETATM   13  C6  UNL     1      13.200  34.749  21.288  1.00  0.00     0.010 C 
HETATM   14  C7  UNL     1      13.373  36.245  21.374  1.00  0.00     0.103 C 
HETATM   15  C8  UNL     1      14.550  36.724  20.617  1.00  0.00     0.217 C 
HETATM   16  O2  UNL     1      15.330  37.475  21.251  1.00  0.00    -0.274 OA
HETATM   17  N3  UNL     1      14.916  36.453  19.275  1.00  0.00    -0.361 N 
HETATM   18  C9  UNL     1      14.095  35.859  18.221  1.00  0.00     0.129 C 
ATOM     19  H3  UNL     1      15.869  36.702  19.013  1.00  0.00     0.162 HD
ENDBRANCH  10  11
ENDBRANCH   9  10
ENDBRANCH   4   9
BRANCH   1  20
HETATM   20  N1  UNL     1      11.961  37.051  13.894  1.00  0.00    -0.234 N 
ATOM     21  H12 UNL     1      12.625  37.635  14.403  1.00  0.00     0.174 HD
ATOM     22  H11 UNL     1      11.936  37.026  12.875  1.00  0.00     0.174 HD
ENDBRANCH   1  20
BRANCH   6  23
HETATM   23  N4  UNL     1       7.740  35.343  14.556  1.00  0.00    -0.371 N 
ATOM     24  H4  UNL     1       7.090  35.672  15.270  1.00  0.00     0.161 HD
BRANCH  23  25
HETATM   25  C12 UNL     1       7.128  34.770  13.385  1.00  0.00     0.083 C 
HETATM   26  C13 UNL     1       5.795  35.367  13.050  1.00  0.00     0.025 C 
HETATM   27  C14 UNL     1       4.767  34.407  12.560  1.00  0.00     0.002 C 
HETATM   28  C15 UNL     1       5.466  33.402  11.655  1.00  0.00     0.000 C 
HETATM   29  C16 UNL     1       6.284  32.527  12.568  1.00  0.00     0.002 C 
HETATM   30  C17 UNL     1       7.191  33.292  13.473  1.00  0.00     0.025 C 
ENDBRANCH  23  25
ENDBRANCH   6  23
TORSDOF 6
ENDMDL
MODEL 2
REMARK VINA RESULT: -7.290928554      1.182      1.661
REMARK  6 active torsions:
REMARK  status: ('A' for Active; 'I' for Inactive)
REMARK    1  A    between atoms: N1_1  and  C1_4 
REMARK    2  A    between atoms: C2_7  and  O1_8 
REMARK    3  A    between atoms: O1_8  and  C3_9 
REMARK    4  A    between atoms: C3_9  and  C4_10 
REMARK    5  A    between atoms: C11_20  and  N4_21 
REMARK    6  A    between atoms: N4_21  and  C12_23 
ROOT
HETATM    1  C1  UNL     1      11.884  35.839  12.952  1.00  0.00     0.679 A 
HETATM    2  N2  UNL     1      12.701  35.554  13.994  1.00  0.00    -0.171 N 
ATOM      3  H2  UNL     1      13.699  35.423  13.828  1.00  0.00     0.186 HD
HETATM    4  C2  UNL     1      12.221  35.440  15.243  1.00  0.00     0.161 A 
HETATM    5  C10 UNL     1      10.868  35.627  15.398  1.00  0.00     0.105 A 
HETATM    6  C11 UNL     1      10.016  35.922  14.324  1.00  0.00     0.121 A 
HETATM    7  N5  UNL     1      10.566  36.020  13.115  1.00  0.00    -0.177 N 
ATOM      8  H5  UNL     1       9.980  36.233  12.308  1.00  0.00     0.185 HD
ENDROOT
BRANCH   4   9
HETATM    9  O1  UNL     1      13.074  35.148  16.294  1.00  0.00    -0.335 OA
BRANCH   9  10
HETATM   10  C3  UNL     1      12.628  34.575  17.506  1.00  0.00     0.183 C 
BRANCH  10  11
HETATM   11  C4  UNL     1      13.134  35.318  18.708  1.00  0.00     0.028 C 
HETATM   12  C5  UNL     1      13.661  34.413  19.780  1.00  0.00     0.009 C 
HETATM   13  C6  UNL     1      13.133  34.863  21.125  1.00  0.00     0.010 C 
HETATM   14  C7  UNL     1      13.403  36.323  21.390  1.00  0.00     0.103 C 
HETATM   15  C8  UNL     1      14.645  36.796  20.741  1.00  0.00     0.217 C 
HETATM   16  O2  UNL     1      15.444  37.411  21.487  1.00  0.00    -0.274 OA
HETATM   17  N3  UNL     1      15.055  36.651  19.392  1.00  0.00    -0.361 N 
HETATM   18  C9  UNL     1      14.246  36.242  18.245  1.00  0.00     0.129 C 
ATOM     19  H3  UNL     1      16.034  36.857  19.198  1.00  0.00     0.162 HD
ENDBRANCH  10  11
ENDBRANCH   9  10
ENDBRANCH   4   9
BRANCH   1  20
HETATM   20  N1  UNL     1      12.399  35.940  11.752  1.00  0.00    -0.234 N 
ATOM     21  H12 UNL     1      12.837  35.122  11.329  1.00  0.00     0.174 HD
ATOM     22  H11 UNL     1      12.351  36.837  11.268  1.00  0.00     0.174 HD
ENDBRANCH   1  20
BRANCH   6  23
HETATM   23  N4  UNL     1       8.802  36.068  14.618  1.00  0.00    -0.371 N 
ATOM     24  H4  UNL     1       8.573  36.930  15.112  1.00  0.00     0.161 HD
BRANCH  23  25
HETATM   25  C12 UNL     1       7.687  35.194  14.358  1.00  0.00     0.083 C 
HETATM   26  C13 UNL     1       8.050  33.740  14.347  1.00  0.00     0.025 C 
HETATM   27  C14 UNL     1       7.365  32.915  13.313  1.00  0.00     0.002 C 
HETATM   28  C15 UNL     1       5.926  33.401  13.213  1.00  0.00     0.000 C 
HETATM   29  C16 UNL     1       5.992  34.742  12.532  1.00  0.00     0.002 C 
HETATM   30  C17 UNL     1       6.931  35.699  13.187  1.00  0.00     0.025 C 
ENDBRANCH  23  25
ENDBRANCH   6  23
TORSDOF 6
ENDMDL
MODEL 3
REMARK VINA RESULT: -7.287952662      1.791      1.927
REMARK  6 active torsions:
REMARK  status: ('A' for Active; 'I' for Inactive)
REMARK    1  A    between atoms: N1_1  and  C1_4 
REMARK    2  A    between atoms: C2_7  and  O1_8 
REMARK    3  A    between atoms: O1_8  and  C3_9 
REMARK    4  A    between atoms: C3_9  and  C4_10 
REMARK    5  A    between atoms: C11_20  and  N4_21 
REMARK    6  A    between atoms: N4_21  and  C12_23 
ROOT
HETATM    1  C1  UNL     1      11.395  32.880  14.978  1.00  0.00     0.679 A 
HETATM    2  N2  UNL     1      11.613  33.218  16.272  1.00  0.00    -0.171 N 
ATOM      3  H2  UNL     1      12.561  33.182  16.647  1.00  0.00     0.186 HD
HETATM    4  C2  UNL     1      10.603  33.599  17.071  1.00  0.00     0.161 A 
HETATM    5  C10 UNL     1       9.351  33.624  16.505  1.00  0.00     0.105 A 
HETATM    6  C11 UNL     1       9.118  33.275  15.167  1.00  0.00     0.121 A 
HETATM    7  N5  UNL     1      10.170  32.909  14.437  1.00  0.00    -0.177 N 
ATOM      8  H5  UNL     1      10.042  32.647  13.460  1.00  0.00     0.185 HD
ENDROOT
BRANCH   4   9
HETATM    9  O1  UNL     1      10.849  33.940  18.390  1.00  0.00    -0.335 OA
BRANCH   9  10
HETATM   10  C3  UNL     1      12.015  33.538  19.081  1.00  0.00     0.183 C 
BRANCH  10  11
HETATM   11  C4  UNL     1      12.902  34.699  19.426  1.00  0.00     0.028 C 
HETATM   12  C5  UNL     1      13.931  34.365  20.463  1.00  0.00     0.009 C 
HETATM   13  C6  UNL     1      13.983  35.469  21.497  1.00  0.00     0.010 C 
HETATM   14  C7  UNL     1      14.180  36.830  20.876  1.00  0.00     0.103 C 
HETATM   15  C8  UNL     1      14.966  36.773  19.624  1.00  0.00     0.217 C 
HETATM   16  O2  UNL     1      15.936  37.566  19.558  1.00  0.00    -0.274 OA
HETATM   17  N3  UNL     1      14.773  35.946  18.489  1.00  0.00    -0.361 N 
HETATM   18  C9  UNL     1      13.602  35.139  18.152  1.00  0.00     0.129 C 
ATOM     19  H3  UNL     1      15.547  35.910  17.826  1.00  0.00     0.162 HD
ENDBRANCH  10  11
ENDBRANCH   9  10
ENDBRANCH   4   9
BRANCH   1  20
HETATM   20  N1  UNL     1      12.412  32.515  14.239  1.00  0.00    -0.234 N 
ATOM     21  H12 UNL     1      12.992  31.733  14.542  1.00  0.00     0.174 HD
ATOM     22  H11 UNL     1      12.602  33.024  13.375  1.00  0.00     0.174 HD
ENDBRANCH   1  20
BRANCH   6  23
HETATM   23  N4  UNL     1       7.921  33.346  14.787  1.00  0.00    -0.371 N 
ATOM     24  H4  UNL     1       7.233  32.968  15.440  1.00  0.00     0.161 HD
BRANCH  23  25
HETATM   25  C12 UNL     1       7.378  33.884  13.567  1.00  0.00     0.083 C 
HETATM   26  C13 UNL     1       7.189  35.371  13.596  1.00  0.00     0.025 C 
HETATM   27  C14 UNL     1       5.956  35.874  12.931  1.00  0.00     0.002 C 
HETATM   28  C15 UNL     1       5.737  35.045  11.673  1.00  0.00     0.000 C 
HETATM   29  C16 UNL     1       5.290  33.688  12.149  1.00  0.00     0.002 C 
HETATM   30  C17 UNL     1       6.208  33.074  13.152  1.00  0.00     0.025 C 
ENDBRANCH  23  25
ENDBRANCH   6  23
TORSDOF 6
ENDMDL
MODEL 4
REMARK VINA RESULT: -7.287907952      2.269      4.600
REMARK  6 active torsions:
REMARK  status: ('A' for Active; 'I' for Inactive)
REMARK    1  A    between atoms: N1_1  and  C1_4 
REMARK    2  A    between atoms: C2_7  and  O1_8 
REMARK    3  A    between atoms: O1_8  and  C3_9 
REMARK    4  A    between atoms: C3_9  and  C4_10 
REMARK    5  A    between atoms: C11_20  and  N4_21 
REMARK    6  A    between atoms: N4_21  and  C12_23 
ROOT
HETATM    1  C1  UNL     1       9.030  35.570  14.680  1.00  0.00     0.679 A 
HETATM    2  N2  UNL     1       9.480  34.978  15.812  1.00  0.00    -0.171 N 
ATOM      3  H2  UNL     1       8.826  34.469  16.406  1.00  0.00     0.186 HD
HETATM    4  C2  UNL     1      10.773  35.049  16.167  1.00  0.00     0.161 A 
HETATM    5  C10 UNL     1      11.602  35.750  15.324  1.00  0.00     0.105 A 
HETATM    6  C11 UNL     1      11.143  36.366  14.151  1.00  0.00     0.121 A 
HETATM    7  N5  UNL     1       9.847  36.251  13.865  1.00  0.00    -0.177 N 
ATOM      8  H5  UNL     1       9.475  36.685  13.021  1.00  0.00     0.185 HD
ENDROOT
BRANCH   4   9
HETATM    9  O1  UNL     1      11.212  34.435  17.328  1.00  0.00    -0.335 OA
BRANCH   9  10
HETATM   10  C3  UNL     1      12.579  34.196  17.600  1.00  0.00     0.183 C 
BRANCH  10  11
HETATM   11  C4  UNL     1      13.095  35.051  18.720  1.00  0.00     0.028 C 
HETATM   12  C5  UNL     1      13.661  34.253  19.855  1.00  0.00     0.009 C 
HETATM   13  C6  UNL     1      13.153  34.811  21.167  1.00  0.00     0.010 C 
HETATM   14  C7  UNL     1      13.401  36.293  21.296  1.00  0.00     0.103 C 
HETATM   15  C8  UNL     1      14.620  36.728  20.580  1.00  0.00     0.217 C 
HETATM   16  O2  UNL     1      15.423  37.420  21.252  1.00  0.00    -0.274 OA
HETATM   17  N3  UNL     1      15.004  36.471  19.240  1.00  0.00    -0.361 N 
HETATM   18  C9  UNL     1      14.180  35.949  18.152  1.00  0.00     0.129 C 
ATOM     19  H3  UNL     1      15.976  36.676  19.007  1.00  0.00     0.162 HD
ENDBRANCH  10  11
ENDBRANCH   9  10
ENDBRANCH   4   9
BRANCH   1  20
HETATM   20  N1  UNL     1       7.760  35.474  14.376  1.00  0.00    -0.234 N 
ATOM     21  H12 UNL     1       7.424  35.886  13.506  1.00  0.00     0.174 HD
ATOM     22  H11 UNL     1       7.135  34.987  15.019  1.00  0.00     0.174 HD
ENDBRANCH   1  20
BRANCH   6  23
HETATM   23  N4  UNL     1      12.016  36.972  13.478  1.00  0.00    -0.371 N 
ATOM     24  H4  UNL     1      12.326  37.863  13.867  1.00  0.00     0.161 HD
BRANCH  23  25
HETATM   25  C12 UNL     1      12.643  36.592  12.239  1.00  0.00     0.083 C 
HETATM   26  C13 UNL     1      13.701  35.542  12.396  1.00  0.00     0.025 C 
HETATM   27  C14 UNL     1      14.908  35.713  11.540  1.00  0.00     0.002 C 
HETATM   28  C15 UNL     1      14.442  36.210  10.178  1.00  0.00     0.000 C 
HETATM   29  C16 UNL     1      14.016  37.639  10.386  1.00  0.00     0.002 C 
HETATM   30  C17 UNL     1      13.025  37.812  11.488  1.00  0.00     0.025 C 
ENDBRANCH  23  25
ENDBRANCH   6  23
TORSDOF 6
ENDMDL
MODEL 5
REMARK VINA RESULT: -7.286316449      3.924      8.233
REMARK  6 active torsions:
REMARK  status: ('A' for Active; 'I' for Inactive)
REMARK    1  A    between atoms: N1_1  and  C1_4 
REMARK    2  A    between atoms: C2_7  and  O1_8 
REMARK    3  A    between atoms: O1_8  and  C3_9 
REMARK    4  A    between atoms: C3_9  and  C4_10 
REMARK    5  A    between atoms: C11_20  and  N4_21 
REMARK    6  A    between atoms: N4_21  and  C12_23 
ROOT
HETATM    1  C1  UNL     1      10.368  33.494  16.372  1.00  0.00     0.679 A 
HETATM    2  N2  UNL     1      11.054  33.084  15.278  1.00  0.00    -0.171 N 
ATOM      3  H2  UNL     1      10.559  32.950  14.396  1.00  0.00     0.186 HD
HETATM    4  C2  UNL     1      12.375  32.851  15.333  1.00  0.00     0.161 A 
HETATM    5  C10 UNL     1      12.982  33.049  16.550  1.00  0.00     0.105 A 
HETATM    6  C11 UNL     1      12.278  33.472  17.686  1.00  0.00     0.121 A 
HETATM    7  N5  UNL     1      10.970  33.684  17.554  1.00  0.00    -0.177 N 
ATOM      8  H5  UNL     1      10.423  33.992  18.357  1.00  0.00     0.185 HD
ENDROOT
BRANCH   4   9
HETATM    9  O1  UNL     1      13.057  32.433  14.202  1.00  0.00    -0.335 OA
BRANCH   9  10
HETATM   10  C3  UNL     1      12.644  32.767  12.891  1.00  0.00     0.183 C 
BRANCH  10  11
HETATM   11  C4  UNL     1      13.540  33.788  12.254  1.00  0.00     0.028 C 
HETATM   12  C5  UNL     1      13.450  33.799  10.758  1.00  0.00     0.009 C 
HETATM   13  C6  UNL     1      14.842  33.857  10.168  1.00  0.00     0.010 C 
HETATM   14  C7  UNL     1      15.655  34.999  10.725  1.00  0.00     0.103 C 
HETATM   15  C8  UNL     1      14.819  36.160  11.098  1.00  0.00     0.217 C 
HETATM   16  O2  UNL     1      15.195  37.266  10.638  1.00  0.00    -0.274 OA
HETATM   17  N3  UNL     1      13.654  36.196  11.903  1.00  0.00    -0.361 N 
HETATM   18  C9  UNL     1      13.138  35.152  12.787  1.00  0.00     0.129 C 
ATOM     19  H3  UNL     1      13.108  37.056  11.861  1.00  0.00     0.162 HD
ENDBRANCH  10  11
ENDBRANCH   9  10
ENDBRANCH   4   9
BRANCH   1  20
HETATM   20  N1  UNL     1       9.081  33.708  16.269  1.00  0.00    -0.234 N 
ATOM     21  H12 UNL     1       8.650  34.435  16.840  1.00  0.00     0.174 HD
ATOM     22  H11 UNL     1       8.536  33.140  15.619  1.00  0.00     0.174 HD
ENDBRANCH   1  20
BRANCH   6  23
HETATM   23  N4  UNL     1      12.966  33.612  18.731  1.00  0.00    -0.371 N 
ATOM     24  H4  UNL     1      13.464  32.776  19.040  1.00  0.00     0.161 HD
BRANCH  23  25
HETATM   25  C12 UNL     1      13.154  34.779  19.553  1.00  0.00     0.083 C 
HETATM   26  C13 UNL     1      13.738  35.947  18.818  1.00  0.00     0.025 C 
HETATM   27  C14 UNL     1      14.733  36.752  19.578  1.00  0.00     0.002 C 
HETATM   28  C15 UNL     1      14.246  36.850  21.017  1.00  0.00     0.000 C 
HETATM   29  C16 UNL     1      14.449  35.482  21.613  1.00  0.00     0.002 C 
HETATM   30  C17 UNL     1      13.826  34.385  20.815  1.00  0.00     0.025 C 
ENDBRANCH  23  25
ENDBRANCH   6  23
TORSDOF 6
ENDMDL
