MODEL 1
REMARK VINA RESULT: -6.401430732      0.000      0.000
REMARK  8 active torsions:
REMARK  status: ('A' for Active; 'I' for Inactive)
REMARK    1  A    between atoms: C2_2  and  N1_4 
REMARK    2  A    between atoms: N1_4  and  C4_6 
REMARK    3  A    between atoms: C6_10  and  C7_11 
REMARK    4  A    between atoms: C7_11  and  O1_12 
REMARK    5  A    between atoms: C7_11  and  C8_14 
REMARK    6  A    between atoms: C11_17  and  N3_18 
REMARK    7  A    between atoms: N3_18  and  C12_20 
REMARK    8  A    between atoms: C15_23  and  O2_24 
ROOT
HETATM    1  C4  UNL     1      13.343  34.640  18.050  1.00  0.00     0.679 A 
HETATM    2  N2  UNL     1      14.448  34.844  17.338  1.00  0.00    -0.201 N 
ATOM      3  H2  UNL     1      15.279  35.248  17.771  1.00  0.00     0.183 HD
HETATM    4  C5  UNL     1      14.449  34.507  16.027  1.00  0.00     0.123 A 
HETATM    5  C6  UNL     1      13.358  33.960  15.397  1.00  0.00     0.053 A 
HETATM    6  C11 UNL     1      12.207  33.756  16.183  1.00  0.00     0.131 A 
HETATM    7  N4  UNL     1      12.282  34.113  17.464  1.00  0.00    -0.176 N 
ATOM      8  H4  UNL     1      11.454  33.969  18.040  1.00  0.00     0.186 HD
ENDROOT
BRANCH   6   9
HETATM    9  N3  UNL     1      11.196  33.256  15.629  1.00  0.00    -0.370 N 
ATOM     10  H3  UNL     1      11.162  32.237  15.660  1.00  0.00     0.161 HD
BRANCH   9  11
HETATM   11  C12 UNL     1      10.098  33.855  14.971  1.00  0.00     0.087 C 
HETATM   12  C13 UNL     1      10.099  35.375  15.063  1.00  0.00     0.028 C 
HETATM   13  C14 UNL     1       9.022  35.958  14.205  1.00  0.00     0.034 C 
HETATM   14  C15 UNL     1       7.673  35.333  14.416  1.00  0.00     0.118 C 
HETATM   15  C16 UNL     1       7.717  33.835  14.521  1.00  0.00     0.038 C 
HETATM   16  C17 UNL     1       8.751  33.329  15.473  1.00  0.00     0.006 C 
HETATM   17  C18 UNL     1       8.500  33.668  16.903  1.00  0.00     0.012 C 
BRANCH  14  18
HETATM   18  O2  UNL     1       6.881  35.658  13.315  1.00  0.00    -0.396 OA
ATOM     19  H2  UNL     1       6.472  34.858  13.008  1.00  0.00     0.210 HD
ENDBRANCH  14  18
ENDBRANCH   9  11
ENDBRANCH   6   9
BRANCH   5  20
HETATM   20  C7  UNL     1      13.309  33.586  14.004  1.00  0.00     0.062 C 
BRANCH  20  21
HETATM   21  O1  UNL     1      13.425  32.301  13.776  1.00  0.00    -0.364 OA
ATOM     22  H1  UNL     1      13.716  32.077  12.900  1.00  0.00     0.217 HD
ENDBRANCH  20  21
BRANCH  20  23
HETATM   23  C8  UNL     1      13.154  34.365  12.791  1.00  0.00     0.043 A 
HETATM   24  C9  UNL     1      14.231  35.327  12.337  1.00  0.00     0.012 A 
HETATM   25  C10 UNL     1      12.878  35.789  12.652  1.00  0.00     0.012 A 
ENDBRANCH  20  23
ENDBRANCH   5  20
BRANCH   1  26
HETATM   26  N1  UNL     1      13.293  34.939  19.277  1.00  0.00    -0.222 N 
ATOM     27  H1  UNL     1      12.466  34.604  19.770  1.00  0.00     0.178 HD
BRANCH  26  28
HETATM   28  C2  UNL     1      14.215  35.673  20.076  1.00  0.00     0.091 C 
HETATM   29  C1  UNL     1      14.393  35.109  21.474  1.00  0.00     0.032 C 
HETATM   30  C3  UNL     1      13.983  37.164  20.082  1.00  0.00     0.032 C 
ENDBRANCH  26  28
ENDBRANCH   1  26
TORSDOF 8
ENDMDL
MODEL 2
REMARK VINA RESULT: -6.271659007      2.802      6.346
REMARK  8 active torsions:
REMARK  status: ('A' for Active; 'I' for Inactive)
REMARK    1  A    between atoms: C2_2  and  N1_4 
REMARK    2  A    between atoms: N1_4  and  C4_6 
REMARK    3  A    between atoms: C6_10  and  C7_11 
REMARK    4  A    between atoms: C7_11  and  O1_12 
REMARK    5  A    between atoms: C7_11  and  C8_14 
REMARK    6  A    between atoms: C11_17  and  N3_18 
REMARK    7  A    between atoms: N3_18  and  C12_20 
REMARK    8  A    between atoms: C15_23  and  O2_24 
ROOT
HETATM    1  C4  UNL     1      11.873  36.558  13.110  1.00  0.00     0.679 A 
HETATM    2  N2  UNL     1      10.689  36.125  12.687  1.00  0.00    -0.201 N 
ATOM      3  H2  UNL     1      10.236  36.555  11.880  1.00  0.00     0.183 HD
HETATM    4  C5  UNL     1      10.095  35.103  13.346  1.00  0.00     0.123 A 
HETATM    5  C6  UNL     1      10.663  34.490  14.436  1.00  0.00     0.053 A 
HETATM    6  C11 UNL     1      11.918  34.973  14.855  1.00  0.00     0.131 A 
HETATM    7  N4  UNL     1      12.438  35.981  14.156  1.00  0.00    -0.176 N 
ATOM      8  H4  UNL     1      13.346  36.336  14.452  1.00  0.00     0.186 HD
ENDROOT
BRANCH   6   9
HETATM    9  N3  UNL     1      12.458  34.427  15.850  1.00  0.00    -0.370 N 
ATOM     10  H3  UNL     1      12.850  33.505  15.661  1.00  0.00     0.161 HD
BRANCH   9  11
HETATM   11  C12 UNL     1      12.619  34.865  17.183  1.00  0.00     0.087 C 
HETATM   12  C13 UNL     1      13.979  35.496  17.449  1.00  0.00     0.028 C 
HETATM   13  C14 UNL     1      14.027  36.097  18.817  1.00  0.00     0.034 C 
HETATM   14  C15 UNL     1      13.559  35.171  19.903  1.00  0.00     0.118 C 
HETATM   15  C16 UNL     1      12.318  34.405  19.544  1.00  0.00     0.038 C 
HETATM   16  C17 UNL     1      12.384  33.749  18.204  1.00  0.00     0.006 C 
HETATM   17  C18 UNL     1      13.388  32.652  18.097  1.00  0.00     0.012 C 
BRANCH  14  18
HETATM   18  O2  UNL     1      13.269  35.949  21.024  1.00  0.00    -0.396 OA
ATOM     19  H2  UNL     1      12.394  36.301  20.911  1.00  0.00     0.210 HD
ENDBRANCH  14  18
ENDBRANCH   9  11
ENDBRANCH   6   9
BRANCH   5  20
HETATM   20  C7  UNL     1      10.070  33.400  15.174  1.00  0.00     0.062 C 
BRANCH  20  21
HETATM   21  O1  UNL     1      10.638  32.235  14.983  1.00  0.00    -0.364 OA
ATOM     22  H1  UNL     1      10.805  31.738  15.775  1.00  0.00     0.217 HD
ENDBRANCH  20  21
BRANCH  20  23
HETATM   23  C8  UNL     1       8.954  33.342  16.098  1.00  0.00     0.043 A 
HETATM   24  C9  UNL     1       8.539  34.557  16.900  1.00  0.00     0.012 A 
HETATM   25  C10 UNL     1       8.978  33.324  17.555  1.00  0.00     0.012 A 
ENDBRANCH  20  23
ENDBRANCH   5  20
BRANCH   1  26
HETATM   26  N1  UNL     1      12.466  37.509  12.527  1.00  0.00    -0.222 N 
ATOM     27  H1  UNL     1      12.761  38.272  13.136  1.00  0.00     0.178 HD
BRANCH  26  28
HETATM   28  C2  UNL     1      12.786  37.679  11.150  1.00  0.00     0.091 C 
HETATM   29  C1  UNL     1      14.258  37.478  10.837  1.00  0.00     0.032 C 
HETATM   30  C3  UNL     1      12.234  38.942  10.535  1.00  0.00     0.032 C 
ENDBRANCH  26  28
ENDBRANCH   1  26
TORSDOF 8
ENDMDL
MODEL 3
REMARK VINA RESULT: -6.069169872      1.958      4.055
REMARK  8 active torsions:
REMARK  status: ('A' for Active; 'I' for Inactive)
REMARK    1  A    between atoms: C2_2  and  N1_4 
REMARK    2  A    between atoms: N1_4  and  C4_6 
REMARK    3  A    between atoms: C6_10  and  C7_11 
REMARK    4  A    between atoms: C7_11  and  O1_12 
REMARK    5  A    between atoms: C7_11  and  C8_14 
REMARK    6  A    between atoms: C11_17  and  N3_18 
REMARK    7  A    between atoms: N3_18  and  C12_20 
REMARK    8  A    between atoms: C15_23  and  O2_24 
ROOT
HETATM    1  C4  UNL     1      13.194  35.918  17.700  1.00  0.00     0.679 A 
HETATM    2  N2  UNL     1      12.880  37.124  17.236  1.00  0.00    -0.201 N 
ATOM      3  H2  UNL     1      13.289  37.963  17.648  1.00  0.00     0.183 HD
HETATM    4  C5  UNL     1      12.008  37.219  16.205  1.00  0.00     0.123 A 
HETATM    5  C6  UNL     1      11.431  36.121  15.614  1.00  0.00     0.053 A 
HETATM    6  C11 UNL     1      11.787  34.861  16.131  1.00  0.00     0.131 A 
HETATM    7  N4  UNL     1      12.651  34.849  17.145  1.00  0.00    -0.176 N 
ATOM      8  H4  UNL     1      12.915  33.940  17.525  1.00  0.00     0.186 HD
ENDROOT
BRANCH   6   9
HETATM    9  N3  UNL     1      11.273  33.841  15.606  1.00  0.00    -0.370 N 
ATOM     10  H3  UNL     1      10.271  33.746  15.769  1.00  0.00     0.161 HD
BRANCH   9  11
HETATM   11  C12 UNL     1      11.837  32.804  14.830  1.00  0.00     0.087 C 
HETATM   12  C13 UNL     1      12.678  33.312  13.667  1.00  0.00     0.028 C 
HETATM   13  C14 UNL     1      13.389  32.183  12.993  1.00  0.00     0.034 C 
HETATM   14  C15 UNL     1      12.497  31.026  12.644  1.00  0.00     0.118 C 
HETATM   15  C16 UNL     1      11.532  30.663  13.736  1.00  0.00     0.038 C 
HETATM   16  C17 UNL     1      10.785  31.831  14.292  1.00  0.00     0.006 C 
HETATM   17  C18 UNL     1       9.841  32.477  13.336  1.00  0.00     0.012 C 
BRANCH  14  18
HETATM   18  O2  UNL     1      13.313  29.919  12.412  1.00  0.00    -0.396 OA
ATOM     19  H2  UNL     1      12.747  29.173  12.254  1.00  0.00     0.210 HD
ENDBRANCH  14  18
ENDBRANCH   9  11
ENDBRANCH   6   9
BRANCH   5  20
HETATM   20  C7  UNL     1      10.495  36.169  14.516  1.00  0.00     0.062 C 
BRANCH  20  21
HETATM   21  O1  UNL     1      11.031  36.008  13.331  1.00  0.00    -0.364 OA
ATOM     22  H1  UNL     1      11.792  36.550  13.161  1.00  0.00     0.217 HD
ENDBRANCH  20  21
BRANCH  20  23
HETATM   23  C8  UNL     1       9.059  36.364  14.468  1.00  0.00     0.043 A 
HETATM   24  C9  UNL     1       8.111  35.344  15.063  1.00  0.00     0.012 A 
HETATM   25  C10 UNL     1       8.075  35.680  13.639  1.00  0.00     0.012 A 
ENDBRANCH  20  23
ENDBRANCH   5  20
BRANCH   1  26
HETATM   26  N1  UNL     1      14.003  35.779  18.661  1.00  0.00    -0.222 N 
ATOM     27  H1  UNL     1      14.972  35.616  18.389  1.00  0.00     0.178 HD
BRANCH  26  28
HETATM   28  C2  UNL     1      13.768  35.816  20.064  1.00  0.00     0.091 C 
HETATM   29  C1  UNL     1      14.667  36.789  20.807  1.00  0.00     0.032 C 
HETATM   30  C3  UNL     1      13.721  34.459  20.723  1.00  0.00     0.032 C 
ENDBRANCH  26  28
ENDBRANCH   1  26
TORSDOF 8
ENDMDL
MODEL 4
REMARK VINA RESULT: -6.055258978      1.113      1.430
REMARK  8 active torsions:
REMARK  status: ('A' for Active; 'I' for Inactive)
REMARK    1  A    between atoms: C2_2  and  N1_4 
REMARK    2  A    between atoms: N1_4  and  C4_6 
REMARK    3  A    between atoms: C6_10  and  C7_11 
REMARK    4  A    between atoms: C7_11  and  O1_12 
REMARK    5  A    between atoms: C7_11  and  C8_14 
REMARK    6  A    between atoms: C11_17  and  N3_18 
REMARK    7  A    between atoms: N3_18  and  C12_20 
REMARK    8  A    between atoms: C15_23  and  O2_24 
ROOT
HETATM    1  C4  UNL     1      13.438  35.413  17.662  1.00  0.00     0.679 A 
HETATM    2  N2  UNL     1      14.549  35.030  17.039  1.00  0.00    -0.201 N 
ATOM      3  H2  UNL     1      15.466  35.277  17.413  1.00  0.00     0.183 HD
HETATM    4  C5  UNL     1      14.441  34.307  15.901  1.00  0.00     0.123 A 
HETATM    5  C6  UNL     1      13.231  33.948  15.357  1.00  0.00     0.053 A 
HETATM    6  C11 UNL     1      12.076  34.370  16.044  1.00  0.00     0.131 A 
HETATM    7  N4  UNL     1      12.263  35.078  17.157  1.00  0.00    -0.176 N 
ATOM      8  H4  UNL     1      11.432  35.387  17.660  1.00  0.00     0.186 HD
ENDROOT
BRANCH   6   9
HETATM    9  N3  UNL     1      10.958  34.053  15.567  1.00  0.00    -0.370 N 
ATOM     10  H3  UNL     1      10.704  33.075  15.705  1.00  0.00     0.161 HD
BRANCH   9  11
HETATM   11  C12 UNL     1       9.989  34.812  14.872  1.00  0.00     0.087 C 
HETATM   12  C13 UNL     1       8.753  35.117  15.707  1.00  0.00     0.028 C 
HETATM   13  C14 UNL     1       7.848  36.065  14.988  1.00  0.00     0.034 C 
HETATM   14  C15 UNL     1       7.547  35.662  13.573  1.00  0.00     0.118 C 
HETATM   15  C16 UNL     1       8.752  35.174  12.820  1.00  0.00     0.038 C 
HETATM   16  C17 UNL     1       9.551  34.153  13.562  1.00  0.00     0.006 C 
HETATM   17  C18 UNL     1       8.855  32.853  13.778  1.00  0.00     0.012 C 
BRANCH  14  18
HETATM   18  O2  UNL     1       7.058  36.786  12.909  1.00  0.00    -0.396 OA
ATOM     19  H2  UNL     1       6.654  36.491  12.102  1.00  0.00     0.210 HD
ENDBRANCH  14  18
ENDBRANCH   9  11
ENDBRANCH   6   9
BRANCH   5  20
HETATM   20  C7  UNL     1      13.063  33.181  14.146  1.00  0.00     0.062 C 
BRANCH  20  21
HETATM   21  O1  UNL     1      12.564  31.982  14.321  1.00  0.00    -0.364 OA
ATOM     22  H1  UNL     1      11.863  31.752  13.722  1.00  0.00     0.217 HD
ENDBRANCH  20  21
BRANCH  20  23
HETATM   23  C8  UNL     1      13.344  33.481  12.756  1.00  0.00     0.043 A 
HETATM   24  C9  UNL     1      12.808  34.738  12.104  1.00  0.00     0.012 A 
HETATM   25  C10 UNL     1      12.446  33.409  11.610  1.00  0.00     0.012 A 
ENDBRANCH  20  23
ENDBRANCH   5  20
BRANCH   1  26
HETATM   26  N1  UNL     1      13.488  36.091  18.728  1.00  0.00    -0.222 N 
ATOM     27  H1  UNL     1      13.178  37.058  18.639  1.00  0.00     0.178 HD
BRANCH  26  28
HETATM   28  C2  UNL     1      13.910  35.710  20.032  1.00  0.00     0.091 C 
HETATM   29  C1  UNL     1      13.379  34.359  20.476  1.00  0.00     0.032 C 
HETATM   30  C3  UNL     1      13.720  36.777  21.084  1.00  0.00     0.032 C 
ENDBRANCH  26  28
ENDBRANCH   1  26
TORSDOF 8
ENDMDL
MODEL 5
REMARK VINA RESULT: -6.053867666      1.707      2.064
REMARK  8 active torsions:
REMARK  status: ('A' for Active; 'I' for Inactive)
REMARK    1  A    between atoms: C2_2  and  N1_4 
REMARK    2  A    between atoms: N1_4  and  C4_6 
REMARK    3  A    between atoms: C6_10  and  C7_11 
REMARK    4  A    between atoms: C7_11  and  O1_12 
REMARK    5  A    between atoms: C7_11  and  C8_14 
REMARK    6  A    between atoms: C11_17  and  N3_18 
REMARK    7  A    between atoms: N3_18  and  C12_20 
REMARK    8  A    between atoms: C15_23  and  O2_24 
ROOT
HETATM    1  C4  UNL     1      13.164  34.195  17.458  1.00  0.00     0.679 A 
HETATM    2  N2  UNL     1      14.178  34.186  16.598  1.00  0.00    -0.201 N 
ATOM      3  H2  UNL     1      15.087  33.810  16.870  1.00  0.00     0.183 HD
HETATM    4  C5  UNL     1      13.983  34.686  15.356  1.00  0.00     0.123 A 
HETATM    5  C6  UNL     1      12.781  35.203  14.940  1.00  0.00     0.053 A 
HETATM    6  C11 UNL     1      11.729  35.195  15.877  1.00  0.00     0.131 A 
HETATM    7  N4  UNL     1      11.997  34.687  17.079  1.00  0.00    -0.176 N 
ATOM      8  H4  UNL     1      11.241  34.677  17.762  1.00  0.00     0.186 HD
ENDROOT
BRANCH   6   9
HETATM    9  N3  UNL     1      10.618  35.662  15.520  1.00  0.00    -0.370 N 
ATOM     10  H3  UNL     1      10.432  36.606  15.857  1.00  0.00     0.161 HD
BRANCH   9  11
HETATM   11  C12 UNL     1       9.581  35.111  14.734  1.00  0.00     0.087 C 
HETATM   12  C13 UNL     1       8.343  35.995  14.666  1.00  0.00     0.028 C 
HETATM   13  C14 UNL     1       7.355  35.449  13.685  1.00  0.00     0.034 C 
HETATM   14  C15 UNL     1       7.056  33.990  13.872  1.00  0.00     0.118 C 
HETATM   15  C16 UNL     1       8.278  33.157  14.136  1.00  0.00     0.038 C 
HETATM   16  C17 UNL     1       9.167  33.713  15.200  1.00  0.00     0.006 C 
HETATM   17  C18 UNL     1       8.574  33.716  16.567  1.00  0.00     0.012 C 
BRANCH  14  18
HETATM   18  O2  UNL     1       6.471  33.525  12.694  1.00  0.00    -0.396 OA
ATOM     19  H2  UNL     1       7.040  33.769  11.974  1.00  0.00     0.210 HD
ENDBRANCH  14  18
ENDBRANCH   9  11
ENDBRANCH   6   9
BRANCH   5  20
HETATM   20  C7  UNL     1      12.523  35.749  13.630  1.00  0.00     0.062 C 
BRANCH  20  21
HETATM   21  O1  UNL     1      12.224  37.025  13.615  1.00  0.00    -0.364 OA
ATOM     22  H1  UNL     1      12.973  37.609  13.604  1.00  0.00     0.217 HD
ENDBRANCH  20  21
BRANCH  20  23
HETATM   23  C8  UNL     1      12.530  35.154  12.307  1.00  0.00     0.043 A 
HETATM   24  C9  UNL     1      11.408  34.245  11.853  1.00  0.00     0.012 A 
HETATM   25  C10 UNL     1      12.790  33.770  11.933  1.00  0.00     0.012 A 
ENDBRANCH  20  23
ENDBRANCH   5  20
BRANCH   1  26
HETATM   26  N1  UNL     1      13.297  33.740  18.629  1.00  0.00    -0.222 N 
ATOM     27  H1  UNL     1      13.859  32.892  18.702  1.00  0.00     0.178 HD
BRANCH  26  28
HETATM   28  C2  UNL     1      12.783  34.230  19.863  1.00  0.00     0.091 C 
HETATM   29  C1  UNL     1      13.824  34.320  20.964  1.00  0.00     0.032 C 
HETATM   30  C3  UNL     1      11.517  33.549  20.323  1.00  0.00     0.032 C 
ENDBRANCH  26  28
ENDBRANCH   1  26
TORSDOF 8
ENDMDL
