MODEL 1
REMARK VINA RESULT: -7.362787924      0.000      0.000
REMARK  5 active torsions:
REMARK  status: ('A' for Active; 'I' for Inactive)
REMARK    1  A    between atoms: C2_2  and  C3_3 
REMARK    2  A    between atoms: C3_3  and  C4_4 
REMARK    3  A    between atoms: C4_4  and  C5_5 
REMARK    4  A    between atoms: C5_5  and  C6_6 
REMARK    5  A    between atoms: C13_16  and  O1_17 
ROOT
HETATM    1  C6  UNL     1      13.101  35.711  16.865  1.00  0.00     0.082 C 
HETATM    2  C7  UNL     1      14.064  34.702  17.366  1.00  0.00     0.076 C 
HETATM    3  C8  UNL     1      13.307  33.392  17.486  1.00  0.00    -0.016 C 
HETATM    4  N1  UNL     1      13.372  32.664  18.520  1.00  0.00    -0.405 N 
ATOM      5  H11 UNL     1      12.863  31.784  18.601  1.00  0.00     0.155 HD
ATOM      6  H12 UNL     1      13.932  32.903  19.339  1.00  0.00     0.155 HD
HETATM    7  C9  UNL     1      12.490  33.042  16.291  1.00  0.00     0.085 C 
HETATM    8  C10 UNL     1      11.417  34.099  16.199  1.00  0.00     0.061 C 
HETATM    9  C11 UNL     1      10.172  33.528  16.850  1.00  0.00     0.036 C 
HETATM   10  C12 UNL     1       9.279  33.057  15.733  1.00  0.00     0.037 C 
HETATM   11  C13 UNL     1      10.096  33.201  14.462  1.00  0.00     0.151 C 
HETATM   12  C14 UNL     1      10.955  34.397  14.818  1.00  0.00     0.105 C 
HETATM   13  C15 UNL     1      10.026  35.616  14.922  1.00  0.00     0.205 C 
HETATM   14  O2  UNL     1       9.524  35.815  13.637  1.00  0.00    -0.374 OA
HETATM   15  C16 UNL     1      10.529  36.456  12.916  1.00  0.00     0.209 C 
HETATM   16  C17 UNL     1       9.934  36.852  11.584  1.00  0.00     0.049 C 
HETATM   17  C18 UNL     1      11.666  35.515  12.764  1.00  0.00     0.247 C 
HETATM   18  O3  UNL     1      12.345  35.460  11.681  1.00  0.00    -0.271 OA
HETATM   19  N2  UNL     1      11.976  34.673  13.868  1.00  0.00    -0.343 N 
ATOM     20  H2  UNL     1      12.909  34.277  13.975  1.00  0.00     0.163 HD
HETATM   21  N3  UNL     1      11.738  35.303  16.874  1.00  0.00    -0.405 N 
ATOM     22  H3  UNL     1      11.021  35.853  17.347  1.00  0.00     0.154 HD
ENDROOT
BRANCH  11  23
HETATM   23  O1  UNL     1      10.883  32.088  14.267  1.00  0.00    -0.393 OA
ATOM     24  H1  UNL     1      11.763  32.242  14.590  1.00  0.00     0.210 HD
ENDBRANCH  11  23
BRANCH   1  25
HETATM   25  C5  UNL     1      13.154  37.070  17.479  1.00  0.00     0.025 C 
BRANCH  25  26
HETATM   26  C4  UNL     1      14.069  37.340  18.593  1.00  0.00     0.002 C 
BRANCH  26  27
HETATM   27  C3  UNL     1      13.587  36.976  19.943  1.00  0.00    -0.000 C 
BRANCH  27  28
HETATM   28  C2  UNL     1      14.722  36.315  20.762  1.00  0.00    -0.005 C 
HETATM   29  C1  UNL     1      14.172  34.999  21.263  1.00  0.00     0.005 C 
ENDBRANCH  27  28
ENDBRANCH  26  27
ENDBRANCH  25  26
ENDBRANCH   1  25
TORSDOF 5
ENDMDL
MODEL 2
REMARK VINA RESULT: -6.656808086      1.552      2.415
REMARK  5 active torsions:
REMARK  status: ('A' for Active; 'I' for Inactive)
REMARK    1  A    between atoms: C2_2  and  C3_3 
REMARK    2  A    between atoms: C3_3  and  C4_4 
REMARK    3  A    between atoms: C4_4  and  C5_5 
REMARK    4  A    between atoms: C5_5  and  C6_6 
REMARK    5  A    between atoms: C13_16  and  O1_17 
ROOT
HETATM    1  C6  UNL     1      12.371  35.175  16.600  1.00  0.00     0.082 C 
HETATM    2  C7  UNL     1      11.846  34.005  17.343  1.00  0.00     0.076 C 
HETATM    3  C8  UNL     1      10.423  33.782  16.865  1.00  0.00    -0.016 C 
HETATM    4  N1  UNL     1       9.460  33.599  17.667  1.00  0.00    -0.405 N 
ATOM      5  H11 UNL     1       8.504  33.449  17.346  1.00  0.00     0.155 HD
ATOM      6  H12 UNL     1       9.570  33.589  18.681  1.00  0.00     0.155 HD
HETATM    7  C9  UNL     1      10.262  33.796  15.385  1.00  0.00     0.085 C 
HETATM    8  C10 UNL     1      10.599  35.199  14.945  1.00  0.00     0.061 C 
HETATM    9  C11 UNL     1       9.288  35.947  14.798  1.00  0.00     0.036 C 
HETATM   10  C12 UNL     1       8.964  35.965  13.327  1.00  0.00     0.037 C 
HETATM   11  C13 UNL     1      10.001  35.075  12.666  1.00  0.00     0.151 C 
HETATM   12  C14 UNL     1      11.186  35.299  13.582  1.00  0.00     0.105 C 
HETATM   13  C15 UNL     1      11.634  36.758  13.407  1.00  0.00     0.205 C 
HETATM   14  O2  UNL     1      12.085  36.855  12.091  1.00  0.00    -0.374 OA
HETATM   15  C16 UNL     1      13.364  36.303  12.071  1.00  0.00     0.209 C 
HETATM   16  C17 UNL     1      13.941  36.575  10.701  1.00  0.00     0.049 C 
HETATM   17  C18 UNL     1      13.249  34.851  12.353  1.00  0.00     0.247 C 
HETATM   18  O3  UNL     1      13.988  33.996  11.752  1.00  0.00    -0.271 OA
HETATM   19  N2  UNL     1      12.287  34.441  13.316  1.00  0.00    -0.343 N 
ATOM     20  H2  UNL     1      12.385  33.552  13.805  1.00  0.00     0.163 HD
HETATM   21  N3  UNL     1      11.397  35.915  15.871  1.00  0.00    -0.405 N 
ATOM     22  H3  UNL     1      11.279  36.918  16.010  1.00  0.00     0.154 HD
ENDROOT
BRANCH  11  23
HETATM   23  O1  UNL     1       9.603  33.758  12.710  1.00  0.00    -0.393 OA
ATOM     24  H1  UNL     1       9.175  33.512  11.898  1.00  0.00     0.210 HD
ENDBRANCH  11  23
BRANCH   1  25
HETATM   25  C5  UNL     1      13.185  36.163  17.366  1.00  0.00     0.025 C 
BRANCH  25  26
HETATM   26  C4  UNL     1      13.714  35.814  18.689  1.00  0.00     0.002 C 
BRANCH  26  27
HETATM   27  C3  UNL     1      13.982  36.941  19.609  1.00  0.00    -0.000 C 
BRANCH  27  28
HETATM   28  C2  UNL     1      13.596  36.559  21.058  1.00  0.00    -0.005 C 
HETATM   29  C1  UNL     1      14.351  35.288  21.377  1.00  0.00     0.005 C 
ENDBRANCH  27  28
ENDBRANCH  26  27
ENDBRANCH  25  26
ENDBRANCH   1  25
TORSDOF 5
ENDMDL
MODEL 3
REMARK VINA RESULT: -6.594307517      2.484      5.962
REMARK  5 active torsions:
REMARK  status: ('A' for Active; 'I' for Inactive)
REMARK    1  A    between atoms: C2_2  and  C3_3 
REMARK    2  A    between atoms: C3_3  and  C4_4 
REMARK    3  A    between atoms: C4_4  and  C5_5 
REMARK    4  A    between atoms: C5_5  and  C6_6 
REMARK    5  A    between atoms: C13_16  and  O1_17 
ROOT
HETATM    1  C6  UNL     1       9.423  34.301  15.849  1.00  0.00     0.082 C 
HETATM    2  C7  UNL     1       9.018  32.999  15.269  1.00  0.00     0.076 C 
HETATM    3  C8  UNL     1      10.057  32.641  14.222  1.00  0.00    -0.016 C 
HETATM    4  N1  UNL     1       9.740  32.246  13.061  1.00  0.00    -0.405 N 
ATOM      5  H11 UNL     1      10.438  32.005  12.357  1.00  0.00     0.155 HD
ATOM      6  H12 UNL     1       8.774  32.142  12.749  1.00  0.00     0.155 HD
HETATM    7  C9  UNL     1      11.466  32.792  14.677  1.00  0.00     0.085 C 
HETATM    8  C10 UNL     1      11.664  34.267  14.926  1.00  0.00     0.061 C 
HETATM    9  C11 UNL     1      12.315  34.845  13.684  1.00  0.00     0.036 C 
HETATM   10  C12 UNL     1      13.784  34.978  13.989  1.00  0.00     0.037 C 
HETATM   11  C13 UNL     1      13.988  34.310  15.336  1.00  0.00     0.151 C 
HETATM   12  C14 UNL     1      12.651  34.590  15.991  1.00  0.00     0.105 C 
HETATM   13  C15 UNL     1      12.561  36.105  16.223  1.00  0.00     0.205 C 
HETATM   14  O2  UNL     1      13.561  36.403  17.147  1.00  0.00    -0.374 OA
HETATM   15  C16 UNL     1      13.067  36.031  18.397  1.00  0.00     0.209 C 
HETATM   16  C17 UNL     1      14.057  36.523  19.427  1.00  0.00     0.049 C 
HETATM   17  C18 UNL     1      12.922  34.554  18.419  1.00  0.00     0.247 C 
HETATM   18  O3  UNL     1      13.194  33.875  19.468  1.00  0.00    -0.271 OA
HETATM   19  N2  UNL     1      12.468  33.919  17.231  1.00  0.00    -0.343 N 
ATOM     20  H2  UNL     1      12.021  33.004  17.267  1.00  0.00     0.163 HD
HETATM   21  N3  UNL     1      10.460  34.979  15.148  1.00  0.00    -0.405 N 
ATOM     22  H3  UNL     1      10.341  35.937  14.819  1.00  0.00     0.154 HD
ENDROOT
BRANCH  11  23
HETATM   23  O1  UNL     1      14.170  32.954  15.180  1.00  0.00    -0.393 OA
ATOM     24  H1  UNL     1      14.410  32.553  16.007  1.00  0.00     0.210 HD
ENDBRANCH  11  23
BRANCH   1  25
HETATM   25  C5  UNL     1       8.345  35.300  16.105  1.00  0.00     0.025 C 
BRANCH  25  26
HETATM   26  C4  UNL     1       7.992  36.283  15.075  1.00  0.00     0.002 C 
BRANCH  26  27
HETATM   27  C3  UNL     1       7.146  35.797  13.963  1.00  0.00    -0.000 C 
BRANCH  27  28
HETATM   28  C2  UNL     1       7.571  36.460  12.631  1.00  0.00    -0.005 C 
HETATM   29  C1  UNL     1       8.734  35.649  12.106  1.00  0.00     0.005 C 
ENDBRANCH  27  28
ENDBRANCH  26  27
ENDBRANCH  25  26
ENDBRANCH   1  25
TORSDOF 5
ENDMDL
MODEL 4
REMARK VINA RESULT: -6.366294192      1.956      3.031
REMARK  5 active torsions:
REMARK  status: ('A' for Active; 'I' for Inactive)
REMARK    1  A    between atoms: C2_2  and  C3_3 
REMARK    2  A    between atoms: C3_3  and  C4_4 
REMARK    3  A    between atoms: C4_4  and  C5_5 
REMARK    4  A    between atoms: C5_5  and  C6_6 
REMARK    5  A    between atoms: C13_16  and  O1_17 
ROOT
HETATM    1  C6  UNL     1      11.771  34.619  16.393  1.00  0.00     0.082 C 
HETATM    2  C7  UNL     1      10.971  33.883  17.400  1.00  0.00     0.076 C 
HETATM    3  C8  UNL     1       9.605  33.639  16.784  1.00  0.00    -0.016 C 
HETATM    4  N1  UNL     1       8.529  33.876  17.408  1.00  0.00    -0.405 N 
ATOM      5  H11 UNL     1       7.611  33.711  16.994  1.00  0.00     0.155 HD
ATOM      6  H12 UNL     1       8.502  34.244  18.358  1.00  0.00     0.155 HD
HETATM    7  C9  UNL     1       9.644  33.101  15.395  1.00  0.00     0.085 C 
HETATM    8  C10 UNL     1      10.260  34.187  14.548  1.00  0.00     0.061 C 
HETATM    9  C11 UNL     1       9.118  34.950  13.904  1.00  0.00     0.036 C 
HETATM   10  C12 UNL     1       8.997  34.436  12.493  1.00  0.00     0.037 C 
HETATM   11  C13 UNL     1       9.952  33.260  12.399  1.00  0.00     0.151 C 
HETATM   12  C14 UNL     1      11.028  33.698  13.373  1.00  0.00     0.105 C 
HETATM   13  C15 UNL     1      11.726  34.924  12.767  1.00  0.00     0.205 C 
HETATM   14  O2  UNL     1      12.355  34.464  11.612  1.00  0.00    -0.374 OA
HETATM   15  C16 UNL     1      13.519  33.820  12.026  1.00  0.00     0.209 C 
HETATM   16  C17 UNL     1      14.307  33.487  10.781  1.00  0.00     0.049 C 
HETATM   17  C18 UNL     1      13.134  32.606  12.787  1.00  0.00     0.247 C 
HETATM   18  O3  UNL     1      13.796  31.516  12.682  1.00  0.00    -0.271 OA
HETATM   19  N2  UNL     1      12.000  32.696  13.641  1.00  0.00    -0.343 N 
ATOM     20  H2  UNL     1      11.888  32.057  14.427  1.00  0.00     0.163 HD
HETATM   21  N3  UNL     1      11.035  35.118  15.282  1.00  0.00    -0.405 N 
ATOM     22  H3  UNL     1      11.064  36.105  15.025  1.00  0.00     0.154 HD
ENDROOT
BRANCH  11  23
HETATM   23  O1  UNL     1       9.344  32.108  12.844  1.00  0.00    -0.393 OA
ATOM     24  H1  UNL     1       8.640  32.315  13.447  1.00  0.00     0.210 HD
ENDBRANCH  11  23
BRANCH   1  25
HETATM   25  C5  UNL     1      12.627  35.738  16.886  1.00  0.00     0.025 C 
BRANCH  25  26
HETATM   26  C4  UNL     1      13.771  35.460  17.760  1.00  0.00     0.002 C 
BRANCH  26  27
HETATM   27  C3  UNL     1      13.732  36.068  19.108  1.00  0.00    -0.000 C 
BRANCH  27  28
HETATM   28  C2  UNL     1      13.451  34.988  20.181  1.00  0.00    -0.005 C 
HETATM   29  C1  UNL     1      14.361  35.303  21.347  1.00  0.00     0.005 C 
ENDBRANCH  27  28
ENDBRANCH  26  27
ENDBRANCH  25  26
ENDBRANCH   1  25
TORSDOF 5
ENDMDL
MODEL 5
REMARK VINA RESULT: -6.314794760      1.807      2.957
REMARK  5 active torsions:
REMARK  status: ('A' for Active; 'I' for Inactive)
REMARK    1  A    between atoms: C2_2  and  C3_3 
REMARK    2  A    between atoms: C3_3  and  C4_4 
REMARK    3  A    between atoms: C4_4  and  C5_5 
REMARK    4  A    between atoms: C5_5  and  C6_6 
REMARK    5  A    between atoms: C13_16  and  O1_17 
ROOT
HETATM    1  C6  UNL     1      12.225  34.414  17.470  1.00  0.00     0.082 C 
HETATM    2  C7  UNL     1      13.468  35.221  17.481  1.00  0.00     0.076 C 
HETATM    3  C8  UNL     1      14.267  34.817  16.257  1.00  0.00    -0.016 C 
HETATM    4  N1  UNL     1      15.503  34.544  16.314  1.00  0.00    -0.405 N 
ATOM      5  H11 UNL     1      16.040  34.272  15.491  1.00  0.00     0.155 HD
ATOM      6  H12 UNL     1      16.044  34.575  17.178  1.00  0.00     0.155 HD
HETATM    7  C9  UNL     1      13.478  34.771  14.994  1.00  0.00     0.085 C 
HETATM    8  C10 UNL     1      12.469  33.664  15.177  1.00  0.00     0.061 C 
HETATM    9  C11 UNL     1      13.042  32.425  14.516  1.00  0.00     0.036 C 
HETATM   10  C12 UNL     1      12.373  32.305  13.172  1.00  0.00     0.037 C 
HETATM   11  C13 UNL     1      11.556  33.572  13.003  1.00  0.00     0.151 C 
HETATM   12  C14 UNL     1      11.191  33.862  14.445  1.00  0.00     0.105 C 
HETATM   13  C15 UNL     1      10.243  32.748  14.913  1.00  0.00     0.205 C 
HETATM   14  O2  UNL     1       9.090  32.888  14.142  1.00  0.00    -0.374 OA
HETATM   15  C16 UNL     1       8.368  33.942  14.701  1.00  0.00     0.209 C 
HETATM   16  C17 UNL     1       7.030  33.981  14.000  1.00  0.00     0.049 C 
HETATM   17  C18 UNL     1       9.141  35.193  14.504  1.00  0.00     0.247 C 
HETATM   18  O3  UNL     1       8.560  36.297  14.226  1.00  0.00    -0.271 OA
HETATM   19  N2  UNL     1      10.556  35.120  14.634  1.00  0.00    -0.343 N 
ATOM     20  H2  UNL     1      11.102  35.951  14.859  1.00  0.00     0.163 HD
HETATM   21  N3  UNL     1      12.208  33.343  16.532  1.00  0.00    -0.405 N 
ATOM     22  H3  UNL     1      12.017  32.385  16.823  1.00  0.00     0.154 HD
ENDROOT
BRANCH  11  23
HETATM   23  O1  UNL     1      12.337  34.585  12.494  1.00  0.00    -0.393 OA
ATOM     24  H1  UNL     1      12.140  34.727  11.576  1.00  0.00     0.210 HD
ENDBRANCH  11  23
BRANCH   1  25
HETATM   25  C5  UNL     1      11.758  33.859  18.774  1.00  0.00     0.025 C 
BRANCH  25  26
HETATM   26  C4  UNL     1      12.696  33.716  19.892  1.00  0.00     0.002 C 
BRANCH  26  27
HETATM   27  C3  UNL     1      12.783  34.858  20.827  1.00  0.00    -0.000 C 
BRANCH  27  28
HETATM   28  C2  UNL     1      14.245  35.065  21.294  1.00  0.00    -0.005 C 
HETATM   29  C1  UNL     1      14.511  36.551  21.207  1.00  0.00     0.005 C 
ENDBRANCH  27  28
ENDBRANCH  26  27
ENDBRANCH  25  26
ENDBRANCH   1  25
TORSDOF 5
ENDMDL
