MODEL 1
REMARK VINA RESULT: -7.142405280      0.000      0.000
REMARK  11 active torsions:
REMARK  status: ('A' for Active; 'I' for Inactive)
REMARK    1  A    between atoms: C2_2  and  C3_3 
REMARK    2  A    between atoms: C3_3  and  C4_4 
REMARK    3  A    between atoms: C4_4  and  C5_5 
REMARK    4  A    between atoms: C5_5  and  C6_6 
REMARK    5  A    between atoms: C6_6  and  C7_7 
REMARK    6  A    between atoms: C7_7  and  C8_8 
REMARK    7  A    between atoms: C8_8  and  C9_9 
REMARK    8  A    between atoms: C9_9  and  N1_10 
REMARK    9  A    between atoms: C18_20  and  C19_21 
REMARK   10  A    between atoms: C19_21  and  O2_23 
REMARK   11  A    between atoms: O2_23  and  C20_24 
ROOT
HETATM    1  N1  UNL     1     -46.492  13.207  -7.378  1.00  0.00    -0.057 N 
HETATM    2  C10 UNL     1     -47.093  12.454  -8.493  1.00  0.00     0.243 C 
HETATM    3  C11 UNL     1     -45.833  12.143  -9.290  1.00  0.00     0.015 C 
HETATM    4  C12 UNL     1     -44.982  11.536  -8.163  1.00  0.00     0.044 C 
HETATM    5  C13 UNL     1     -45.213  12.650  -7.132  1.00  0.00     0.222 C 
HETATM    6  C14 UNL     1     -44.210  13.713  -7.559  1.00  0.00    -0.013 C 
HETATM    7  C15 UNL     1     -43.048  13.839  -6.989  1.00  0.00     0.024 C 
HETATM    8  C16 UNL     1     -42.018  14.845  -7.345  1.00  0.00     0.060 C 
HETATM    9  C17 UNL     1     -42.711  12.911  -5.898  1.00  0.00     0.095 C 
HETATM   10  N2  UNL     1     -42.440  12.177  -5.048  1.00  0.00    -0.192 NA
HETATM   11  C18 UNL     1     -44.959  14.367  -8.628  1.00  0.00     0.099 C 
HETATM   12  C22 UNL     1     -45.224  13.404  -9.785  1.00  0.00     0.032 C 
HETATM   13  C23 UNL     1     -46.311  14.553  -7.909  1.00  0.00     0.263 C 
ENDROOT
BRANCH  11  14
HETATM   14  C19 UNL     1     -44.500  15.658  -9.110  1.00  0.00     0.273 C 
HETATM   15  O1  UNL     1     -43.694  15.714 -10.073  1.00  0.00    -0.264 OA
BRANCH  14  16
HETATM   16  O2  UNL     1     -44.896  16.866  -8.575  1.00  0.00    -0.321 OA
BRANCH  16  17
HETATM   17  C20 UNL     1     -44.944  18.082  -9.272  1.00  0.00     0.174 C 
HETATM   18  C21 UNL     1     -46.336  18.152  -9.913  1.00  0.00     0.034 C 
ENDBRANCH  16  17
ENDBRANCH  14  16
ENDBRANCH  11  14
BRANCH   1  19
HETATM   19  C9  UNL     1     -47.444  13.148  -6.309  1.00  0.00     0.238 C 
BRANCH  19  20
HETATM   20  C8  UNL     1     -47.344  11.965  -5.421  1.00  0.00     0.028 C 
BRANCH  20  21
HETATM   21  C7  UNL     1     -48.361  10.923  -5.826  1.00  0.00     0.002 C 
BRANCH  21  22
HETATM   22  C6  UNL     1     -47.818   9.516  -5.778  1.00  0.00     0.000 C 
BRANCH  22  23
HETATM   23  C5  UNL     1     -48.634   8.635  -4.862  1.00  0.00     0.000 C 
BRANCH  23  24
HETATM   24  C4  UNL     1     -50.056   9.136  -4.724  1.00  0.00     0.000 C 
BRANCH  24  25
HETATM   25  C3  UNL     1     -50.481   9.138  -3.267  1.00  0.00    -0.000 C 
BRANCH  25  26
HETATM   26  C2  UNL     1     -49.702  10.121  -2.447  1.00  0.00    -0.005 C 
HETATM   27  C1  UNL     1     -50.248  11.498  -2.709  1.00  0.00     0.005 C 
ENDBRANCH  25  26
ENDBRANCH  24  25
ENDBRANCH  23  24
ENDBRANCH  22  23
ENDBRANCH  21  22
ENDBRANCH  20  21
ENDBRANCH  19  20
ENDBRANCH   1  19
TORSDOF 11
ENDMDL
MODEL 2
REMARK VINA RESULT: -7.007537148      0.938      1.408
REMARK  11 active torsions:
REMARK  status: ('A' for Active; 'I' for Inactive)
REMARK    1  A    between atoms: C2_2  and  C3_3 
REMARK    2  A    between atoms: C3_3  and  C4_4 
REMARK    3  A    between atoms: C4_4  and  C5_5 
REMARK    4  A    between atoms: C5_5  and  C6_6 
REMARK    5  A    between atoms: C6_6  and  C7_7 
REMARK    6  A    between atoms: C7_7  and  C8_8 
REMARK    7  A    between atoms: C8_8  and  C9_9 
REMARK    8  A    between atoms: C9_9  and  N1_10 
REMARK    9  A    between atoms: C18_20  and  C19_21 
REMARK   10  A    between atoms: C19_21  and  O2_23 
REMARK   11  A    between atoms: O2_23  and  C20_24 
ROOT
HETATM    1  N1  UNL     1     -46.989  12.346  -7.596  1.00  0.00    -0.057 N 
HETATM    2  C10 UNL     1     -47.544  11.872  -8.877  1.00  0.00     0.243 C 
HETATM    3  C11 UNL     1     -46.325  12.076  -9.766  1.00  0.00     0.015 C 
HETATM    4  C12 UNL     1     -45.284  11.327  -8.917  1.00  0.00     0.044 C 
HETATM    5  C13 UNL     1     -45.616  12.000  -7.578  1.00  0.00     0.222 C 
HETATM    6  C14 UNL     1     -44.856  13.317  -7.669  1.00  0.00    -0.013 C 
HETATM    7  C15 UNL     1     -43.688  13.483  -7.120  1.00  0.00     0.024 C 
HETATM    8  C16 UNL     1     -42.887  14.731  -7.163  1.00  0.00     0.060 C 
HETATM    9  C17 UNL     1     -43.099  12.347  -6.394  1.00  0.00     0.095 C 
HETATM   10  N2  UNL     1     -42.629  11.455  -5.833  1.00  0.00    -0.192 NA
HETATM   11  C18 UNL     1     -45.800  14.111  -8.450  1.00  0.00     0.099 C 
HETATM   12  C22 UNL     1     -45.992  13.521  -9.847  1.00  0.00     0.032 C 
HETATM   13  C23 UNL     1     -47.095  13.798  -7.673  1.00  0.00     0.263 C 
ENDROOT
BRANCH  11  14
HETATM   14  C19 UNL     1     -45.620  15.551  -8.505  1.00  0.00     0.273 C 
HETATM   15  O1  UNL     1     -46.274  16.292  -7.728  1.00  0.00    -0.264 OA
BRANCH  14  16
HETATM   16  O2  UNL     1     -44.756  16.188  -9.372  1.00  0.00    -0.321 OA
BRANCH  16  17
HETATM   17  C20 UNL     1     -44.667  17.576  -9.549  1.00  0.00     0.174 C 
HETATM   18  C21 UNL     1     -43.336  18.003  -8.914  1.00  0.00     0.034 C 
ENDBRANCH  16  17
ENDBRANCH  14  16
ENDBRANCH  11  14
BRANCH   1  19
HETATM   19  C9  UNL     1     -47.818  11.774  -6.577  1.00  0.00     0.238 C 
BRANCH  19  20
HETATM   20  C8  UNL     1     -47.195  10.700  -5.767  1.00  0.00     0.028 C 
BRANCH  20  21
HETATM   21  C7  UNL     1     -47.809   9.364  -6.116  1.00  0.00     0.002 C 
BRANCH  21  22
HETATM   22  C6  UNL     1     -48.479   8.695  -4.942  1.00  0.00     0.000 C 
BRANCH  22  23
HETATM   23  C5  UNL     1     -49.923   9.118  -4.808  1.00  0.00     0.000 C 
BRANCH  23  24
HETATM   24  C4  UNL     1     -50.368   9.138  -3.361  1.00  0.00     0.000 C 
BRANCH  24  25
HETATM   25  C3  UNL     1     -49.477  10.056  -2.543  1.00  0.00    -0.000 C 
BRANCH  25  26
HETATM   26  C2  UNL     1     -49.598  11.490  -2.962  1.00  0.00    -0.005 C 
HETATM   27  C1  UNL     1     -50.737  12.113  -2.203  1.00  0.00     0.005 C 
ENDBRANCH  25  26
ENDBRANCH  24  25
ENDBRANCH  23  24
ENDBRANCH  22  23
ENDBRANCH  21  22
ENDBRANCH  20  21
ENDBRANCH  19  20
ENDBRANCH   1  19
TORSDOF 11
ENDMDL
MODEL 3
REMARK VINA RESULT: -6.908818923      0.849      1.602
REMARK  11 active torsions:
REMARK  status: ('A' for Active; 'I' for Inactive)
REMARK    1  A    between atoms: C2_2  and  C3_3 
REMARK    2  A    between atoms: C3_3  and  C4_4 
REMARK    3  A    between atoms: C4_4  and  C5_5 
REMARK    4  A    between atoms: C5_5  and  C6_6 
REMARK    5  A    between atoms: C6_6  and  C7_7 
REMARK    6  A    between atoms: C7_7  and  C8_8 
REMARK    7  A    between atoms: C8_8  and  C9_9 
REMARK    8  A    between atoms: C9_9  and  N1_10 
REMARK    9  A    between atoms: C18_20  and  C19_21 
REMARK   10  A    between atoms: C19_21  and  O2_23 
REMARK   11  A    between atoms: O2_23  and  C20_24 
ROOT
HETATM    1  N1  UNL     1     -46.286  12.876  -6.894  1.00  0.00    -0.057 N 
HETATM    2  C10 UNL     1     -46.897  11.966  -7.879  1.00  0.00     0.243 C 
HETATM    3  C11 UNL     1     -45.692  11.730  -8.780  1.00  0.00     0.015 C 
HETATM    4  C12 UNL     1     -44.669  11.323  -7.707  1.00  0.00     0.044 C 
HETATM    5  C13 UNL     1     -44.932  12.490  -6.744  1.00  0.00     0.222 C 
HETATM    6  C14 UNL     1     -44.109  13.617  -7.354  1.00  0.00    -0.013 C 
HETATM    7  C15 UNL     1     -42.921  13.921  -6.921  1.00  0.00     0.024 C 
HETATM    8  C16 UNL     1     -42.059  15.002  -7.459  1.00  0.00     0.060 C 
HETATM    9  C17 UNL     1     -42.371  13.135  -5.805  1.00  0.00     0.095 C 
HETATM   10  N2  UNL     1     -41.933  12.514  -4.936  1.00  0.00    -0.192 NA
HETATM   11  C18 UNL     1     -45.032  14.088  -8.383  1.00  0.00     0.099 C 
HETATM   12  C22 UNL     1     -45.289  13.004  -9.430  1.00  0.00     0.032 C 
HETATM   13  C23 UNL     1     -46.320  14.183  -7.541  1.00  0.00     0.263 C 
ENDROOT
BRANCH  11  14
HETATM   14  C19 UNL     1     -44.780  15.375  -9.007  1.00  0.00     0.273 C 
HETATM   15  O1  UNL     1     -44.061  15.440 -10.036  1.00  0.00    -0.264 OA
BRANCH  14  16
HETATM   16  O2  UNL     1     -45.288  16.570  -8.540  1.00  0.00    -0.321 OA
BRANCH  16  17
HETATM   17  C20 UNL     1     -45.631  17.669  -9.341  1.00  0.00     0.174 C 
HETATM   18  C21 UNL     1     -47.106  17.478  -9.720  1.00  0.00     0.034 C 
ENDBRANCH  16  17
ENDBRANCH  14  16
ENDBRANCH  11  14
BRANCH   1  19
HETATM   19  C9  UNL     1     -47.116  12.804  -5.728  1.00  0.00     0.238 C 
BRANCH  19  20
HETATM   20  C8  UNL     1     -46.411  12.555  -4.448  1.00  0.00     0.028 C 
BRANCH  20  21
HETATM   21  C7  UNL     1     -46.819  11.215  -3.882  1.00  0.00     0.002 C 
BRANCH  21  22
HETATM   22  C6  UNL     1     -47.648  11.330  -2.627  1.00  0.00     0.000 C 
BRANCH  22  23
HETATM   23  C5  UNL     1     -49.124  11.198  -2.919  1.00  0.00     0.000 C 
BRANCH  23  24
HETATM   24  C4  UNL     1     -49.663   9.854  -2.476  1.00  0.00     0.000 C 
BRANCH  24  25
HETATM   25  C3  UNL     1     -50.445   9.197  -3.599  1.00  0.00    -0.000 C 
BRANCH  25  26
HETATM   26  C2  UNL     1     -49.813   9.419  -4.940  1.00  0.00    -0.005 C 
HETATM   27  C1  UNL     1     -48.784   8.345  -5.164  1.00  0.00     0.005 C 
ENDBRANCH  25  26
ENDBRANCH  24  25
ENDBRANCH  23  24
ENDBRANCH  22  23
ENDBRANCH  21  22
ENDBRANCH  20  21
ENDBRANCH  19  20
ENDBRANCH   1  19
TORSDOF 11
ENDMDL
MODEL 4
REMARK VINA RESULT: -6.842493394      1.019      1.867
REMARK  11 active torsions:
REMARK  status: ('A' for Active; 'I' for Inactive)
REMARK    1  A    between atoms: C2_2  and  C3_3 
REMARK    2  A    between atoms: C3_3  and  C4_4 
REMARK    3  A    between atoms: C4_4  and  C5_5 
REMARK    4  A    between atoms: C5_5  and  C6_6 
REMARK    5  A    between atoms: C6_6  and  C7_7 
REMARK    6  A    between atoms: C7_7  and  C8_8 
REMARK    7  A    between atoms: C8_8  and  C9_9 
REMARK    8  A    between atoms: C9_9  and  N1_10 
REMARK    9  A    between atoms: C18_20  and  C19_21 
REMARK   10  A    between atoms: C19_21  and  O2_23 
REMARK   11  A    between atoms: O2_23  and  C20_24 
ROOT
HETATM    1  N1  UNL     1     -46.887  12.351  -7.459  1.00  0.00    -0.057 N 
HETATM    2  C10 UNL     1     -47.480  11.838  -8.706  1.00  0.00     0.243 C 
HETATM    3  C11 UNL     1     -46.299  12.045  -9.646  1.00  0.00     0.015 C 
HETATM    4  C12 UNL     1     -45.211  11.337  -8.822  1.00  0.00     0.044 C 
HETATM    5  C13 UNL     1     -45.506  12.034  -7.485  1.00  0.00     0.222 C 
HETATM    6  C14 UNL     1     -44.778  13.363  -7.635  1.00  0.00    -0.013 C 
HETATM    7  C15 UNL     1     -43.595  13.566  -7.135  1.00  0.00     0.024 C 
HETATM    8  C16 UNL     1     -42.822  14.828  -7.236  1.00  0.00     0.060 C 
HETATM    9  C17 UNL     1     -42.954  12.458  -6.408  1.00  0.00     0.095 C 
HETATM   10  N2  UNL     1     -42.445  11.588  -5.845  1.00  0.00    -0.192 NA
HETATM   11  C18 UNL     1     -45.768  14.120  -8.396  1.00  0.00     0.099 C 
HETATM   12  C22 UNL     1     -46.001  13.495  -9.771  1.00  0.00     0.032 C 
HETATM   13  C23 UNL     1     -47.025  13.799  -7.563  1.00  0.00     0.263 C 
ENDROOT
BRANCH  11  14
HETATM   14  C19 UNL     1     -45.620  15.562  -8.489  1.00  0.00     0.273 C 
HETATM   15  O1  UNL     1     -46.288  16.308  -7.729  1.00  0.00    -0.264 OA
BRANCH  14  16
HETATM   16  O2  UNL     1     -44.774  16.195  -9.376  1.00  0.00    -0.321 OA
BRANCH  16  17
HETATM   17  C20 UNL     1     -44.726  17.578  -9.599  1.00  0.00     0.174 C 
HETATM   18  C21 UNL     1     -43.423  18.070  -8.953  1.00  0.00     0.034 C 
ENDBRANCH  16  17
ENDBRANCH  14  16
ENDBRANCH  11  14
BRANCH   1  19
HETATM   19  C9  UNL     1     -47.664  11.786  -6.396  1.00  0.00     0.238 C 
BRANCH  19  20
HETATM   20  C8  UNL     1     -47.465  12.393  -5.058  1.00  0.00     0.028 C 
BRANCH  20  21
HETATM   21  C7  UNL     1     -46.947  11.357  -4.088  1.00  0.00     0.002 C 
BRANCH  21  22
HETATM   22  C6  UNL     1     -47.699  11.343  -2.780  1.00  0.00     0.000 C 
BRANCH  22  23
HETATM   23  C5  UNL     1     -49.186  11.177  -2.992  1.00  0.00     0.000 C 
BRANCH  23  24
HETATM   24  C4  UNL     1     -49.683   9.852  -2.455  1.00  0.00     0.000 C 
BRANCH  24  25
HETATM   25  C3  UNL     1     -50.466   9.106  -3.520  1.00  0.00    -0.000 C 
BRANCH  25  26
HETATM   26  C2  UNL     1     -49.899   9.310  -4.893  1.00  0.00    -0.005 C 
HETATM   27  C1  UNL     1     -48.767   8.340  -5.088  1.00  0.00     0.005 C 
ENDBRANCH  25  26
ENDBRANCH  24  25
ENDBRANCH  23  24
ENDBRANCH  22  23
ENDBRANCH  21  22
ENDBRANCH  20  21
ENDBRANCH  19  20
ENDBRANCH   1  19
TORSDOF 11
ENDMDL
MODEL 5
REMARK VINA RESULT: -6.632296400      1.193      1.719
REMARK  11 active torsions:
REMARK  status: ('A' for Active; 'I' for Inactive)
REMARK    1  A    between atoms: C2_2  and  C3_3 
REMARK    2  A    between atoms: C3_3  and  C4_4 
REMARK    3  A    between atoms: C4_4  and  C5_5 
REMARK    4  A    between atoms: C5_5  and  C6_6 
REMARK    5  A    between atoms: C6_6  and  C7_7 
REMARK    6  A    between atoms: C7_7  and  C8_8 
REMARK    7  A    between atoms: C8_8  and  C9_9 
REMARK    8  A    between atoms: C9_9  and  N1_10 
REMARK    9  A    between atoms: C18_20  and  C19_21 
REMARK   10  A    between atoms: C19_21  and  O2_23 
REMARK   11  A    between atoms: O2_23  and  C20_24 
ROOT
HETATM    1  N1  UNL     1     -47.084  12.162  -7.544  1.00  0.00    -0.057 N 
HETATM    2  C10 UNL     1     -47.668  11.707  -8.819  1.00  0.00     0.243 C 
HETATM    3  C11 UNL     1     -46.501  12.008  -9.749  1.00  0.00     0.015 C 
HETATM    4  C12 UNL     1     -45.387  11.286  -8.973  1.00  0.00     0.044 C 
HETATM    5  C13 UNL     1     -45.695  11.890  -7.596  1.00  0.00     0.222 C 
HETATM    6  C14 UNL     1     -45.009  13.248  -7.666  1.00  0.00    -0.013 C 
HETATM    7  C15 UNL     1     -43.829  13.456  -7.160  1.00  0.00     0.024 C 
HETATM    8  C16 UNL     1     -43.096  14.746  -7.187  1.00  0.00     0.060 C 
HETATM    9  C17 UNL     1     -43.151  12.327  -6.504  1.00  0.00     0.095 C 
HETATM   10  N2  UNL     1     -42.611  11.441  -5.998  1.00  0.00    -0.192 NA
HETATM   11  C18 UNL     1     -46.026  14.019  -8.376  1.00  0.00     0.099 C 
HETATM   12  C22 UNL     1     -46.248  13.472  -9.786  1.00  0.00     0.032 C 
HETATM   13  C23 UNL     1     -47.268  13.608  -7.559  1.00  0.00     0.263 C 
ENDROOT
BRANCH  11  14
HETATM   14  C19 UNL     1     -45.923  15.467  -8.382  1.00  0.00     0.273 C 
HETATM   15  O1  UNL     1     -46.419  16.131  -7.437  1.00  0.00    -0.264 OA
BRANCH  14  16
HETATM   16  O2  UNL     1     -45.302  16.193  -9.377  1.00  0.00    -0.321 OA
BRANCH  16  17
HETATM   17  C20 UNL     1     -44.836  17.509  -9.247  1.00  0.00     0.174 C 
HETATM   18  C21 UNL     1     -45.865  18.399  -9.958  1.00  0.00     0.034 C 
ENDBRANCH  16  17
ENDBRANCH  14  16
ENDBRANCH  11  14
BRANCH   1  19
HETATM   19  C9  UNL     1     -47.837  11.509  -6.515  1.00  0.00     0.238 C 
BRANCH  19  20
HETATM   20  C8  UNL     1     -47.355  10.164  -6.117  1.00  0.00     0.028 C 
BRANCH  20  21
HETATM   21  C7  UNL     1     -48.512   9.319  -5.637  1.00  0.00     0.002 C 
BRANCH  21  22
HETATM   22  C6  UNL     1     -49.641  10.135  -5.058  1.00  0.00     0.000 C 
BRANCH  22  23
HETATM   23  C5  UNL     1     -50.401   9.367  -4.002  1.00  0.00     0.000 C 
BRANCH  23  24
HETATM   24  C4  UNL     1     -49.877   9.660  -2.612  1.00  0.00     0.000 C 
BRANCH  24  25
HETATM   25  C3  UNL     1     -48.960  10.869  -2.633  1.00  0.00    -0.000 C 
BRANCH  25  26
HETATM   26  C2  UNL     1     -47.555  10.527  -2.239  1.00  0.00    -0.005 C 
HETATM   27  C1  UNL     1     -46.648  11.633  -2.702  1.00  0.00     0.005 C 
ENDBRANCH  25  26
ENDBRANCH  24  25
ENDBRANCH  23  24
ENDBRANCH  22  23
ENDBRANCH  21  22
ENDBRANCH  20  21
ENDBRANCH  19  20
ENDBRANCH   1  19
TORSDOF 11
ENDMDL
