MODEL 1
REMARK VINA RESULT: -6.230760645      0.000      0.000
REMARK  11 active torsions:
REMARK  status: ('A' for Active; 'I' for Inactive)
REMARK    1  A    between atoms: C5_6  and  C6_7 
REMARK    2  A    between atoms: C6_7  and  N1_8 
REMARK    3  A    between atoms: N1_8  and  C9_11 
REMARK    4  A    between atoms: C9_11  and  C10_12 
REMARK    5  A    between atoms: C10_12  and  C11_13 
REMARK    6  A    between atoms: C11_13  and  C12_14 
REMARK    7  A    between atoms: C12_14  and  C13_15 
REMARK    8  A    between atoms: C13_15  and  C14_16 
REMARK    9  A    between atoms: C14_16  and  C15_17 
REMARK   10  A    between atoms: C15_17  and  O1_18 
REMARK   11  A    between atoms: O1_18  and  C16_19 
REMARK       I    between atoms: C16_19  and  N2_21 
ROOT
HETATM    1  C9  UNL     1     -45.282  13.957  -9.734  1.00  0.00     0.242 C 
ENDROOT
BRANCH   1   2
HETATM    2  N1  UNL     1     -44.766  14.832  -8.563  1.00  0.00    -0.054 N 
HETATM    3  C7  UNL     1     -43.805  13.999  -7.864  1.00  0.00     0.277 C 
HETATM    4  C8  UNL     1     -45.885  15.005  -7.707  1.00  0.00     0.277 C 
BRANCH   2   5
HETATM    5  C6  UNL     1     -44.182  15.848  -9.272  1.00  0.00     0.214 C 
BRANCH   5   6
HETATM    6  C5  UNL     1     -44.237  17.314  -9.100  1.00  0.00     0.007 A 
HETATM    7  C3  UNL     1     -42.946  17.902  -8.768  1.00  0.00    -0.009 A 
HETATM    8  S1  UNL     1     -43.110  19.524  -8.969  1.00  0.00    -0.099 SA
HETATM    9  C4  UNL     1     -41.857  17.033  -8.184  1.00  0.00     0.057 C 
HETATM   10  C2  UNL     1     -44.774  19.579  -9.428  1.00  0.00    -0.014 A 
HETATM   11  C1  UNL     1     -45.540  20.805  -9.774  1.00  0.00     0.057 C 
HETATM   12  C19 UNL     1     -45.156  18.232  -9.431  1.00  0.00    -0.037 A 
HETATM   13  C20 UNL     1     -46.576  17.917  -9.838  1.00  0.00     0.050 C 
ENDBRANCH   5   6
ENDBRANCH   2   5
ENDBRANCH   1   2
BRANCH   1  14
HETATM   14  C10 UNL     1     -45.623  12.572  -9.363  1.00  0.00     0.028 C 
BRANCH  14  15
HETATM   15  C11 UNL     1     -47.016  12.099  -9.760  1.00  0.00     0.002 C 
BRANCH  15  16
HETATM   16  C12 UNL     1     -47.858  11.913  -8.478  1.00  0.00     0.000 C 
BRANCH  16  17
HETATM   17  C13 UNL     1     -46.942  11.398  -7.335  1.00  0.00     0.002 C 
BRANCH  17  18
HETATM   18  C14 UNL     1     -47.331  12.108  -6.053  1.00  0.00     0.027 C 
BRANCH  18  19
HETATM   19  C15 UNL     1     -46.728  11.597  -4.806  1.00  0.00     0.180 C 
BRANCH  19  20
HETATM   20  O1  UNL     1     -47.288  10.544  -4.124  1.00  0.00    -0.304 OA
BRANCH  20  21
HETATM   21  C16 UNL     1     -48.403   9.782  -4.222  1.00  0.00     0.362 C 
HETATM   22  O2  UNL     1     -48.324   8.728  -4.875  1.00  0.00    -0.238 OA
HETATM   23  N2  UNL     1     -49.691  10.117  -3.639  1.00  0.00    -0.337 N 
HETATM   24  C17 UNL     1     -50.693   9.034  -3.840  1.00  0.00     0.154 C 
HETATM   25  C18 UNL     1     -50.115  11.258  -2.948  1.00  0.00     0.154 C 
ENDBRANCH  20  21
ENDBRANCH  19  20
ENDBRANCH  18  19
ENDBRANCH  17  18
ENDBRANCH  16  17
ENDBRANCH  15  16
ENDBRANCH  14  15
ENDBRANCH   1  14
TORSDOF 11
ENDMDL
MODEL 2
REMARK VINA RESULT: -6.010382155      4.703      9.410
REMARK  11 active torsions:
REMARK  status: ('A' for Active; 'I' for Inactive)
REMARK    1  A    between atoms: C5_6  and  C6_7 
REMARK    2  A    between atoms: C6_7  and  N1_8 
REMARK    3  A    between atoms: N1_8  and  C9_11 
REMARK    4  A    between atoms: C9_11  and  C10_12 
REMARK    5  A    between atoms: C10_12  and  C11_13 
REMARK    6  A    between atoms: C11_13  and  C12_14 
REMARK    7  A    between atoms: C12_14  and  C13_15 
REMARK    8  A    between atoms: C13_15  and  C14_16 
REMARK    9  A    between atoms: C14_16  and  C15_17 
REMARK   10  A    between atoms: C15_17  and  O1_18 
REMARK   11  A    between atoms: O1_18  and  C16_19 
REMARK       I    between atoms: C16_19  and  N2_21 
ROOT
HETATM    1  C9  UNL     1     -46.300  13.854  -9.034  1.00  0.00     0.242 C 
ENDROOT
BRANCH   1   2
HETATM    2  N1  UNL     1     -46.547  12.549  -8.234  1.00  0.00    -0.054 N 
HETATM    3  C7  UNL     1     -45.328  11.777  -8.385  1.00  0.00     0.277 C 
HETATM    4  C8  UNL     1     -47.574  11.870  -8.939  1.00  0.00     0.277 C 
BRANCH   2   5
HETATM    5  C6  UNL     1     -46.699  13.073  -6.978  1.00  0.00     0.214 C 
BRANCH   5   6
HETATM    6  C5  UNL     1     -46.462  12.489  -5.643  1.00  0.00     0.007 A 
HETATM    7  C3  UNL     1     -45.512  13.252  -4.843  1.00  0.00    -0.009 A 
HETATM    8  S1  UNL     1     -45.640  12.686  -3.306  1.00  0.00    -0.099 SA
HETATM    9  C4  UNL     1     -44.550  14.197  -5.524  1.00  0.00     0.057 C 
HETATM   10  C2  UNL     1     -46.829  11.460  -3.562  1.00  0.00    -0.014 A 
HETATM   11  C1  UNL     1     -47.400  10.572  -2.515  1.00  0.00     0.057 C 
HETATM   12  C19 UNL     1     -47.117  11.564  -4.927  1.00  0.00    -0.037 A 
HETATM   13  C20 UNL     1     -48.172  10.638  -5.484  1.00  0.00     0.050 C 
ENDBRANCH   5   6
ENDBRANCH   2   5
ENDBRANCH   1   2
BRANCH   1  14
HETATM   14  C10 UNL     1     -44.880  14.180  -9.256  1.00  0.00     0.028 C 
BRANCH  14  15
HETATM   15  C11 UNL     1     -44.513  15.656  -9.164  1.00  0.00     0.002 C 
BRANCH  15  16
HETATM   16  C12 UNL     1     -45.791  16.464  -8.845  1.00  0.00     0.000 C 
BRANCH  16  17
HETATM   17  C13 UNL     1     -45.742  17.818  -9.602  1.00  0.00     0.002 C 
BRANCH  17  18
HETATM   18  C14 UNL     1     -44.444  18.519  -9.248  1.00  0.00     0.027 C 
BRANCH  18  19
HETATM   19  C15 UNL     1     -44.494  19.991  -9.151  1.00  0.00     0.180 C 
BRANCH  19  20
HETATM   20  O1  UNL     1     -44.088  20.787 -10.195  1.00  0.00    -0.304 OA
BRANCH  20  21
HETATM   21  C16 UNL     1     -44.677  21.467 -11.207  1.00  0.00     0.362 C 
HETATM   22  O2  UNL     1     -44.528  21.027 -12.359  1.00  0.00    -0.238 OA
HETATM   23  N2  UNL     1     -45.450  22.687 -11.048  1.00  0.00    -0.337 N 
HETATM   24  C17 UNL     1     -46.047  23.141 -12.334  1.00  0.00     0.154 C 
HETATM   25  C18 UNL     1     -45.706  23.469  -9.915  1.00  0.00     0.154 C 
ENDBRANCH  20  21
ENDBRANCH  19  20
ENDBRANCH  18  19
ENDBRANCH  17  18
ENDBRANCH  16  17
ENDBRANCH  15  16
ENDBRANCH  14  15
ENDBRANCH   1  14
TORSDOF 11
ENDMDL
MODEL 3
REMARK VINA RESULT: -5.980141888      4.092      8.919
REMARK  11 active torsions:
REMARK  status: ('A' for Active; 'I' for Inactive)
REMARK    1  A    between atoms: C5_6  and  C6_7 
REMARK    2  A    between atoms: C6_7  and  N1_8 
REMARK    3  A    between atoms: N1_8  and  C9_11 
REMARK    4  A    between atoms: C9_11  and  C10_12 
REMARK    5  A    between atoms: C10_12  and  C11_13 
REMARK    6  A    between atoms: C11_13  and  C12_14 
REMARK    7  A    between atoms: C12_14  and  C13_15 
REMARK    8  A    between atoms: C13_15  and  C14_16 
REMARK    9  A    between atoms: C14_16  and  C15_17 
REMARK   10  A    between atoms: C15_17  and  O1_18 
REMARK   11  A    between atoms: O1_18  and  C16_19 
REMARK       I    between atoms: C16_19  and  N2_21 
ROOT
HETATM    1  C9  UNL     1     -45.072  11.959  -6.408  1.00  0.00     0.242 C 
ENDROOT
BRANCH   1   2
HETATM    2  N1  UNL     1     -45.868  12.593  -5.238  1.00  0.00    -0.054 N 
HETATM    3  C7  UNL     1     -47.085  13.104  -5.842  1.00  0.00     0.277 C 
HETATM    4  C8  UNL     1     -45.094  13.709  -4.825  1.00  0.00     0.277 C 
BRANCH   2   5
HETATM    5  C6  UNL     1     -46.076  11.479  -4.469  1.00  0.00     0.214 C 
BRANCH   5   6
HETATM    6  C5  UNL     1     -47.317  10.870  -3.951  1.00  0.00     0.007 A 
HETATM    7  C3  UNL     1     -47.727  11.409  -2.661  1.00  0.00    -0.009 A 
HETATM    8  S1  UNL     1     -49.270  10.902  -2.415  1.00  0.00    -0.099 SA
HETATM    9  C4  UNL     1     -46.711  12.107  -1.786  1.00  0.00     0.057 C 
HETATM   10  C2  UNL     1     -49.487   9.971  -3.853  1.00  0.00    -0.014 A 
HETATM   11  C1  UNL     1     -50.725   9.245  -4.239  1.00  0.00     0.057 C 
HETATM   12  C19 UNL     1     -48.270  10.123  -4.527  1.00  0.00    -0.037 A 
HETATM   13  C20 UNL     1     -48.136   9.451  -5.873  1.00  0.00     0.050 C 
ENDBRANCH   5   6
ENDBRANCH   2   5
ENDBRANCH   1   2
BRANCH   1  14
HETATM   14  C10 UNL     1     -45.862  11.718  -7.630  1.00  0.00     0.028 C 
BRANCH  14  15
HETATM   15  C11 UNL     1     -45.205  12.132  -8.940  1.00  0.00     0.002 C 
BRANCH  15  16
HETATM   16  C12 UNL     1     -46.077  13.219  -9.608  1.00  0.00     0.000 C 
BRANCH  16  17
HETATM   17  C13 UNL     1     -45.740  14.600  -8.983  1.00  0.00     0.002 C 
BRANCH  17  18
HETATM   18  C14 UNL     1     -44.268  14.884  -9.213  1.00  0.00     0.027 C 
BRANCH  18  19
HETATM   19  C15 UNL     1     -43.821  16.273  -8.991  1.00  0.00     0.180 C 
BRANCH  19  20
HETATM   20  O1  UNL     1     -44.725  17.297  -8.842  1.00  0.00    -0.304 OA
BRANCH  20  21
HETATM   21  C16 UNL     1     -45.017  18.459  -9.475  1.00  0.00     0.362 C 
HETATM   22  O2  UNL     1     -45.848  18.419 -10.397  1.00  0.00    -0.238 OA
HETATM   23  N2  UNL     1     -44.413  19.744  -9.168  1.00  0.00    -0.337 N 
HETATM   24  C17 UNL     1     -45.011  20.847  -9.971  1.00  0.00     0.154 C 
HETATM   25  C18 UNL     1     -43.394  20.088  -8.272  1.00  0.00     0.154 C 
ENDBRANCH  20  21
ENDBRANCH  19  20
ENDBRANCH  18  19
ENDBRANCH  17  18
ENDBRANCH  16  17
ENDBRANCH  15  16
ENDBRANCH  14  15
ENDBRANCH   1  14
TORSDOF 11
ENDMDL
MODEL 4
REMARK VINA RESULT: -5.919669293      1.144      1.961
REMARK  11 active torsions:
REMARK  status: ('A' for Active; 'I' for Inactive)
REMARK    1  A    between atoms: C5_6  and  C6_7 
REMARK    2  A    between atoms: C6_7  and  N1_8 
REMARK    3  A    between atoms: N1_8  and  C9_11 
REMARK    4  A    between atoms: C9_11  and  C10_12 
REMARK    5  A    between atoms: C10_12  and  C11_13 
REMARK    6  A    between atoms: C11_13  and  C12_14 
REMARK    7  A    between atoms: C12_14  and  C13_15 
REMARK    8  A    between atoms: C13_15  and  C14_16 
REMARK    9  A    between atoms: C14_16  and  C15_17 
REMARK   10  A    between atoms: C15_17  and  O1_18 
REMARK   11  A    between atoms: O1_18  and  C16_19 
REMARK       I    between atoms: C16_19  and  N2_21 
ROOT
HETATM    1  C9  UNL     1     -45.600  15.180  -7.704  1.00  0.00     0.242 C 
ENDROOT
BRANCH   1   2
HETATM    2  N1  UNL     1     -44.853  14.418  -8.829  1.00  0.00    -0.054 N 
HETATM    3  C7  UNL     1     -45.896  13.773  -9.605  1.00  0.00     0.277 C 
HETATM    4  C8  UNL     1     -44.121  13.400  -8.166  1.00  0.00     0.277 C 
BRANCH   2   5
HETATM    5  C6  UNL     1     -44.275  15.475  -9.480  1.00  0.00     0.214 C 
BRANCH   5   6
HETATM    6  C5  UNL     1     -44.209  16.911  -9.141  1.00  0.00     0.007 A 
HETATM    7  C3  UNL     1     -42.895  17.330  -8.671  1.00  0.00    -0.009 A 
HETATM    8  S1  UNL     1     -42.898  18.973  -8.689  1.00  0.00    -0.099 SA
HETATM    9  C4  UNL     1     -41.929  16.300  -8.134  1.00  0.00     0.057 C 
HETATM   10  C2  UNL     1     -44.516  19.240  -9.230  1.00  0.00    -0.014 A 
HETATM   11  C1  UNL     1     -45.144  20.565  -9.471  1.00  0.00     0.057 C 
HETATM   12  C19 UNL     1     -45.017  17.946  -9.412  1.00  0.00    -0.037 A 
HETATM   13  C20 UNL     1     -46.430  17.817  -9.931  1.00  0.00     0.050 C 
ENDBRANCH   5   6
ENDBRANCH   2   5
ENDBRANCH   1   2
BRANCH   1  14
HETATM   14  C10 UNL     1     -47.056  14.952  -7.670  1.00  0.00     0.028 C 
BRANCH  14  15
HETATM   15  C11 UNL     1     -47.641  14.578  -6.314  1.00  0.00     0.002 C 
BRANCH  15  16
HETATM   16  C12 UNL     1     -47.084  13.196  -5.901  1.00  0.00     0.000 C 
BRANCH  16  17
HETATM   17  C13 UNL     1     -47.617  12.117  -6.881  1.00  0.00     0.002 C 
BRANCH  17  18
HETATM   18  C14 UNL     1     -46.898  10.813  -6.596  1.00  0.00     0.027 C 
BRANCH  18  19
HETATM   19  C15 UNL     1     -47.746   9.629  -6.356  1.00  0.00     0.180 C 
BRANCH  19  20
HETATM   20  O1  UNL     1     -48.410   9.458  -5.165  1.00  0.00    -0.304 OA
BRANCH  20  21
HETATM   21  C16 UNL     1     -49.317  10.145  -4.430  1.00  0.00     0.362 C 
HETATM   22  O2  UNL     1     -50.506  10.089  -4.783  1.00  0.00    -0.238 OA
HETATM   23  N2  UNL     1     -48.997  10.960  -3.271  1.00  0.00    -0.337 N 
HETATM   24  C17 UNL     1     -50.220  11.509  -2.621  1.00  0.00     0.154 C 
HETATM   25  C18 UNL     1     -47.765  11.297  -2.698  1.00  0.00     0.154 C 
ENDBRANCH  20  21
ENDBRANCH  19  20
ENDBRANCH  18  19
ENDBRANCH  17  18
ENDBRANCH  16  17
ENDBRANCH  15  16
ENDBRANCH  14  15
ENDBRANCH   1  14
TORSDOF 11
ENDMDL
MODEL 5
REMARK VINA RESULT: -5.898104197      4.187      8.898
REMARK  11 active torsions:
REMARK  status: ('A' for Active; 'I' for Inactive)
REMARK    1  A    between atoms: C5_6  and  C6_7 
REMARK    2  A    between atoms: C6_7  and  N1_8 
REMARK    3  A    between atoms: N1_8  and  C9_11 
REMARK    4  A    between atoms: C9_11  and  C10_12 
REMARK    5  A    between atoms: C10_12  and  C11_13 
REMARK    6  A    between atoms: C11_13  and  C12_14 
REMARK    7  A    between atoms: C12_14  and  C13_15 
REMARK    8  A    between atoms: C13_15  and  C14_16 
REMARK    9  A    between atoms: C14_16  and  C15_17 
REMARK   10  A    between atoms: C15_17  and  O1_18 
REMARK   11  A    between atoms: O1_18  and  C16_19 
REMARK       I    between atoms: C16_19  and  N2_21 
ROOT
HETATM    1  C9  UNL     1     -45.857  12.124  -7.784  1.00  0.00     0.242 C 
ENDROOT
BRANCH   1   2
HETATM    2  N1  UNL     1     -47.275  12.252  -7.170  1.00  0.00    -0.054 N 
HETATM    3  C7  UNL     1     -48.183  11.847  -8.227  1.00  0.00     0.277 C 
HETATM    4  C8  UNL     1     -47.462  13.642  -6.954  1.00  0.00     0.277 C 
BRANCH   2   5
HETATM    5  C6  UNL     1     -47.176  11.328  -6.163  1.00  0.00     0.214 C 
BRANCH   5   6
HETATM    6  C5  UNL     1     -47.234  11.477  -4.695  1.00  0.00     0.007 A 
HETATM    7  C3  UNL     1     -48.276  10.667  -4.076  1.00  0.00    -0.009 A 
HETATM    8  S1  UNL     1     -47.969  10.672  -2.463  1.00  0.00    -0.099 SA
HETATM    9  C4  UNL     1     -49.433  10.173  -4.912  1.00  0.00     0.057 C 
HETATM   10  C2  UNL     1     -46.579  11.694  -2.448  1.00  0.00    -0.014 A 
HETATM   11  C1  UNL     1     -45.798  12.083  -1.244  1.00  0.00     0.057 C 
HETATM   12  C19 UNL     1     -46.379  11.994  -3.800  1.00  0.00    -0.037 A 
HETATM   13  C20 UNL     1     -45.191  12.858  -4.150  1.00  0.00     0.050 C 
ENDBRANCH   5   6
ENDBRANCH   2   5
ENDBRANCH   1   2
BRANCH   1  14
HETATM   14  C10 UNL     1     -45.826  12.091  -9.258  1.00  0.00     0.028 C 
BRANCH  14  15
HETATM   15  C11 UNL     1     -45.252  13.327  -9.940  1.00  0.00     0.002 C 
BRANCH  15  16
HETATM   16  C12 UNL     1     -44.467  14.148  -8.893  1.00  0.00     0.000 C 
BRANCH  16  17
HETATM   17  C13 UNL     1     -44.036  15.501  -9.522  1.00  0.00     0.002 C 
BRANCH  17  18
HETATM   18  C14 UNL     1     -42.920  16.088  -8.680  1.00  0.00     0.027 C 
BRANCH  18  19
HETATM   19  C15 UNL     1     -42.870  17.560  -8.584  1.00  0.00     0.180 C 
BRANCH  19  20
HETATM   20  O1  UNL     1     -44.019  18.308  -8.504  1.00  0.00    -0.304 OA
BRANCH  20  21
HETATM   21  C16 UNL     1     -44.654  19.232  -9.265  1.00  0.00     0.362 C 
HETATM   22  O2  UNL     1     -45.296  18.826 -10.247  1.00  0.00    -0.238 OA
HETATM   23  N2  UNL     1     -44.620  20.665  -9.029  1.00  0.00    -0.337 N 
HETATM   24  C17 UNL     1     -45.493  21.407  -9.980  1.00  0.00     0.154 C 
HETATM   25  C18 UNL     1     -43.916  21.422  -8.085  1.00  0.00     0.154 C 
ENDBRANCH  20  21
ENDBRANCH  19  20
ENDBRANCH  18  19
ENDBRANCH  17  18
ENDBRANCH  16  17
ENDBRANCH  15  16
ENDBRANCH  14  15
ENDBRANCH   1  14
TORSDOF 11
ENDMDL
