MODEL 1
REMARK VINA RESULT: -6.990605493      0.000      0.000
REMARK  9 active torsions:
REMARK  status: ('A' for Active; 'I' for Inactive)
REMARK    1  A    between atoms: C2_2  and  C3_3 
REMARK       I    between atoms: N1_10  and  C10_12 
REMARK    2  A    between atoms: C10_12  and  C11_14 
REMARK    3  A    between atoms: C11_14  and  C12_15 
REMARK    4  A    between atoms: C12_15  and  C13_16 
REMARK    5  A    between atoms: C13_16  and  C14_17 
REMARK    6  A    between atoms: C14_17  and  C15_18 
REMARK    7  A    between atoms: C15_18  and  C16_19 
REMARK    8  A    between atoms: C16_19  and  C17_20 
REMARK    9  A    between atoms: C17_20  and  C18_21 
ROOT
HETATM    1  C3  UNL     1     -47.092  12.967  -7.912  1.00  0.00    -0.073 C 
HETATM    2  C4  UNL     1     -47.363  13.925  -7.001  1.00  0.00     0.002 C 
HETATM    3  C5  UNL     1     -46.430  15.052  -6.889  1.00  0.00     0.109 C 
HETATM    4  C6  UNL     1     -46.148  15.497  -8.342  1.00  0.00     0.047 C 
HETATM    5  C7  UNL     1     -45.191  14.367  -8.754  1.00  0.00     0.028 C 
HETATM    6  C8  UNL     1     -44.454  14.685 -10.016  1.00  0.00     0.025 C 
HETATM    7  C9  UNL     1     -44.231  14.519  -7.576  1.00  0.00     0.091 C 
HETATM    8  N1  UNL     1     -43.033  14.610  -7.648  1.00  0.00    -0.316 N 
ATOM      9  H1  UNL     1     -42.784  14.565  -8.635  1.00  0.00     0.170 HD
HETATM   10  C10 UNL     1     -41.866  14.750  -6.939  1.00  0.00     0.223 C 
HETATM   11  O1  UNL     1     -41.324  13.901  -6.175  1.00  0.00    -0.273 OA
HETATM   12  N2  UNL     1     -45.121  14.523  -6.479  1.00  0.00    -0.366 N 
HETATM   13  C19 UNL     1     -44.808  14.063  -5.120  1.00  0.00     0.151 C 
HETATM   14  C20 UNL     1     -45.884  13.050  -8.775  1.00  0.00    -0.010 C 
HETATM   15  C21 UNL     1     -46.285  12.787 -10.239  1.00  0.00     0.021 C 
HETATM   16  C22 UNL     1     -44.859  11.964  -8.439  1.00  0.00     0.021 C 
ENDROOT
BRANCH  10  17
HETATM   17  C11 UNL     1     -41.132  16.070  -7.079  1.00  0.00     0.103 C 
BRANCH  17  18
HETATM   18  C12 UNL     1     -41.232  16.627  -8.460  1.00  0.00     0.009 C 
BRANCH  18  19
HETATM   19  C13 UNL     1     -41.799  18.020  -8.478  1.00  0.00     0.000 C 
BRANCH  19  20
HETATM   20  C14 UNL     1     -43.250  18.006  -8.853  1.00  0.00     0.000 C 
BRANCH  20  21
HETATM   21  C15 UNL     1     -43.854  19.408  -8.885  1.00  0.00     0.000 C 
BRANCH  21  22
HETATM   22  C16 UNL     1     -45.148  19.409  -9.636  1.00  0.00     0.007 C 
BRANCH  22  23
HETATM   23  C17 UNL     1     -45.219  20.732 -10.403  1.00  0.00     0.069 C 
BRANCH  23  24
HETATM   24  C18 UNL     1     -43.840  21.104 -10.802  1.00  0.00     0.231 C 
HETATM   25  O2  UNL     1     -43.521  20.958 -11.962  1.00  0.00    -0.307 OA
ENDBRANCH  23  24
ENDBRANCH  22  23
ENDBRANCH  21  22
ENDBRANCH  20  21
ENDBRANCH  19  20
ENDBRANCH  18  19
ENDBRANCH  17  18
ENDBRANCH  10  17
BRANCH   1  26
HETATM   26  C2  UNL     1     -48.048  11.846  -8.007  1.00  0.00     0.030 C 
HETATM   27  C1  UNL     1     -48.103  10.935  -6.827  1.00  0.00     0.010 C 
ENDBRANCH   1  26
TORSDOF 9
ENDMDL
MODEL 2
REMARK VINA RESULT: -6.795896472      0.974      1.056
REMARK  9 active torsions:
REMARK  status: ('A' for Active; 'I' for Inactive)
REMARK    1  A    between atoms: C2_2  and  C3_3 
REMARK       I    between atoms: N1_10  and  C10_12 
REMARK    2  A    between atoms: C10_12  and  C11_14 
REMARK    3  A    between atoms: C11_14  and  C12_15 
REMARK    4  A    between atoms: C12_15  and  C13_16 
REMARK    5  A    between atoms: C13_16  and  C14_17 
REMARK    6  A    between atoms: C14_17  and  C15_18 
REMARK    7  A    between atoms: C15_18  and  C16_19 
REMARK    8  A    between atoms: C16_19  and  C17_20 
REMARK    9  A    between atoms: C17_20  and  C18_21 
ROOT
HETATM    1  C3  UNL     1     -47.098  12.879  -7.841  1.00  0.00    -0.073 C 
HETATM    2  C4  UNL     1     -47.376  13.843  -6.938  1.00  0.00     0.002 C 
HETATM    3  C5  UNL     1     -46.471  14.995  -6.861  1.00  0.00     0.109 C 
HETATM    4  C6  UNL     1     -46.229  15.426  -8.325  1.00  0.00     0.047 C 
HETATM    5  C7  UNL     1     -45.251  14.315  -8.741  1.00  0.00     0.028 C 
HETATM    6  C8  UNL     1     -44.547  14.633 -10.022  1.00  0.00     0.025 C 
HETATM    7  C9  UNL     1     -44.272  14.508  -7.585  1.00  0.00     0.091 C 
HETATM    8  N1  UNL     1     -43.079  14.630  -7.681  1.00  0.00    -0.316 N 
ATOM      9  H1  UNL     1     -42.848  14.576  -8.673  1.00  0.00     0.170 HD
HETATM   10  C10 UNL     1     -41.902  14.810  -6.999  1.00  0.00     0.223 C 
HETATM   11  O1  UNL     1     -41.324  13.987  -6.233  1.00  0.00    -0.273 OA
HETATM   12  N2  UNL     1     -45.141  14.506  -6.470  1.00  0.00    -0.366 N 
HETATM   13  C19 UNL     1     -44.789  14.074  -5.111  1.00  0.00     0.151 C 
HETATM   14  C20 UNL     1     -45.909  12.981  -8.729  1.00  0.00    -0.010 C 
HETATM   15  C21 UNL     1     -46.333  12.685 -10.181  1.00  0.00     0.021 C 
HETATM   16  C22 UNL     1     -44.850  11.926  -8.399  1.00  0.00     0.021 C 
ENDROOT
BRANCH  10  17
HETATM   17  C11 UNL     1     -41.206  16.146  -7.171  1.00  0.00     0.103 C 
BRANCH  17  18
HETATM   18  C12 UNL     1     -41.643  16.853  -8.411  1.00  0.00     0.009 C 
BRANCH  18  19
HETATM   19  C13 UNL     1     -41.600  18.349  -8.265  1.00  0.00     0.000 C 
BRANCH  19  20
HETATM   20  C14 UNL     1     -42.675  19.001  -9.081  1.00  0.00     0.000 C 
BRANCH  20  21
HETATM   21  C15 UNL     1     -43.933  18.140  -9.176  1.00  0.00     0.000 C 
BRANCH  21  22
HETATM   22  C16 UNL     1     -45.115  18.972  -9.560  1.00  0.00     0.007 C 
BRANCH  22  23
HETATM   23  C17 UNL     1     -44.594  20.384  -9.847  1.00  0.00     0.069 C 
BRANCH  23  24
HETATM   24  C18 UNL     1     -45.488  21.349  -9.164  1.00  0.00     0.231 C 
HETATM   25  O2  UNL     1     -45.214  21.678  -8.029  1.00  0.00    -0.307 OA
ENDBRANCH  23  24
ENDBRANCH  22  23
ENDBRANCH  21  22
ENDBRANCH  20  21
ENDBRANCH  19  20
ENDBRANCH  18  19
ENDBRANCH  17  18
ENDBRANCH  10  17
BRANCH   1  26
HETATM   26  C2  UNL     1     -48.026  11.733  -7.901  1.00  0.00     0.030 C 
HETATM   27  C1  UNL     1     -47.979  10.794  -6.743  1.00  0.00     0.010 C 
ENDBRANCH   1  26
TORSDOF 9
ENDMDL
MODEL 3
REMARK VINA RESULT: -6.726840362      1.518      1.607
REMARK  9 active torsions:
REMARK  status: ('A' for Active; 'I' for Inactive)
REMARK    1  A    between atoms: C2_2  and  C3_3 
REMARK       I    between atoms: N1_10  and  C10_12 
REMARK    2  A    between atoms: C10_12  and  C11_14 
REMARK    3  A    between atoms: C11_14  and  C12_15 
REMARK    4  A    between atoms: C12_15  and  C13_16 
REMARK    5  A    between atoms: C13_16  and  C14_17 
REMARK    6  A    between atoms: C14_17  and  C15_18 
REMARK    7  A    between atoms: C15_18  and  C16_19 
REMARK    8  A    between atoms: C16_19  and  C17_20 
REMARK    9  A    between atoms: C17_20  and  C18_21 
ROOT
HETATM    1  C3  UNL     1     -47.113  12.905  -7.916  1.00  0.00    -0.073 C 
HETATM    2  C4  UNL     1     -47.403  13.867  -7.013  1.00  0.00     0.002 C 
HETATM    3  C5  UNL     1     -46.498  15.018  -6.920  1.00  0.00     0.109 C 
HETATM    4  C6  UNL     1     -46.239  15.454  -8.380  1.00  0.00     0.047 C 
HETATM    5  C7  UNL     1     -45.256  14.345  -8.787  1.00  0.00     0.028 C 
HETATM    6  C8  UNL     1     -44.536  14.668 -10.058  1.00  0.00     0.025 C 
HETATM    7  C9  UNL     1     -44.291  14.535  -7.618  1.00  0.00     0.091 C 
HETATM    8  N1  UNL     1     -43.096  14.656  -7.699  1.00  0.00    -0.316 N 
ATOM      9  H1  UNL     1     -42.853  14.606  -8.688  1.00  0.00     0.170 HD
HETATM   10  C10 UNL     1     -41.928  14.835  -7.001  1.00  0.00     0.223 C 
HETATM   11  O1  UNL     1     -41.359  14.008  -6.231  1.00  0.00    -0.273 OA
HETATM   12  N2  UNL     1     -45.174  14.528  -6.514  1.00  0.00    -0.366 N 
HETATM   13  C19 UNL     1     -44.839  14.091  -5.153  1.00  0.00     0.151 C 
HETATM   14  C20 UNL     1     -45.913  13.011  -8.789  1.00  0.00    -0.010 C 
HETATM   15  C21 UNL     1     -46.319  12.721 -10.246  1.00  0.00     0.021 C 
HETATM   16  C22 UNL     1     -44.858  11.955  -8.449  1.00  0.00     0.021 C 
ENDROOT
BRANCH  10  17
HETATM   17  C11 UNL     1     -41.230  16.171  -7.160  1.00  0.00     0.103 C 
BRANCH  17  18
HETATM   18  C12 UNL     1     -41.600  16.851  -8.437  1.00  0.00     0.009 C 
BRANCH  18  19
HETATM   19  C13 UNL     1     -42.414  18.095  -8.211  1.00  0.00     0.000 C 
BRANCH  19  20
HETATM   20  C14 UNL     1     -43.632  18.107  -9.084  1.00  0.00     0.000 C 
BRANCH  20  21
HETATM   21  C15 UNL     1     -44.325  19.467  -9.094  1.00  0.00     0.000 C 
BRANCH  21  22
HETATM   22  C16 UNL     1     -43.502  20.485  -8.367  1.00  0.00     0.007 C 
BRANCH  22  23
HETATM   23  C17 UNL     1     -44.347  21.758  -8.272  1.00  0.00     0.069 C 
BRANCH  23  24
HETATM   24  C18 UNL     1     -43.929  22.495  -7.056  1.00  0.00     0.231 C 
HETATM   25  O2  UNL     1     -44.690  22.518  -6.111  1.00  0.00    -0.307 OA
ENDBRANCH  23  24
ENDBRANCH  22  23
ENDBRANCH  21  22
ENDBRANCH  20  21
ENDBRANCH  19  20
ENDBRANCH  18  19
ENDBRANCH  17  18
ENDBRANCH  10  17
BRANCH   1  26
HETATM   26  C2  UNL     1     -48.040  11.759  -7.991  1.00  0.00     0.030 C 
HETATM   27  C1  UNL     1     -48.010  10.819  -6.834  1.00  0.00     0.010 C 
ENDBRANCH   1  26
TORSDOF 9
ENDMDL
MODEL 4
REMARK VINA RESULT: -6.697679746      1.032      1.425
REMARK  9 active torsions:
REMARK  status: ('A' for Active; 'I' for Inactive)
REMARK    1  A    between atoms: C2_2  and  C3_3 
REMARK       I    between atoms: N1_10  and  C10_12 
REMARK    2  A    between atoms: C10_12  and  C11_14 
REMARK    3  A    between atoms: C11_14  and  C12_15 
REMARK    4  A    between atoms: C12_15  and  C13_16 
REMARK    5  A    between atoms: C13_16  and  C14_17 
REMARK    6  A    between atoms: C14_17  and  C15_18 
REMARK    7  A    between atoms: C15_18  and  C16_19 
REMARK    8  A    between atoms: C16_19  and  C17_20 
REMARK    9  A    between atoms: C17_20  and  C18_21 
ROOT
HETATM    1  C3  UNL     1     -47.100  12.949  -7.926  1.00  0.00    -0.073 C 
HETATM    2  C4  UNL     1     -47.382  13.886  -6.996  1.00  0.00     0.002 C 
HETATM    3  C5  UNL     1     -46.451  15.010  -6.847  1.00  0.00     0.109 C 
HETATM    4  C6  UNL     1     -46.154  15.490  -8.287  1.00  0.00     0.047 C 
HETATM    5  C7  UNL     1     -45.192  14.370  -8.715  1.00  0.00     0.028 C 
HETATM    6  C8  UNL     1     -44.441  14.718  -9.961  1.00  0.00     0.025 C 
HETATM    7  C9  UNL     1     -44.244  14.495  -7.524  1.00  0.00     0.091 C 
HETATM    8  N1  UNL     1     -43.046  14.588  -7.580  1.00  0.00    -0.316 N 
ATOM      9  H1  UNL     1     -42.786  14.566  -8.566  1.00  0.00     0.170 HD
HETATM   10  C10 UNL     1     -41.886  14.713  -6.856  1.00  0.00     0.223 C 
HETATM   11  O1  UNL     1     -41.352  13.846  -6.106  1.00  0.00    -0.273 OA
HETATM   12  N2  UNL     1     -45.147  14.473  -6.436  1.00  0.00    -0.366 N 
HETATM   13  C19 UNL     1     -44.848  13.981  -5.085  1.00  0.00     0.151 C 
HETATM   14  C20 UNL     1     -45.883  13.054  -8.774  1.00  0.00    -0.010 C 
HETATM   15  C21 UNL     1     -46.269  12.824 -10.248  1.00  0.00     0.021 C 
HETATM   16  C22 UNL     1     -44.861  11.960  -8.453  1.00  0.00     0.021 C 
ENDROOT
BRANCH  10  17
HETATM   17  C11 UNL     1     -41.152  16.036  -6.957  1.00  0.00     0.103 C 
BRANCH  17  18
HETATM   18  C12 UNL     1     -40.719  16.334  -8.353  1.00  0.00     0.009 C 
BRANCH  18  19
HETATM   19  C13 UNL     1     -39.846  17.556  -8.435  1.00  0.00     0.000 C 
BRANCH  19  20
HETATM   20  C14 UNL     1     -40.610  18.790  -8.062  1.00  0.00     0.000 C 
BRANCH  20  21
HETATM   21  C15 UNL     1     -41.617  19.195  -9.136  1.00  0.00     0.000 C 
BRANCH  21  22
HETATM   22  C16 UNL     1     -42.976  19.390  -8.540  1.00  0.00     0.007 C 
BRANCH  22  23
HETATM   23  C17 UNL     1     -43.873  18.282  -9.102  1.00  0.00     0.069 C 
BRANCH  23  24
HETATM   24  C18 UNL     1     -45.148  18.901  -9.534  1.00  0.00     0.231 C 
HETATM   25  O2  UNL     1     -45.574  18.625 -10.635  1.00  0.00    -0.307 OA
ENDBRANCH  23  24
ENDBRANCH  22  23
ENDBRANCH  21  22
ENDBRANCH  20  21
ENDBRANCH  19  20
ENDBRANCH  18  19
ENDBRANCH  17  18
ENDBRANCH  10  17
BRANCH   1  26
HETATM   26  C2  UNL     1     -48.054  11.831  -8.057  1.00  0.00     0.030 C 
HETATM   27  C1  UNL     1     -48.181  10.939  -6.869  1.00  0.00     0.010 C 
ENDBRANCH   1  26
TORSDOF 9
ENDMDL
MODEL 5
REMARK VINA RESULT: -6.600102876      1.095      1.225
REMARK  9 active torsions:
REMARK  status: ('A' for Active; 'I' for Inactive)
REMARK    1  A    between atoms: C2_2  and  C3_3 
REMARK       I    between atoms: N1_10  and  C10_12 
REMARK    2  A    between atoms: C10_12  and  C11_14 
REMARK    3  A    between atoms: C11_14  and  C12_15 
REMARK    4  A    between atoms: C12_15  and  C13_16 
REMARK    5  A    between atoms: C13_16  and  C14_17 
REMARK    6  A    between atoms: C14_17  and  C15_18 
REMARK    7  A    between atoms: C15_18  and  C16_19 
REMARK    8  A    between atoms: C16_19  and  C17_20 
REMARK    9  A    between atoms: C17_20  and  C18_21 
ROOT
HETATM    1  C3  UNL     1     -47.076  12.961  -7.873  1.00  0.00    -0.073 C 
HETATM    2  C4  UNL     1     -47.344  13.924  -6.965  1.00  0.00     0.002 C 
HETATM    3  C5  UNL     1     -46.424  15.064  -6.879  1.00  0.00     0.109 C 
HETATM    4  C6  UNL     1     -46.175  15.500  -8.341  1.00  0.00     0.047 C 
HETATM    5  C7  UNL     1     -45.210  14.380  -8.761  1.00  0.00     0.028 C 
HETATM    6  C8  UNL     1     -44.500  14.697 -10.039  1.00  0.00     0.025 C 
HETATM    7  C9  UNL     1     -44.231  14.554  -7.602  1.00  0.00     0.091 C 
HETATM    8  N1  UNL     1     -43.035  14.661  -7.696  1.00  0.00    -0.316 N 
ATOM      9  H1  UNL     1     -42.804  14.611  -8.688  1.00  0.00     0.170 HD
HETATM   10  C10 UNL     1     -41.858  14.823  -7.010  1.00  0.00     0.223 C 
HETATM   11  O1  UNL     1     -41.291  13.988  -6.249  1.00  0.00    -0.273 OA
HETATM   12  N2  UNL     1     -45.101  14.556  -6.489  1.00  0.00    -0.366 N 
HETATM   13  C19 UNL     1     -44.757  14.111  -5.132  1.00  0.00     0.151 C 
HETATM   14  C20 UNL     1     -45.885  13.054  -8.759  1.00  0.00    -0.010 C 
HETATM   15  C21 UNL     1     -46.309  12.773 -10.212  1.00  0.00     0.021 C 
HETATM   16  C22 UNL     1     -44.839  11.984  -8.433  1.00  0.00     0.021 C 
ENDROOT
BRANCH  10  17
HETATM   17  C11 UNL     1     -41.145  16.151  -7.174  1.00  0.00     0.103 C 
BRANCH  17  18
HETATM   18  C12 UNL     1     -41.435  16.787  -8.493  1.00  0.00     0.009 C 
BRANCH  18  19
HETATM   19  C13 UNL     1     -42.137  18.110  -8.351  1.00  0.00     0.000 C 
BRANCH  19  20
HETATM   20  C14 UNL     1     -43.503  18.063  -8.967  1.00  0.00     0.000 C 
BRANCH  20  21
HETATM   21  C15 UNL     1     -44.058  19.456  -9.252  1.00  0.00     0.000 C 
BRANCH  21  22
HETATM   22  C16 UNL     1     -43.372  20.482  -8.406  1.00  0.00     0.007 C 
BRANCH  22  23
HETATM   23  C17 UNL     1     -43.035  21.663  -9.321  1.00  0.00     0.069 C 
BRANCH  23  24
HETATM   24  C18 UNL     1     -41.565  21.849  -9.305  1.00  0.00     0.231 C 
HETATM   25  O2  UNL     1     -41.131  22.964  -9.107  1.00  0.00    -0.307 OA
ENDBRANCH  23  24
ENDBRANCH  22  23
ENDBRANCH  21  22
ENDBRANCH  20  21
ENDBRANCH  19  20
ENDBRANCH  18  19
ENDBRANCH  17  18
ENDBRANCH  10  17
BRANCH   1  26
HETATM   26  C2  UNL     1     -48.018  11.827  -7.941  1.00  0.00     0.030 C 
HETATM   27  C1  UNL     1     -48.033  10.920  -6.758  1.00  0.00     0.010 C 
ENDBRANCH   1  26
TORSDOF 9
ENDMDL
