MODEL 1
REMARK VINA RESULT: -6.349713966      0.000      0.000
REMARK  11 active torsions:
REMARK  status: ('A' for Active; 'I' for Inactive)
REMARK    1  A    between atoms: C3_3  and  C4_4 
REMARK    2  A    between atoms: C6_6  and  N1_7 
REMARK    3  A    between atoms: C12_14  and  C13_15 
REMARK    4  A    between atoms: C14_16  and  C15_17 
REMARK    5  A    between atoms: C15_17  and  C16_18 
REMARK    6  A    between atoms: C16_18  and  C17_19 
REMARK    7  A    between atoms: C17_19  and  C18_20 
REMARK    8  A    between atoms: C18_20  and  O2_21 
REMARK    9  A    between atoms: O2_21  and  C19_22 
REMARK   10  A    between atoms: C19_22  and  C20_24 
REMARK   11  A    between atoms: C20_24  and  C21_25 
ROOT
HETATM    1  C4  UNL     1     -45.474  12.623  -8.730  1.00  0.00     0.073 C 
HETATM    2  C5  UNL     1     -44.930  13.980  -8.297  1.00  0.00    -0.018 C 
HETATM    3  C6  UNL     1     -43.654  14.301  -8.420  1.00  0.00     0.207 C 
HETATM    4  C10 UNL     1     -46.108  14.677  -7.782  1.00  0.00     0.149 C 
HETATM    5  C11 UNL     1     -46.611  15.803  -8.646  1.00  0.00     0.044 C 
HETATM    6  O1  UNL     1     -47.159  13.771  -7.655  1.00  0.00    -0.372 OA
HETATM    7  C12 UNL     1     -46.609  12.482  -7.729  1.00  0.00     0.156 C 
ENDROOT
BRANCH   7   8
HETATM    8  C13 UNL     1     -46.105  12.034  -6.426  1.00  0.00     0.002 C 
HETATM    9  C14 UNL     1     -46.722  11.177  -5.652  1.00  0.00    -0.028 C 
BRANCH   9  10
HETATM   10  C15 UNL     1     -47.986  10.485  -5.860  1.00  0.00     0.027 C 
BRANCH  10  11
HETATM   11  C16 UNL     1     -48.174   9.112  -5.382  1.00  0.00     0.006 C 
BRANCH  11  12
HETATM   12  C17 UNL     1     -49.411   8.631  -4.758  1.00  0.00     0.027 C 
BRANCH  12  13
HETATM   13  C18 UNL     1     -50.461   9.599  -4.343  1.00  0.00     0.178 C 
BRANCH  13  14
HETATM   14  O2  UNL     1     -50.294  10.016  -2.990  1.00  0.00    -0.321 OA
BRANCH  14  15
HETATM   15  C19 UNL     1     -49.929  11.266  -2.606  1.00  0.00     0.258 C 
HETATM   16  O3  UNL     1     -50.758  12.128  -2.273  1.00  0.00    -0.265 OA
BRANCH  15  17
HETATM   17  C20 UNL     1     -48.472  11.662  -2.565  1.00  0.00     0.111 C 
BRANCH  17  18
HETATM   18  C21 UNL     1     -47.610  10.515  -2.058  1.00  0.00     0.005 C 
HETATM   19  C22 UNL     1     -46.221  10.973  -1.684  1.00  0.00     0.005 C 
ENDBRANCH  17  18
ENDBRANCH  15  17
ENDBRANCH  14  15
ENDBRANCH  13  14
ENDBRANCH  12  13
ENDBRANCH  11  12
ENDBRANCH  10  11
ENDBRANCH   9  10
ENDBRANCH   7   8
BRANCH   1  20
HETATM   20  C3  UNL     1     -45.975  12.827 -10.104  1.00  0.00    -0.019 C 
HETATM   21  C2  UNL     1     -46.906  12.067 -10.655  1.00  0.00    -0.034 C 
HETATM   22  C1  UNL     1     -47.372  12.335 -12.067  1.00  0.00     0.036 C 
ENDBRANCH   1  20
BRANCH   3  23
HETATM   23  N1  UNL     1     -43.076  15.535  -8.041  1.00  0.00    -0.058 N 
HETATM   24  C7  UNL     1     -41.635  15.452  -8.336  1.00  0.00     0.277 C 
HETATM   25  C8  UNL     1     -43.168  15.827  -6.628  1.00  0.00     0.277 C 
HETATM   26  C9  UNL     1     -43.590  16.611  -8.834  1.00  0.00     0.277 C 
ENDBRANCH   3  23
TORSDOF 11
ENDMDL
MODEL 2
REMARK VINA RESULT: -6.201248166      2.207      4.418
REMARK  11 active torsions:
REMARK  status: ('A' for Active; 'I' for Inactive)
REMARK    1  A    between atoms: C3_3  and  C4_4 
REMARK    2  A    between atoms: C6_6  and  N1_7 
REMARK    3  A    between atoms: C12_14  and  C13_15 
REMARK    4  A    between atoms: C14_16  and  C15_17 
REMARK    5  A    between atoms: C15_17  and  C16_18 
REMARK    6  A    between atoms: C16_18  and  C17_19 
REMARK    7  A    between atoms: C17_19  and  C18_20 
REMARK    8  A    between atoms: C18_20  and  O2_21 
REMARK    9  A    between atoms: O2_21  and  C19_22 
REMARK   10  A    between atoms: C19_22  and  C20_24 
REMARK   11  A    between atoms: C20_24  and  C21_25 
ROOT
HETATM    1  C4  UNL     1     -43.069  15.760  -8.753  1.00  0.00     0.073 C 
HETATM    2  C5  UNL     1     -41.755  15.813  -7.980  1.00  0.00    -0.018 C 
HETATM    3  C6  UNL     1     -40.579  15.756  -8.580  1.00  0.00     0.207 C 
HETATM    4  C10 UNL     1     -42.179  15.922  -6.584  1.00  0.00     0.149 C 
HETATM    5  C11 UNL     1     -41.938  17.266  -5.949  1.00  0.00     0.044 C 
HETATM    6  O1  UNL     1     -43.550  15.681  -6.500  1.00  0.00    -0.372 OA
HETATM    7  C12 UNL     1     -43.942  15.085  -7.708  1.00  0.00     0.156 C 
ENDROOT
BRANCH   7   8
HETATM    8  C13 UNL     1     -43.716  13.635  -7.694  1.00  0.00     0.002 C 
HETATM    9  C14 UNL     1     -44.432  12.772  -8.368  1.00  0.00    -0.028 C 
BRANCH   9  10
HETATM   10  C15 UNL     1     -45.566  12.999  -9.253  1.00  0.00     0.027 C 
BRANCH  10  11
HETATM   11  C16 UNL     1     -46.847  12.325  -9.015  1.00  0.00     0.006 C 
BRANCH  11  12
HETATM   12  C17 UNL     1     -47.464  12.197  -7.691  1.00  0.00     0.027 C 
BRANCH  12  13
HETATM   13  C18 UNL     1     -47.416  10.898  -6.970  1.00  0.00     0.178 C 
BRANCH  13  14
HETATM   14  O2  UNL     1     -48.134  10.946  -5.740  1.00  0.00    -0.321 OA
BRANCH  14  15
HETATM   15  C19 UNL     1     -48.719   9.875  -5.144  1.00  0.00     0.258 C 
HETATM   16  O3  UNL     1     -48.151   8.776  -5.049  1.00  0.00    -0.265 OA
BRANCH  15  17
HETATM   17  C20 UNL     1     -50.108   9.984  -4.561  1.00  0.00     0.111 C 
BRANCH  17  18
HETATM   18  C21 UNL     1     -50.050  10.176  -3.053  1.00  0.00     0.005 C 
HETATM   19  C22 UNL     1     -50.295  11.613  -2.656  1.00  0.00     0.005 C 
ENDBRANCH  17  18
ENDBRANCH  15  17
ENDBRANCH  14  15
ENDBRANCH  13  14
ENDBRANCH  12  13
ENDBRANCH  11  12
ENDBRANCH  10  11
ENDBRANCH   9  10
ENDBRANCH   7   8
BRANCH   1  20
HETATM   20  C3  UNL     1     -43.452  17.170  -8.963  1.00  0.00    -0.019 C 
HETATM   21  C2  UNL     1     -44.671  17.545  -9.311  1.00  0.00    -0.034 C 
HETATM   22  C1  UNL     1     -44.993  19.007  -9.507  1.00  0.00     0.036 C 
ENDBRANCH   1  20
BRANCH   3  23
HETATM   23  N1  UNL     1     -39.323  15.798  -7.933  1.00  0.00    -0.058 N 
HETATM   24  C7  UNL     1     -38.344  15.172  -8.838  1.00  0.00     0.277 C 
HETATM   25  C8  UNL     1     -39.259  15.038  -6.705  1.00  0.00     0.277 C 
HETATM   26  C9  UNL     1     -38.887  17.149  -7.738  1.00  0.00     0.277 C 
ENDBRANCH   3  23
TORSDOF 11
ENDMDL
MODEL 3
REMARK VINA RESULT: -6.170956573      1.264      1.794
REMARK  11 active torsions:
REMARK  status: ('A' for Active; 'I' for Inactive)
REMARK    1  A    between atoms: C3_3  and  C4_4 
REMARK    2  A    between atoms: C6_6  and  N1_7 
REMARK    3  A    between atoms: C12_14  and  C13_15 
REMARK    4  A    between atoms: C14_16  and  C15_17 
REMARK    5  A    between atoms: C15_17  and  C16_18 
REMARK    6  A    between atoms: C16_18  and  C17_19 
REMARK    7  A    between atoms: C17_19  and  C18_20 
REMARK    8  A    between atoms: C18_20  and  O2_21 
REMARK    9  A    between atoms: O2_21  and  C19_22 
REMARK   10  A    between atoms: C19_22  and  C20_24 
REMARK   11  A    between atoms: C20_24  and  C21_25 
ROOT
HETATM    1  C4  UNL     1     -45.556  13.319  -8.138  1.00  0.00     0.073 C 
HETATM    2  C5  UNL     1     -44.534  14.423  -7.883  1.00  0.00    -0.018 C 
HETATM    3  C6  UNL     1     -43.272  14.163  -7.589  1.00  0.00     0.207 C 
HETATM    4  C10 UNL     1     -45.308  15.654  -8.043  1.00  0.00     0.149 C 
HETATM    5  C11 UNL     1     -44.993  16.447  -9.284  1.00  0.00     0.044 C 
HETATM    6  O1  UNL     1     -46.664  15.340  -8.102  1.00  0.00    -0.372 OA
HETATM    7  C12 UNL     1     -46.808  14.024  -7.640  1.00  0.00     0.156 C 
ENDROOT
BRANCH   7   8
HETATM    8  C13 UNL     1     -46.891  13.971  -6.176  1.00  0.00     0.002 C 
HETATM    9  C14 UNL     1     -47.431  12.987  -5.503  1.00  0.00    -0.028 C 
BRANCH   9  10
HETATM   10  C15 UNL     1     -48.053  11.764  -5.991  1.00  0.00     0.027 C 
BRANCH  10  11
HETATM   11  C16 UNL     1     -47.259  10.545  -6.177  1.00  0.00     0.006 C 
BRANCH  11  12
HETATM   12  C17 UNL     1     -47.841   9.201  -6.262  1.00  0.00     0.027 C 
BRANCH  12  13
HETATM   13  C18 UNL     1     -48.242   8.484  -5.024  1.00  0.00     0.178 C 
BRANCH  13  14
HETATM   14  O2  UNL     1     -49.656   8.490  -4.841  1.00  0.00    -0.321 OA
BRANCH  14  15
HETATM   15  C19 UNL     1     -50.332   9.384  -4.075  1.00  0.00     0.258 C 
HETATM   16  O3  UNL     1     -51.352   9.967  -4.477  1.00  0.00    -0.265 OA
BRANCH  15  17
HETATM   17  C20 UNL     1     -49.863   9.707  -2.676  1.00  0.00     0.111 C 
BRANCH  17  18
HETATM   18  C21 UNL     1     -49.227  11.088  -2.621  1.00  0.00     0.005 C 
HETATM   19  C22 UNL     1     -47.737  11.017  -2.386  1.00  0.00     0.005 C 
ENDBRANCH  17  18
ENDBRANCH  15  17
ENDBRANCH  14  15
ENDBRANCH  13  14
ENDBRANCH  12  13
ENDBRANCH  11  12
ENDBRANCH  10  11
ENDBRANCH   9  10
ENDBRANCH   7   8
BRANCH   1  20
HETATM   20  C3  UNL     1     -45.573  13.138  -9.603  1.00  0.00    -0.019 C 
HETATM   21  C2  UNL     1     -46.558  12.535 -10.246  1.00  0.00    -0.034 C 
HETATM   22  C1  UNL     1     -46.509  12.386 -11.748  1.00  0.00     0.036 C 
ENDBRANCH   1  20
BRANCH   3  23
HETATM   23  N1  UNL     1     -42.271  15.129  -7.339  1.00  0.00    -0.058 N 
HETATM   24  C7  UNL     1     -41.170  14.445  -6.637  1.00  0.00     0.277 C 
HETATM   25  C8  UNL     1     -42.683  16.203  -6.463  1.00  0.00     0.277 C 
HETATM   26  C9  UNL     1     -41.720  15.631  -8.563  1.00  0.00     0.277 C 
ENDBRANCH   3  23
TORSDOF 11
ENDMDL
MODEL 4
REMARK VINA RESULT: -6.135065013      2.303      4.724
REMARK  11 active torsions:
REMARK  status: ('A' for Active; 'I' for Inactive)
REMARK    1  A    between atoms: C3_3  and  C4_4 
REMARK    2  A    between atoms: C6_6  and  N1_7 
REMARK    3  A    between atoms: C12_14  and  C13_15 
REMARK    4  A    between atoms: C14_16  and  C15_17 
REMARK    5  A    between atoms: C15_17  and  C16_18 
REMARK    6  A    between atoms: C16_18  and  C17_19 
REMARK    7  A    between atoms: C17_19  and  C18_20 
REMARK    8  A    between atoms: C18_20  and  O2_21 
REMARK    9  A    between atoms: O2_21  and  C19_22 
REMARK   10  A    between atoms: C19_22  and  C20_24 
REMARK   11  A    between atoms: C20_24  and  C21_25 
ROOT
HETATM    1  C4  UNL     1     -43.024  15.909  -8.737  1.00  0.00     0.073 C 
HETATM    2  C5  UNL     1     -41.694  15.891  -7.990  1.00  0.00    -0.018 C 
HETATM    3  C6  UNL     1     -40.533  15.807  -8.616  1.00  0.00     0.207 C 
HETATM    4  C10 UNL     1     -42.086  15.977  -6.584  1.00  0.00     0.149 C 
HETATM    5  C11 UNL     1     -41.782  17.293  -5.917  1.00  0.00     0.044 C 
HETATM    6  O1  UNL     1     -43.463  15.785  -6.478  1.00  0.00    -0.372 OA
HETATM    7  C12 UNL     1     -43.901  15.239  -7.692  1.00  0.00     0.156 C 
ENDROOT
BRANCH   7   8
HETATM    8  C13 UNL     1     -43.731  13.781  -7.722  1.00  0.00     0.002 C 
HETATM    9  C14 UNL     1     -44.467  12.968  -8.436  1.00  0.00    -0.028 C 
BRANCH   9  10
HETATM   10  C15 UNL     1     -45.576  13.267  -9.331  1.00  0.00     0.027 C 
BRANCH  10  11
HETATM   11  C16 UNL     1     -46.387  12.187  -9.903  1.00  0.00     0.006 C 
BRANCH  11  12
HETATM   12  C17 UNL     1     -47.699  11.793  -9.382  1.00  0.00     0.027 C 
BRANCH  12  13
HETATM   13  C18 UNL     1     -48.039  12.039  -7.957  1.00  0.00     0.178 C 
BRANCH  13  14
HETATM   14  O2  UNL     1     -47.551  11.004  -7.107  1.00  0.00    -0.321 OA
BRANCH  14  15
HETATM   15  C19 UNL     1     -47.771  10.934  -5.769  1.00  0.00     0.258 C 
HETATM   16  O3  UNL     1     -47.382  11.813  -4.984  1.00  0.00    -0.265 OA
BRANCH  15  17
HETATM   17  C20 UNL     1     -48.517   9.763  -5.174  1.00  0.00     0.111 C 
BRANCH  17  18
HETATM   18  C21 UNL     1     -49.905  10.179  -4.714  1.00  0.00     0.005 C 
HETATM   19  C22 UNL     1     -50.599   9.081  -3.942  1.00  0.00     0.005 C 
ENDBRANCH  17  18
ENDBRANCH  15  17
ENDBRANCH  14  15
ENDBRANCH  13  14
ENDBRANCH  12  13
ENDBRANCH  11  12
ENDBRANCH  10  11
ENDBRANCH   9  10
ENDBRANCH   7   8
BRANCH   1  20
HETATM   20  C3  UNL     1     -43.358  17.338  -8.900  1.00  0.00    -0.019 C 
HETATM   21  C2  UNL     1     -44.548  17.763  -9.286  1.00  0.00    -0.034 C 
HETATM   22  C1  UNL     1     -44.819  19.242  -9.431  1.00  0.00     0.036 C 
ENDBRANCH   1  20
BRANCH   3  23
HETATM   23  N1  UNL     1     -39.264  15.784  -7.994  1.00  0.00    -0.058 N 
HETATM   24  C7  UNL     1     -38.330  15.138  -8.933  1.00  0.00     0.277 C 
HETATM   25  C8  UNL     1     -39.207  14.995  -6.784  1.00  0.00     0.277 C 
HETATM   26  C9  UNL     1     -38.769  17.112  -7.780  1.00  0.00     0.277 C 
ENDBRANCH   3  23
TORSDOF 11
ENDMDL
MODEL 5
REMARK VINA RESULT: -6.100866288      3.645      8.880
REMARK  11 active torsions:
REMARK  status: ('A' for Active; 'I' for Inactive)
REMARK    1  A    between atoms: C3_3  and  C4_4 
REMARK    2  A    between atoms: C6_6  and  N1_7 
REMARK    3  A    between atoms: C12_14  and  C13_15 
REMARK    4  A    between atoms: C14_16  and  C15_17 
REMARK    5  A    between atoms: C15_17  and  C16_18 
REMARK    6  A    between atoms: C16_18  and  C17_19 
REMARK    7  A    between atoms: C17_19  and  C18_20 
REMARK    8  A    between atoms: C18_20  and  O2_21 
REMARK    9  A    between atoms: O2_21  and  C19_22 
REMARK   10  A    between atoms: C19_22  and  C20_24 
REMARK   11  A    between atoms: C20_24  and  C21_25 
ROOT
HETATM    1  C4  UNL     1     -45.435  15.269  -7.849  1.00  0.00     0.073 C 
HETATM    2  C5  UNL     1     -45.844  13.800  -7.821  1.00  0.00    -0.018 C 
HETATM    3  C6  UNL     1     -46.543  13.280  -6.828  1.00  0.00     0.207 C 
HETATM    4  C10 UNL     1     -45.284  13.262  -9.061  1.00  0.00     0.149 C 
HETATM    5  C11 UNL     1     -46.296  12.926 -10.124  1.00  0.00     0.044 C 
HETATM    6  O1  UNL     1     -44.416  14.200  -9.618  1.00  0.00    -0.372 OA
HETATM    7  C12 UNL     1     -44.133  15.148  -8.624  1.00  0.00     0.156 C 
ENDROOT
BRANCH   7   8
HETATM    8  C13 UNL     1     -43.043  14.703  -7.748  1.00  0.00     0.002 C 
HETATM    9  C14 UNL     1     -41.853  15.248  -7.719  1.00  0.00    -0.028 C 
BRANCH   9  10
HETATM   10  C15 UNL     1     -41.326  16.363  -8.493  1.00  0.00     0.027 C 
BRANCH  10  11
HETATM   11  C16 UNL     1     -41.586  17.746  -8.083  1.00  0.00     0.006 C 
BRANCH  11  12
HETATM   12  C17 UNL     1     -42.775  18.503  -8.485  1.00  0.00     0.027 C 
BRANCH  12  13
HETATM   13  C18 UNL     1     -42.666  19.574  -9.510  1.00  0.00     0.178 C 
BRANCH  13  14
HETATM   14  O2  UNL     1     -43.924  19.862 -10.115  1.00  0.00    -0.321 OA
BRANCH  14  15
HETATM   15  C19 UNL     1     -44.191  20.969 -10.853  1.00  0.00     0.258 C 
HETATM   16  O3  UNL     1     -43.593  21.224 -11.910  1.00  0.00    -0.265 OA
BRANCH  15  17
HETATM   17  C20 UNL     1     -45.249  21.952 -10.408  1.00  0.00     0.111 C 
BRANCH  17  18
HETATM   18  C21 UNL     1     -45.725  21.638  -8.998  1.00  0.00     0.005 C 
HETATM   19  C22 UNL     1     -44.958  22.416  -7.955  1.00  0.00     0.005 C 
ENDBRANCH  17  18
ENDBRANCH  15  17
ENDBRANCH  14  15
ENDBRANCH  13  14
ENDBRANCH  12  13
ENDBRANCH  11  12
ENDBRANCH  10  11
ENDBRANCH   9  10
ENDBRANCH   7   8
BRANCH   1  20
HETATM   20  C3  UNL     1     -46.483  15.949  -8.637  1.00  0.00    -0.019 C 
HETATM   21  C2  UNL     1     -46.310  17.130  -9.204  1.00  0.00    -0.034 C 
HETATM   22  C1  UNL     1     -47.426  17.766  -9.998  1.00  0.00     0.036 C 
ENDBRANCH   1  20
BRANCH   3  23
HETATM   23  N1  UNL     1     -46.957  11.931  -6.732  1.00  0.00    -0.058 N 
HETATM   24  C7  UNL     1     -47.362  11.697  -5.335  1.00  0.00     0.277 C 
HETATM   25  C8  UNL     1     -45.914  10.967  -7.002  1.00  0.00     0.277 C 
HETATM   26  C9  UNL     1     -48.118  11.689  -7.535  1.00  0.00     0.277 C 
ENDBRANCH   3  23
TORSDOF 11
ENDMDL
