MODEL 1
REMARK VINA RESULT: -6.584863339      0.000      0.000
REMARK  3 active torsions:
REMARK  status: ('A' for Active; 'I' for Inactive)
REMARK    1  A    between atoms: N1_2  and  N2_4 
REMARK    2  A    between atoms: N2_4  and  C2_6 
REMARK    3  A    between atoms: C4_11  and  N5_12 
ROOT
HETATM    1  C2  UNL     1      21.820 126.107  -8.343  1.00  0.00     0.700 A 
HETATM    2  N3  UNL     1      22.721 125.437  -9.080  1.00  0.00    -0.175 N 
ATOM      3  H3  UNL     1      23.514 125.943  -9.475  1.00  0.00     0.185 HD
HETATM    4  C3  UNL     1      22.604 124.108  -9.310  1.00  0.00     0.170 A 
HETATM    5  N4  UNL     1      23.563 123.401 -10.093  1.00  0.00    -0.079 NA
HETATM    6  C4  UNL     1      21.553 123.370  -8.801  1.00  0.00     0.212 A 
HETATM    7  C5  UNL     1      20.632 124.066  -8.045  1.00  0.00     0.296 A 
HETATM    8  O3  UNL     1      19.663 123.411  -7.569  1.00  0.00    -0.265 OA
HETATM    9  N6  UNL     1      20.788 125.380  -7.842  1.00  0.00    -0.152 N 
ATOM     10  H6  UNL     1      20.090 125.865  -7.278  1.00  0.00     0.187 HD
ENDROOT
BRANCH   1  11
HETATM   11  N2  UNL     1      21.863 127.347  -8.088  1.00  0.00    -0.137 N 
ATOM     12  H2  UNL     1      22.129 127.938  -8.876  1.00  0.00     0.205 HD
BRANCH  11  13
HETATM   13  N1  UNL     1      21.611 128.017  -6.934  1.00  0.00    -0.327 N 
HETATM   14  C1  UNL     1      22.702 128.633  -6.230  1.00  0.00     0.168 C 
ATOM     15  H1  UNL     1      20.660 128.081  -6.572  1.00  0.00     0.180 HD
ENDBRANCH  11  13
ENDBRANCH   1  11
BRANCH   6  16
HETATM   16  N5  UNL     1      21.457 121.983  -9.059  1.00  0.00    -0.106 N 
HETATM   17  O1  UNL     1      20.926 121.627 -10.122  1.00  0.00    -0.531 OA
HETATM   18  O2  UNL     1      21.910 121.005  -8.218  1.00  0.00    -0.531 OA
ENDBRANCH   6  16
TORSDOF 3
ENDMDL
MODEL 2
REMARK VINA RESULT: -6.366256321      1.394      1.459
REMARK  3 active torsions:
REMARK  status: ('A' for Active; 'I' for Inactive)
REMARK    1  A    between atoms: N1_2  and  N2_4 
REMARK    2  A    between atoms: N2_4  and  C2_6 
REMARK    3  A    between atoms: C4_11  and  N5_12 
ROOT
HETATM    1  C2  UNL     1      21.368 126.469  -8.886  1.00  0.00     0.700 A 
HETATM    2  N3  UNL     1      22.244 125.648  -9.489  1.00  0.00    -0.175 N 
ATOM      3  H3  UNL     1      22.959 126.045 -10.098  1.00  0.00     0.185 HD
HETATM    4  C3  UNL     1      22.200 124.307  -9.308  1.00  0.00     0.170 A 
HETATM    5  N4  UNL     1      23.131 123.438  -9.950  1.00  0.00    -0.079 NA
HETATM    6  C4  UNL     1      21.255 123.712  -8.494  1.00  0.00     0.212 A 
HETATM    7  C5  UNL     1      20.360 124.563  -7.879  1.00  0.00     0.296 A 
HETATM    8  O3  UNL     1      19.488 124.040  -7.130  1.00  0.00    -0.265 OA
HETATM    9  N6  UNL     1      20.440 125.884  -8.087  1.00  0.00    -0.152 N 
ATOM     10  H6  UNL     1      19.765 126.485  -7.616  1.00  0.00     0.187 HD
ENDROOT
BRANCH   1  11
HETATM   11  N2  UNL     1      21.346 127.730  -9.011  1.00  0.00    -0.137 N 
ATOM     12  H2  UNL     1      22.213 128.201  -8.752  1.00  0.00     0.205 HD
BRANCH  11  13
HETATM   13  N1  UNL     1      20.354 128.554  -9.433  1.00  0.00    -0.327 N 
HETATM   14  C1  UNL     1      20.142 129.803  -8.751  1.00  0.00     0.168 C 
ATOM     15  H1  UNL     1      19.767 128.291 -10.224  1.00  0.00     0.180 HD
ENDBRANCH  11  13
ENDBRANCH   1  11
BRANCH   6  16
HETATM   16  N5  UNL     1      21.234 122.307  -8.325  1.00  0.00    -0.106 N 
HETATM   17  O1  UNL     1      20.647 121.629  -9.181  1.00  0.00    -0.531 OA
HETATM   18  O2  UNL     1      21.818 121.644  -7.281  1.00  0.00    -0.531 OA
ENDBRANCH   6  16
TORSDOF 3
ENDMDL
MODEL 3
REMARK VINA RESULT: -6.346140714      1.374      2.281
REMARK  3 active torsions:
REMARK  status: ('A' for Active; 'I' for Inactive)
REMARK    1  A    between atoms: N1_2  and  N2_4 
REMARK    2  A    between atoms: N2_4  and  C2_6 
REMARK    3  A    between atoms: C4_11  and  N5_12 
ROOT
HETATM    1  C2  UNL     1      21.419 126.427  -8.752  1.00  0.00     0.700 A 
HETATM    2  N3  UNL     1      20.674 125.692  -7.910  1.00  0.00    -0.175 N 
ATOM      3  H3  UNL     1      20.116 126.164  -7.199  1.00  0.00     0.185 HD
HETATM    4  C3  UNL     1      20.645 124.341  -7.981  1.00  0.00     0.170 A 
HETATM    5  N4  UNL     1      19.854 123.563  -7.086  1.00  0.00    -0.079 NA
HETATM    6  C4  UNL     1      21.379 123.645  -8.923  1.00  0.00     0.212 A 
HETATM    7  C5  UNL     1      22.141 124.408  -9.785  1.00  0.00     0.296 A 
HETATM    8  O3  UNL     1      22.820 123.793 -10.654  1.00  0.00    -0.265 OA
HETATM    9  N6  UNL     1      22.139 125.743  -9.677  1.00  0.00    -0.152 N 
ATOM     10  H6  UNL     1      22.712 126.278 -10.329  1.00  0.00     0.187 HD
ENDROOT
BRANCH   1  11
HETATM   11  N2  UNL     1      21.497 127.692  -8.742  1.00  0.00    -0.137 N 
ATOM     12  H2  UNL     1      21.355 128.136  -9.649  1.00  0.00     0.205 HD
BRANCH  11  13
HETATM   13  N1  UNL     1      21.739 128.550  -7.719  1.00  0.00    -0.327 N 
HETATM   14  C1  UNL     1      20.678 129.400  -7.252  1.00  0.00     0.168 C 
ATOM     15  H1  UNL     1      22.662 128.590  -7.287  1.00  0.00     0.180 HD
ENDBRANCH  11  13
ENDBRANCH   1  11
BRANCH   6  16
HETATM   16  N5  UNL     1      21.330 122.232  -8.974  1.00  0.00    -0.106 N 
HETATM   17  O1  UNL     1      20.616 121.708  -9.841  1.00  0.00    -0.531 OA
HETATM   18  O2  UNL     1      22.018 121.403  -8.132  1.00  0.00    -0.531 OA
ENDBRANCH   6  16
TORSDOF 3
ENDMDL
MODEL 4
REMARK VINA RESULT: -6.339209421      1.315      2.433
REMARK  3 active torsions:
REMARK  status: ('A' for Active; 'I' for Inactive)
REMARK    1  A    between atoms: N1_2  and  N2_4 
REMARK    2  A    between atoms: N2_4  and  C2_6 
REMARK    3  A    between atoms: C4_11  and  N5_12 
ROOT
HETATM    1  C2  UNL     1      21.382 126.623  -8.698  1.00  0.00     0.700 A 
HETATM    2  N3  UNL     1      20.441 125.938  -8.026  1.00  0.00    -0.175 N 
ATOM      3  H3  UNL     1      19.678 126.447  -7.583  1.00  0.00     0.185 HD
HETATM    4  C3  UNL     1      20.482 124.589  -7.924  1.00  0.00     0.170 A 
HETATM    5  N4  UNL     1      19.482 123.865  -7.210  1.00  0.00    -0.079 NA
HETATM    6  C4  UNL     1      21.491 123.844  -8.504  1.00  0.00     0.212 A 
HETATM    7  C5  UNL     1      22.453 124.556  -9.192  1.00  0.00     0.296 A 
HETATM    8  O3  UNL     1      23.385 123.895  -9.730  1.00  0.00    -0.265 OA
HETATM    9  N6  UNL     1      22.373 125.890  -9.268  1.00  0.00    -0.152 N 
ATOM     10  H6  UNL     1      23.099 126.386  -9.784  1.00  0.00     0.187 HD
ENDROOT
BRANCH   1  11
HETATM   11  N2  UNL     1      21.411 127.882  -8.833  1.00  0.00    -0.137 N 
ATOM     12  H2  UNL     1      21.434 128.209  -9.798  1.00  0.00     0.205 HD
BRANCH  11  13
HETATM   13  N1  UNL     1      21.416 128.866  -7.898  1.00  0.00    -0.327 N 
HETATM   14  C1  UNL     1      22.195 128.694  -6.703  1.00  0.00     0.168 C 
ATOM     15  H1  UNL     1      20.873 129.718  -8.043  1.00  0.00     0.180 HD
ENDBRANCH  11  13
ENDBRANCH   1  11
BRANCH   6  16
HETATM   16  N5  UNL     1      21.508 122.435  -8.380  1.00  0.00    -0.106 N 
HETATM   17  O1  UNL     1      21.969 121.950  -7.335  1.00  0.00    -0.531 OA
HETATM   18  O2  UNL     1      21.049 121.568  -9.332  1.00  0.00    -0.531 OA
ENDBRANCH   6  16
TORSDOF 3
ENDMDL
MODEL 5
REMARK VINA RESULT: -6.055016288      1.462      2.356
REMARK  3 active torsions:
REMARK  status: ('A' for Active; 'I' for Inactive)
REMARK    1  A    between atoms: N1_2  and  N2_4 
REMARK    2  A    between atoms: N2_4  and  C2_6 
REMARK    3  A    between atoms: C4_11  and  N5_12 
ROOT
HETATM    1  C2  UNL     1      21.645 126.906  -7.766  1.00  0.00     0.700 A 
HETATM    2  N3  UNL     1      20.510 126.224  -7.539  1.00  0.00    -0.175 N 
ATOM      3  H3  UNL     1      19.706 126.714  -7.147  1.00  0.00     0.185 HD
HETATM    4  C3  UNL     1      20.406 124.904  -7.818  1.00  0.00     0.170 A 
HETATM    5  N4  UNL     1      19.200 124.183  -7.575  1.00  0.00    -0.079 NA
HETATM    6  C4  UNL     1      21.460 124.187  -8.351  1.00  0.00     0.212 A 
HETATM    7  C5  UNL     1      22.623 124.895  -8.581  1.00  0.00     0.296 A 
HETATM    8  O3  UNL     1      23.599 124.259  -9.069  1.00  0.00    -0.265 OA
HETATM    9  N6  UNL     1      22.680 126.201  -8.290  1.00  0.00    -0.152 N 
ATOM     10  H6  UNL     1      23.553 126.695  -8.473  1.00  0.00     0.187 HD
ENDROOT
BRANCH   1  11
HETATM   11  N2  UNL     1      21.816 128.139  -7.527  1.00  0.00    -0.137 N 
ATOM     12  H2  UNL     1      21.074 128.748  -7.871  1.00  0.00     0.205 HD
BRANCH  11  13
HETATM   13  N1  UNL     1      22.828 128.778  -6.889  1.00  0.00    -0.327 N 
HETATM   14  C1  UNL     1      22.731 129.003  -5.472  1.00  0.00     0.168 C 
ATOM     15  H1  UNL     1      23.647 129.095  -7.407  1.00  0.00     0.180 HD
ENDBRANCH  11  13
ENDBRANCH   1  11
BRANCH   6  16
HETATM   16  N5  UNL     1      21.323 122.807  -8.632  1.00  0.00    -0.106 N 
HETATM   17  O1  UNL     1      20.936 122.482  -9.764  1.00  0.00    -0.531 OA
HETATM   18  O2  UNL     1      21.588 121.805  -7.740  1.00  0.00    -0.531 OA
ENDBRANCH   6  16
TORSDOF 3
ENDMDL
