MODEL 1
REMARK VINA RESULT: -6.266125208      0.000      0.000
REMARK  3 active torsions:
REMARK  status: ('A' for Active; 'I' for Inactive)
REMARK    1  A    between atoms: C3_4  and  N2_5 
REMARK    2  A    between atoms: N2_5  and  N3_6 
REMARK    3  A    between atoms: N2_5  and  N4_9 
ROOT
HETATM    1  N1  UNL     1      22.081 120.389  -7.474  1.00  0.00    -0.191 NA
HETATM    2  C1  UNL     1      21.656 121.428  -7.787  1.00  0.00     0.109 C 
HETATM    3  C2  UNL     1      21.112 122.714  -8.161  1.00  0.00     0.159 A 
HETATM    4  C3  UNL     1      21.480 123.255  -9.374  1.00  0.00     0.173 A 
HETATM    5  N5  UNL     1      20.978 124.470  -9.733  1.00  0.00    -0.315 N 
ATOM      6  H5  UNL     1      21.236 124.887 -10.627  1.00  0.00     0.170 HD
HETATM    7  C4  UNL     1      20.138 125.116  -8.901  1.00  0.00     0.180 A 
HETATM    8  S1  UNL     1      19.530 126.581  -9.330  1.00  0.00    -0.040 SA
HETATM    9  N6  UNL     1      19.767 124.607  -7.713  1.00  0.00    -0.299 N 
ATOM     10  H6  UNL     1      19.128 125.125  -7.109  1.00  0.00     0.171 HD
HETATM   11  C5  UNL     1      20.242 123.411  -7.327  1.00  0.00     0.272 A 
HETATM   12  O1  UNL     1      19.906 122.916  -6.218  1.00  0.00    -0.266 OA
ENDROOT
BRANCH   4  13
HETATM   13  N2  UNL     1      22.386 122.565 -10.242  1.00  0.00    -0.191 N 
BRANCH  13  14
HETATM   14  N3  UNL     1      21.895 121.523 -11.070  1.00  0.00    -0.323 N 
ATOM     15  H32 UNL     1      22.311 120.592 -11.027  1.00  0.00     0.179 HD
ATOM     16  H31 UNL     1      21.123 121.715 -11.708  1.00  0.00     0.179 HD
ENDBRANCH  13  14
BRANCH  13  17
HETATM   17  N4  UNL     1      23.733 122.911 -10.273  1.00  0.00    -0.323 N 
ATOM     18  H42 UNL     1      24.274 122.954  -9.409  1.00  0.00     0.179 HD
ATOM     19  H41 UNL     1      24.192 123.123 -11.159  1.00  0.00     0.179 HD
ENDBRANCH  13  17
ENDBRANCH   4  13
TORSDOF 3
ENDMDL
MODEL 2
REMARK VINA RESULT: -5.969038354      2.116      2.590
REMARK  3 active torsions:
REMARK  status: ('A' for Active; 'I' for Inactive)
REMARK    1  A    between atoms: C3_4  and  N2_5 
REMARK    2  A    between atoms: N2_5  and  N3_6 
REMARK    3  A    between atoms: N2_5  and  N4_9 
ROOT
HETATM    1  N1  UNL     1      20.689 122.110  -9.065  1.00  0.00    -0.191 NA
HETATM    2  C1  UNL     1      20.736 123.238  -8.776  1.00  0.00     0.109 C 
HETATM    3  C2  UNL     1      20.773 124.637  -8.414  1.00  0.00     0.159 A 
HETATM    4  C3  UNL     1      21.890 125.373  -8.747  1.00  0.00     0.173 A 
HETATM    5  N5  UNL     1      21.937 126.691  -8.405  1.00  0.00    -0.315 N 
ATOM      6  H5  UNL     1      22.754 127.253  -8.643  1.00  0.00     0.170 HD
HETATM    7  C4  UNL     1      20.899 127.247  -7.752  1.00  0.00     0.180 A 
HETATM    8  S1  UNL     1      20.951 128.836  -7.337  1.00  0.00    -0.040 SA
HETATM    9  N6  UNL     1      19.800 126.548  -7.416  1.00  0.00    -0.299 N 
ATOM     10  H6  UNL     1      19.033 127.004  -6.921  1.00  0.00     0.171 HD
HETATM   11  C5  UNL     1      19.719 125.246  -7.738  1.00  0.00     0.272 A 
HETATM   12  O1  UNL     1      18.698 124.574  -7.433  1.00  0.00    -0.266 OA
ENDROOT
BRANCH   4  13
HETATM   13  N2  UNL     1      22.994 124.765  -9.428  1.00  0.00    -0.191 N 
BRANCH  13  14
HETATM   14  N3  UNL     1      24.015 124.137  -8.671  1.00  0.00    -0.323 N 
ATOM     15  H32 UNL     1      24.480 124.641  -7.916  1.00  0.00     0.179 HD
ATOM     16  H31 UNL     1      24.278 123.175  -8.889  1.00  0.00     0.179 HD
ENDBRANCH  13  14
BRANCH  13  17
HETATM   17  N4  UNL     1      23.065 124.791 -10.817  1.00  0.00    -0.323 N 
ATOM     18  H42 UNL     1      23.933 125.058 -11.283  1.00  0.00     0.179 HD
ATOM     19  H41 UNL     1      22.252 124.544 -11.382  1.00  0.00     0.179 HD
ENDBRANCH  13  17
ENDBRANCH   4  13
TORSDOF 3
ENDMDL
MODEL 3
REMARK VINA RESULT: -5.405748677      2.959      4.900
REMARK  3 active torsions:
REMARK  status: ('A' for Active; 'I' for Inactive)
REMARK    1  A    between atoms: C3_4  and  N2_5 
REMARK    2  A    between atoms: N2_5  and  N3_6 
REMARK    3  A    between atoms: N2_5  and  N4_9 
ROOT
HETATM    1  N1  UNL     1      18.254 127.360  -6.622  1.00  0.00    -0.191 NA
HETATM    2  C1  UNL     1      19.087 126.791  -7.204  1.00  0.00     0.109 C 
HETATM    3  C2  UNL     1      20.117 126.067  -7.915  1.00  0.00     0.159 A 
HETATM    4  C3  UNL     1      21.035 126.784  -8.651  1.00  0.00     0.173 A 
HETATM    5  N5  UNL     1      22.007 126.110  -9.329  1.00  0.00    -0.315 N 
ATOM      6  H5  UNL     1      22.696 126.622  -9.880  1.00  0.00     0.170 HD
HETATM    7  C4  UNL     1      22.051 124.766  -9.269  1.00  0.00     0.180 A 
HETATM    8  S1  UNL     1      23.220 123.949 -10.085  1.00  0.00    -0.040 SA
HETATM    9  N6  UNL     1      21.165 124.046  -8.557  1.00  0.00    -0.299 N 
ATOM     10  H6  UNL     1      21.231 123.028  -8.534  1.00  0.00     0.171 HD
HETATM   11  C5  UNL     1      20.194 124.677  -7.875  1.00  0.00     0.272 A 
HETATM   12  O1  UNL     1      19.355 124.021  -7.202  1.00  0.00    -0.266 OA
ENDROOT
BRANCH   4  13
HETATM   13  N2  UNL     1      20.967 128.213  -8.720  1.00  0.00    -0.191 N 
BRANCH  13  14
HETATM   14  N3  UNL     1      21.664 128.988  -7.757  1.00  0.00    -0.323 N 
ATOM     15  H32 UNL     1      22.683 129.005  -7.751  1.00  0.00     0.179 HD
ATOM     16  H31 UNL     1      21.133 129.528  -7.073  1.00  0.00     0.179 HD
ENDBRANCH  13  14
BRANCH  13  17
HETATM   17  N4  UNL     1      20.225 128.836  -9.718  1.00  0.00    -0.323 N 
ATOM     18  H42 UNL     1      20.664 129.518 -10.337  1.00  0.00     0.179 HD
ATOM     19  H41 UNL     1      19.236 128.616  -9.840  1.00  0.00     0.179 HD
ENDBRANCH  13  17
ENDBRANCH   4  13
TORSDOF 3
ENDMDL
MODEL 4
REMARK VINA RESULT: -5.312556386      2.257      3.058
REMARK  3 active torsions:
REMARK  status: ('A' for Active; 'I' for Inactive)
REMARK    1  A    between atoms: C3_4  and  N2_5 
REMARK    2  A    between atoms: N2_5  and  N3_6 
REMARK    3  A    between atoms: N2_5  and  N4_9 
ROOT
HETATM    1  N1  UNL     1      24.340 124.724  -8.666  1.00  0.00    -0.191 NA
HETATM    2  C1  UNL     1      23.194 124.829  -8.483  1.00  0.00     0.109 C 
HETATM    3  C2  UNL     1      21.776 124.978  -8.248  1.00  0.00     0.159 A 
HETATM    4  C3  UNL     1      20.979 123.855  -8.299  1.00  0.00     0.173 A 
HETATM    5  N5  UNL     1      19.640 123.986  -8.084  1.00  0.00    -0.315 N 
ATOM      6  H5  UNL     1      19.033 123.167  -8.117  1.00  0.00     0.170 HD
HETATM    7  C4  UNL     1      19.123 125.203  -7.828  1.00  0.00     0.180 A 
HETATM    8  S1  UNL     1      17.509 125.366  -7.568  1.00  0.00    -0.040 SA
HETATM    9  N6  UNL     1      19.881 126.312  -7.773  1.00  0.00    -0.299 N 
ATOM     10  H6  UNL     1      19.454 127.217  -7.576  1.00  0.00     0.171 HD
HETATM   11  C5  UNL     1      21.206 126.220  -7.979  1.00  0.00     0.272 A 
HETATM   12  O1  UNL     1      21.934 127.247  -7.932  1.00  0.00    -0.266 OA
ENDROOT
BRANCH   4  13
HETATM   13  N2  UNL     1      21.540 122.569  -8.589  1.00  0.00    -0.191 N 
BRANCH  13  14
HETATM   14  N3  UNL     1      21.922 121.721  -7.517  1.00  0.00    -0.323 N 
ATOM     15  H32 UNL     1      22.282 122.119  -6.650  1.00  0.00     0.179 HD
ATOM     16  H31 UNL     1      21.831 120.710  -7.625  1.00  0.00     0.179 HD
ENDBRANCH  13  14
BRANCH  13  17
HETATM   17  N4  UNL     1      21.711 122.155  -9.906  1.00  0.00    -0.323 N 
ATOM     18  H42 UNL     1      22.259 121.321 -10.117  1.00  0.00     0.179 HD
ATOM     19  H41 UNL     1      21.291 122.682 -10.672  1.00  0.00     0.179 HD
ENDBRANCH  13  17
ENDBRANCH   4  13
TORSDOF 3
ENDMDL
MODEL 5
REMARK VINA RESULT: -5.233065035      2.467      4.296
REMARK  3 active torsions:
REMARK  status: ('A' for Active; 'I' for Inactive)
REMARK    1  A    between atoms: C3_4  and  N2_5 
REMARK    2  A    between atoms: N2_5  and  N3_6 
REMARK    3  A    between atoms: N2_5  and  N4_9 
ROOT
HETATM    1  N1  UNL     1      17.847 126.359  -6.959  1.00  0.00    -0.191 NA
HETATM    2  C1  UNL     1      18.737 125.845  -7.509  1.00  0.00     0.109 C 
HETATM    3  C2  UNL     1      19.844 125.195  -8.174  1.00  0.00     0.159 A 
HETATM    4  C3  UNL     1      20.390 125.800  -9.286  1.00  0.00     0.173 A 
HETATM    5  N5  UNL     1      21.429 125.192  -9.923  1.00  0.00    -0.315 N 
ATOM      6  H5  UNL     1      21.848 125.624 -10.747  1.00  0.00     0.170 HD
HETATM    7  C4  UNL     1      21.902 124.020  -9.458  1.00  0.00     0.180 A 
HETATM    8  S1  UNL     1      23.155 123.284 -10.223  1.00  0.00    -0.040 SA
HETATM    9  N6  UNL     1      21.384 123.412  -8.376  1.00  0.00    -0.299 N 
ATOM     10  H6  UNL     1      21.768 122.524  -8.053  1.00  0.00     0.171 HD
HETATM   11  C5  UNL     1      20.358 123.982  -7.722  1.00  0.00     0.272 A 
HETATM   12  O1  UNL     1      19.860 123.430  -6.706  1.00  0.00    -0.266 OA
ENDROOT
BRANCH   4  13
HETATM   13  N2  UNL     1      19.867 127.039  -9.778  1.00  0.00    -0.191 N 
BRANCH  13  14
HETATM   14  N3  UNL     1      18.734 127.024 -10.632  1.00  0.00    -0.323 N 
ATOM     15  H32 UNL     1      17.793 127.015 -10.239  1.00  0.00     0.179 HD
ATOM     16  H31 UNL     1      18.872 127.022 -11.643  1.00  0.00     0.179 HD
ENDBRANCH  13  14
BRANCH  13  17
HETATM   17  N4  UNL     1      20.463 128.246  -9.426  1.00  0.00    -0.323 N 
ATOM     18  H42 UNL     1      21.372 128.254  -8.961  1.00  0.00     0.179 HD
ATOM     19  H41 UNL     1      19.999 129.131  -9.628  1.00  0.00     0.179 HD
ENDBRANCH  13  17
ENDBRANCH   4  13
TORSDOF 3
ENDMDL
