MODEL 1
REMARK VINA RESULT: -6.561823045      0.000      0.000
REMARK  2 active torsions:
REMARK  status: ('A' for Active; 'I' for Inactive)
REMARK    1  A    between atoms: N1_1  and  C1_4 
REMARK    2  A    between atoms: C5_15  and  N5_16 
ROOT
HETATM    1  C1  UNL     1      21.628 125.780  -8.139  1.00  0.00     0.138 C 
HETATM    2  N2  UNL     1      20.310 125.966  -7.866  1.00  0.00    -0.293 N 
ATOM      3  H2  UNL     1      19.992 126.931  -7.771  1.00  0.00     0.172 HD
HETATM    4  C2  UNL     1      19.383 125.005  -7.710  1.00  0.00     0.328 C 
HETATM    5  O1  UNL     1      18.192 125.382  -7.582  1.00  0.00    -0.247 OA
HETATM    6  N3  UNL     1      19.543 123.673  -7.668  1.00  0.00    -0.274 N 
ATOM      7  H3  UNL     1      18.778 123.160  -7.229  1.00  0.00     0.173 HD
HETATM    8  C3  UNL     1      20.574 122.900  -8.123  1.00  0.00     0.276 C 
HETATM    9  O2  UNL     1      20.507 121.672  -7.991  1.00  0.00    -0.266 OA
HETATM   10  C4  UNL     1      21.731 123.359  -8.742  1.00  0.00     0.151 C 
HETATM   11  N4  UNL     1      22.442 122.416  -9.522  1.00  0.00    -0.094 NA
HETATM   12  C5  UNL     1      22.254 124.647  -8.670  1.00  0.00     0.176 C 
ENDROOT
BRANCH   1  13
HETATM   13  N1  UNL     1      22.415 126.765  -7.879  1.00  0.00    -0.383 N 
ATOM     14  H12 UNL     1      21.955 127.669  -7.773  1.00  0.00     0.157 HD
ATOM     15  H11 UNL     1      23.409 126.549  -7.807  1.00  0.00     0.157 HD
ENDBRANCH   1  13
BRANCH  12  16
HETATM   16  N5  UNL     1      23.548 124.825  -9.188  1.00  0.00    -0.110 N 
HETATM   17  O3  UNL     1      23.769 125.074 -10.391  1.00  0.00    -0.532 OA
HETATM   18  O4  UNL     1      24.634 124.725  -8.351  1.00  0.00    -0.532 OA
ENDBRANCH  12  16
TORSDOF 2
ENDMDL
MODEL 2
REMARK VINA RESULT: -6.558538114      1.630      3.850
REMARK  2 active torsions:
REMARK  status: ('A' for Active; 'I' for Inactive)
REMARK    1  A    between atoms: N1_1  and  C1_4 
REMARK    2  A    between atoms: C5_15  and  N5_16 
ROOT
HETATM    1  C1  UNL     1      21.261 124.994  -9.592  1.00  0.00     0.138 C 
HETATM    2  N2  UNL     1      22.401 124.736 -10.285  1.00  0.00    -0.293 N 
ATOM      3  H2  UNL     1      22.792 125.505 -10.830  1.00  0.00     0.172 HD
HETATM    4  C2  UNL     1      23.066 123.568 -10.324  1.00  0.00     0.328 C 
HETATM    5  O1  UNL     1      24.168 123.564 -10.926  1.00  0.00    -0.247 OA
HETATM    6  N3  UNL     1      22.721 122.379  -9.805  1.00  0.00    -0.274 N 
ATOM      7  H3  UNL     1      23.194 121.575 -10.216  1.00  0.00     0.173 HD
HETATM    8  C3  UNL     1      21.831 122.083  -8.811  1.00  0.00     0.276 C 
HETATM    9  O2  UNL     1      21.675 120.902  -8.477  1.00  0.00    -0.266 OA
HETATM   10  C4  UNL     1      21.054 122.996  -8.108  1.00  0.00     0.151 C 
HETATM   11  N4  UNL     1      20.554 122.562  -6.857  1.00  0.00    -0.094 NA
HETATM   12  C5  UNL     1      20.723 124.286  -8.511  1.00  0.00     0.176 C 
ENDROOT
BRANCH   1  13
HETATM   13  N1  UNL     1      20.577 126.017  -9.968  1.00  0.00    -0.383 N 
ATOM     14  H12 UNL     1      21.030 126.607 -10.665  1.00  0.00     0.157 HD
ATOM     15  H11 UNL     1      19.660 126.136  -9.538  1.00  0.00     0.157 HD
ENDBRANCH   1  13
BRANCH  12  16
HETATM   16  N5  UNL     1      19.744 124.947  -7.749  1.00  0.00    -0.110 N 
HETATM   17  O3  UNL     1      18.621 124.456  -7.514  1.00  0.00    -0.532 OA
HETATM   18  O4  UNL     1      20.015 126.190  -7.229  1.00  0.00    -0.532 OA
ENDBRANCH  12  16
TORSDOF 2
ENDMDL
MODEL 3
REMARK VINA RESULT: -6.376673397      1.811      4.623
REMARK  2 active torsions:
REMARK  status: ('A' for Active; 'I' for Inactive)
REMARK    1  A    between atoms: N1_1  and  C1_4 
REMARK    2  A    between atoms: C5_15  and  N5_16 
ROOT
HETATM    1  C1  UNL     1      22.293 122.557  -9.136  1.00  0.00     0.138 C 
HETATM    2  N2  UNL     1      23.161 122.917 -10.118  1.00  0.00    -0.293 N 
ATOM      3  H2  UNL     1      23.660 122.163 -10.591  1.00  0.00     0.172 HD
HETATM    4  C2  UNL     1      23.429 124.169 -10.528  1.00  0.00     0.328 C 
HETATM    5  O1  UNL     1      24.172 124.290 -11.533  1.00  0.00    -0.247 OA
HETATM    6  N3  UNL     1      23.012 125.337 -10.012  1.00  0.00    -0.274 N 
ATOM      7  H3  UNL     1      23.576 126.148 -10.267  1.00  0.00     0.173 HD
HETATM    8  C3  UNL     1      21.947 125.604  -9.198  1.00  0.00     0.276 C 
HETATM    9  O2  UNL     1      21.737 126.772  -8.848  1.00  0.00    -0.266 OA
HETATM   10  C4  UNL     1      21.042 124.673  -8.702  1.00  0.00     0.151 C 
HETATM   11  N4  UNL     1      19.794 125.182  -8.268  1.00  0.00    -0.094 NA
HETATM   12  C5  UNL     1      21.240 123.300  -8.592  1.00  0.00     0.176 C 
ENDROOT
BRANCH   1  13
HETATM   13  N1  UNL     1      22.449 121.383  -8.632  1.00  0.00    -0.383 N 
ATOM     14  H12 UNL     1      23.381 120.985  -8.743  1.00  0.00     0.157 HD
ATOM     15  H11 UNL     1      21.635 120.970  -8.178  1.00  0.00     0.157 HD
ENDBRANCH   1  13
BRANCH  12  16
HETATM   16  N5  UNL     1      20.279 122.587  -7.856  1.00  0.00    -0.110 N 
HETATM   17  O3  UNL     1      19.450 121.819  -8.387  1.00  0.00    -0.532 OA
HETATM   18  O4  UNL     1      20.231 122.726  -6.489  1.00  0.00    -0.532 OA
ENDBRANCH  12  16
TORSDOF 2
ENDMDL
MODEL 4
REMARK VINA RESULT: -6.162764817      1.371      1.371
REMARK  2 active torsions:
REMARK  status: ('A' for Active; 'I' for Inactive)
REMARK    1  A    between atoms: N1_1  and  C1_4 
REMARK    2  A    between atoms: C5_15  and  N5_16 
ROOT
HETATM    1  C1  UNL     1      21.518 125.644  -9.268  1.00  0.00     0.138 C 
HETATM    2  N2  UNL     1      20.239 126.100  -9.329  1.00  0.00    -0.293 N 
ATOM      3  H2  UNL     1      20.056 126.874  -9.967  1.00  0.00     0.172 HD
HETATM    4  C2  UNL     1      19.190 125.631  -8.631  1.00  0.00     0.328 C 
HETATM    5  O1  UNL     1      18.062 126.105  -8.915  1.00  0.00    -0.247 OA
HETATM    6  N3  UNL     1      19.166 124.712  -7.652  1.00  0.00    -0.274 N 
ATOM      7  H3  UNL     1      18.341 124.740  -7.053  1.00  0.00     0.173 HD
HETATM    8  C3  UNL     1      20.079 123.745  -7.336  1.00  0.00     0.276 C 
HETATM    9  O2  UNL     1      19.845 122.986  -6.388  1.00  0.00    -0.266 OA
HETATM   10  C4  UNL     1      21.285 123.513  -7.988  1.00  0.00     0.151 C 
HETATM   11  N4  UNL     1      21.855 122.230  -7.812  1.00  0.00    -0.094 NA
HETATM   12  C5  UNL     1      21.979 124.412  -8.791  1.00  0.00     0.176 C 
ENDROOT
BRANCH   1  13
HETATM   13  N1  UNL     1      22.433 126.438  -9.702  1.00  0.00    -0.383 N 
ATOM     14  H12 UNL     1      22.103 127.354 -10.004  1.00  0.00     0.157 HD
ATOM     15  H11 UNL     1      23.387 126.078  -9.702  1.00  0.00     0.157 HD
ENDBRANCH   1  13
BRANCH  12  16
HETATM   16  N5  UNL     1      23.283 124.040  -9.162  1.00  0.00    -0.110 N 
HETATM   17  O3  UNL     1      23.527 123.313 -10.146  1.00  0.00    -0.532 OA
HETATM   18  O4  UNL     1      24.352 124.486  -8.422  1.00  0.00    -0.532 OA
ENDBRANCH  12  16
TORSDOF 2
ENDMDL
MODEL 5
REMARK VINA RESULT: -6.158274603      1.299      3.894
REMARK  2 active torsions:
REMARK  status: ('A' for Active; 'I' for Inactive)
REMARK    1  A    between atoms: N1_1  and  C1_4 
REMARK    2  A    between atoms: C5_15  and  N5_16 
ROOT
HETATM    1  C1  UNL     1      20.861 126.083  -9.276  1.00  0.00     0.138 C 
HETATM    2  N2  UNL     1      22.140 125.979  -9.723  1.00  0.00    -0.293 N 
ATOM      3  H2  UNL     1      22.547 126.811 -10.152  1.00  0.00     0.172 HD
HETATM    4  C2  UNL     1      22.924 124.889  -9.656  1.00  0.00     0.328 C 
HETATM    5  O1  UNL     1      24.120 125.027 -10.015  1.00  0.00    -0.247 OA
HETATM    6  N3  UNL     1      22.614 123.646  -9.255  1.00  0.00    -0.274 N 
ATOM      7  H3  UNL     1      23.247 122.916  -9.581  1.00  0.00     0.173 HD
HETATM    8  C3  UNL     1      21.578 123.210  -8.477  1.00  0.00     0.276 C 
HETATM    9  O2  UNL     1      21.489 122.004  -8.217  1.00  0.00    -0.266 OA
HETATM   10  C4  UNL     1      20.578 124.002  -7.926  1.00  0.00     0.151 C 
HETATM   11  N4  UNL     1      19.884 123.456  -6.819  1.00  0.00    -0.094 NA
HETATM   12  C5  UNL     1      20.196 125.270  -8.351  1.00  0.00     0.176 C 
ENDROOT
BRANCH   1  13
HETATM   13  N1  UNL     1      20.160 127.049  -9.756  1.00  0.00    -0.383 N 
ATOM     14  H12 UNL     1      19.328 127.289  -9.218  1.00  0.00     0.157 HD
ATOM     15  H11 UNL     1      20.500 127.475 -10.618  1.00  0.00     0.157 HD
ENDBRANCH   1  13
BRANCH  12  16
HETATM   16  N5  UNL     1      19.015 125.788  -7.791  1.00  0.00    -0.110 N 
HETATM   17  O3  UNL     1      17.882 125.338  -8.059  1.00  0.00    -0.532 OA
HETATM   18  O4  UNL     1      19.088 126.837  -6.906  1.00  0.00    -0.532 OA
ENDBRANCH  12  16
TORSDOF 2
ENDMDL
