MODEL 1
REMARK VINA RESULT: -4.260638537      0.000      0.000
REMARK  4 active torsions:
REMARK  status: ('A' for Active; 'I' for Inactive)
REMARK    1  A    between atoms: N1_2  and  N2_4 
REMARK    2  A    between atoms: C2_6  and  C3_7 
REMARK    3  A    between atoms: C3_7  and  C4_8 
REMARK    4  A    between atoms: C4_8  and  N3_9 
ROOT
HETATM    1  N2  UNL     1      53.089  73.942  38.047  1.00  0.00    -0.317 N 
ATOM      2  H2  UNL     1      53.671  74.171  37.242  1.00  0.00     0.185 HD
HETATM    3  C2  UNL     1      52.709  72.726  38.260  1.00  0.00     0.108 C 
ENDROOT
BRANCH   3   4
HETATM    4  C3  UNL     1      51.882  72.343  39.389  1.00  0.00     0.035 C 
BRANCH   4   5
HETATM    5  C4  UNL     1      52.275  71.556  40.351  1.00  0.00     0.082 C 
BRANCH   5   6
HETATM    6  N3  UNL     1      53.089  70.949  41.120  1.00  0.00    -0.408 N 
ATOM      7  H32 UNL     1      53.596  71.764  41.466  1.00  0.00     0.155 HD
ATOM      8  H31 UNL     1      53.534  70.161  41.591  1.00  0.00     0.155 HD
ENDBRANCH   5   6
ENDBRANCH   4   5
ENDBRANCH   3   4
BRANCH   1   9
HETATM    9  N1  UNL     1      52.689  74.932  38.941  1.00  0.00    -0.341 N 
HETATM   10  C1  UNL     1      52.008  76.126  38.506  1.00  0.00     0.167 C 
ATOM     11  H1  UNL     1      52.883  74.808  39.934  1.00  0.00     0.179 HD
ENDBRANCH   1   9
TORSDOF 4
ENDMDL
MODEL 2
REMARK VINA RESULT: -4.173200341      1.329      1.991
REMARK  4 active torsions:
REMARK  status: ('A' for Active; 'I' for Inactive)
REMARK    1  A    between atoms: N1_2  and  N2_4 
REMARK    2  A    between atoms: C2_6  and  C3_7 
REMARK    3  A    between atoms: C3_7  and  C4_8 
REMARK    4  A    between atoms: C4_8  and  N3_9 
ROOT
HETATM    1  N2  UNL     1      52.775  73.783  38.447  1.00  0.00    -0.317 N 
ATOM      2  H2  UNL     1      52.948  74.766  38.239  1.00  0.00     0.185 HD
HETATM    3  C2  UNL     1      51.869  73.440  39.300  1.00  0.00     0.108 C 
ENDROOT
BRANCH   3   4
HETATM    4  C3  UNL     1      51.579  72.058  39.634  1.00  0.00     0.035 C 
BRANCH   4   5
HETATM    5  C4  UNL     1      52.287  71.340  40.460  1.00  0.00     0.082 C 
BRANCH   5   6
HETATM    6  N3  UNL     1      53.287  71.010  41.177  1.00  0.00    -0.408 N 
ATOM      7  H32 UNL     1      53.655  70.268  40.582  1.00  0.00     0.155 HD
ATOM      8  H31 UNL     1      53.931  71.035  41.968  1.00  0.00     0.155 HD
ENDBRANCH   5   6
ENDBRANCH   4   5
ENDBRANCH   3   4
BRANCH   1   9
HETATM    9  N1  UNL     1      53.509  72.782  37.816  1.00  0.00    -0.341 N 
HETATM   10  C1  UNL     1      54.331  73.047  36.662  1.00  0.00     0.167 C 
ATOM     11  H1  UNL     1      53.464  71.831  38.182  1.00  0.00     0.179 HD
ENDBRANCH   1   9
TORSDOF 4
ENDMDL
MODEL 3
REMARK VINA RESULT: -3.890404421      8.131      9.278
REMARK  4 active torsions:
REMARK  status: ('A' for Active; 'I' for Inactive)
REMARK    1  A    between atoms: N1_2  and  N2_4 
REMARK    2  A    between atoms: C2_6  and  C3_7 
REMARK    3  A    between atoms: C3_7  and  C4_8 
REMARK    4  A    between atoms: C4_8  and  N3_9 
ROOT
HETATM    1  N2  UNL     1      60.086  67.818  37.709  1.00  0.00    -0.317 N 
ATOM      2  H2  UNL     1      60.629  66.959  37.789  1.00  0.00     0.185 HD
HETATM    3  C2  UNL     1      60.671  68.950  37.500  1.00  0.00     0.108 C 
ENDROOT
BRANCH   3   4
HETATM    4  C3  UNL     1      59.949  70.202  37.379  1.00  0.00     0.035 C 
BRANCH   4   5
HETATM    5  C4  UNL     1      60.487  71.323  36.985  1.00  0.00     0.082 C 
BRANCH   5   6
HETATM    6  N3  UNL     1      60.536  72.537  36.604  1.00  0.00    -0.408 N 
ATOM      7  H32 UNL     1      60.175  72.407  35.658  1.00  0.00     0.155 HD
ATOM      8  H31 UNL     1      60.713  73.539  36.666  1.00  0.00     0.155 HD
ENDBRANCH   5   6
ENDBRANCH   4   5
ENDBRANCH   3   4
BRANCH   1   9
HETATM    9  N1  UNL     1      58.699  67.796  37.823  1.00  0.00    -0.341 N 
HETATM   10  C1  UNL     1      58.027  67.062  38.867  1.00  0.00     0.167 C 
ATOM     11  H1  UNL     1      58.139  68.315  37.147  1.00  0.00     0.179 HD
ENDBRANCH   1   9
TORSDOF 4
ENDMDL
MODEL 4
REMARK VINA RESULT: -3.730454861      7.124      7.557
REMARK  4 active torsions:
REMARK  status: ('A' for Active; 'I' for Inactive)
REMARK    1  A    between atoms: N1_2  and  N2_4 
REMARK    2  A    between atoms: C2_6  and  C3_7 
REMARK    3  A    between atoms: C3_7  and  C4_8 
REMARK    4  A    between atoms: C4_8  and  N3_9 
ROOT
HETATM    1  N2  UNL     1      58.072  72.364  37.014  1.00  0.00    -0.317 N 
ATOM      2  H2  UNL     1      57.062  72.475  36.935  1.00  0.00     0.185 HD
HETATM    3  C2  UNL     1      58.600  71.190  37.118  1.00  0.00     0.108 C 
ENDROOT
BRANCH   3   4
HETATM    4  C3  UNL     1      60.030  70.974  37.234  1.00  0.00     0.035 C 
BRANCH   4   5
HETATM    5  C4  UNL     1      60.590  69.798  37.296  1.00  0.00     0.082 C 
BRANCH   5   6
HETATM    6  N3  UNL     1      60.665  68.527  37.307  1.00  0.00    -0.408 N 
ATOM      7  H32 UNL     1      60.913  68.405  38.289  1.00  0.00     0.155 HD
ATOM      8  H31 UNL     1      60.629  67.576  36.940  1.00  0.00     0.155 HD
ENDBRANCH   5   6
ENDBRANCH   4   5
ENDBRANCH   3   4
BRANCH   1   9
HETATM    9  N1  UNL     1      58.912  73.475  37.013  1.00  0.00    -0.341 N 
HETATM   10  C1  UNL     1      58.866  74.469  35.970  1.00  0.00     0.167 C 
ATOM     11  H1  UNL     1      59.581  73.589  37.775  1.00  0.00     0.179 HD
ENDBRANCH   1   9
TORSDOF 4
ENDMDL
MODEL 5
REMARK VINA RESULT: -3.633345674      8.441      9.247
REMARK  4 active torsions:
REMARK  status: ('A' for Active; 'I' for Inactive)
REMARK    1  A    between atoms: N1_2  and  N2_4 
REMARK    2  A    between atoms: C2_6  and  C3_7 
REMARK    3  A    between atoms: C3_7  and  C4_8 
REMARK    4  A    between atoms: C4_8  and  N3_9 
ROOT
HETATM    1  N2  UNL     1      58.670  68.326  37.818  1.00  0.00    -0.317 N 
ATOM      2  H2  UNL     1      57.882  68.924  37.572  1.00  0.00     0.185 HD
HETATM    3  C2  UNL     1      58.493  67.255  38.515  1.00  0.00     0.108 C 
ENDROOT
BRANCH   3   4
HETATM    4  C3  UNL     1      59.577  66.368  38.893  1.00  0.00     0.035 C 
BRANCH   4   5
HETATM    5  C4  UNL     1      59.517  65.515  39.877  1.00  0.00     0.082 C 
BRANCH   5   6
HETATM    6  N3  UNL     1      59.913  64.858  40.893  1.00  0.00    -0.408 N 
ATOM      7  H32 UNL     1      59.179  65.138  41.543  1.00  0.00     0.155 HD
ATOM      8  H31 UNL     1      60.505  64.234  41.442  1.00  0.00     0.155 HD
ENDBRANCH   5   6
ENDBRANCH   4   5
ENDBRANCH   3   4
BRANCH   1   9
HETATM    9  N1  UNL     1      59.961  68.648  37.407  1.00  0.00    -0.341 N 
HETATM   10  C1  UNL     1      60.425  70.012  37.335  1.00  0.00     0.167 C 
ATOM     11  H1  UNL     1      60.599  67.896  37.149  1.00  0.00     0.179 HD
ENDBRANCH   1   9
TORSDOF 4
ENDMDL
