MODEL 1
REMARK VINA RESULT: -3.546220434      0.000      0.000
REMARK  2 active torsions:
REMARK  status: ('A' for Active; 'I' for Inactive)
REMARK    1  A    between atoms: C4_5  and  N2_6 
REMARK    2  A    between atoms: N2_6  and  C5_8 
ROOT
HETATM    1  N2  UNL     1      57.197  71.569  36.401  1.00  0.00    -0.357 N 
ATOM      2  H2  UNL     1      56.355  71.049  36.646  1.00  0.00     0.162 HD
ENDROOT
BRANCH   1   3
HETATM    3  C4  UNL     1      57.146  72.575  35.376  1.00  0.00     0.315 A 
HETATM    4  N1  UNL     1      55.922  73.356  35.378  1.00  0.00    -0.049 N 
HETATM    5  C1  UNL     1      55.980  74.772  35.144  1.00  0.00     0.274 C 
HETATM    6  C2  UNL     1      54.805  72.847  36.168  1.00  0.00     0.274 C 
HETATM    7  C3  UNL     1      56.300  72.478  34.207  1.00  0.00     0.293 A 
ENDBRANCH   1   3
BRANCH   1   8
HETATM    8  C5  UNL     1      58.409  71.297  37.065  1.00  0.00     0.170 C 
HETATM    9  N3  UNL     1      59.208  72.221  37.486  1.00  0.00    -0.395 N 
ATOM     10  H32 UNL     1      58.933  73.189  37.320  1.00  0.00     0.156 HD
ATOM     11  H31 UNL     1      60.085  72.024  37.967  1.00  0.00     0.156 HD
ENDBRANCH   1   8
TORSDOF 2
ENDMDL
MODEL 2
REMARK VINA RESULT: -3.488313555      0.868      1.690
REMARK  2 active torsions:
REMARK  status: ('A' for Active; 'I' for Inactive)
REMARK    1  A    between atoms: C4_5  and  N2_6 
REMARK    2  A    between atoms: N2_6  and  C5_8 
ROOT
HETATM    1  N2  UNL     1      57.674  72.387  36.875  1.00  0.00    -0.357 N 
ATOM      2  H2  UNL     1      57.558  73.205  37.474  1.00  0.00     0.162 HD
ENDROOT
BRANCH   1   3
HETATM    3  C4  UNL     1      56.681  72.076  35.885  1.00  0.00     0.315 A 
HETATM    4  N1  UNL     1      56.515  73.105  34.873  1.00  0.00    -0.049 N 
HETATM    5  C1  UNL     1      56.330  72.728  33.499  1.00  0.00     0.274 C 
HETATM    6  C2  UNL     1      57.113  74.409  35.141  1.00  0.00     0.274 C 
HETATM    7  C3  UNL     1      55.393  72.734  35.815  1.00  0.00     0.293 A 
ENDBRANCH   1   3
BRANCH   1   8
HETATM    8  C5  UNL     1      58.808  71.565  37.021  1.00  0.00     0.170 C 
HETATM    9  N3  UNL     1      60.010  72.029  37.127  1.00  0.00    -0.395 N 
ATOM     10  H32 UNL     1      60.125  73.042  37.103  1.00  0.00     0.156 HD
ATOM     11  H31 UNL     1      60.831  71.433  37.233  1.00  0.00     0.156 HD
ENDBRANCH   1   8
TORSDOF 2
ENDMDL
MODEL 3
REMARK VINA RESULT: -3.451257200      1.109      1.359
REMARK  2 active torsions:
REMARK  status: ('A' for Active; 'I' for Inactive)
REMARK    1  A    between atoms: C4_5  and  N2_6 
REMARK    2  A    between atoms: N2_6  and  C5_8 
ROOT
HETATM    1  N2  UNL     1      56.711  72.091  36.151  1.00  0.00    -0.357 N 
ATOM      2  H2  UNL     1      55.732  72.197  36.415  1.00  0.00     0.162 HD
ENDROOT
BRANCH   1   3
HETATM    3  C4  UNL     1      57.135  72.428  34.820  1.00  0.00     0.315 A 
HETATM    4  N1  UNL     1      56.862  73.804  34.445  1.00  0.00    -0.049 N 
HETATM    5  C1  UNL     1      57.839  74.544  33.695  1.00  0.00     0.274 C 
HETATM    6  C2  UNL     1      55.949  74.560  35.296  1.00  0.00     0.274 C 
HETATM    7  C3  UNL     1      56.217  72.644  33.723  1.00  0.00     0.293 A 
ENDBRANCH   1   3
BRANCH   1   8
HETATM    8  C5  UNL     1      57.644  71.613  37.091  1.00  0.00     0.170 C 
HETATM    9  N3  UNL     1      58.622  72.326  37.543  1.00  0.00    -0.395 N 
ATOM     10  H32 UNL     1      58.708  73.280  37.192  1.00  0.00     0.156 HD
ATOM     11  H31 UNL     1      59.298  71.980  38.223  1.00  0.00     0.156 HD
ENDBRANCH   1   8
TORSDOF 2
ENDMDL
MODEL 4
REMARK VINA RESULT: -3.420862531      1.500      1.800
REMARK  2 active torsions:
REMARK  status: ('A' for Active; 'I' for Inactive)
REMARK    1  A    between atoms: C4_5  and  N2_6 
REMARK    2  A    between atoms: N2_6  and  C5_8 
ROOT
HETATM    1  N2  UNL     1      57.653  73.196  36.159  1.00  0.00    -0.357 N 
ATOM      2  H2  UNL     1      57.249  73.939  36.729  1.00  0.00     0.162 HD
ENDROOT
BRANCH   1   3
HETATM    3  C4  UNL     1      57.591  73.277  34.726  1.00  0.00     0.315 A 
HETATM    4  N1  UNL     1      56.819  74.404  34.233  1.00  0.00    -0.049 N 
HETATM    5  C1  UNL     1      57.288  75.145  33.095  1.00  0.00     0.274 C 
HETATM    6  C2  UNL     1      55.970  75.104  35.191  1.00  0.00     0.274 C 
HETATM    7  C3  UNL     1      56.399  72.977  33.963  1.00  0.00     0.293 A 
ENDBRANCH   1   3
BRANCH   1   8
HETATM    8  C5  UNL     1      58.270  72.092  36.779  1.00  0.00     0.170 C 
HETATM    9  N3  UNL     1      57.662  70.973  36.999  1.00  0.00    -0.395 N 
ATOM     10  H32 UNL     1      56.689  70.902  36.703  1.00  0.00     0.156 HD
ATOM     11  H31 UNL     1      58.110  70.173  37.448  1.00  0.00     0.156 HD
ENDBRANCH   1   8
TORSDOF 2
ENDMDL
MODEL 5
REMARK VINA RESULT: -3.414844223      1.064      1.743
REMARK  2 active torsions:
REMARK  status: ('A' for Active; 'I' for Inactive)
REMARK    1  A    between atoms: C4_5  and  N2_6 
REMARK    2  A    between atoms: N2_6  and  C5_8 
ROOT
HETATM    1  N2  UNL     1      57.813  72.707  36.502  1.00  0.00    -0.357 N 
ATOM      2  H2  UNL     1      58.009  73.682  36.728  1.00  0.00     0.162 HD
ENDROOT
BRANCH   1   3
HETATM    3  C4  UNL     1      56.851  72.388  35.484  1.00  0.00     0.315 A 
HETATM    4  N1  UNL     1      56.436  73.528  34.686  1.00  0.00    -0.049 N 
HETATM    5  C1  UNL     1      56.259  73.378  33.268  1.00  0.00     0.274 C 
HETATM    6  C2  UNL     1      56.779  74.855  35.187  1.00  0.00     0.274 C 
HETATM    7  C3  UNL     1      55.458  72.773  35.556  1.00  0.00     0.293 A 
ENDBRANCH   1   3
BRANCH   1   8
HETATM    8  C5  UNL     1      58.484  71.677  37.189  1.00  0.00     0.170 C 
HETATM    9  N3  UNL     1      58.051  70.461  37.240  1.00  0.00    -0.395 N 
ATOM     10  H32 UNL     1      57.179  70.254  36.753  1.00  0.00     0.156 HD
ATOM     11  H31 UNL     1      58.537  69.715  37.738  1.00  0.00     0.156 HD
ENDBRANCH   1   8
TORSDOF 2
ENDMDL
