MODEL 1
REMARK VINA RESULT: -2.924964851      0.000      0.000
REMARK  3 active torsions:
REMARK  status: ('A' for Active; 'I' for Inactive)
REMARK    1  A    between atoms: N1_2  and  C4_5 
REMARK    2  A    between atoms: C4_5  and  N2_6 
REMARK    3  A    between atoms: N2_6  and  N3_7 
ROOT
HETATM    1  C4  UNL     1      57.803  73.042  35.476  1.00  0.00     0.369 C 
ENDROOT
BRANCH   1   2
HETATM    2  N1  UNL     1      56.477  73.294  34.956  1.00  0.00    -0.064 N 
HETATM    3  C1  UNL     1      56.365  72.799  33.605  1.00  0.00     0.273 C 
HETATM    4  C2  UNL     1      55.460  72.586  35.734  1.00  0.00     0.273 C 
HETATM    5  C3  UNL     1      56.148  74.701  35.060  1.00  0.00     0.273 C 
ENDBRANCH   1   2
BRANCH   1   6
HETATM    6  N2  UNL     1      57.802  72.011  36.512  1.00  0.00    -0.120 NA
BRANCH   6   7
HETATM    7  N3  UNL     1      58.660  72.369  37.571  1.00  0.00    -0.347 N 
ATOM      8  H32 UNL     1      59.661  72.176  37.582  1.00  0.00     0.172 HD
ATOM      9  H31 UNL     1      58.140  72.842  38.309  1.00  0.00     0.172 HD
ENDBRANCH   6   7
ENDBRANCH   1   6
TORSDOF 3
ENDMDL
MODEL 2
REMARK VINA RESULT: -2.913981048      0.974      1.876
REMARK  3 active torsions:
REMARK  status: ('A' for Active; 'I' for Inactive)
REMARK    1  A    between atoms: N1_2  and  C4_5 
REMARK    2  A    between atoms: C4_5  and  N2_6 
REMARK    3  A    between atoms: N2_6  and  N3_7 
ROOT
HETATM    1  C4  UNL     1      57.379  72.394  35.865  1.00  0.00     0.369 C 
ENDROOT
BRANCH   1   2
HETATM    2  N1  UNL     1      56.227  72.916  35.162  1.00  0.00    -0.064 N 
HETATM    3  C1  UNL     1      55.024  72.681  35.925  1.00  0.00     0.273 C 
HETATM    4  C2  UNL     1      56.322  74.366  34.991  1.00  0.00     0.273 C 
HETATM    5  C3  UNL     1      56.152  72.363  33.825  1.00  0.00     0.273 C 
ENDBRANCH   1   2
BRANCH   1   6
HETATM    6  N2  UNL     1      57.000  71.505  36.960  1.00  0.00    -0.120 NA
BRANCH   6   7
HETATM    7  N3  UNL     1      58.004  70.544  37.190  1.00  0.00    -0.347 N 
ATOM      8  H32 UNL     1      58.615  70.544  38.008  1.00  0.00     0.172 HD
ATOM      9  H31 UNL     1      58.030  69.863  36.432  1.00  0.00     0.172 HD
ENDBRANCH   6   7
ENDBRANCH   1   6
TORSDOF 3
ENDMDL
MODEL 3
REMARK VINA RESULT: -2.912941886      0.984      1.696
REMARK  3 active torsions:
REMARK  status: ('A' for Active; 'I' for Inactive)
REMARK    1  A    between atoms: N1_2  and  C4_5 
REMARK    2  A    between atoms: C4_5  and  N2_6 
REMARK    3  A    between atoms: N2_6  and  N3_7 
ROOT
HETATM    1  C4  UNL     1      57.408  72.395  35.879  1.00  0.00     0.369 C 
ENDROOT
BRANCH   1   2
HETATM    2  N1  UNL     1      56.277  72.947  35.165  1.00  0.00    -0.064 N 
HETATM    3  C1  UNL     1      56.483  74.353  34.909  1.00  0.00     0.273 C 
HETATM    4  C2  UNL     1      56.118  72.316  33.854  1.00  0.00     0.273 C 
HETATM    5  C3  UNL     1      55.046  72.689  35.881  1.00  0.00     0.273 C 
ENDBRANCH   1   2
BRANCH   1   6
HETATM    6  N2  UNL     1      56.994  71.499  36.957  1.00  0.00    -0.120 NA
BRANCH   6   7
HETATM    7  N3  UNL     1      57.986  70.529  37.205  1.00  0.00    -0.347 N 
ATOM      8  H32 UNL     1      58.423  69.964  36.477  1.00  0.00     0.172 HD
ATOM      9  H31 UNL     1      58.198  70.479  38.201  1.00  0.00     0.172 HD
ENDBRANCH   6   7
ENDBRANCH   1   6
TORSDOF 3
ENDMDL
MODEL 4
REMARK VINA RESULT: -2.897281265      1.583      2.508
REMARK  3 active torsions:
REMARK  status: ('A' for Active; 'I' for Inactive)
REMARK    1  A    between atoms: N1_2  and  C4_5 
REMARK    2  A    between atoms: C4_5  and  N2_6 
REMARK    3  A    between atoms: N2_6  and  N3_7 
ROOT
HETATM    1  C4  UNL     1      56.184  72.422  35.988  1.00  0.00     0.369 C 
ENDROOT
BRANCH   1   2
HETATM    2  N1  UNL     1      56.735  73.302  34.980  1.00  0.00    -0.064 N 
HETATM    3  C1  UNL     1      56.432  72.805  33.659  1.00  0.00     0.273 C 
HETATM    4  C2  UNL     1      56.138  74.636  35.057  1.00  0.00     0.273 C 
HETATM    5  C3  UNL     1      58.155  73.491  35.188  1.00  0.00     0.273 C 
ENDBRANCH   1   2
BRANCH   1   6
HETATM    6  N2  UNL     1      54.723  72.410  35.969  1.00  0.00    -0.120 NA
BRANCH   6   7
HETATM    7  N3  UNL     1      54.207  72.799  37.221  1.00  0.00    -0.347 N 
ATOM      8  H32 UNL     1      54.471  73.658  37.703  1.00  0.00     0.172 HD
ATOM      9  H31 UNL     1      53.543  72.107  37.567  1.00  0.00     0.172 HD
ENDBRANCH   6   7
ENDBRANCH   1   6
TORSDOF 3
ENDMDL
MODEL 5
REMARK VINA RESULT: -2.884867732      0.135      1.510
REMARK  3 active torsions:
REMARK  status: ('A' for Active; 'I' for Inactive)
REMARK    1  A    between atoms: N1_2  and  C4_5 
REMARK    2  A    between atoms: C4_5  and  N2_6 
REMARK    3  A    between atoms: N2_6  and  N3_7 
ROOT
HETATM    1  C4  UNL     1      57.842  73.142  35.480  1.00  0.00     0.369 C 
ENDROOT
BRANCH   1   2
HETATM    2  N1  UNL     1      56.514  73.365  34.951  1.00  0.00    -0.064 N 
HETATM    3  C1  UNL     1      55.539  72.617  35.710  1.00  0.00     0.273 C 
HETATM    4  C2  UNL     1      56.126  74.771  35.068  1.00  0.00     0.273 C 
HETATM    5  C3  UNL     1      56.470  73.058  33.537  1.00  0.00     0.273 C 
ENDBRANCH   1   2
BRANCH   1   6
HETATM    6  N2  UNL     1      57.870  72.060  36.461  1.00  0.00    -0.120 NA
BRANCH   6   7
HETATM    7  N3  UNL     1      58.702  72.395  37.547  1.00  0.00    -0.347 N 
ATOM      8  H32 UNL     1      58.572  73.222  38.129  1.00  0.00     0.172 HD
ATOM      9  H31 UNL     1      59.440  71.701  37.662  1.00  0.00     0.172 HD
ENDBRANCH   6   7
ENDBRANCH   1   6
TORSDOF 3
ENDMDL
