MODEL 1
REMARK VINA RESULT: -4.354496433      0.000      0.000
REMARK  2 active torsions:
REMARK  status: ('A' for Active; 'I' for Inactive)
REMARK    1  A    between atoms: C2_2  and  N1_3 
REMARK    2  A    between atoms: N2_5  and  N3_7 
ROOT
HETATM    1  N1  UNL     1      52.284  73.223  38.962  1.00  0.00    -0.317 N 
HETATM    2  C3  UNL     1      53.033  72.960  37.755  1.00  0.00     0.172 C 
HETATM    3  N2  UNL     1      52.261  74.384  39.416  1.00  0.00    -0.231 N 
ATOM      4  H2  UNL     1      51.732  74.536  40.276  1.00  0.00     0.209 HD
ENDROOT
BRANCH   3   5
HETATM    5  N3  UNL     1      52.884  75.480  38.865  1.00  0.00    -0.235 N 
HETATM    6  N4  UNL     1      52.237  76.555  38.666  1.00  0.00    -0.330 N 
ATOM      7  H42 UNL     1      51.250  76.589  38.921  1.00  0.00     0.178 HD
ATOM      8  H41 UNL     1      52.699  77.368  38.257  1.00  0.00     0.178 HD
ATOM      9  H3  UNL     1      53.871  75.429  38.615  1.00  0.00     0.209 HD
ENDBRANCH   3   5
BRANCH   1  10
HETATM   10  C2  UNL     1      51.569  72.196  39.673  1.00  0.00     0.139 C 
HETATM   11  C1  UNL     1      52.459  71.208  40.380  1.00  0.00     0.028 C 
ENDBRANCH   1  10
TORSDOF 2
ENDMDL
MODEL 2
REMARK VINA RESULT: -4.226213279      1.887      2.505
REMARK  2 active torsions:
REMARK  status: ('A' for Active; 'I' for Inactive)
REMARK    1  A    between atoms: C2_2  and  N1_3 
REMARK    2  A    between atoms: N2_5  and  N3_7 
ROOT
HETATM    1  N1  UNL     1      52.288  73.158  38.859  1.00  0.00    -0.317 N 
HETATM    2  C3  UNL     1      52.033  74.579  38.806  1.00  0.00     0.172 C 
HETATM    3  N2  UNL     1      53.171  72.676  38.122  1.00  0.00    -0.231 N 
ATOM      4  H2  UNL     1      53.319  71.668  38.174  1.00  0.00     0.209 HD
ENDROOT
BRANCH   3   5
HETATM    5  N3  UNL     1      53.963  73.379  37.243  1.00  0.00    -0.235 N 
HETATM    6  N4  UNL     1      54.817  72.775  36.522  1.00  0.00    -0.330 N 
ATOM      7  H42 UNL     1      54.902  71.762  36.606  1.00  0.00     0.178 HD
ATOM      8  H41 UNL     1      55.404  73.296  35.870  1.00  0.00     0.178 HD
ATOM      9  H3  UNL     1      53.865  74.391  37.171  1.00  0.00     0.209 HD
ENDBRANCH   3   5
BRANCH   1  10
HETATM   10  C2  UNL     1      51.556  72.268  39.721  1.00  0.00     0.139 C 
HETATM   11  C1  UNL     1      52.407  71.212  40.376  1.00  0.00     0.028 C 
ENDBRANCH   1  10
TORSDOF 2
ENDMDL
MODEL 3
REMARK VINA RESULT: -3.979468656      7.363      7.918
REMARK  2 active torsions:
REMARK  status: ('A' for Active; 'I' for Inactive)
REMARK    1  A    between atoms: C2_2  and  N1_3 
REMARK    2  A    between atoms: N2_5  and  N3_7 
ROOT
HETATM    1  N1  UNL     1      59.457  69.136  37.570  1.00  0.00    -0.317 N 
HETATM    2  C3  UNL     1      60.671  69.869  37.292  1.00  0.00     0.172 C 
HETATM    3  N2  UNL     1      58.360  69.711  37.423  1.00  0.00    -0.231 N 
ATOM      4  H2  UNL     1      57.522  69.170  37.638  1.00  0.00     0.209 HD
ENDROOT
BRANCH   3   5
HETATM    5  N3  UNL     1      58.175  71.006  36.999  1.00  0.00    -0.235 N 
HETATM    6  N4  UNL     1      57.020  71.534  37.026  1.00  0.00    -0.330 N 
ATOM      7  H42 UNL     1      56.235  70.980  37.369  1.00  0.00     0.178 HD
ATOM      8  H41 UNL     1      56.883  72.495  36.712  1.00  0.00     0.178 HD
ATOM      9  H3  UNL     1      58.971  71.546  36.659  1.00  0.00     0.209 HD
ENDBRANCH   3   5
BRANCH   1  10
HETATM   10  C2  UNL     1      59.460  67.770  38.022  1.00  0.00     0.139 C 
HETATM   11  C1  UNL     1      58.128  67.294  38.540  1.00  0.00     0.028 C 
ENDBRANCH   1  10
TORSDOF 2
ENDMDL
MODEL 4
REMARK VINA RESULT: -3.886809271      7.481      8.537
REMARK  2 active torsions:
REMARK  status: ('A' for Active; 'I' for Inactive)
REMARK    1  A    between atoms: C2_2  and  N1_3 
REMARK    2  A    between atoms: N2_5  and  N3_7 
ROOT
HETATM    1  N1  UNL     1      58.950  70.412  37.293  1.00  0.00    -0.317 N 
HETATM    2  C3  UNL     1      60.394  70.466  37.305  1.00  0.00     0.172 C 
HETATM    3  N2  UNL     1      58.386  69.324  37.521  1.00  0.00    -0.231 N 
ATOM      4  H2  UNL     1      57.366  69.316  37.494  1.00  0.00     0.209 HD
ENDROOT
BRANCH   3   5
HETATM    5  N3  UNL     1      59.012  68.132  37.805  1.00  0.00    -0.235 N 
HETATM    6  N4  UNL     1      58.346  67.145  38.248  1.00  0.00    -0.330 N 
ATOM      7  H42 UNL     1      57.342  67.253  38.389  1.00  0.00     0.178 HD
ATOM      8  H41 UNL     1      58.811  66.261  38.459  1.00  0.00     0.178 HD
ATOM      9  H3  UNL     1      60.017  68.041  37.660  1.00  0.00     0.209 HD
ENDBRANCH   3   5
BRANCH   1  10
HETATM   10  C2  UNL     1      58.131  71.563  37.016  1.00  0.00     0.139 C 
HETATM   11  C1  UNL     1      58.908  72.775  36.573  1.00  0.00     0.028 C 
ENDBRANCH   1  10
TORSDOF 2
ENDMDL
MODEL 5
REMARK VINA RESULT: -3.842884669      6.427      6.761
REMARK  2 active torsions:
REMARK  status: ('A' for Active; 'I' for Inactive)
REMARK    1  A    between atoms: C2_2  and  N1_3 
REMARK    2  A    between atoms: N2_5  and  N3_7 
ROOT
HETATM    1  N1  UNL     1      57.571  72.843  35.583  1.00  0.00    -0.317 N 
HETATM    2  C3  UNL     1      57.384  74.044  34.801  1.00  0.00     0.172 C 
HETATM    3  N2  UNL     1      56.706  71.947  35.526  1.00  0.00    -0.231 N 
ATOM      4  H2  UNL     1      56.861  71.116  36.098  1.00  0.00     0.209 HD
ENDROOT
BRANCH   3   5
HETATM    5  N3  UNL     1      55.561  71.975  34.765  1.00  0.00    -0.235 N 
HETATM    6  N4  UNL     1      55.461  71.251  33.725  1.00  0.00    -0.330 N 
ATOM      7  H42 UNL     1      56.245  70.651  33.467  1.00  0.00     0.178 HD
ATOM      8  H41 UNL     1      54.611  71.272  33.160  1.00  0.00     0.178 HD
ATOM      9  H3  UNL     1      54.786  72.580  35.036  1.00  0.00     0.209 HD
ENDBRANCH   3   5
BRANCH   1  10
HETATM   10  C2  UNL     1      58.712  72.640  36.436  1.00  0.00     0.139 C 
HETATM   11  C1  UNL     1      58.731  71.301  37.126  1.00  0.00     0.028 C 
ENDBRANCH   1  10
TORSDOF 2
ENDMDL
