MODEL 1
REMARK VINA RESULT: -4.044755946      0.000      0.000
REMARK  2 active torsions:
REMARK  status: ('A' for Active; 'I' for Inactive)
REMARK    1  A    between atoms: N1_2  and  N2_4 
REMARK    2  A    between atoms: C2_6  and  N3_7 
ROOT
HETATM    1  N2  UNL     1      52.352  73.973  39.474  1.00  0.00    -0.300 N 
ATOM      2  H2  UNL     1      52.367  74.196  40.470  1.00  0.00     0.187 HD
HETATM    3  C2  UNL     1      52.418  74.922  38.602  1.00  0.00     0.212 C 
ENDROOT
BRANCH   3   4
HETATM    4  N3  UNL     1      52.512  76.292  38.965  1.00  0.00    -0.301 N 
HETATM    5  N4  UNL     1      52.211  77.223  38.172  1.00  0.00    -0.344 N 
ATOM      6  H42 UNL     1      51.890  76.967  37.239  1.00  0.00     0.176 HD
ATOM      7  H41 UNL     1      52.278  78.208  38.433  1.00  0.00     0.176 HD
ATOM      8  H3  UNL     1      52.836  76.531  39.902  1.00  0.00     0.187 HD
ENDBRANCH   3   4
BRANCH   1   9
HETATM    9  N1  UNL     1      52.260  72.644  39.061  1.00  0.00    -0.340 N 
HETATM   10  C1  UNL     1      51.790  71.599  39.945  1.00  0.00     0.167 C 
ATOM     11  H1  UNL     1      52.533  72.402  38.109  1.00  0.00     0.179 HD
ENDBRANCH   1   9
TORSDOF 2
ENDMDL
MODEL 2
REMARK VINA RESULT: -3.959829653      1.596      4.223
REMARK  2 active torsions:
REMARK  status: ('A' for Active; 'I' for Inactive)
REMARK    1  A    between atoms: N1_2  and  N2_4 
REMARK    2  A    between atoms: C2_6  and  N3_7 
ROOT
HETATM    1  N2  UNL     1      52.319  73.580  39.709  1.00  0.00    -0.300 N 
ATOM      2  H2  UNL     1      52.609  73.998  40.593  1.00  0.00     0.187 HD
HETATM    3  C2  UNL     1      52.043  72.320  39.653  1.00  0.00     0.212 C 
ENDROOT
BRANCH   3   4
HETATM    4  N3  UNL     1      52.127  71.465  40.784  1.00  0.00    -0.301 N 
HETATM    5  N4  UNL     1      53.216  70.979  41.185  1.00  0.00    -0.344 N 
ATOM      6  H42 UNL     1      54.062  71.218  40.666  1.00  0.00     0.176 HD
ATOM      7  H41 UNL     1      53.277  70.365  41.997  1.00  0.00     0.176 HD
ATOM      8  H3  UNL     1      51.271  71.237  41.291  1.00  0.00     0.187 HD
ENDBRANCH   3   4
BRANCH   1   9
HETATM    9  N1  UNL     1      52.220  74.372  38.566  1.00  0.00    -0.340 N 
HETATM   10  C1  UNL     1      52.243  75.818  38.632  1.00  0.00     0.167 C 
ATOM     11  H1  UNL     1      52.130  73.920  37.656  1.00  0.00     0.179 HD
ENDBRANCH   1   9
TORSDOF 2
ENDMDL
MODEL 3
REMARK VINA RESULT: -3.699804338      6.248      6.850
REMARK  2 active torsions:
REMARK  status: ('A' for Active; 'I' for Inactive)
REMARK    1  A    between atoms: N1_2  and  N2_4 
REMARK    2  A    between atoms: C2_6  and  N3_7 
ROOT
HETATM    1  N2  UNL     1      56.976  71.699  36.688  1.00  0.00    -0.300 N 
ATOM      2  H2  UNL     1      56.399  70.932  37.033  1.00  0.00     0.187 HD
HETATM    3  C2  UNL     1      56.649  72.310  35.598  1.00  0.00     0.212 C 
ENDROOT
BRANCH   3   4
HETATM    4  N3  UNL     1      55.502  71.959  34.837  1.00  0.00    -0.301 N 
HETATM    5  N4  UNL     1      55.583  71.399  33.712  1.00  0.00    -0.344 N 
ATOM      6  H42 UNL     1      56.515  71.196  33.349  1.00  0.00     0.176 HD
ATOM      7  H41 UNL     1      54.759  71.147  33.165  1.00  0.00     0.176 HD
ATOM      8  H3  UNL     1      54.579  72.170  35.215  1.00  0.00     0.187 HD
ENDBRANCH   3   4
BRANCH   1   9
HETATM    9  N1  UNL     1      58.114  72.085  37.395  1.00  0.00    -0.340 N 
HETATM   10  C1  UNL     1      59.417  71.521  37.114  1.00  0.00     0.167 C 
ATOM     11  H1  UNL     1      58.025  72.785  38.132  1.00  0.00     0.179 HD
ENDBRANCH   1   9
TORSDOF 2
ENDMDL
MODEL 4
REMARK VINA RESULT: -3.602485202      8.385      9.714
REMARK  2 active torsions:
REMARK  status: ('A' for Active; 'I' for Inactive)
REMARK    1  A    between atoms: N1_2  and  N2_4 
REMARK    2  A    between atoms: C2_6  and  N3_7 
ROOT
HETATM    1  N2  UNL     1      58.684  69.214  37.425  1.00  0.00    -0.300 N 
ATOM      2  H2  UNL     1      58.127  68.364  37.517  1.00  0.00     0.187 HD
HETATM    3  C2  UNL     1      59.973  69.141  37.442  1.00  0.00     0.212 C 
ENDROOT
BRANCH   3   4
HETATM    4  N3  UNL     1      60.671  67.912  37.586  1.00  0.00    -0.301 N 
HETATM    5  N4  UNL     1      60.189  66.931  38.210  1.00  0.00    -0.344 N 
ATOM      6  H42 UNL     1      59.261  67.039  38.620  1.00  0.00     0.176 HD
ATOM      7  H41 UNL     1      60.690  66.048  38.314  1.00  0.00     0.176 HD
ATOM      8  H3  UNL     1      61.598  67.822  37.170  1.00  0.00     0.187 HD
ENDBRANCH   3   4
BRANCH   1   9
HETATM    9  N1  UNL     1      58.052  70.448  37.282  1.00  0.00    -0.340 N 
HETATM   10  C1  UNL     1      58.796  71.665  37.035  1.00  0.00     0.167 C 
ATOM     11  H1  UNL     1      57.035  70.494  37.353  1.00  0.00     0.179 HD
ENDBRANCH   1   9
TORSDOF 2
ENDMDL
MODEL 5
REMARK VINA RESULT: -3.597496052      9.128      9.886
REMARK  2 active torsions:
REMARK  status: ('A' for Active; 'I' for Inactive)
REMARK    1  A    between atoms: N1_2  and  N2_4 
REMARK    2  A    between atoms: C2_6  and  N3_7 
ROOT
HETATM    1  N2  UNL     1      54.999  78.562  47.793  1.00  0.00    -0.300 N 
ATOM      2  H2  UNL     1      54.610  77.980  48.536  1.00  0.00     0.187 HD
HETATM    3  C2  UNL     1      54.430  78.589  46.634  1.00  0.00     0.212 C 
ENDROOT
BRANCH   3   4
HETATM    4  N3  UNL     1      53.266  77.834  46.332  1.00  0.00    -0.301 N 
HETATM    5  N4  UNL     1      53.182  77.099  45.314  1.00  0.00    -0.344 N 
ATOM      6  H42 UNL     1      53.990  77.056  44.692  1.00  0.00     0.176 HD
ATOM      7  H41 UNL     1      52.346  76.557  45.097  1.00  0.00     0.176 HD
ATOM      8  H3  UNL     1      52.468  77.889  46.965  1.00  0.00     0.187 HD
ENDBRANCH   3   4
BRANCH   1   9
HETATM    9  N1  UNL     1      56.142  79.323  48.033  1.00  0.00    -0.340 N 
HETATM   10  C1  UNL     1      56.345  80.615  47.412  1.00  0.00     0.167 C 
ATOM     11  H1  UNL     1      56.855  78.960  48.665  1.00  0.00     0.179 HD
ENDBRANCH   1   9
TORSDOF 2
ENDMDL
