MODEL 1
REMARK VINA RESULT: -9.527756701      0.000      0.000
REMARK  14 active torsions:
REMARK  status: ('A' for Active; 'I' for Inactive)
REMARK    1  A    between atoms: C2_2  and  C3_3 
REMARK    2  A    between atoms: N2_9  and  N3_10 
REMARK       I    between atoms: N3_10  and  C6_12 
REMARK    3  A    between atoms: C6_12  and  C7_14 
REMARK    4  A    between atoms: C7_14  and  N4_15 
REMARK    5  A    between atoms: C12_21  and  C13_22 
REMARK    6  A    between atoms: C13_22  and  C14_23 
REMARK    7  A    between atoms: C14_23  and  C15_24 
REMARK    8  A    between atoms: C15_24  and  N5_25 
REMARK       I    between atoms: N5_25  and  C16_27 
REMARK    9  A    between atoms: C16_27  and  C17_29 
REMARK   10  A    between atoms: C17_29  and  C18_30 
REMARK   11  A    between atoms: C18_30  and  C19_31 
REMARK   12  A    between atoms: C19_31  and  C20_32 
REMARK   13  A    between atoms: C20_32  and  C21_33 
REMARK   14  A    between atoms: C21_33  and  N6_34 
REMARK       I    between atoms: N6_34  and  C22_36 
ROOT
HETATM    1  N4  UNL     1     -13.187  -7.218  18.630  1.00  0.00    -0.261 N 
HETATM    2  C8  UNL     1     -13.675  -6.262  17.690  1.00  0.00     0.228 C 
HETATM    3  O3  UNL     1     -14.800  -5.761  18.019  1.00  0.00    -0.273 OA
HETATM    4  C9  UNL     1     -13.125  -5.753  16.430  1.00  0.00     0.113 C 
HETATM    5  C10 UNL     1     -11.656  -5.477  16.436  1.00  0.00     0.036 C 
HETATM    6  C11 UNL     1     -11.299  -4.332  17.386  1.00  0.00     0.016 C 
HETATM    7  C12 UNL     1     -10.789  -6.629  16.713  1.00  0.00    -0.005 C 
HETATM    8  N9  UNL     1     -10.846  -7.497  17.662  1.00  0.00    -0.316 N 
ATOM      9  H9  UNL     1     -10.126  -8.219  17.649  1.00  0.00     0.170 HD
HETATM   10  C23 UNL     1     -11.787  -7.575  18.725  1.00  0.00     0.329 C 
HETATM   11  O5  UNL     1     -11.452  -7.974  19.852  1.00  0.00    -0.246 OA
ENDROOT
BRANCH   7  12
HETATM   12  C13 UNL     1      -9.656  -6.856  15.795  1.00  0.00     0.054 C 
BRANCH  12  13
HETATM   13  C14 UNL     1      -9.901  -7.914  14.750  1.00  0.00     0.025 C 
BRANCH  13  14
HETATM   14  C15 UNL     1      -9.266  -7.594  13.426  1.00  0.00     0.123 C 
BRANCH  14  15
HETATM   15  N5  UNL     1     -10.148  -6.745  12.655  1.00  0.00    -0.361 N 
HETATM   16  C16 UNL     1     -10.102  -6.636  11.256  1.00  0.00     0.217 C 
HETATM   17  O4  UNL     1      -9.280  -7.301  10.540  1.00  0.00    -0.274 OA
ATOM     18  H5  UNL     1     -10.844  -6.194  13.157  1.00  0.00     0.162 HD
BRANCH  16  19
HETATM   19  C17 UNL     1     -11.017  -5.729  10.487  1.00  0.00     0.103 C 
BRANCH  19  20
HETATM   20  C18 UNL     1     -12.335  -5.563  11.219  1.00  0.00     0.009 C 
BRANCH  20  21
HETATM   21  C19 UNL     1     -12.478  -4.137  11.645  1.00  0.00     0.002 C 
BRANCH  21  22
HETATM   22  C20 UNL     1     -12.388  -3.990  13.155  1.00  0.00     0.020 C 
BRANCH  22  23
HETATM   23  C21 UNL     1     -12.821  -2.650  13.635  1.00  0.00     0.122 C 
BRANCH  23  24
HETATM   24  N6  UNL     1     -14.211  -2.338  13.481  1.00  0.00    -0.365 N 
HETATM   25  C22 UNL     1     -15.086  -2.459  14.587  1.00  0.00     0.181 C 
HETATM   26  N7  UNL     1     -15.527  -3.607  14.958  1.00  0.00    -0.374 N 
HETATM   27  N8  UNL     1     -15.500  -1.306  15.298  1.00  0.00    -0.064 NA
ATOM     28  H72 UNL     1     -15.229  -4.437  14.446  1.00  0.00     0.158 HD
ATOM     29  H71 UNL     1     -16.158  -3.694  15.755  1.00  0.00     0.158 HD
ATOM     30  H6  UNL     1     -14.569  -2.030  12.577  1.00  0.00     0.162 HD
ENDBRANCH  23  24
ENDBRANCH  22  23
ENDBRANCH  21  22
ENDBRANCH  20  21
ENDBRANCH  19  20
ENDBRANCH  16  19
ENDBRANCH  14  15
ENDBRANCH  13  14
ENDBRANCH  12  13
ENDBRANCH   7  12
BRANCH   1  31
HETATM   31  C7  UNL     1     -14.129  -7.829  19.487  1.00  0.00     0.241 C 
BRANCH  31  32
HETATM   32  C6  UNL     1     -14.094  -7.380  20.905  1.00  0.00     0.256 C 
HETATM   33  N3  UNL     1     -13.759  -8.237  21.988  1.00  0.00    -0.246 N 
ATOM     34  H3  UNL     1     -13.524  -9.212  21.797  1.00  0.00     0.192 HD
HETATM   35  O2  UNL     1     -14.374  -6.171  21.204  1.00  0.00    -0.270 OA
BRANCH  33  36
HETATM   36  N2  UNL     1     -13.743  -7.776  23.319  1.00  0.00    -0.142 N 
HETATM   37  C5  UNL     1     -12.490  -7.716  24.038  1.00  0.00     0.355 C 
HETATM   38  N1  UNL     1     -12.823  -7.468  25.376  1.00  0.00    -0.316 N 
HETATM   39  O1  UNL     1     -11.336  -7.859  23.563  1.00  0.00    -0.244 OA
HETATM   40  C3  UNL     1     -14.268  -7.381  25.461  1.00  0.00     0.123 C 
ATOM     41  H1  UNL     1     -12.168  -7.366  26.151  1.00  0.00     0.166 HD
HETATM   42  C4  UNL     1     -14.551  -6.124  26.264  1.00  0.00     0.060 C 
HETATM   43  N10 UNL     1     -14.764  -7.333  24.130  1.00  0.00    -0.082 NA
BRANCH  40  44
HETATM   44  C2  UNL     1     -14.743  -8.576  26.252  1.00  0.00     0.046 C 
HETATM   45  C1  UNL     1     -14.387  -8.464  27.699  1.00  0.00     0.009 C 
ENDBRANCH  40  44
ENDBRANCH  33  36
ENDBRANCH  31  32
ENDBRANCH   1  31
TORSDOF 14
ENDMDL
MODEL 2
REMARK VINA RESULT: -9.463586019      2.415      3.234
REMARK  14 active torsions:
REMARK  status: ('A' for Active; 'I' for Inactive)
REMARK    1  A    between atoms: C2_2  and  C3_3 
REMARK    2  A    between atoms: N2_9  and  N3_10 
REMARK       I    between atoms: N3_10  and  C6_12 
REMARK    3  A    between atoms: C6_12  and  C7_14 
REMARK    4  A    between atoms: C7_14  and  N4_15 
REMARK    5  A    between atoms: C12_21  and  C13_22 
REMARK    6  A    between atoms: C13_22  and  C14_23 
REMARK    7  A    between atoms: C14_23  and  C15_24 
REMARK    8  A    between atoms: C15_24  and  N5_25 
REMARK       I    between atoms: N5_25  and  C16_27 
REMARK    9  A    between atoms: C16_27  and  C17_29 
REMARK   10  A    between atoms: C17_29  and  C18_30 
REMARK   11  A    between atoms: C18_30  and  C19_31 
REMARK   12  A    between atoms: C19_31  and  C20_32 
REMARK   13  A    between atoms: C20_32  and  C21_33 
REMARK   14  A    between atoms: C21_33  and  N6_34 
REMARK       I    between atoms: N6_34  and  C22_36 
ROOT
HETATM    1  N4  UNL     1     -13.202  -7.342  18.824  1.00  0.00    -0.261 N 
HETATM    2  C8  UNL     1     -13.803  -6.420  17.917  1.00  0.00     0.228 C 
HETATM    3  O3  UNL     1     -14.935  -5.989  18.313  1.00  0.00    -0.273 OA
HETATM    4  C9  UNL     1     -13.361  -5.880  16.627  1.00  0.00     0.113 C 
HETATM    5  C10 UNL     1     -11.915  -5.515  16.545  1.00  0.00     0.036 C 
HETATM    6  C11 UNL     1     -11.572  -4.348  17.475  1.00  0.00     0.016 C 
HETATM    7  C12 UNL     1     -10.963  -6.611  16.768  1.00  0.00    -0.005 C 
HETATM    8  N9  UNL     1     -10.910  -7.479  17.717  1.00  0.00    -0.316 N 
ATOM      9  H9  UNL     1     -10.149  -8.156  17.660  1.00  0.00     0.170 HD
HETATM   10  C23 UNL     1     -11.780  -7.613  18.835  1.00  0.00     0.329 C 
HETATM   11  O5  UNL     1     -11.354  -7.989  19.939  1.00  0.00    -0.246 OA
ENDROOT
BRANCH   7  12
HETATM   12  C13 UNL     1      -9.875  -6.770  15.784  1.00  0.00     0.054 C 
BRANCH  12  13
HETATM   13  C14 UNL     1     -10.052  -5.964  14.522  1.00  0.00     0.025 C 
BRANCH  13  14
HETATM   14  C15 UNL     1     -10.493  -6.794  13.349  1.00  0.00     0.123 C 
BRANCH  14  15
HETATM   15  N5  UNL     1     -11.117  -5.944  12.359  1.00  0.00    -0.361 N 
HETATM   16  C16 UNL     1     -10.772  -5.945  10.998  1.00  0.00     0.217 C 
HETATM   17  O4  UNL     1      -9.879  -6.722  10.516  1.00  0.00    -0.274 OA
ATOM     18  H5  UNL     1     -11.851  -5.307  12.667  1.00  0.00     0.162 HD
BRANCH  16  19
HETATM   19  C17 UNL     1     -11.422  -5.036   9.999  1.00  0.00     0.103 C 
BRANCH  19  20
HETATM   20  C18 UNL     1     -12.817  -4.657  10.459  1.00  0.00     0.009 C 
BRANCH  20  21
HETATM   21  C19 UNL     1     -13.504  -3.906   9.363  1.00  0.00     0.002 C 
BRANCH  21  22
HETATM   22  C20 UNL     1     -13.382  -2.404   9.549  1.00  0.00     0.020 C 
BRANCH  22  23
HETATM   23  C21 UNL     1     -12.544  -1.755   8.503  1.00  0.00     0.122 C 
BRANCH  23  24
HETATM   24  N6  UNL     1     -12.460  -2.434   7.245  1.00  0.00    -0.365 N 
HETATM   25  C22 UNL     1     -11.197  -2.657   6.648  1.00  0.00     0.181 C 
HETATM   26  N7  UNL     1     -10.585  -1.715   6.024  1.00  0.00    -0.374 N 
HETATM   27  N8  UNL     1     -10.588  -3.934   6.722  1.00  0.00    -0.064 NA
ATOM     28  H72 UNL     1     -11.023  -0.796   5.970  1.00  0.00     0.158 HD
ATOM     29  H71 UNL     1      -9.674  -1.876   5.594  1.00  0.00     0.158 HD
ATOM     30  H6  UNL     1     -13.309  -2.756   6.780  1.00  0.00     0.162 HD
ENDBRANCH  23  24
ENDBRANCH  22  23
ENDBRANCH  21  22
ENDBRANCH  20  21
ENDBRANCH  19  20
ENDBRANCH  16  19
ENDBRANCH  14  15
ENDBRANCH  13  14
ENDBRANCH  12  13
ENDBRANCH   7  12
BRANCH   1  31
HETATM   31  C7  UNL     1     -14.052  -8.009  19.734  1.00  0.00     0.241 C 
BRANCH  31  32
HETATM   32  C6  UNL     1     -13.969  -7.547  21.146  1.00  0.00     0.256 C 
HETATM   33  N3  UNL     1     -13.517  -8.372  22.213  1.00  0.00    -0.246 N 
ATOM     34  H3  UNL     1     -13.228  -9.330  22.013  1.00  0.00     0.192 HD
HETATM   35  O2  UNL     1     -14.313  -6.358  21.456  1.00  0.00    -0.270 OA
BRANCH  33  36
HETATM   36  N2  UNL     1     -13.460  -7.900  23.539  1.00  0.00    -0.142 N 
HETATM   37  C5  UNL     1     -12.173  -7.682  24.163  1.00  0.00     0.355 C 
HETATM   38  N1  UNL     1     -12.434  -7.464  25.521  1.00  0.00    -0.316 N 
HETATM   39  O1  UNL     1     -11.049  -7.688  23.603  1.00  0.00    -0.244 OA
HETATM   40  C3  UNL     1     -13.868  -7.553  25.714  1.00  0.00     0.123 C 
ATOM     41  H1  UNL     1     -11.740  -7.277  26.245  1.00  0.00     0.166 HD
HETATM   42  C4  UNL     1     -14.242  -6.332  26.536  1.00  0.00     0.060 C 
HETATM   43  N10 UNL     1     -14.464  -7.577  24.424  1.00  0.00    -0.082 NA
BRANCH  40  44
HETATM   44  C2  UNL     1     -14.134  -8.789  26.538  1.00  0.00     0.046 C 
HETATM   45  C1  UNL     1     -14.614  -8.451  27.913  1.00  0.00     0.009 C 
ENDBRANCH  40  44
ENDBRANCH  33  36
ENDBRANCH  31  32
ENDBRANCH   1  31
TORSDOF 14
ENDMDL
MODEL 3
REMARK VINA RESULT: -9.390051418      5.473      9.339
REMARK  14 active torsions:
REMARK  status: ('A' for Active; 'I' for Inactive)
REMARK    1  A    between atoms: C2_2  and  C3_3 
REMARK    2  A    between atoms: N2_9  and  N3_10 
REMARK       I    between atoms: N3_10  and  C6_12 
REMARK    3  A    between atoms: C6_12  and  C7_14 
REMARK    4  A    between atoms: C7_14  and  N4_15 
REMARK    5  A    between atoms: C12_21  and  C13_22 
REMARK    6  A    between atoms: C13_22  and  C14_23 
REMARK    7  A    between atoms: C14_23  and  C15_24 
REMARK    8  A    between atoms: C15_24  and  N5_25 
REMARK       I    between atoms: N5_25  and  C16_27 
REMARK    9  A    between atoms: C16_27  and  C17_29 
REMARK   10  A    between atoms: C17_29  and  C18_30 
REMARK   11  A    between atoms: C18_30  and  C19_31 
REMARK   12  A    between atoms: C19_31  and  C20_32 
REMARK   13  A    between atoms: C20_32  and  C21_33 
REMARK   14  A    between atoms: C21_33  and  N6_34 
REMARK       I    between atoms: N6_34  and  C22_36 
ROOT
HETATM    1  N4  UNL     1     -16.450  -9.124  26.524  1.00  0.00    -0.261 N 
HETATM    2  C8  UNL     1     -16.700  -8.459  25.287  1.00  0.00     0.228 C 
HETATM    3  O3  UNL     1     -17.922  -8.502  24.929  1.00  0.00    -0.273 OA
HETATM    4  C9  UNL     1     -15.817  -7.740  24.363  1.00  0.00     0.113 C 
HETATM    5  C10 UNL     1     -14.799  -6.855  25.004  1.00  0.00     0.036 C 
HETATM    6  C11 UNL     1     -15.452  -5.684  25.744  1.00  0.00     0.016 C 
HETATM    7  C12 UNL     1     -13.841  -7.521  25.896  1.00  0.00    -0.005 C 
HETATM    8  N9  UNL     1     -14.048  -8.344  26.864  1.00  0.00    -0.316 N 
ATOM      9  H9  UNL     1     -13.216  -8.682  27.347  1.00  0.00     0.170 HD
HETATM   10  C23 UNL     1     -15.291  -8.841  27.344  1.00  0.00     0.329 C 
HETATM   11  O5  UNL     1     -15.467  -9.074  28.551  1.00  0.00    -0.246 OA
ENDROOT
BRANCH   7  12
HETATM   12  C13 UNL     1     -12.411  -7.218  25.696  1.00  0.00     0.054 C 
BRANCH  12  13
HETATM   13  C14 UNL     1     -11.874  -7.608  24.342  1.00  0.00     0.025 C 
BRANCH  13  14
HETATM   14  C15 UNL     1     -11.367  -9.022  24.293  1.00  0.00     0.123 C 
BRANCH  14  15
HETATM   15  N5  UNL     1     -12.047  -9.746  23.243  1.00  0.00    -0.361 N 
HETATM   16  C16 UNL     1     -13.201 -10.519  23.447  1.00  0.00     0.217 C 
HETATM   17  O4  UNL     1     -13.762 -10.630  24.590  1.00  0.00    -0.274 OA
ATOM     18  H5  UNL     1     -11.667  -9.693  22.299  1.00  0.00     0.162 HD
BRANCH  16  19
HETATM   19  C17 UNL     1     -13.872 -11.278  22.341  1.00  0.00     0.103 C 
BRANCH  19  20
HETATM   20  C18 UNL     1     -15.380 -11.172  22.466  1.00  0.00     0.009 C 
BRANCH  20  21
HETATM   21  C19 UNL     1     -15.854 -10.006  21.658  1.00  0.00     0.002 C 
BRANCH  21  22
HETATM   22  C20 UNL     1     -14.759  -9.467  20.753  1.00  0.00     0.020 C 
BRANCH  22  23
HETATM   23  C21 UNL     1     -14.517  -8.010  20.938  1.00  0.00     0.122 C 
BRANCH  23  24
HETATM   24  N6  UNL     1     -13.517  -7.421  20.099  1.00  0.00    -0.365 N 
HETATM   25  C22 UNL     1     -13.904  -6.680  18.957  1.00  0.00     0.181 C 
HETATM   26  N7  UNL     1     -14.264  -7.273  17.875  1.00  0.00    -0.374 N 
HETATM   27  N8  UNL     1     -13.889  -5.264  18.987  1.00  0.00    -0.064 NA
ATOM     28  H72 UNL     1     -14.275  -8.292  17.854  1.00  0.00     0.158 HD
ATOM     29  H71 UNL     1     -14.543  -6.738  17.052  1.00  0.00     0.158 HD
ATOM     30  H6  UNL     1     -12.529  -7.534  20.324  1.00  0.00     0.162 HD
ENDBRANCH  23  24
ENDBRANCH  22  23
ENDBRANCH  21  22
ENDBRANCH  20  21
ENDBRANCH  19  20
ENDBRANCH  16  19
ENDBRANCH  14  15
ENDBRANCH  13  14
ENDBRANCH  12  13
ENDBRANCH   7  12
BRANCH   1  31
HETATM   31  C7  UNL     1     -17.385 -10.099  26.940  1.00  0.00     0.241 C 
BRANCH  31  32
HETATM   32  C6  UNL     1     -17.004 -11.511  26.670  1.00  0.00     0.256 C 
HETATM   33  N3  UNL     1     -15.757 -11.889  26.102  1.00  0.00    -0.246 N 
ATOM     34  H3  UNL     1     -15.077 -11.166  25.868  1.00  0.00     0.192 HD
HETATM   35  O2  UNL     1     -17.811 -12.460  26.947  1.00  0.00    -0.270 OA
BRANCH  33  36
HETATM   36  N2  UNL     1     -15.436 -13.239  25.855  1.00  0.00    -0.142 N 
HETATM   37  C5  UNL     1     -14.361 -13.863  26.595  1.00  0.00     0.355 C 
HETATM   38  N1  UNL     1     -14.121 -15.091  25.966  1.00  0.00    -0.316 N 
HETATM   39  O1  UNL     1     -13.762 -13.400  27.598  1.00  0.00    -0.244 OA
HETATM   40  C3  UNL     1     -15.043 -15.203  24.853  1.00  0.00     0.123 C 
ATOM     41  H1  UNL     1     -13.422 -15.781  26.240  1.00  0.00     0.166 HD
HETATM   42  C4  UNL     1     -15.653 -16.589  24.971  1.00  0.00     0.060 C 
HETATM   43  N10 UNL     1     -15.988 -14.150  24.984  1.00  0.00    -0.082 NA
BRANCH  40  44
HETATM   44  C2  UNL     1     -14.226 -15.143  23.585  1.00  0.00     0.046 C 
HETATM   45  C1  UNL     1     -15.084 -14.961  22.375  1.00  0.00     0.009 C 
ENDBRANCH  40  44
ENDBRANCH  33  36
ENDBRANCH  31  32
ENDBRANCH   1  31
TORSDOF 14
ENDMDL
MODEL 4
REMARK VINA RESULT: -9.388511288      1.996      2.232
REMARK  14 active torsions:
REMARK  status: ('A' for Active; 'I' for Inactive)
REMARK    1  A    between atoms: C2_2  and  C3_3 
REMARK    2  A    between atoms: N2_9  and  N3_10 
REMARK       I    between atoms: N3_10  and  C6_12 
REMARK    3  A    between atoms: C6_12  and  C7_14 
REMARK    4  A    between atoms: C7_14  and  N4_15 
REMARK    5  A    between atoms: C12_21  and  C13_22 
REMARK    6  A    between atoms: C13_22  and  C14_23 
REMARK    7  A    between atoms: C14_23  and  C15_24 
REMARK    8  A    between atoms: C15_24  and  N5_25 
REMARK       I    between atoms: N5_25  and  C16_27 
REMARK    9  A    between atoms: C16_27  and  C17_29 
REMARK   10  A    between atoms: C17_29  and  C18_30 
REMARK   11  A    between atoms: C18_30  and  C19_31 
REMARK   12  A    between atoms: C19_31  and  C20_32 
REMARK   13  A    between atoms: C20_32  and  C21_33 
REMARK   14  A    between atoms: C21_33  and  N6_34 
REMARK       I    between atoms: N6_34  and  C22_36 
ROOT
HETATM    1  N4  UNL     1     -13.242  -7.320  18.807  1.00  0.00    -0.261 N 
HETATM    2  C8  UNL     1     -13.901  -6.389  17.949  1.00  0.00     0.228 C 
HETATM    3  O3  UNL     1     -15.033  -6.007  18.394  1.00  0.00    -0.273 OA
HETATM    4  C9  UNL     1     -13.518  -5.796  16.664  1.00  0.00     0.113 C 
HETATM    5  C10 UNL     1     -12.087  -5.382  16.548  1.00  0.00     0.036 C 
HETATM    6  C11 UNL     1     -11.751  -4.235  17.504  1.00  0.00     0.016 C 
HETATM    7  C12 UNL     1     -11.095  -6.454  16.706  1.00  0.00    -0.005 C 
HETATM    8  N9  UNL     1     -10.984  -7.349  17.625  1.00  0.00    -0.316 N 
ATOM      9  H9  UNL     1     -10.205  -7.998  17.523  1.00  0.00     0.170 HD
HETATM   10  C23 UNL     1     -11.813  -7.545  18.765  1.00  0.00     0.329 C 
HETATM   11  O5  UNL     1     -11.340  -7.940  19.842  1.00  0.00    -0.246 OA
ENDROOT
BRANCH   7  12
HETATM   12  C13 UNL     1     -10.035  -6.547  15.684  1.00  0.00     0.054 C 
BRANCH  12  13
HETATM   13  C14 UNL     1     -10.296  -5.739  14.439  1.00  0.00     0.025 C 
BRANCH  13  14
HETATM   14  C15 UNL     1     -10.530  -6.589  13.222  1.00  0.00     0.123 C 
BRANCH  14  15
HETATM   15  N5  UNL     1     -10.848  -5.745  12.092  1.00  0.00    -0.361 N 
HETATM   16  C16 UNL     1     -12.122  -5.667  11.507  1.00  0.00     0.217 C 
HETATM   17  O4  UNL     1     -13.122  -6.331  11.946  1.00  0.00    -0.274 OA
ATOM     18  H5  UNL     1     -10.103  -5.172  11.696  1.00  0.00     0.162 HD
BRANCH  16  19
HETATM   19  C17 UNL     1     -12.415  -4.798  10.320  1.00  0.00     0.103 C 
BRANCH  19  20
HETATM   20  C18 UNL     1     -12.438  -3.337  10.729  1.00  0.00     0.009 C 
BRANCH  20  21
HETATM   21  C19 UNL     1     -13.769  -2.755  10.375  1.00  0.00     0.002 C 
BRANCH  21  22
HETATM   22  C20 UNL     1     -14.135  -1.594  11.284  1.00  0.00     0.020 C 
BRANCH  22  23
HETATM   23  C21 UNL     1     -14.305  -0.311  10.549  1.00  0.00     0.122 C 
BRANCH  23  24
HETATM   24  N6  UNL     1     -13.782   0.861  11.187  1.00  0.00    -0.365 N 
HETATM   25  C22 UNL     1     -14.665   1.789  11.786  1.00  0.00     0.181 C 
HETATM   26  N7  UNL     1     -15.316   2.638  11.073  1.00  0.00    -0.374 N 
HETATM   27  N8  UNL     1     -14.838   1.805  13.192  1.00  0.00    -0.064 NA
ATOM     28  H72 UNL     1     -15.192   2.626  10.061  1.00  0.00     0.158 HD
ATOM     29  H71 UNL     1     -15.952   3.307  11.505  1.00  0.00     0.158 HD
ATOM     30  H6  UNL     1     -12.775   1.024  11.210  1.00  0.00     0.162 HD
ENDBRANCH  23  24
ENDBRANCH  22  23
ENDBRANCH  21  22
ENDBRANCH  20  21
ENDBRANCH  19  20
ENDBRANCH  16  19
ENDBRANCH  14  15
ENDBRANCH  13  14
ENDBRANCH  12  13
ENDBRANCH   7  12
BRANCH   1  31
HETATM   31  C7  UNL     1     -14.042  -8.041  19.722  1.00  0.00     0.241 C 
BRANCH  31  32
HETATM   32  C6  UNL     1     -13.972  -7.582  21.136  1.00  0.00     0.256 C 
HETATM   33  N3  UNL     1     -13.502  -8.399  22.200  1.00  0.00    -0.246 N 
ATOM     34  H3  UNL     1     -13.189  -9.349  21.997  1.00  0.00     0.192 HD
HETATM   35  O2  UNL     1     -14.346  -6.403  21.449  1.00  0.00    -0.270 OA
BRANCH  33  36
HETATM   36  N2  UNL     1     -13.458  -7.931  23.528  1.00  0.00    -0.142 N 
HETATM   37  C5  UNL     1     -12.178  -7.689  24.156  1.00  0.00     0.355 C 
HETATM   38  N1  UNL     1     -12.448  -7.481  25.515  1.00  0.00    -0.316 N 
HETATM   39  O1  UNL     1     -11.052  -7.670  23.600  1.00  0.00    -0.244 OA
HETATM   40  C3  UNL     1     -13.881  -7.599  25.702  1.00  0.00     0.123 C 
ATOM     41  H1  UNL     1     -11.760  -7.282  26.242  1.00  0.00     0.166 HD
HETATM   42  C4  UNL     1     -14.282  -6.389  26.527  1.00  0.00     0.060 C 
HETATM   43  N10 UNL     1     -14.471  -7.631  24.411  1.00  0.00    -0.082 NA
BRANCH  40  44
HETATM   44  C2  UNL     1     -14.124  -8.843  26.522  1.00  0.00     0.046 C 
HETATM   45  C1  UNL     1     -14.620  -8.520  27.894  1.00  0.00     0.009 C 
ENDBRANCH  40  44
ENDBRANCH  33  36
ENDBRANCH  31  32
ENDBRANCH   1  31
TORSDOF 14
ENDMDL
MODEL 5
REMARK VINA RESULT: -9.323263497      3.739     10.065
REMARK  14 active torsions:
REMARK  status: ('A' for Active; 'I' for Inactive)
REMARK    1  A    between atoms: C2_2  and  C3_3 
REMARK    2  A    between atoms: N2_9  and  N3_10 
REMARK       I    between atoms: N3_10  and  C6_12 
REMARK    3  A    between atoms: C6_12  and  C7_14 
REMARK    4  A    between atoms: C7_14  and  N4_15 
REMARK    5  A    between atoms: C12_21  and  C13_22 
REMARK    6  A    between atoms: C13_22  and  C14_23 
REMARK    7  A    between atoms: C14_23  and  C15_24 
REMARK    8  A    between atoms: C15_24  and  N5_25 
REMARK       I    between atoms: N5_25  and  C16_27 
REMARK    9  A    between atoms: C16_27  and  C17_29 
REMARK   10  A    between atoms: C17_29  and  C18_30 
REMARK   11  A    between atoms: C18_30  and  C19_31 
REMARK   12  A    between atoms: C19_31  and  C20_32 
REMARK   13  A    between atoms: C20_32  and  C21_33 
REMARK   14  A    between atoms: C21_33  and  N6_34 
REMARK       I    between atoms: N6_34  and  C22_36 
ROOT
HETATM    1  N4  UNL     1     -15.578 -10.318  22.337  1.00  0.00    -0.261 N 
HETATM    2  C8  UNL     1     -15.797 -10.192  23.742  1.00  0.00     0.228 C 
HETATM    3  O3  UNL     1     -16.762  -9.413  24.035  1.00  0.00    -0.273 OA
HETATM    4  C9  UNL     1     -15.123 -10.792  24.898  1.00  0.00     0.113 C 
HETATM    5  C10 UNL     1     -14.765 -12.235  24.756  1.00  0.00     0.036 C 
HETATM    6  C11 UNL     1     -16.010 -13.121  24.661  1.00  0.00     0.016 C 
HETATM    7  C12 UNL     1     -13.849 -12.563  23.656  1.00  0.00    -0.005 C 
HETATM    8  N9  UNL     1     -13.898 -12.233  22.413  1.00  0.00    -0.316 N 
ATOM      9  H9  UNL     1     -13.138 -12.581  21.829  1.00  0.00     0.170 HD
HETATM   10  C23 UNL     1     -14.879 -11.443  21.752  1.00  0.00     0.329 C 
HETATM   11  O5  UNL     1     -15.211 -11.679  20.580  1.00  0.00    -0.246 OA
ENDROOT
BRANCH   7  12
HETATM   12  C13 UNL     1     -12.685 -13.412  23.979  1.00  0.00     0.054 C 
BRANCH  12  13
HETATM   13  C14 UNL     1     -11.565 -12.693  24.685  1.00  0.00     0.025 C 
BRANCH  13  14
HETATM   14  C15 UNL     1     -10.950 -11.600  23.857  1.00  0.00     0.123 C 
BRANCH  14  15
HETATM   15  N5  UNL     1     -11.413 -10.313  24.328  1.00  0.00    -0.361 N 
HETATM   16  C16 UNL     1     -11.959  -9.325  23.493  1.00  0.00     0.217 C 
HETATM   17  O4  UNL     1     -12.110  -9.493  22.236  1.00  0.00    -0.274 OA
ATOM     18  H5  UNL     1     -11.340 -10.112  25.325  1.00  0.00     0.162 HD
BRANCH  16  19
HETATM   19  C17 UNL     1     -12.410  -7.991  24.009  1.00  0.00     0.103 C 
BRANCH  19  20
HETATM   20  C18 UNL     1     -12.632  -8.052  25.509  1.00  0.00     0.009 C 
BRANCH  20  21
HETATM   21  C19 UNL     1     -13.461  -6.879  25.925  1.00  0.00     0.002 C 
BRANCH  21  22
HETATM   22  C20 UNL     1     -14.864  -7.297  26.329  1.00  0.00     0.020 C 
BRANCH  22  23
HETATM   23  C21 UNL     1     -15.925  -6.589  25.561  1.00  0.00     0.122 C 
BRANCH  23  24
HETATM   24  N6  UNL     1     -17.174  -6.393  26.235  1.00  0.00    -0.365 N 
HETATM   25  C22 UNL     1     -18.055  -7.485  26.414  1.00  0.00     0.181 C 
HETATM   26  N7  UNL     1     -18.799  -7.900  25.451  1.00  0.00    -0.374 N 
HETATM   27  N8  UNL     1     -18.140  -8.135  27.669  1.00  0.00    -0.064 NA
ATOM     28  H72 UNL     1     -18.738  -7.432  24.547  1.00  0.00     0.158 HD
ATOM     29  H71 UNL     1     -19.435  -8.686  25.580  1.00  0.00     0.158 HD
ATOM     30  H6  UNL     1     -17.426  -5.469  26.585  1.00  0.00     0.162 HD
ENDBRANCH  23  24
ENDBRANCH  22  23
ENDBRANCH  21  22
ENDBRANCH  20  21
ENDBRANCH  19  20
ENDBRANCH  16  19
ENDBRANCH  14  15
ENDBRANCH  13  14
ENDBRANCH  12  13
ENDBRANCH   7  12
BRANCH   1  31
HETATM   31  C7  UNL     1     -16.070  -9.286  21.507  1.00  0.00     0.241 C 
BRANCH  31  32
HETATM   32  C6  UNL     1     -15.037  -8.423  20.874  1.00  0.00     0.256 C 
HETATM   33  N3  UNL     1     -14.456  -8.701  19.607  1.00  0.00    -0.246 N 
ATOM     34  H3  UNL     1     -14.757  -9.529  19.092  1.00  0.00     0.192 HD
HETATM   35  O2  UNL     1     -14.624  -7.372  21.468  1.00  0.00    -0.270 OA
BRANCH  33  36
HETATM   36  N2  UNL     1     -13.474  -7.863  19.043  1.00  0.00    -0.142 N 
HETATM   37  C5  UNL     1     -13.869  -6.613  18.432  1.00  0.00     0.355 C 
HETATM   38  N1  UNL     1     -12.737  -6.139  17.756  1.00  0.00    -0.316 N 
HETATM   39  O1  UNL     1     -14.997  -6.064  18.490  1.00  0.00    -0.244 OA
HETATM   40  C3  UNL     1     -11.669  -7.098  17.959  1.00  0.00     0.123 C 
ATOM     41  H1  UNL     1     -12.675  -5.274  17.219  1.00  0.00     0.166 HD
HETATM   42  C4  UNL     1     -10.460  -6.276  18.370  1.00  0.00     0.060 C 
HETATM   43  N10 UNL     1     -12.107  -8.009  18.958  1.00  0.00    -0.082 NA
BRANCH  40  44
HETATM   44  C2  UNL     1     -11.384  -7.740  16.623  1.00  0.00     0.046 C 
HETATM   45  C1  UNL     1     -10.180  -7.148  15.964  1.00  0.00     0.009 C 
ENDBRANCH  40  44
ENDBRANCH  33  36
ENDBRANCH  31  32
ENDBRANCH   1  31
TORSDOF 14
ENDMDL
