MODEL 1
REMARK VINA RESULT: -8.286529807      0.000      0.000
REMARK  16 active torsions:
REMARK  status: ('A' for Active; 'I' for Inactive)
REMARK    1  A    between atoms: C2_2  and  C3_3 
REMARK    2  A    between atoms: C3_3  and  C4_4 
REMARK    3  A    between atoms: C4_4  and  C5_5 
REMARK    4  A    between atoms: C5_5  and  C6_6 
REMARK    5  A    between atoms: C6_6  and  C7_7 
REMARK    6  A    between atoms: C8_10  and  O1_11 
REMARK    7  A    between atoms: C9_13  and  C10_14 
REMARK    8  A    between atoms: C15_22  and  C16_23 
REMARK    9  A    between atoms: C16_23  and  C17_24 
REMARK   10  A    between atoms: C17_24  and  C18_25 
REMARK   11  A    between atoms: C18_25  and  C19_26 
REMARK   12  A    between atoms: C21_33  and  C22_34 
REMARK   13  A    between atoms: C22_34  and  C23_35 
REMARK   14  A    between atoms: C23_35  and  C24_36 
REMARK   15  A    between atoms: C24_36  and  C25_37 
REMARK   16  A    between atoms: C25_37  and  N4_38 
ROOT
HETATM    1  C7  UNL     1     -15.869 -12.089  26.269  1.00  0.00     0.175 C 
HETATM    2  N1  UNL     1     -15.125 -13.243  25.924  1.00  0.00    -0.359 N 
ATOM      3  H1  UNL     1     -14.971 -13.875  26.710  1.00  0.00     0.162 HD
HETATM    4  C8  UNL     1     -14.558 -13.696  24.731  1.00  0.00     0.135 C 
HETATM    5  C9  UNL     1     -13.551 -13.113  23.835  1.00  0.00     0.162 C 
HETATM    6  N2  UNL     1     -14.055 -12.996  22.469  1.00  0.00    -0.349 N 
ATOM      7  H2  UNL     1     -14.166 -13.849  21.922  1.00  0.00     0.163 HD
HETATM    8  C13 UNL     1     -14.400 -11.755  21.857  1.00  0.00     0.220 C 
HETATM    9  O2  UNL     1     -15.361 -11.766  21.048  1.00  0.00    -0.274 OA
HETATM   10  C14 UNL     1     -13.641 -10.567  22.190  1.00  0.00     0.128 C 
HETATM   11  C15 UNL     1     -13.966  -9.285  21.554  1.00  0.00     0.093 C 
HETATM   12  N3  UNL     1     -15.134  -8.589  22.024  1.00  0.00    -0.354 N 
ATOM     13  H3  UNL     1     -15.603  -8.041  21.304  1.00  0.00     0.162 HD
HETATM   14  C20 UNL     1     -15.743  -8.519  23.261  1.00  0.00     0.240 C 
HETATM   15  O5  UNL     1     -15.722  -7.411  23.928  1.00  0.00    -0.271 OA
HETATM   16  C21 UNL     1     -16.493  -9.575  24.043  1.00  0.00     0.176 C 
HETATM   17  N5  UNL     1     -15.837  -9.694  25.316  1.00  0.00    -0.346 N 
ATOM     18  H5  UNL     1     -15.821  -8.828  25.856  1.00  0.00     0.163 HD
HETATM   19  C26 UNL     1     -15.219 -10.769  25.951  1.00  0.00     0.241 C 
HETATM   20  O6  UNL     1     -13.982 -10.689  26.328  1.00  0.00    -0.271 OA
ENDROOT
BRANCH  16  21
HETATM   21  C22 UNL     1     -17.914  -8.967  24.212  1.00  0.00     0.035 C 
BRANCH  21  22
HETATM   22  C23 UNL     1     -18.533  -9.333  25.502  1.00  0.00     0.004 C 
BRANCH  22  23
HETATM   23  C24 UNL     1     -18.952  -8.167  26.324  1.00  0.00     0.027 C 
BRANCH  23  24
HETATM   24  C25 UNL     1     -17.776  -7.501  27.025  1.00  0.00     0.229 C 
BRANCH  24  25
HETATM   25  N4  UNL     1     -17.280  -6.398  26.223  1.00  0.00    -0.079 N 
ATOM     26  H43 UNL     1     -18.026  -5.939  25.700  1.00  0.00     0.274 HD
ATOM     27  H42 UNL     1     -16.992  -5.606  26.799  1.00  0.00     0.274 HD
ATOM     28  H41 UNL     1     -16.528  -6.719  25.613  1.00  0.00     0.274 HD
ENDBRANCH  24  25
ENDBRANCH  23  24
ENDBRANCH  22  23
ENDBRANCH  21  22
ENDBRANCH  16  21
BRANCH  11  29
HETATM   29  C16 UNL     1     -13.951  -9.377  20.056  1.00  0.00     0.026 C 
BRANCH  29  30
HETATM   30  C17 UNL     1     -13.099  -8.279  19.429  1.00  0.00     0.012 C 
BRANCH  30  31
HETATM   31  C18 UNL     1     -13.977  -7.383  18.554  1.00  0.00     0.113 C 
BRANCH  31  32
HETATM   32  C19 UNL     1     -14.113  -6.083  19.252  1.00  0.00     0.172 C 
HETATM   33  O3  UNL     1     -14.302  -6.009  20.500  1.00  0.00    -0.648 OA
HETATM   34  O4  UNL     1     -14.037  -4.885  18.543  1.00  0.00    -0.648 OA
ENDBRANCH  31  32
ENDBRANCH  30  31
ENDBRANCH  29  30
ENDBRANCH  11  29
BRANCH   1  35
HETATM   35  C6  UNL     1     -16.214 -11.956  27.739  1.00  0.00     0.035 C 
BRANCH  35  36
HETATM   36  C5  UNL     1     -17.614 -11.843  28.143  1.00  0.00     0.002 C 
BRANCH  36  37
HETATM   37  C4  UNL     1     -18.072 -10.729  28.989  1.00  0.00     0.000 C 
BRANCH  37  38
HETATM   38  C3  UNL     1     -19.598 -10.617  29.077  1.00  0.00    -0.000 C 
BRANCH  38  39
HETATM   39  C2  UNL     1     -20.001  -9.388  29.840  1.00  0.00    -0.005 C 
HETATM   40  C1  UNL     1     -21.443  -9.624  30.295  1.00  0.00     0.005 C 
ENDBRANCH  38  39
ENDBRANCH  37  38
ENDBRANCH  36  37
ENDBRANCH  35  36
ENDBRANCH   1  35
BRANCH   4  41
HETATM   41  O1  UNL     1     -14.971 -14.859  24.289  1.00  0.00    -0.348 OA
ATOM     42  H1  UNL     1     -14.649 -15.130  23.437  1.00  0.00     0.219 HD
ENDBRANCH   4  41
BRANCH   5  43
HETATM   43  C10 UNL     1     -12.309 -14.021  23.849  1.00  0.00     0.008 C 
HETATM   44  C11 UNL     1     -12.122 -14.814  22.615  1.00  0.00     0.012 C 
HETATM   45  C12 UNL     1     -11.072 -13.236  24.189  1.00  0.00     0.012 C 
ENDBRANCH   5  43
TORSDOF 16
ENDMDL
MODEL 2
REMARK VINA RESULT: -7.970115726      2.711      7.880
REMARK  16 active torsions:
REMARK  status: ('A' for Active; 'I' for Inactive)
REMARK    1  A    between atoms: C2_2  and  C3_3 
REMARK    2  A    between atoms: C3_3  and  C4_4 
REMARK    3  A    between atoms: C4_4  and  C5_5 
REMARK    4  A    between atoms: C5_5  and  C6_6 
REMARK    5  A    between atoms: C6_6  and  C7_7 
REMARK    6  A    between atoms: C8_10  and  O1_11 
REMARK    7  A    between atoms: C9_13  and  C10_14 
REMARK    8  A    between atoms: C15_22  and  C16_23 
REMARK    9  A    between atoms: C16_23  and  C17_24 
REMARK   10  A    between atoms: C17_24  and  C18_25 
REMARK   11  A    between atoms: C18_25  and  C19_26 
REMARK   12  A    between atoms: C21_33  and  C22_34 
REMARK   13  A    between atoms: C22_34  and  C23_35 
REMARK   14  A    between atoms: C23_35  and  C24_36 
REMARK   15  A    between atoms: C24_36  and  C25_37 
REMARK   16  A    between atoms: C25_37  and  N4_38 
ROOT
HETATM    1  C7  UNL     1     -14.309  -8.457  22.208  1.00  0.00     0.175 C 
HETATM    2  N1  UNL     1     -13.798  -9.734  21.870  1.00  0.00    -0.359 N 
ATOM      3  H1  UNL     1     -13.468  -9.795  20.907  1.00  0.00     0.162 HD
HETATM    4  C8  UNL     1     -13.653 -10.926  22.581  1.00  0.00     0.135 C 
HETATM    5  C9  UNL     1     -14.624 -11.797  23.256  1.00  0.00     0.162 C 
HETATM    6  N2  UNL     1     -14.277 -11.999  24.660  1.00  0.00    -0.349 N 
ATOM      7  H2  UNL     1     -13.474 -12.590  24.877  1.00  0.00     0.163 HD
HETATM    8  C13 UNL     1     -14.996 -11.417  25.745  1.00  0.00     0.220 C 
HETATM    9  O2  UNL     1     -14.330 -11.088  26.759  1.00  0.00    -0.274 OA
HETATM   10  C14 UNL     1     -16.428 -11.238  25.629  1.00  0.00     0.128 C 
HETATM   11  C15 UNL     1     -17.190 -10.661  26.743  1.00  0.00     0.093 C 
HETATM   12  N3  UNL     1     -17.096  -9.240  26.944  1.00  0.00    -0.354 N 
ATOM     13  H3  UNL     1     -17.178  -8.957  27.921  1.00  0.00     0.162 HD
HETATM   14  C20 UNL     1     -16.916  -8.184  26.074  1.00  0.00     0.240 C 
HETATM   15  O5  UNL     1     -17.880  -7.346  25.870  1.00  0.00    -0.271 OA
HETATM   16  C21 UNL     1     -15.709  -7.789  25.252  1.00  0.00     0.176 C 
HETATM   17  N5  UNL     1     -16.137  -7.742  23.881  1.00  0.00    -0.346 N 
ATOM     18  H5  UNL     1     -16.891  -7.079  23.704  1.00  0.00     0.163 HD
HETATM   19  C26 UNL     1     -15.715  -8.434  22.747  1.00  0.00     0.241 C 
HETATM   20  O6  UNL     1     -16.555  -9.133  22.050  1.00  0.00    -0.271 OA
ENDROOT
BRANCH  16  21
HETATM   21  C22 UNL     1     -15.363  -6.365  25.767  1.00  0.00     0.035 C 
BRANCH  21  22
HETATM   22  C23 UNL     1     -13.938  -6.228  26.133  1.00  0.00     0.004 C 
BRANCH  22  23
HETATM   23  C24 UNL     1     -13.159  -7.487  26.008  1.00  0.00     0.027 C 
BRANCH  23  24
HETATM   24  C25 UNL     1     -12.072  -7.392  24.944  1.00  0.00     0.229 C 
BRANCH  24  25
HETATM   25  N4  UNL     1     -11.556  -8.714  24.642  1.00  0.00    -0.079 N 
ATOM     26  H43 UNL     1     -12.191  -9.452  24.948  1.00  0.00     0.274 HD
ATOM     27  H42 UNL     1     -11.572  -8.910  23.640  1.00  0.00     0.274 HD
ATOM     28  H41 UNL     1     -10.623  -8.825  25.038  1.00  0.00     0.274 HD
ENDBRANCH  24  25
ENDBRANCH  23  24
ENDBRANCH  22  23
ENDBRANCH  21  22
ENDBRANCH  16  21
BRANCH  11  29
HETATM   29  C16 UNL     1     -16.971 -11.411  28.025  1.00  0.00     0.026 C 
BRANCH  29  30
HETATM   30  C17 UNL     1     -17.664 -10.735  29.202  1.00  0.00     0.012 C 
BRANCH  30  31
HETATM   31  C18 UNL     1     -19.181 -10.868  29.052  1.00  0.00     0.113 C 
BRANCH  31  32
HETATM   32  C19 UNL     1     -19.780  -9.581  29.474  1.00  0.00     0.172 C 
HETATM   33  O3  UNL     1     -20.677  -9.518  30.363  1.00  0.00    -0.648 OA
HETATM   34  O4  UNL     1     -19.368  -8.381  28.894  1.00  0.00    -0.648 OA
ENDBRANCH  31  32
ENDBRANCH  30  31
ENDBRANCH  29  30
ENDBRANCH  11  29
BRANCH   1  35
HETATM   35  C6  UNL     1     -14.361  -7.458  21.070  1.00  0.00     0.035 C 
BRANCH  35  36
HETATM   36  C5  UNL     1     -13.858  -7.841  19.752  1.00  0.00     0.002 C 
BRANCH  36  37
HETATM   37  C4  UNL     1     -13.911  -6.904  18.618  1.00  0.00     0.000 C 
BRANCH  37  38
HETATM   38  C3  UNL     1     -12.611  -6.851  17.808  1.00  0.00    -0.000 C 
BRANCH  38  39
HETATM   39  C2  UNL     1     -11.503  -7.561  18.528  1.00  0.00    -0.005 C 
HETATM   40  C1  UNL     1     -10.216  -6.814  18.170  1.00  0.00     0.005 C 
ENDBRANCH  38  39
ENDBRANCH  37  38
ENDBRANCH  36  37
ENDBRANCH  35  36
ENDBRANCH   1  35
BRANCH   4  41
HETATM   41  O1  UNL     1     -12.435 -11.399  22.693  1.00  0.00    -0.348 OA
ATOM     42  H1  UNL     1     -12.028 -11.330  23.548  1.00  0.00     0.219 HD
ENDBRANCH   4  41
BRANCH   5  43
HETATM   43  C10 UNL     1     -14.644 -13.152  22.529  1.00  0.00     0.008 C 
HETATM   44  C11 UNL     1     -15.197 -14.264  23.334  1.00  0.00     0.012 C 
HETATM   45  C12 UNL     1     -15.336 -13.041  21.199  1.00  0.00     0.012 C 
ENDBRANCH   5  43
TORSDOF 16
ENDMDL
MODEL 3
REMARK VINA RESULT: -7.914067913      7.546     14.874
REMARK  16 active torsions:
REMARK  status: ('A' for Active; 'I' for Inactive)
REMARK    1  A    between atoms: C2_2  and  C3_3 
REMARK    2  A    between atoms: C3_3  and  C4_4 
REMARK    3  A    between atoms: C4_4  and  C5_5 
REMARK    4  A    between atoms: C5_5  and  C6_6 
REMARK    5  A    between atoms: C6_6  and  C7_7 
REMARK    6  A    between atoms: C8_10  and  O1_11 
REMARK    7  A    between atoms: C9_13  and  C10_14 
REMARK    8  A    between atoms: C15_22  and  C16_23 
REMARK    9  A    between atoms: C16_23  and  C17_24 
REMARK   10  A    between atoms: C17_24  and  C18_25 
REMARK   11  A    between atoms: C18_25  and  C19_26 
REMARK   12  A    between atoms: C21_33  and  C22_34 
REMARK   13  A    between atoms: C22_34  and  C23_35 
REMARK   14  A    between atoms: C23_35  and  C24_36 
REMARK   15  A    between atoms: C24_36  and  C25_37 
REMARK   16  A    between atoms: C25_37  and  N4_38 
ROOT
HETATM    1  C7  UNL     1     -11.238  -3.540  11.928  1.00  0.00     0.175 C 
HETATM    2  N1  UNL     1     -12.283  -2.585  11.882  1.00  0.00    -0.359 N 
ATOM      3  H1  UNL     1     -12.141  -1.863  11.176  1.00  0.00     0.162 HD
HETATM    4  C8  UNL     1     -13.468  -2.426  12.604  1.00  0.00     0.135 C 
HETATM    5  C9  UNL     1     -13.732  -2.244  14.036  1.00  0.00     0.162 C 
HETATM    6  N2  UNL     1     -14.647  -3.262  14.546  1.00  0.00    -0.349 N 
ATOM      7  H2  UNL     1     -15.629  -3.206  14.274  1.00  0.00     0.163 HD
HETATM    8  C13 UNL     1     -14.246  -4.330  15.401  1.00  0.00     0.220 C 
HETATM    9  O2  UNL     1     -14.839  -5.428  15.258  1.00  0.00    -0.274 OA
HETATM   10  C14 UNL     1     -13.198  -4.101  16.373  1.00  0.00     0.128 C 
HETATM   11  C15 UNL     1     -12.786  -5.181  17.278  1.00  0.00     0.093 C 
HETATM   12  N3  UNL     1     -11.959  -6.224  16.732  1.00  0.00    -0.354 N 
ATOM     13  H3  UNL     1     -12.109  -7.136  17.164  1.00  0.00     0.162 HD
HETATM   14  C20 UNL     1     -11.003  -6.232  15.737  1.00  0.00     0.240 C 
HETATM   15  O5  UNL     1      -9.760  -6.422  16.038  1.00  0.00    -0.271 OA
HETATM   16  C21 UNL     1     -11.147  -6.051  14.241  1.00  0.00     0.176 C 
HETATM   17  N5  UNL     1     -10.302  -4.949  13.873  1.00  0.00    -0.346 N 
ATOM     18  H5  UNL     1      -9.316  -5.089  14.098  1.00  0.00     0.163 HD
HETATM   19  C26 UNL     1     -10.575  -3.724  13.266  1.00  0.00     0.241 C 
HETATM   20  O6  UNL     1     -10.253  -2.613  13.850  1.00  0.00    -0.271 OA
ENDROOT
BRANCH  16  21
HETATM   21  C22 UNL     1     -10.600  -7.382  13.655  1.00  0.00     0.035 C 
BRANCH  21  22
HETATM   22  C23 UNL     1     -10.743  -7.453  12.186  1.00  0.00     0.004 C 
BRANCH  22  23
HETATM   23  C24 UNL     1      -9.498  -7.846  11.475  1.00  0.00     0.027 C 
BRANCH  23  24
HETATM   24  C25 UNL     1      -8.622  -8.770  12.311  1.00  0.00     0.229 C 
BRANCH  24  25
HETATM   25  N4  UNL     1      -7.673  -9.461  11.458  1.00  0.00    -0.079 N 
ATOM     26  H43 UNL     1      -8.108 -10.231  10.948  1.00  0.00     0.274 HD
ATOM     27  H42 UNL     1      -7.393  -8.892  10.659  1.00  0.00     0.274 HD
ATOM     28  H41 UNL     1      -6.871  -9.772  12.006  1.00  0.00     0.274 HD
ENDBRANCH  24  25
ENDBRANCH  23  24
ENDBRANCH  22  23
ENDBRANCH  21  22
ENDBRANCH  16  21
BRANCH  11  29
HETATM   29  C16 UNL     1     -13.944  -5.747  18.047  1.00  0.00     0.026 C 
BRANCH  29  30
HETATM   30  C17 UNL     1     -13.759  -7.231  18.341  1.00  0.00     0.012 C 
BRANCH  30  31
HETATM   31  C18 UNL     1     -13.743  -7.458  19.853  1.00  0.00     0.113 C 
BRANCH  31  32
HETATM   32  C19 UNL     1     -12.396  -7.961  20.210  1.00  0.00     0.172 C 
HETATM   33  O3  UNL     1     -12.188  -8.635  21.259  1.00  0.00    -0.648 OA
HETATM   34  O4  UNL     1     -11.300  -7.703  19.386  1.00  0.00    -0.648 OA
ENDBRANCH  31  32
ENDBRANCH  30  31
ENDBRANCH  29  30
ENDBRANCH  11  29
BRANCH   1  35
HETATM   35  C6  UNL     1     -10.071  -3.267  11.000  1.00  0.00     0.035 C 
BRANCH  35  36
HETATM   36  C5  UNL     1      -9.966  -3.998   9.739  1.00  0.00     0.002 C 
BRANCH  36  37
HETATM   37  C4  UNL     1     -11.170  -4.398   8.992  1.00  0.00     0.000 C 
BRANCH  37  38
HETATM   38  C3  UNL     1     -11.243  -3.797   7.584  1.00  0.00    -0.000 C 
BRANCH  38  39
HETATM   39  C2  UNL     1     -12.516  -3.024   7.398  1.00  0.00    -0.005 C 
HETATM   40  C1  UNL     1     -13.428  -3.420   8.562  1.00  0.00     0.005 C 
ENDBRANCH  38  39
ENDBRANCH  37  38
ENDBRANCH  36  37
ENDBRANCH  35  36
ENDBRANCH   1  35
BRANCH   4  41
HETATM   41  O1  UNL     1     -14.581  -2.434  11.912  1.00  0.00    -0.348 OA
ATOM     42  H1  UNL     1     -15.339  -2.828  12.329  1.00  0.00     0.219 HD
ENDBRANCH   4  41
BRANCH   5  43
HETATM   43  C10 UNL     1     -14.349  -0.849  14.239  1.00  0.00     0.008 C 
HETATM   44  C11 UNL     1     -14.875  -0.610  15.601  1.00  0.00     0.012 C 
HETATM   45  C12 UNL     1     -13.387   0.231  13.826  1.00  0.00     0.012 C 
ENDBRANCH   5  43
TORSDOF 16
ENDMDL
MODEL 4
REMARK VINA RESULT: -7.879293512      7.873     14.350
REMARK  16 active torsions:
REMARK  status: ('A' for Active; 'I' for Inactive)
REMARK    1  A    between atoms: C2_2  and  C3_3 
REMARK    2  A    between atoms: C3_3  and  C4_4 
REMARK    3  A    between atoms: C4_4  and  C5_5 
REMARK    4  A    between atoms: C5_5  and  C6_6 
REMARK    5  A    between atoms: C6_6  and  C7_7 
REMARK    6  A    between atoms: C8_10  and  O1_11 
REMARK    7  A    between atoms: C9_13  and  C10_14 
REMARK    8  A    between atoms: C15_22  and  C16_23 
REMARK    9  A    between atoms: C16_23  and  C17_24 
REMARK   10  A    between atoms: C17_24  and  C18_25 
REMARK   11  A    between atoms: C18_25  and  C19_26 
REMARK   12  A    between atoms: C21_33  and  C22_34 
REMARK   13  A    between atoms: C22_34  and  C23_35 
REMARK   14  A    between atoms: C23_35  and  C24_36 
REMARK   15  A    between atoms: C24_36  and  C25_37 
REMARK   16  A    between atoms: C25_37  and  N4_38 
ROOT
HETATM    1  C7  UNL     1     -11.270  -4.993  11.272  1.00  0.00     0.175 C 
HETATM    2  N1  UNL     1     -10.018  -5.653  11.261  1.00  0.00    -0.359 N 
ATOM      3  H1  UNL     1      -9.667  -5.841  10.322  1.00  0.00     0.162 HD
HETATM    4  C8  UNL     1      -9.162  -6.101  12.269  1.00  0.00     0.135 C 
HETATM    5  C9  UNL     1      -9.348  -7.057  13.368  1.00  0.00     0.162 C 
HETATM    6  N2  UNL     1      -9.049  -6.450  14.662  1.00  0.00    -0.349 N 
ATOM      7  H2  UNL     1      -8.073  -6.256  14.888  1.00  0.00     0.163 HD
HETATM    8  C13 UNL     1     -10.042  -6.113  15.628  1.00  0.00     0.220 C 
HETATM    9  O2  UNL     1      -9.834  -5.090  16.327  1.00  0.00    -0.274 OA
HETATM   10  C14 UNL     1     -11.218  -6.949  15.754  1.00  0.00     0.128 C 
HETATM   11  C15 UNL     1     -12.242  -6.632  16.756  1.00  0.00     0.093 C 
HETATM   12  N3  UNL     1     -13.132  -5.539  16.472  1.00  0.00    -0.354 N 
ATOM     13  H3  UNL     1     -13.446  -5.038  17.302  1.00  0.00     0.162 HD
HETATM   14  C20 UNL     1     -13.645  -5.036  15.293  1.00  0.00     0.240 C 
HETATM   15  O5  UNL     1     -14.905  -5.161  15.033  1.00  0.00    -0.271 OA
HETATM   16  C21 UNL     1     -12.957  -4.304  14.161  1.00  0.00     0.176 C 
HETATM   17  N5  UNL     1     -13.214  -5.055  12.963  1.00  0.00    -0.346 N 
ATOM     18  H5  UNL     1     -14.205  -5.154  12.742  1.00  0.00     0.163 HD
HETATM   19  C26 UNL     1     -12.365  -5.674  12.048  1.00  0.00     0.241 C 
HETATM   20  O6  UNL     1     -12.477  -6.940  11.796  1.00  0.00    -0.271 OA
ENDROOT
BRANCH  16  21
HETATM   21  C22 UNL     1     -13.683  -2.931  14.115  1.00  0.00     0.035 C 
BRANCH  21  22
HETATM   22  C23 UNL     1     -13.077  -2.006  13.136  1.00  0.00     0.004 C 
BRANCH  22  23
HETATM   23  C24 UNL     1     -14.048  -1.431  12.167  1.00  0.00     0.027 C 
BRANCH  23  24
HETATM   24  C25 UNL     1     -13.703   0.002  11.783  1.00  0.00     0.229 C 
BRANCH  24  25
HETATM   25  N4  UNL     1     -14.496   0.415  10.641  1.00  0.00    -0.079 N 
ATOM     26  H43 UNL     1     -15.289   0.995  10.915  1.00  0.00     0.274 HD
ATOM     27  H42 UNL     1     -14.005   1.098  10.062  1.00  0.00     0.274 HD
ATOM     28  H41 UNL     1     -14.788  -0.401  10.104  1.00  0.00     0.274 HD
ENDBRANCH  24  25
ENDBRANCH  23  24
ENDBRANCH  22  23
ENDBRANCH  21  22
ENDBRANCH  16  21
BRANCH  11  29
HETATM   29  C16 UNL     1     -11.665  -6.522  18.138  1.00  0.00     0.026 C 
BRANCH  29  30
HETATM   30  C17 UNL     1     -12.115  -7.670  19.034  1.00  0.00     0.012 C 
BRANCH  30  31
HETATM   31  C18 UNL     1     -13.626  -7.865  18.900  1.00  0.00     0.113 C 
BRANCH  31  32
HETATM   32  C19 UNL     1     -14.279  -6.689  19.520  1.00  0.00     0.172 C 
HETATM   33  O3  UNL     1     -14.978  -5.878  18.847  1.00  0.00    -0.648 OA
HETATM   34  O4  UNL     1     -14.140  -6.436  20.885  1.00  0.00    -0.648 OA
ENDBRANCH  31  32
ENDBRANCH  30  31
ENDBRANCH  29  30
ENDBRANCH  11  29
BRANCH   1  35
HETATM   35  C6  UNL     1     -11.898  -4.774   9.910  1.00  0.00     0.035 C 
BRANCH  35  36
HETATM   36  C5  UNL     1     -13.163  -4.047   9.808  1.00  0.00     0.002 C 
BRANCH  36  37
HETATM   37  C4  UNL     1     -13.319  -2.926   8.867  1.00  0.00     0.000 C 
BRANCH  37  38
HETATM   38  C3  UNL     1     -12.947  -3.283   7.424  1.00  0.00    -0.000 C 
BRANCH  38  39
HETATM   39  C2  UNL     1     -11.780  -2.463   6.955  1.00  0.00    -0.005 C 
HETATM   40  C1  UNL     1     -10.624  -3.446   6.754  1.00  0.00     0.005 C 
ENDBRANCH  38  39
ENDBRANCH  37  38
ENDBRANCH  36  37
ENDBRANCH  35  36
ENDBRANCH   1  35
BRANCH   4  41
HETATM   41  O1  UNL     1      -7.950  -5.601  12.276  1.00  0.00    -0.348 OA
ATOM     42  H1  UNL     1      -7.260  -6.161  12.613  1.00  0.00     0.219 HD
ENDBRANCH   4  41
BRANCH   5  43
HETATM   43  C10 UNL     1      -8.412  -8.253  13.131  1.00  0.00     0.008 C 
HETATM   44  C11 UNL     1      -7.201  -8.255  13.981  1.00  0.00     0.012 C 
HETATM   45  C12 UNL     1      -9.160  -9.554  13.241  1.00  0.00     0.012 C 
ENDBRANCH   5  43
TORSDOF 16
ENDMDL
MODEL 5
REMARK VINA RESULT: -7.868430018      6.641     13.740
REMARK  16 active torsions:
REMARK  status: ('A' for Active; 'I' for Inactive)
REMARK    1  A    between atoms: C2_2  and  C3_3 
REMARK    2  A    between atoms: C3_3  and  C4_4 
REMARK    3  A    between atoms: C4_4  and  C5_5 
REMARK    4  A    between atoms: C5_5  and  C6_6 
REMARK    5  A    between atoms: C6_6  and  C7_7 
REMARK    6  A    between atoms: C8_10  and  O1_11 
REMARK    7  A    between atoms: C9_13  and  C10_14 
REMARK    8  A    between atoms: C15_22  and  C16_23 
REMARK    9  A    between atoms: C16_23  and  C17_24 
REMARK   10  A    between atoms: C17_24  and  C18_25 
REMARK   11  A    between atoms: C18_25  and  C19_26 
REMARK   12  A    between atoms: C21_33  and  C22_34 
REMARK   13  A    between atoms: C22_34  and  C23_35 
REMARK   14  A    between atoms: C23_35  and  C24_36 
REMARK   15  A    between atoms: C24_36  and  C25_37 
REMARK   16  A    between atoms: C25_37  and  N4_38 
ROOT
HETATM    1  C7  UNL     1     -10.532  -3.934  13.401  1.00  0.00     0.175 C 
HETATM    2  N1  UNL     1     -11.530  -2.957  13.171  1.00  0.00    -0.359 N 
ATOM      3  H1  UNL     1     -11.247  -2.239  12.504  1.00  0.00     0.162 HD
HETATM    4  C8  UNL     1     -12.822  -2.772  13.667  1.00  0.00     0.135 C 
HETATM    5  C9  UNL     1     -13.338  -2.583  15.029  1.00  0.00     0.162 C 
HETATM    6  N2  UNL     1     -14.351  -3.581  15.361  1.00  0.00    -0.349 N 
ATOM      7  H2  UNL     1     -15.266  -3.503  14.917  1.00  0.00     0.163 HD
HETATM    8  C13 UNL     1     -14.135  -4.656  16.272  1.00  0.00     0.220 C 
HETATM    9  O2  UNL     1     -14.715  -5.742  16.020  1.00  0.00    -0.274 OA
HETATM   10  C14 UNL     1     -13.274  -4.450  17.418  1.00  0.00     0.128 C 
HETATM   11  C15 UNL     1     -13.056  -5.538  18.378  1.00  0.00     0.093 C 
HETATM   12  N3  UNL     1     -12.167  -6.599  17.987  1.00  0.00    -0.354 N 
ATOM     13  H3  UNL     1     -12.412  -7.507  18.382  1.00  0.00     0.162 HD
HETATM   14  C20 UNL     1     -11.047  -6.629  17.181  1.00  0.00     0.240 C 
HETATM   15  O5  UNL     1      -9.883  -6.845  17.702  1.00  0.00    -0.271 OA
HETATM   16  C21 UNL     1     -10.914  -6.446  15.685  1.00  0.00     0.176 C 
HETATM   17  N5  UNL     1      -9.993  -5.362  15.479  1.00  0.00    -0.346 N 
ATOM     18  H5  UNL     1      -9.068  -5.524  15.878  1.00  0.00     0.163 HD
HETATM   19  C26 UNL     1     -10.126  -4.133  14.837  1.00  0.00     0.241 C 
HETATM   20  O6  UNL     1      -9.891  -3.028  15.473  1.00  0.00    -0.271 OA
ENDROOT
BRANCH  16  21
HETATM   21  C22 UNL     1     -10.299  -7.789  15.203  1.00  0.00     0.035 C 
BRANCH  21  22
HETATM   22  C23 UNL     1      -9.146  -7.590  14.302  1.00  0.00     0.004 C 
BRANCH  22  23
HETATM   23  C24 UNL     1      -8.995  -8.649  13.270  1.00  0.00     0.027 C 
BRANCH  23  24
HETATM   24  C25 UNL     1     -10.051  -9.738  13.399  1.00  0.00     0.229 C 
BRANCH  24  25
HETATM   25  N4  UNL     1     -10.845  -9.807  12.186  1.00  0.00    -0.079 N 
ATOM     26  H43 UNL     1     -11.002  -8.885  11.779  1.00  0.00     0.274 HD
ATOM     27  H42 UNL     1     -10.327 -10.226  11.414  1.00  0.00     0.274 HD
ATOM     28  H41 UNL     1     -11.721 -10.297  12.369  1.00  0.00     0.274 HD
ENDBRANCH  24  25
ENDBRANCH  23  24
ENDBRANCH  22  23
ENDBRANCH  21  22
ENDBRANCH  16  21
BRANCH  11  29
HETATM   29  C16 UNL     1     -14.346  -6.078  18.924  1.00  0.00     0.026 C 
BRANCH  29  30
HETATM   30  C17 UNL     1     -14.218  -7.539  19.341  1.00  0.00     0.012 C 
BRANCH  30  31
HETATM   31  C18 UNL     1     -14.035  -7.626  20.857  1.00  0.00     0.113 C 
BRANCH  31  32
HETATM   32  C19 UNL     1     -12.763  -8.342  21.107  1.00  0.00     0.172 C 
HETATM   33  O3  UNL     1     -11.677  -7.989  20.563  1.00  0.00    -0.648 OA
HETATM   34  O4  UNL     1     -12.723  -9.444  21.961  1.00  0.00    -0.648 OA
ENDBRANCH  31  32
ENDBRANCH  30  31
ENDBRANCH  29  30
ENDBRANCH  11  29
BRANCH   1  35
HETATM   35  C6  UNL     1      -9.211  -3.688  12.701  1.00  0.00     0.035 C 
BRANCH  35  36
HETATM   36  C5  UNL     1      -8.846  -4.501  11.542  1.00  0.00     0.002 C 
BRANCH  36  37
HETATM   37  C4  UNL     1      -9.698  -5.618  11.101  1.00  0.00     0.000 C 
BRANCH  37  38
HETATM   38  C3  UNL     1     -10.679  -5.236   9.988  1.00  0.00    -0.000 C 
BRANCH  38  39
HETATM   39  C2  UNL     1     -12.094  -5.267  10.488  1.00  0.00    -0.005 C 
HETATM   40  C1  UNL     1     -12.818  -4.114   9.789  1.00  0.00     0.005 C 
ENDBRANCH  38  39
ENDBRANCH  37  38
ENDBRANCH  36  37
ENDBRANCH  35  36
ENDBRANCH   1  35
BRANCH   4  41
HETATM   41  O1  UNL     1     -13.793  -2.756  12.786  1.00  0.00    -0.348 OA
ATOM     42  H1  UNL     1     -14.613  -2.365  13.063  1.00  0.00     0.219 HD
ENDBRANCH   4  41
BRANCH   5  43
HETATM   43  C10 UNL     1     -13.950  -1.175  15.122  1.00  0.00     0.008 C 
HETATM   44  C11 UNL     1     -15.422  -1.162  15.268  1.00  0.00     0.012 C 
HETATM   45  C12 UNL     1     -13.285  -0.368  16.202  1.00  0.00     0.012 C 
ENDBRANCH   5  43
TORSDOF 16
ENDMDL
