MODEL 1
REMARK VINA RESULT: -8.773053023      0.000      0.000
REMARK  20 active torsions:
REMARK  status: ('A' for Active; 'I' for Inactive)
REMARK    1  A    between atoms: N1_2  and  O1_3 
REMARK    2  A    between atoms: N1_2  and  C2_5 
REMARK    3  A    between atoms: C2_5  and  C3_6 
REMARK    4  A    between atoms: C3_6  and  N2_7 
REMARK    5  A    between atoms: C3_6  and  C4_11 
REMARK    6  A    between atoms: C4_11  and  C5_12 
REMARK    7  A    between atoms: C5_12  and  C6_13 
REMARK    8  A    between atoms: C9_16  and  C10_17 
REMARK    9  A    between atoms: C10_17  and  C11_18 
REMARK   10  A    between atoms: C11_18  and  N3_19 
REMARK   11  A    between atoms: N3_19  and  C12_21 
REMARK   12  A    between atoms: C13_24  and  N5_25 
REMARK   13  A    between atoms: N5_25  and  C14_27 
REMARK   14  A    between atoms: C14_27  and  C15_28 
REMARK   15  A    between atoms: C15_28  and  O2_29 
REMARK   16  A    between atoms: C16_33  and  N7_34 
REMARK   17  A    between atoms: N7_34  and  C17_36 
REMARK   18  A    between atoms: C20_39  and  C21_40 
REMARK   19  A    between atoms: C21_40  and  C22_41 
REMARK   20  A    between atoms: C22_41  and  C23_42 
ROOT
HETATM    1  C12 UNL     1     -13.034  -8.179  21.500  1.00  0.00     0.707 A 
HETATM    2  N4  UNL     1     -13.049  -7.545  20.327  1.00  0.00    -0.022 N 
ATOM      3  H4  UNL     1     -12.563  -6.653  20.243  1.00  0.00     0.203 HD
HETATM    4  C13 UNL     1     -13.693  -8.052  19.234  1.00  0.00     0.707 A 
HETATM    5  N6  UNL     1     -14.330  -9.241  19.385  1.00  0.00    -0.021 N 
ATOM      6  H6  UNL     1     -14.819  -9.639  18.584  1.00  0.00     0.203 HD
HETATM    7  C16 UNL     1     -14.342  -9.911  20.542  1.00  0.00     0.711 A 
HETATM    8  N8  UNL     1     -13.698  -9.377  21.581  1.00  0.00    -0.021 N 
ATOM      9  H8  UNL     1     -13.699  -9.879  22.469  1.00  0.00     0.203 HD
ENDROOT
BRANCH   1  10
HETATM   10  N3  UNL     1     -12.445  -7.695  22.503  1.00  0.00    -0.225 N 
ATOM     11  H3  UNL     1     -12.322  -6.682  22.529  1.00  0.00     0.177 HD
BRANCH  10  12
HETATM   12  C11 UNL     1     -11.941  -8.440  23.596  1.00  0.00     0.142 C 
BRANCH  12  13
HETATM   13  C10 UNL     1     -12.074  -7.592  24.869  1.00  0.00     0.058 C 
BRANCH  13  14
HETATM   14  C9  UNL     1     -13.150  -8.250  25.671  1.00  0.00    -0.057 A 
HETATM   15  C8  UNL     1     -13.851  -7.529  26.616  1.00  0.00     0.007 A 
HETATM   16  C7  UNL     1     -14.852  -8.087  27.370  1.00  0.00     0.007 A 
HETATM   17  C6  UNL     1     -15.221  -9.433  27.221  1.00  0.00    -0.058 A 
HETATM   18  C27 UNL     1     -14.527 -10.150  26.283  1.00  0.00     0.007 A 
HETATM   19  C26 UNL     1     -13.504  -9.572  25.517  1.00  0.00     0.007 A 
BRANCH  17  20
HETATM   20  C5  UNL     1     -16.252 -10.043  28.041  1.00  0.00     0.040 C 
BRANCH  20  21
HETATM   21  C4  UNL     1     -17.467 -10.570  27.417  1.00  0.00     0.038 C 
BRANCH  21  22
HETATM   22  C3  UNL     1     -18.582  -9.603  27.167  1.00  0.00     0.199 C 
BRANCH  22  23
HETATM   23  C2  UNL     1     -18.757  -9.316  25.694  1.00  0.00     0.152 C 
BRANCH  23  24
HETATM   24  N1  UNL     1     -17.746  -8.301  25.365  1.00  0.00    -0.202 NA
HETATM   25  C1  UNL     1     -17.148  -8.537  24.072  1.00  0.00     0.143 C 
BRANCH  24  26
HETATM   26  O1  UNL     1     -18.298  -7.070  25.348  1.00  0.00    -0.313 OA
ATOM     27  H1  UNL     1     -19.231  -7.167  25.495  1.00  0.00     0.237 HD
ENDBRANCH  24  26
ENDBRANCH  23  24
ENDBRANCH  22  23
BRANCH  22  28
HETATM   28  N2  UNL     1     -18.436  -8.357  27.929  1.00  0.00    -0.074 N 
ATOM     29  H23 UNL     1     -17.622  -7.822  27.625  1.00  0.00     0.274 HD
ATOM     30  H22 UNL     1     -19.162  -7.681  27.691  1.00  0.00     0.274 HD
ATOM     31  H21 UNL     1     -18.411  -8.544  28.932  1.00  0.00     0.274 HD
ENDBRANCH  22  28
ENDBRANCH  21  22
ENDBRANCH  20  21
ENDBRANCH  17  20
ENDBRANCH  13  14
ENDBRANCH  12  13
ENDBRANCH  10  12
ENDBRANCH   1  10
BRANCH   4  32
HETATM   32  N5  UNL     1     -13.725  -7.455  18.099  1.00  0.00    -0.223 N 
ATOM     33  H5  UNL     1     -14.371  -7.820  17.398  1.00  0.00     0.177 HD
BRANCH  32  34
HETATM   34  C14 UNL     1     -12.934  -6.324  17.729  1.00  0.00     0.164 C 
BRANCH  34  35
HETATM   35  C15 UNL     1     -13.655  -5.001  17.869  1.00  0.00     0.184 C 
BRANCH  35  36
HETATM   36  O2  UNL     1     -13.740  -4.601  19.206  1.00  0.00    -0.399 OA
ATOM     37  H2  UNL     1     -13.296  -3.773  19.351  1.00  0.00     0.209 HD
ENDBRANCH  35  36
ENDBRANCH  34  35
ENDBRANCH  32  34
ENDBRANCH   4  32
BRANCH   7  38
HETATM   38  N7  UNL     1     -14.940 -11.014  20.698  1.00  0.00    -0.191 N 
ATOM     39  H7  UNL     1     -15.681 -11.217  20.026  1.00  0.00     0.184 HD
BRANCH  38  40
HETATM   40  C17 UNL     1     -14.716 -11.997  21.679  1.00  0.00     0.049 A 
HETATM   41  C18 UNL     1     -15.344 -11.948  22.928  1.00  0.00     0.030 A 
HETATM   42  C19 UNL     1     -15.124 -12.907  23.892  1.00  0.00     0.009 A 
HETATM   43  C20 UNL     1     -14.262 -13.974  23.666  1.00  0.00    -0.058 A 
HETATM   44  C24 UNL     1     -13.646 -14.018  22.433  1.00  0.00     0.009 A 
HETATM   45  C25 UNL     1     -13.865 -13.060  21.467  1.00  0.00     0.030 A 
BRANCH  43  46
HETATM   46  C21 UNL     1     -14.066 -14.982  24.737  1.00  0.00     0.049 C 
BRANCH  46  47
HETATM   47  C22 UNL     1     -12.696 -15.006  25.322  1.00  0.00     0.117 C 
BRANCH  47  48
HETATM   48  C23 UNL     1     -12.225 -13.757  25.913  1.00  0.00     0.172 C 
HETATM   49  O3  UNL     1     -12.690 -13.370  27.015  1.00  0.00    -0.648 OA
HETATM   50  O4  UNL     1     -11.269 -12.930  25.335  1.00  0.00    -0.648 OA
ENDBRANCH  47  48
ENDBRANCH  46  47
ENDBRANCH  43  46
ENDBRANCH  38  40
ENDBRANCH   7  38
TORSDOF 20
ENDMDL
MODEL 2
REMARK VINA RESULT: -8.557294987      1.586      2.004
REMARK  20 active torsions:
REMARK  status: ('A' for Active; 'I' for Inactive)
REMARK    1  A    between atoms: N1_2  and  O1_3 
REMARK    2  A    between atoms: N1_2  and  C2_5 
REMARK    3  A    between atoms: C2_5  and  C3_6 
REMARK    4  A    between atoms: C3_6  and  N2_7 
REMARK    5  A    between atoms: C3_6  and  C4_11 
REMARK    6  A    between atoms: C4_11  and  C5_12 
REMARK    7  A    between atoms: C5_12  and  C6_13 
REMARK    8  A    between atoms: C9_16  and  C10_17 
REMARK    9  A    between atoms: C10_17  and  C11_18 
REMARK   10  A    between atoms: C11_18  and  N3_19 
REMARK   11  A    between atoms: N3_19  and  C12_21 
REMARK   12  A    between atoms: C13_24  and  N5_25 
REMARK   13  A    between atoms: N5_25  and  C14_27 
REMARK   14  A    between atoms: C14_27  and  C15_28 
REMARK   15  A    between atoms: C15_28  and  O2_29 
REMARK   16  A    between atoms: C16_33  and  N7_34 
REMARK   17  A    between atoms: N7_34  and  C17_36 
REMARK   18  A    between atoms: C20_39  and  C21_40 
REMARK   19  A    between atoms: C21_40  and  C22_41 
REMARK   20  A    between atoms: C22_41  and  C23_42 
ROOT
HETATM    1  C12 UNL     1     -13.044  -8.065  21.541  1.00  0.00     0.707 A 
HETATM    2  N4  UNL     1     -13.377  -7.301  20.501  1.00  0.00    -0.022 N 
ATOM      3  H4  UNL     1     -13.131  -6.311  20.517  1.00  0.00     0.203 HD
HETATM    4  C13 UNL     1     -14.037  -7.799  19.413  1.00  0.00     0.707 A 
HETATM    5  N6  UNL     1     -14.350  -9.120  19.428  1.00  0.00    -0.021 N 
ATOM      6  H6  UNL     1     -14.843  -9.515  18.628  1.00  0.00     0.203 HD
HETATM    7  C16 UNL     1     -14.036  -9.924  20.449  1.00  0.00     0.711 A 
HETATM    8  N8  UNL     1     -13.391  -9.392  21.489  1.00  0.00    -0.021 N 
ATOM      9  H8  UNL     1     -13.145  -9.994  22.274  1.00  0.00     0.203 HD
ENDROOT
BRANCH   1  10
HETATM   10  N3  UNL     1     -12.446  -7.590  22.542  1.00  0.00    -0.225 N 
ATOM     11  H3  UNL     1     -12.204  -6.599  22.516  1.00  0.00     0.177 HD
BRANCH  10  12
HETATM   12  C11 UNL     1     -12.082  -8.317  23.701  1.00  0.00     0.142 C 
BRANCH  12  13
HETATM   13  C10 UNL     1     -12.456  -7.488  24.938  1.00  0.00     0.058 C 
BRANCH  13  14
HETATM   14  C9  UNL     1     -13.337  -8.375  25.756  1.00  0.00    -0.057 A 
HETATM   15  C8  UNL     1     -13.568  -9.677  25.365  1.00  0.00     0.007 A 
HETATM   16  C7  UNL     1     -14.363 -10.531  26.087  1.00  0.00     0.007 A 
HETATM   17  C6  UNL     1     -14.991 -10.122  27.274  1.00  0.00    -0.058 A 
HETATM   18  C27 UNL     1     -14.763  -8.829  27.665  1.00  0.00     0.007 A 
HETATM   19  C26 UNL     1     -13.949  -7.963  26.919  1.00  0.00     0.007 A 
BRANCH  17  20
HETATM   20  C5  UNL     1     -15.865 -11.005  28.024  1.00  0.00     0.040 C 
BRANCH  20  21
HETATM   21  C4  UNL     1     -16.818 -11.865  27.319  1.00  0.00     0.038 C 
BRANCH  21  22
HETATM   22  C3  UNL     1     -18.219 -11.909  27.845  1.00  0.00     0.199 C 
BRANCH  22  23
HETATM   23  C2  UNL     1     -18.805 -10.524  27.998  1.00  0.00     0.152 C 
BRANCH  23  24
HETATM   24  N1  UNL     1     -18.908 -10.296  29.446  1.00  0.00    -0.202 NA
HETATM   25  C1  UNL     1     -18.404  -8.996  29.822  1.00  0.00     0.143 C 
BRANCH  24  26
HETATM   26  O1  UNL     1     -20.193 -10.374  29.848  1.00  0.00    -0.313 OA
ATOM     27  H1  UNL     1     -20.649  -9.609  29.517  1.00  0.00     0.237 HD
ENDBRANCH  24  26
ENDBRANCH  23  24
ENDBRANCH  22  23
BRANCH  22  28
HETATM   28  N2  UNL     1     -18.333 -12.667  29.097  1.00  0.00    -0.074 N 
ATOM     29  H23 UNL     1     -17.455 -12.670  29.617  1.00  0.00     0.274 HD
ATOM     30  H22 UNL     1     -18.915 -12.181  29.780  1.00  0.00     0.274 HD
ATOM     31  H21 UNL     1     -18.669 -13.613  28.920  1.00  0.00     0.274 HD
ENDBRANCH  22  28
ENDBRANCH  21  22
ENDBRANCH  20  21
ENDBRANCH  17  20
ENDBRANCH  13  14
ENDBRANCH  12  13
ENDBRANCH  10  12
ENDBRANCH   1  10
BRANCH   4  32
HETATM   32  N5  UNL     1     -14.373  -7.080  18.405  1.00  0.00    -0.223 N 
ATOM     33  H5  UNL     1     -15.361  -7.065  18.151  1.00  0.00     0.177 HD
BRANCH  32  34
HETATM   34  C14 UNL     1     -13.483  -6.298  17.606  1.00  0.00     0.164 C 
BRANCH  34  35
HETATM   35  C15 UNL     1     -13.693  -4.806  17.737  1.00  0.00     0.184 C 
BRANCH  35  36
HETATM   36  O2  UNL     1     -13.727  -4.408  19.077  1.00  0.00    -0.399 OA
ATOM     37  H2  UNL     1     -13.043  -3.778  19.272  1.00  0.00     0.209 HD
ENDBRANCH  35  36
ENDBRANCH  34  35
ENDBRANCH  32  34
ENDBRANCH   4  32
BRANCH   7  38
HETATM   38  N7  UNL     1     -14.330 -11.153  20.480  1.00  0.00    -0.191 N 
ATOM     39  H7  UNL     1     -14.520 -11.587  19.577  1.00  0.00     0.184 HD
BRANCH  38  40
HETATM   40  C17 UNL     1     -14.428 -11.999  21.599  1.00  0.00     0.049 A 
HETATM   41  C18 UNL     1     -15.348 -11.760  22.625  1.00  0.00     0.030 A 
HETATM   42  C19 UNL     1     -15.445 -12.584  23.724  1.00  0.00     0.009 A 
HETATM   43  C20 UNL     1     -14.627 -13.699  23.865  1.00  0.00    -0.058 A 
HETATM   44  C24 UNL     1     -13.722 -13.931  22.852  1.00  0.00     0.009 A 
HETATM   45  C25 UNL     1     -13.624 -13.108  21.750  1.00  0.00     0.030 A 
BRANCH  43  46
HETATM   46  C21 UNL     1     -14.776 -14.556  25.067  1.00  0.00     0.049 C 
BRANCH  46  47
HETATM   47  C22 UNL     1     -13.494 -14.921  25.732  1.00  0.00     0.117 C 
BRANCH  47  48
HETATM   48  C23 UNL     1     -12.723 -13.815  26.294  1.00  0.00     0.172 C 
HETATM   49  O3  UNL     1     -13.021 -13.353  27.425  1.00  0.00    -0.648 OA
HETATM   50  O4  UNL     1     -11.647 -13.210  25.657  1.00  0.00    -0.648 OA
ENDBRANCH  47  48
ENDBRANCH  46  47
ENDBRANCH  43  46
ENDBRANCH  38  40
ENDBRANCH   7  38
TORSDOF 20
ENDMDL
MODEL 3
REMARK VINA RESULT: -8.512088211      1.690      2.053
REMARK  20 active torsions:
REMARK  status: ('A' for Active; 'I' for Inactive)
REMARK    1  A    between atoms: N1_2  and  O1_3 
REMARK    2  A    between atoms: N1_2  and  C2_5 
REMARK    3  A    between atoms: C2_5  and  C3_6 
REMARK    4  A    between atoms: C3_6  and  N2_7 
REMARK    5  A    between atoms: C3_6  and  C4_11 
REMARK    6  A    between atoms: C4_11  and  C5_12 
REMARK    7  A    between atoms: C5_12  and  C6_13 
REMARK    8  A    between atoms: C9_16  and  C10_17 
REMARK    9  A    between atoms: C10_17  and  C11_18 
REMARK   10  A    between atoms: C11_18  and  N3_19 
REMARK   11  A    between atoms: N3_19  and  C12_21 
REMARK   12  A    between atoms: C13_24  and  N5_25 
REMARK   13  A    between atoms: N5_25  and  C14_27 
REMARK   14  A    between atoms: C14_27  and  C15_28 
REMARK   15  A    between atoms: C15_28  and  O2_29 
REMARK   16  A    between atoms: C16_33  and  N7_34 
REMARK   17  A    between atoms: N7_34  and  C17_36 
REMARK   18  A    between atoms: C20_39  and  C21_40 
REMARK   19  A    between atoms: C21_40  and  C22_41 
REMARK   20  A    between atoms: C22_41  and  C23_42 
ROOT
HETATM    1  C12 UNL     1     -12.939  -8.271  21.668  1.00  0.00     0.707 A 
HETATM    2  N4  UNL     1     -12.963  -7.632  20.498  1.00  0.00    -0.022 N 
ATOM      3  H4  UNL     1     -12.349  -6.829  20.362  1.00  0.00     0.203 HD
HETATM    4  C13 UNL     1     -13.783  -8.017  19.476  1.00  0.00     0.707 A 
HETATM    5  N6  UNL     1     -14.588  -9.088  19.695  1.00  0.00    -0.021 N 
ATOM      6  H6  UNL     1     -15.209  -9.394  18.947  1.00  0.00     0.203 HD
HETATM    7  C16 UNL     1     -14.597  -9.758  20.852  1.00  0.00     0.711 A 
HETATM    8  N8  UNL     1     -13.778  -9.346  21.820  1.00  0.00    -0.021 N 
ATOM      9  H8  UNL     1     -13.775  -9.849  22.707  1.00  0.00     0.203 HD
ENDROOT
BRANCH   1  10
HETATM   10  N3  UNL     1     -12.185  -7.898  22.606  1.00  0.00    -0.225 N 
ATOM     11  H3  UNL     1     -11.547  -7.126  22.415  1.00  0.00     0.177 HD
BRANCH  10  12
HETATM   12  C11 UNL     1     -12.152  -8.462  23.904  1.00  0.00     0.142 C 
BRANCH  12  13
HETATM   13  C10 UNL     1     -12.412  -7.349  24.929  1.00  0.00     0.058 C 
BRANCH  13  14
HETATM   14  C9  UNL     1     -13.799  -7.590  25.431  1.00  0.00    -0.057 A 
HETATM   15  C8  UNL     1     -13.999  -8.225  26.640  1.00  0.00     0.007 A 
HETATM   16  C7  UNL     1     -15.252  -8.462  27.145  1.00  0.00     0.007 A 
HETATM   17  C6  UNL     1     -16.410  -8.068  26.455  1.00  0.00    -0.058 A 
HETATM   18  C27 UNL     1     -16.213  -7.437  25.255  1.00  0.00     0.007 A 
HETATM   19  C26 UNL     1     -14.927  -7.200  24.746  1.00  0.00     0.007 A 
BRANCH  17  20
HETATM   20  C5  UNL     1     -17.740  -8.348  26.963  1.00  0.00     0.040 C 
BRANCH  20  21
HETATM   21  C4  UNL     1     -17.951  -8.533  28.400  1.00  0.00     0.038 C 
BRANCH  21  22
HETATM   22  C3  UNL     1     -18.215  -9.926  28.879  1.00  0.00     0.199 C 
BRANCH  22  23
HETATM   23  C2  UNL     1     -18.483 -10.873  27.732  1.00  0.00     0.152 C 
BRANCH  23  24
HETATM   24  N1  UNL     1     -17.759 -12.109  28.061  1.00  0.00    -0.202 NA
HETATM   25  C1  UNL     1     -16.342 -11.879  28.211  1.00  0.00     0.143 C 
BRANCH  24  26
HETATM   26  O1  UNL     1     -18.218 -12.633  29.217  1.00  0.00    -0.313 OA
ATOM     27  H1  UNL     1     -19.125 -12.882  29.084  1.00  0.00     0.237 HD
ENDBRANCH  24  26
ENDBRANCH  23  24
ENDBRANCH  22  23
BRANCH  22  28
HETATM   28  N2  UNL     1     -19.294  -9.991  29.873  1.00  0.00    -0.074 N 
ATOM     29  H23 UNL     1     -19.367 -10.919  30.290  1.00  0.00     0.274 HD
ATOM     30  H22 UNL     1     -19.063  -9.463  30.715  1.00  0.00     0.274 HD
ATOM     31  H21 UNL     1     -20.180  -9.689  29.469  1.00  0.00     0.274 HD
ENDBRANCH  22  28
ENDBRANCH  21  22
ENDBRANCH  20  21
ENDBRANCH  17  20
ENDBRANCH  13  14
ENDBRANCH  12  13
ENDBRANCH  10  12
ENDBRANCH   1  10
BRANCH   4  32
HETATM   32  N5  UNL     1     -13.827  -7.412  18.345  1.00  0.00    -0.223 N 
ATOM     33  H5  UNL     1     -14.604  -7.640  17.724  1.00  0.00     0.177 HD
BRANCH  32  34
HETATM   34  C14 UNL     1     -12.882  -6.447  17.879  1.00  0.00     0.164 C 
BRANCH  34  35
HETATM   35  C15 UNL     1     -13.374  -5.019  17.961  1.00  0.00     0.184 C 
BRANCH  35  36
HETATM   36  O2  UNL     1     -13.738  -4.675  19.266  1.00  0.00    -0.399 OA
ATOM     37  H2  UNL     1     -13.718  -3.734  19.398  1.00  0.00     0.209 HD
ENDBRANCH  35  36
ENDBRANCH  34  35
ENDBRANCH  32  34
ENDBRANCH   4  32
BRANCH   7  38
HETATM   38  N7  UNL     1     -15.348 -10.751  21.072  1.00  0.00    -0.191 N 
ATOM     39  H7  UNL     1     -16.092 -10.905  20.391  1.00  0.00     0.184 HD
BRANCH  38  40
HETATM   40  C17 UNL     1     -15.291 -11.670  22.135  1.00  0.00     0.049 A 
HETATM   41  C18 UNL     1     -15.412 -11.264  23.468  1.00  0.00     0.030 A 
HETATM   42  C19 UNL     1     -15.352 -12.161  24.511  1.00  0.00     0.009 A 
HETATM   43  C20 UNL     1     -15.168 -13.520  24.285  1.00  0.00    -0.058 A 
HETATM   44  C24 UNL     1     -15.049 -13.916  22.970  1.00  0.00     0.009 A 
HETATM   45  C25 UNL     1     -15.109 -13.020  21.924  1.00  0.00     0.030 A 
BRANCH  43  46
HETATM   46  C21 UNL     1     -15.116 -14.444  25.446  1.00  0.00     0.049 C 
BRANCH  46  47
HETATM   47  C22 UNL     1     -13.741 -14.829  25.871  1.00  0.00     0.117 C 
BRANCH  47  48
HETATM   48  C23 UNL     1     -12.866 -13.736  26.286  1.00  0.00     0.172 C 
HETATM   49  O3  UNL     1     -12.999 -13.223  27.426  1.00  0.00    -0.648 OA
HETATM   50  O4  UNL     1     -11.860 -13.197  25.493  1.00  0.00    -0.648 OA
ENDBRANCH  47  48
ENDBRANCH  46  47
ENDBRANCH  43  46
ENDBRANCH  38  40
ENDBRANCH   7  38
TORSDOF 20
ENDMDL
MODEL 4
REMARK VINA RESULT: -8.343366813      5.637     13.435
REMARK  20 active torsions:
REMARK  status: ('A' for Active; 'I' for Inactive)
REMARK    1  A    between atoms: N1_2  and  O1_3 
REMARK    2  A    between atoms: N1_2  and  C2_5 
REMARK    3  A    between atoms: C2_5  and  C3_6 
REMARK    4  A    between atoms: C3_6  and  N2_7 
REMARK    5  A    between atoms: C3_6  and  C4_11 
REMARK    6  A    between atoms: C4_11  and  C5_12 
REMARK    7  A    between atoms: C5_12  and  C6_13 
REMARK    8  A    between atoms: C9_16  and  C10_17 
REMARK    9  A    between atoms: C10_17  and  C11_18 
REMARK   10  A    between atoms: C11_18  and  N3_19 
REMARK   11  A    between atoms: N3_19  and  C12_21 
REMARK   12  A    between atoms: C13_24  and  N5_25 
REMARK   13  A    between atoms: N5_25  and  C14_27 
REMARK   14  A    between atoms: C14_27  and  C15_28 
REMARK   15  A    between atoms: C15_28  and  O2_29 
REMARK   16  A    between atoms: C16_33  and  N7_34 
REMARK   17  A    between atoms: N7_34  and  C17_36 
REMARK   18  A    between atoms: C20_39  and  C21_40 
REMARK   19  A    between atoms: C21_40  and  C22_41 
REMARK   20  A    between atoms: C22_41  and  C23_42 
ROOT
HETATM    1  C12 UNL     1     -12.155  -7.418  17.339  1.00  0.00     0.707 A 
HETATM    2  N4  UNL     1     -12.714  -7.834  18.477  1.00  0.00    -0.022 N 
ATOM      3  H4  UNL     1     -12.186  -8.459  19.085  1.00  0.00     0.203 HD
HETATM    4  C13 UNL     1     -13.970  -7.451  18.852  1.00  0.00     0.707 A 
HETATM    5  N6  UNL     1     -14.642  -6.620  18.015  1.00  0.00    -0.021 N 
ATOM      6  H6  UNL     1     -15.582  -6.321  18.274  1.00  0.00     0.203 HD
HETATM    7  C16 UNL     1     -14.121  -6.179  16.866  1.00  0.00     0.711 A 
HETATM    8  N8  UNL     1     -12.891  -6.579  16.542  1.00  0.00    -0.021 N 
ATOM      9  H8  UNL     1     -12.482  -6.249  15.668  1.00  0.00     0.203 HD
ENDROOT
BRANCH   1  10
HETATM   10  N3  UNL     1     -11.000  -7.789  17.000  1.00  0.00    -0.225 N 
ATOM     11  H3  UNL     1     -10.291  -7.841  17.732  1.00  0.00     0.177 HD
BRANCH  10  12
HETATM   12  C11 UNL     1     -10.605  -8.140  15.686  1.00  0.00     0.142 C 
BRANCH  12  13
HETATM   13  C10 UNL     1      -9.500  -7.175  15.233  1.00  0.00     0.058 C 
BRANCH  13  14
HETATM   14  C9  UNL     1     -10.215  -6.015  14.621  1.00  0.00    -0.057 A 
HETATM   15  C8  UNL     1     -10.001  -4.738  15.097  1.00  0.00     0.007 A 
HETATM   16  C7  UNL     1     -10.628  -3.641  14.563  1.00  0.00     0.007 A 
HETATM   17  C6  UNL     1     -11.530  -3.758  13.493  1.00  0.00    -0.058 A 
HETATM   18  C27 UNL     1     -11.744  -5.025  13.019  1.00  0.00     0.007 A 
HETATM   19  C26 UNL     1     -11.098  -6.142  13.572  1.00  0.00     0.007 A 
BRANCH  17  20
HETATM   20  C5  UNL     1     -12.228  -2.609  12.947  1.00  0.00     0.040 C 
BRANCH  20  21
HETATM   21  C4  UNL     1     -11.962  -2.177  11.573  1.00  0.00     0.038 C 
BRANCH  21  22
HETATM   22  C3  UNL     1     -12.984  -2.527  10.536  1.00  0.00     0.199 C 
BRANCH  22  23
HETATM   23  C2  UNL     1     -12.828  -1.688   9.289  1.00  0.00     0.152 C 
BRANCH  23  24
HETATM   24  N1  UNL     1     -12.920  -2.629   8.164  1.00  0.00    -0.202 NA
HETATM   25  C1  UNL     1     -11.826  -3.571   8.160  1.00  0.00     0.143 C 
BRANCH  24  26
HETATM   26  O1  UNL     1     -14.071  -3.331   8.227  1.00  0.00    -0.313 OA
ATOM     27  H1  UNL     1     -14.718  -2.790   8.663  1.00  0.00     0.237 HD
ENDBRANCH  24  26
ENDBRANCH  23  24
ENDBRANCH  22  23
BRANCH  22  28
HETATM   28  N2  UNL     1     -14.359  -2.456  11.046  1.00  0.00    -0.074 N 
ATOM     29  H23 UNL     1     -14.896  -1.725  10.580  1.00  0.00     0.274 HD
ATOM     30  H22 UNL     1     -14.911  -3.262  10.754  1.00  0.00     0.274 HD
ATOM     31  H21 UNL     1     -14.365  -2.341  12.059  1.00  0.00     0.274 HD
ENDBRANCH  22  28
ENDBRANCH  21  22
ENDBRANCH  20  21
ENDBRANCH  17  20
ENDBRANCH  13  14
ENDBRANCH  12  13
ENDBRANCH  10  12
ENDBRANCH   1  10
BRANCH   4  32
HETATM   32  N5  UNL     1     -14.529  -7.844  19.938  1.00  0.00    -0.223 N 
ATOM     33  H5  UNL     1     -15.197  -8.613  19.867  1.00  0.00     0.177 HD
BRANCH  32  34
HETATM   34  C14 UNL     1     -14.298  -7.300  21.239  1.00  0.00     0.164 C 
BRANCH  34  35
HETATM   35  C15 UNL     1     -13.295  -8.080  22.060  1.00  0.00     0.184 C 
BRANCH  35  36
HETATM   36  O2  UNL     1     -11.999  -7.945  21.552  1.00  0.00    -0.399 OA
ATOM     37  H2  UNL     1     -11.574  -7.162  21.883  1.00  0.00     0.209 HD
ENDBRANCH  35  36
ENDBRANCH  34  35
ENDBRANCH  32  34
ENDBRANCH   4  32
BRANCH   7  38
HETATM   38  N7  UNL     1     -14.740  -5.413  16.073  1.00  0.00    -0.191 N 
ATOM     39  H7  UNL     1     -15.432  -5.861  15.471  1.00  0.00     0.184 HD
BRANCH  38  40
HETATM   40  C17 UNL     1     -14.599  -4.023  15.913  1.00  0.00     0.049 A 
HETATM   41  C18 UNL     1     -13.706  -3.278  16.690  1.00  0.00     0.030 A 
HETATM   42  C19 UNL     1     -13.568  -1.917  16.539  1.00  0.00     0.009 A 
HETATM   43  C20 UNL     1     -14.317  -1.215  15.601  1.00  0.00    -0.058 A 
HETATM   44  C24 UNL     1     -15.196  -1.952  14.838  1.00  0.00     0.009 A 
HETATM   45  C25 UNL     1     -15.335  -3.315  14.987  1.00  0.00     0.030 A 
BRANCH  43  46
HETATM   46  C21 UNL     1     -14.125   0.252  15.477  1.00  0.00     0.049 C 
BRANCH  46  47
HETATM   47  C22 UNL     1     -13.387   0.679  14.255  1.00  0.00     0.117 C 
BRANCH  47  48
HETATM   48  C23 UNL     1     -14.207   1.120  13.130  1.00  0.00     0.172 C 
HETATM   49  O3  UNL     1     -14.954   2.124  13.253  1.00  0.00    -0.648 OA
HETATM   50  O4  UNL     1     -14.229   0.497  11.887  1.00  0.00    -0.648 OA
ENDBRANCH  47  48
ENDBRANCH  46  47
ENDBRANCH  43  46
ENDBRANCH  38  40
ENDBRANCH   7  38
TORSDOF 20
ENDMDL
MODEL 5
REMARK VINA RESULT: -8.337819171      1.210      1.422
REMARK  20 active torsions:
REMARK  status: ('A' for Active; 'I' for Inactive)
REMARK    1  A    between atoms: N1_2  and  O1_3 
REMARK    2  A    between atoms: N1_2  and  C2_5 
REMARK    3  A    between atoms: C2_5  and  C3_6 
REMARK    4  A    between atoms: C3_6  and  N2_7 
REMARK    5  A    between atoms: C3_6  and  C4_11 
REMARK    6  A    between atoms: C4_11  and  C5_12 
REMARK    7  A    between atoms: C5_12  and  C6_13 
REMARK    8  A    between atoms: C9_16  and  C10_17 
REMARK    9  A    between atoms: C10_17  and  C11_18 
REMARK   10  A    between atoms: C11_18  and  N3_19 
REMARK   11  A    between atoms: N3_19  and  C12_21 
REMARK   12  A    between atoms: C13_24  and  N5_25 
REMARK   13  A    between atoms: N5_25  and  C14_27 
REMARK   14  A    between atoms: C14_27  and  C15_28 
REMARK   15  A    between atoms: C15_28  and  O2_29 
REMARK   16  A    between atoms: C16_33  and  N7_34 
REMARK   17  A    between atoms: N7_34  and  C17_36 
REMARK   18  A    between atoms: C20_39  and  C21_40 
REMARK   19  A    between atoms: C21_40  and  C22_41 
REMARK   20  A    between atoms: C22_41  and  C23_42 
ROOT
HETATM    1  C12 UNL     1     -13.008  -8.278  21.577  1.00  0.00     0.707 A 
HETATM    2  N4  UNL     1     -13.075  -7.648  20.403  1.00  0.00    -0.022 N 
ATOM      3  H4  UNL     1     -12.502  -6.818  20.256  1.00  0.00     0.203 HD
HETATM    4  C13 UNL     1     -13.888  -8.077  19.393  1.00  0.00     0.707 A 
HETATM    5  N6  UNL     1     -14.638  -9.184  19.627  1.00  0.00    -0.021 N 
ATOM      6  H6  UNL     1     -15.253  -9.524  18.888  1.00  0.00     0.203 HD
HETATM    7  C16 UNL     1     -14.602  -9.847  20.787  1.00  0.00     0.711 A 
HETATM    8  N8  UNL     1     -13.793  -9.391  21.744  1.00  0.00    -0.021 N 
ATOM      9  H8  UNL     1     -13.756  -9.888  22.634  1.00  0.00     0.203 HD
ENDROOT
BRANCH   1  10
HETATM   10  N3  UNL     1     -12.262  -7.864  22.504  1.00  0.00    -0.225 N 
ATOM     11  H3  UNL     1     -11.728  -7.012  22.330  1.00  0.00     0.177 HD
BRANCH  10  12
HETATM   12  C11 UNL     1     -12.105  -8.483  23.767  1.00  0.00     0.142 C 
BRANCH  12  13
HETATM   13  C10 UNL     1     -12.613  -7.521  24.851  1.00  0.00     0.058 C 
BRANCH  13  14
HETATM   14  C9  UNL     1     -13.537  -8.333  25.699  1.00  0.00    -0.057 A 
HETATM   15  C8  UNL     1     -14.092  -7.789  26.838  1.00  0.00     0.007 A 
HETATM   16  C7  UNL     1     -14.951  -8.493  27.644  1.00  0.00     0.007 A 
HETATM   17  C6  UNL     1     -15.314  -9.817  27.352  1.00  0.00    -0.058 A 
HETATM   18  C27 UNL     1     -14.763 -10.359  26.221  1.00  0.00     0.007 A 
HETATM   19  C26 UNL     1     -13.886  -9.632  25.403  1.00  0.00     0.007 A 
BRANCH  17  20
HETATM   20  C5  UNL     1     -16.190 -10.583  28.219  1.00  0.00     0.040 C 
BRANCH  20  21
HETATM   21  C4  UNL     1     -17.420 -11.171  27.682  1.00  0.00     0.038 C 
BRANCH  21  22
HETATM   22  C3  UNL     1     -18.548 -10.235  27.377  1.00  0.00     0.199 C 
BRANCH  22  23
HETATM   23  C2  UNL     1     -18.537  -9.793  25.932  1.00  0.00     0.152 C 
BRANCH  23  24
HETATM   24  N1  UNL     1     -18.393  -8.331  25.966  1.00  0.00    -0.202 NA
HETATM   25  C1  UNL     1     -17.436  -7.862  24.991  1.00  0.00     0.143 C 
BRANCH  24  26
HETATM   26  O1  UNL     1     -19.574  -7.733  25.708  1.00  0.00    -0.313 OA
ATOM     27  H1  UNL     1     -20.241  -8.172  26.223  1.00  0.00     0.237 HD
ENDBRANCH  24  26
ENDBRANCH  23  24
ENDBRANCH  22  23
BRANCH  22  28
HETATM   28  N2  UNL     1     -18.586  -9.077  28.278  1.00  0.00    -0.074 N 
ATOM     29  H23 UNL     1     -18.677  -8.201  27.763  1.00  0.00     0.274 HD
ATOM     30  H22 UNL     1     -19.459  -9.036  28.805  1.00  0.00     0.274 HD
ATOM     31  H21 UNL     1     -17.773  -9.069  28.894  1.00  0.00     0.274 HD
ENDBRANCH  22  28
ENDBRANCH  21  22
ENDBRANCH  20  21
ENDBRANCH  17  20
ENDBRANCH  13  14
ENDBRANCH  12  13
ENDBRANCH  10  12
ENDBRANCH   1  10
BRANCH   4  32
HETATM   32  N5  UNL     1     -13.973  -7.482  18.259  1.00  0.00    -0.223 N 
ATOM     33  H5  UNL     1     -14.728  -7.772  17.636  1.00  0.00     0.177 HD
BRANCH  32  34
HETATM   34  C14 UNL     1     -13.104  -6.449  17.793  1.00  0.00     0.164 C 
BRANCH  34  35
HETATM   35  C15 UNL     1     -13.678  -5.056  17.932  1.00  0.00     0.184 C 
BRANCH  35  36
HETATM   36  O2  UNL     1     -13.749  -4.661  19.271  1.00  0.00    -0.399 OA
ATOM     37  H2  UNL     1     -14.529  -5.000  19.695  1.00  0.00     0.209 HD
ENDBRANCH  35  36
ENDBRANCH  34  35
ENDBRANCH  32  34
ENDBRANCH   4  32
BRANCH   7  38
HETATM   38  N7  UNL     1     -15.303 -10.873  21.022  1.00  0.00    -0.191 N 
ATOM     39  H7  UNL     1     -16.313 -10.740  20.980  1.00  0.00     0.184 HD
BRANCH  38  40
HETATM   40  C17 UNL     1     -14.869 -12.174  21.333  1.00  0.00     0.049 A 
HETATM   41  C18 UNL     1     -15.176 -12.781  22.554  1.00  0.00     0.030 A 
HETATM   42  C19 UNL     1     -14.749 -14.054  22.864  1.00  0.00     0.009 A 
HETATM   43  C20 UNL     1     -13.988 -14.797  21.969  1.00  0.00    -0.058 A 
HETATM   44  C24 UNL     1     -13.688 -14.196  20.766  1.00  0.00     0.009 A 
HETATM   45  C25 UNL     1     -14.115 -12.922  20.455  1.00  0.00     0.030 A 
BRANCH  43  46
HETATM   46  C21 UNL     1     -13.559 -16.166  22.352  1.00  0.00     0.049 C 
BRANCH  46  47
HETATM   47  C22 UNL     1     -12.325 -16.219  23.185  1.00  0.00     0.117 C 
BRANCH  47  48
HETATM   48  C23 UNL     1     -11.304 -15.219  22.887  1.00  0.00     0.172 C 
HETATM   49  O3  UNL     1     -11.261 -14.149  23.546  1.00  0.00    -0.648 OA
HETATM   50  O4  UNL     1     -10.338 -15.359  21.897  1.00  0.00    -0.648 OA
ENDBRANCH  47  48
ENDBRANCH  46  47
ENDBRANCH  43  46
ENDBRANCH  38  40
ENDBRANCH   7  38
TORSDOF 20
ENDMDL
