MODEL 1
REMARK VINA RESULT: -8.282226832      0.000      0.000
REMARK  20 active torsions:
REMARK  status: ('A' for Active; 'I' for Inactive)
REMARK    1  A    between atoms: C4_4  and  N1_5 
REMARK    2  A    between atoms: N1_5  and  C5_7 
REMARK    3  A    between atoms: C5_7  and  C6_8 
REMARK    4  A    between atoms: C6_8  and  C7_9 
REMARK    5  A    between atoms: C7_9  and  C8_10 
REMARK    6  A    between atoms: C8_10  and  N2_11 
REMARK    7  A    between atoms: N2_11  and  C9_13 
REMARK    8  A    between atoms: C10_16  and  N4_17 
REMARK    9  A    between atoms: N4_17  and  C11_19 
REMARK   10  A    between atoms: C11_19  and  C12_20 
REMARK   11  A    between atoms: C12_20  and  O1_21 
REMARK   12  A    between atoms: C13_25  and  N6_26 
REMARK   13  A    between atoms: N6_26  and  C14_27 
REMARK   14  A    between atoms: C16_29  and  C17_30 
REMARK   15  A    between atoms: C17_30  and  N7_31 
REMARK   16  A    between atoms: N7_31  and  C18_33 
REMARK   17  A    between atoms: C18_33  and  C19_34 
REMARK   18  A    between atoms: C18_33  and  C20_36 
REMARK   19  A    between atoms: C20_36  and  C21_37 
REMARK   20  A    between atoms: C21_37  and  N8_38 
ROOT
HETATM    1  C9  UNL     1     -14.229 -11.153  20.649  1.00  0.00     0.696 A 
HETATM    2  N3  UNL     1     -14.113 -10.270  19.658  1.00  0.00    -0.022 N 
ATOM      3  H3  UNL     1     -14.056 -10.629  18.705  1.00  0.00     0.203 HD
HETATM    4  C10 UNL     1     -14.065  -8.947  19.827  1.00  0.00     0.696 A 
HETATM    5  N5  UNL     1     -14.140  -8.500  21.086  1.00  0.00    -0.148 N 
ATOM      6  H5  UNL     1     -14.106  -7.493  21.244  1.00  0.00     0.188 HD
HETATM    7  C13 UNL     1     -14.261  -9.329  22.179  1.00  0.00     0.288 A 
HETATM    8  N9  UNL     1     -14.302 -10.680  21.892  1.00  0.00    -0.148 N 
ATOM      9  H9  UNL     1     -14.391 -11.342  22.663  1.00  0.00     0.188 HD
ENDROOT
BRANCH   7  10
HETATM   10  N6  UNL     1     -14.317  -8.881  23.284  1.00  0.00    -0.370 NA
BRANCH  10  11
HETATM   11  C14 UNL     1     -14.387  -8.452  24.532  1.00  0.00     0.117 A 
HETATM   12  C15 UNL     1     -15.574  -8.636  25.273  1.00  0.00     0.054 A 
HETATM   13  C16 UNL     1     -15.717  -8.231  26.565  1.00  0.00    -0.038 A 
HETATM   14  C22 UNL     1     -14.640  -7.614  27.158  1.00  0.00     0.009 A 
HETATM   15  C23 UNL     1     -13.458  -7.402  26.503  1.00  0.00     0.011 A 
HETATM   16  C24 UNL     1     -13.336  -7.814  25.210  1.00  0.00    -0.021 A 
HETATM   17  C25 UNL     1     -12.038  -7.574  24.496  1.00  0.00     0.052 C 
BRANCH  13  18
HETATM   18  C17 UNL     1     -17.003  -8.427  27.350  1.00  0.00     0.153 C 
BRANCH  18  19
HETATM   19  N7  UNL     1     -16.623  -9.063  28.552  1.00  0.00    -0.407 N 
ATOM     20  H7  UNL     1     -15.680  -8.970  28.930  1.00  0.00     0.154 HD
BRANCH  19  21
HETATM   21  C18 UNL     1     -17.636  -9.858  29.225  1.00  0.00     0.140 C 
BRANCH  21  22
HETATM   22  C19 UNL     1     -18.642  -9.053  29.897  1.00  0.00     0.255 C 
HETATM   23  O2  UNL     1     -19.775  -8.843  29.422  1.00  0.00    -0.305 OA
ENDBRANCH  21  22
BRANCH  21  24
HETATM   24  C20 UNL     1     -18.164 -10.896  28.294  1.00  0.00     0.059 C 
BRANCH  24  25
HETATM   25  C21 UNL     1     -18.259 -12.296  28.777  1.00  0.00     0.232 C 
BRANCH  25  26
HETATM   26  N8  UNL     1     -17.191 -12.772  29.596  1.00  0.00    -0.079 N 
ATOM     27  H83 UNL     1     -17.231 -12.315  30.507  1.00  0.00     0.274 HD
ATOM     28  H82 UNL     1     -17.373 -13.741  29.862  1.00  0.00     0.274 HD
ATOM     29  H81 UNL     1     -16.247 -12.694  29.218  1.00  0.00     0.274 HD
ENDBRANCH  25  26
ENDBRANCH  24  25
ENDBRANCH  21  24
ENDBRANCH  19  21
ENDBRANCH  18  19
ENDBRANCH  13  18
ENDBRANCH  10  11
ENDBRANCH   7  10
BRANCH   4  30
HETATM   30  N4  UNL     1     -13.946  -8.102  18.888  1.00  0.00    -0.223 N 
ATOM     31  H4  UNL     1     -13.352  -8.400  18.113  1.00  0.00     0.177 HD
BRANCH  30  32
HETATM   32  C11 UNL     1     -14.511  -6.805  18.747  1.00  0.00     0.164 C 
BRANCH  32  33
HETATM   33  C12 UNL     1     -13.490  -5.716  18.473  1.00  0.00     0.184 C 
BRANCH  33  34
HETATM   34  O1  UNL     1     -13.727  -4.562  19.207  1.00  0.00    -0.399 OA
ATOM     35  H1  UNL     1     -13.337  -3.790  18.813  1.00  0.00     0.209 HD
ENDBRANCH  33  34
ENDBRANCH  32  33
ENDBRANCH  30  32
ENDBRANCH   4  30
BRANCH   1  36
HETATM   36  N2  UNL     1     -14.289 -12.435  20.484  1.00  0.00    -0.225 N 
ATOM     37  H2  UNL     1     -13.690 -12.828  19.759  1.00  0.00     0.177 HD
BRANCH  36  38
HETATM   38  C8  UNL     1     -15.102 -13.357  21.207  1.00  0.00     0.138 C 
BRANCH  38  39
HETATM   39  C7  UNL     1     -15.911 -14.263  20.337  1.00  0.00     0.022 C 
BRANCH  39  40
HETATM   40  C6  UNL     1     -16.939 -15.017  21.125  1.00  0.00     0.021 C 
BRANCH  40  41
HETATM   41  C5  UNL     1     -16.356 -16.054  22.065  1.00  0.00     0.120 C 
BRANCH  41  42
HETATM   42  N1  UNL     1     -16.682 -15.811  23.424  1.00  0.00    -0.390 N 
ATOM     43  H1  UNL     1     -17.629 -16.066  23.705  1.00  0.00     0.159 HD
BRANCH  42  44
HETATM   44  C4  UNL     1     -15.951 -15.320  24.335  1.00  0.00     0.031 A 
HETATM   45  C3  UNL     1     -16.005 -14.031  24.790  1.00  0.00     0.053 A 
HETATM   46  C2  UNL     1     -15.150 -13.629  25.790  1.00  0.00     0.007 A 
HETATM   47  C1  UNL     1     -15.228 -12.211  26.279  1.00  0.00     0.068 C 
HETATM   48  N10 UNL     1     -14.247 -14.454  26.349  1.00  0.00    -0.369 N 
HETATM   49  C27 UNL     1     -14.190 -15.721  25.905  1.00  0.00     0.090 A 
ATOM     50  H10 UNL     1     -13.624 -14.128  27.089  1.00  0.00     0.165 HD
HETATM   51  C26 UNL     1     -15.007 -16.170  24.926  1.00  0.00     0.046 A 
ENDBRANCH  42  44
ENDBRANCH  41  42
ENDBRANCH  40  41
ENDBRANCH  39  40
ENDBRANCH  38  39
ENDBRANCH  36  38
ENDBRANCH   1  36
TORSDOF 20
ENDMDL
MODEL 2
REMARK VINA RESULT: -8.064827966      3.576      7.610
REMARK  20 active torsions:
REMARK  status: ('A' for Active; 'I' for Inactive)
REMARK    1  A    between atoms: C4_4  and  N1_5 
REMARK    2  A    between atoms: N1_5  and  C5_7 
REMARK    3  A    between atoms: C5_7  and  C6_8 
REMARK    4  A    between atoms: C6_8  and  C7_9 
REMARK    5  A    between atoms: C7_9  and  C8_10 
REMARK    6  A    between atoms: C8_10  and  N2_11 
REMARK    7  A    between atoms: N2_11  and  C9_13 
REMARK    8  A    between atoms: C10_16  and  N4_17 
REMARK    9  A    between atoms: N4_17  and  C11_19 
REMARK   10  A    between atoms: C11_19  and  C12_20 
REMARK   11  A    between atoms: C12_20  and  O1_21 
REMARK   12  A    between atoms: C13_25  and  N6_26 
REMARK   13  A    between atoms: N6_26  and  C14_27 
REMARK   14  A    between atoms: C16_29  and  C17_30 
REMARK   15  A    between atoms: C17_30  and  N7_31 
REMARK   16  A    between atoms: N7_31  and  C18_33 
REMARK   17  A    between atoms: C18_33  and  C19_34 
REMARK   18  A    between atoms: C18_33  and  C20_36 
REMARK   19  A    between atoms: C20_36  and  C21_37 
REMARK   20  A    between atoms: C21_37  and  N8_38 
ROOT
HETATM    1  C9  UNL     1     -14.136  -9.025  19.841  1.00  0.00     0.696 A 
HETATM    2  N3  UNL     1     -14.219 -10.349  19.713  1.00  0.00    -0.022 N 
ATOM      3  H3  UNL     1     -14.207 -10.737  18.770  1.00  0.00     0.203 HD
HETATM    4  C10 UNL     1     -14.316 -11.202  20.734  1.00  0.00     0.696 A 
HETATM    5  N5  UNL     1     -14.330 -10.668  21.961  1.00  0.00    -0.148 N 
ATOM      6  H5  UNL     1     -14.404 -11.298  22.761  1.00  0.00     0.188 HD
HETATM    7  C13 UNL     1     -14.251  -9.315  22.201  1.00  0.00     0.288 A 
HETATM    8  N9  UNL     1     -14.153  -8.521  21.074  1.00  0.00    -0.148 N 
ATOM      9  H9  UNL     1     -14.091  -7.510  21.191  1.00  0.00     0.188 HD
ENDROOT
BRANCH   7  10
HETATM   10  N6  UNL     1     -14.275  -8.887  23.316  1.00  0.00    -0.370 NA
BRANCH  10  11
HETATM   11  C14 UNL     1     -14.359  -8.455  24.562  1.00  0.00     0.117 A 
HETATM   12  C15 UNL     1     -15.543  -8.666  25.300  1.00  0.00     0.054 A 
HETATM   13  C16 UNL     1     -15.700  -8.259  26.589  1.00  0.00    -0.038 A 
HETATM   14  C22 UNL     1     -14.641  -7.613  27.184  1.00  0.00     0.009 A 
HETATM   15  C23 UNL     1     -13.463  -7.374  26.531  1.00  0.00     0.011 A 
HETATM   16  C24 UNL     1     -13.326  -7.788  25.240  1.00  0.00    -0.021 A 
HETATM   17  C25 UNL     1     -12.033  -7.518  24.529  1.00  0.00     0.052 C 
BRANCH  13  18
HETATM   18  C17 UNL     1     -16.983  -8.485  27.371  1.00  0.00     0.153 C 
BRANCH  18  19
HETATM   19  N7  UNL     1     -16.602  -9.184  28.537  1.00  0.00    -0.407 N 
ATOM     20  H7  UNL     1     -15.635  -9.195  28.860  1.00  0.00     0.154 HD
BRANCH  19  21
HETATM   21  C18 UNL     1     -17.650  -9.890  29.255  1.00  0.00     0.140 C 
BRANCH  21  22
HETATM   22  C19 UNL     1     -18.604  -9.000  29.896  1.00  0.00     0.255 C 
HETATM   23  O2  UNL     1     -19.787  -8.884  29.521  1.00  0.00    -0.305 OA
ENDBRANCH  21  22
BRANCH  21  24
HETATM   24  C20 UNL     1     -18.244 -10.938  28.377  1.00  0.00     0.059 C 
BRANCH  24  25
HETATM   25  C21 UNL     1     -18.306 -12.332  28.883  1.00  0.00     0.232 C 
BRANCH  25  26
HETATM   26  N8  UNL     1     -17.230 -12.767  29.715  1.00  0.00    -0.079 N 
ATOM     27  H83 UNL     1     -17.606 -13.216  30.550  1.00  0.00     0.274 HD
ATOM     28  H82 UNL     1     -16.756 -13.556  29.273  1.00  0.00     0.274 HD
ATOM     29  H81 UNL     1     -16.542 -12.065  29.986  1.00  0.00     0.274 HD
ENDBRANCH  25  26
ENDBRANCH  24  25
ENDBRANCH  21  24
ENDBRANCH  19  21
ENDBRANCH  18  19
ENDBRANCH  13  18
ENDBRANCH  10  11
ENDBRANCH   7  10
BRANCH   4  30
HETATM   30  N4  UNL     1     -14.403 -12.462  20.618  1.00  0.00    -0.223 N 
ATOM     31  H4  UNL     1     -14.648 -12.792  19.684  1.00  0.00     0.177 HD
BRANCH  30  32
HETATM   32  C11 UNL     1     -14.214 -13.485  21.587  1.00  0.00     0.164 C 
BRANCH  32  33
HETATM   33  C12 UNL     1     -13.280 -14.594  21.135  1.00  0.00     0.184 C 
BRANCH  33  34
HETATM   34  O1  UNL     1     -13.149 -14.654  19.754  1.00  0.00    -0.399 OA
ATOM     35  H1  UNL     1     -13.388 -13.839  19.327  1.00  0.00     0.209 HD
ENDBRANCH  33  34
ENDBRANCH  32  33
ENDBRANCH  30  32
ENDBRANCH   4  30
BRANCH   1  36
HETATM   36  N2  UNL     1     -14.028  -8.198  18.851  1.00  0.00    -0.225 N 
ATOM     37  H2  UNL     1     -14.652  -8.353  18.060  1.00  0.00     0.177 HD
BRANCH  36  38
HETATM   38  C8  UNL     1     -13.131  -7.095  18.747  1.00  0.00     0.138 C 
BRANCH  38  39
HETATM   39  C7  UNL     1     -11.699  -7.489  18.596  1.00  0.00     0.022 C 
BRANCH  39  40
HETATM   40  C6  UNL     1     -10.916  -6.461  17.835  1.00  0.00     0.021 C 
BRANCH  40  41
HETATM   41  C5  UNL     1     -10.101  -7.031  16.691  1.00  0.00     0.120 C 
BRANCH  41  42
HETATM   42  N1  UNL     1     -10.670  -8.208  16.140  1.00  0.00    -0.390 N 
ATOM     43  H1  UNL     1     -11.288  -8.733  16.760  1.00  0.00     0.159 HD
BRANCH  42  44
HETATM   44  C4  UNL     1     -10.513  -8.692  14.980  1.00  0.00     0.031 A 
HETATM   45  C3  UNL     1     -10.125  -7.992  13.871  1.00  0.00     0.053 A 
HETATM   46  C2  UNL     1      -9.992  -8.646  12.668  1.00  0.00     0.007 A 
HETATM   47  C1  UNL     1      -9.562  -7.860  11.463  1.00  0.00     0.068 C 
HETATM   48  N10 UNL     1     -10.228  -9.962  12.527  1.00  0.00    -0.369 N 
HETATM   49  C27 UNL     1     -10.609 -10.655  13.614  1.00  0.00     0.090 A 
ATOM     50  H10 UNL     1     -10.122 -10.421  11.622  1.00  0.00     0.165 HD
HETATM   51  C26 UNL     1     -10.756 -10.063  14.821  1.00  0.00     0.046 A 
ENDBRANCH  42  44
ENDBRANCH  41  42
ENDBRANCH  40  41
ENDBRANCH  39  40
ENDBRANCH  38  39
ENDBRANCH  36  38
ENDBRANCH   1  36
TORSDOF 20
ENDMDL
MODEL 3
REMARK VINA RESULT: -8.030490533      3.895      9.875
REMARK  20 active torsions:
REMARK  status: ('A' for Active; 'I' for Inactive)
REMARK    1  A    between atoms: C4_4  and  N1_5 
REMARK    2  A    between atoms: N1_5  and  C5_7 
REMARK    3  A    between atoms: C5_7  and  C6_8 
REMARK    4  A    between atoms: C6_8  and  C7_9 
REMARK    5  A    between atoms: C7_9  and  C8_10 
REMARK    6  A    between atoms: C8_10  and  N2_11 
REMARK    7  A    between atoms: N2_11  and  C9_13 
REMARK    8  A    between atoms: C10_16  and  N4_17 
REMARK    9  A    between atoms: N4_17  and  C11_19 
REMARK   10  A    between atoms: C11_19  and  C12_20 
REMARK   11  A    between atoms: C12_20  and  O1_21 
REMARK   12  A    between atoms: C13_25  and  N6_26 
REMARK   13  A    between atoms: N6_26  and  C14_27 
REMARK   14  A    between atoms: C16_29  and  C17_30 
REMARK   15  A    between atoms: C17_30  and  N7_31 
REMARK   16  A    between atoms: N7_31  and  C18_33 
REMARK   17  A    between atoms: C18_33  and  C19_34 
REMARK   18  A    between atoms: C18_33  and  C20_36 
REMARK   19  A    between atoms: C20_36  and  C21_37 
REMARK   20  A    between atoms: C21_37  and  N8_38 
ROOT
HETATM    1  C9  UNL     1     -14.964  -8.272  21.959  1.00  0.00     0.696 A 
HETATM    2  N3  UNL     1     -14.881  -9.560  21.631  1.00  0.00    -0.022 N 
ATOM      3  H3  UNL     1     -15.276 -10.242  22.279  1.00  0.00     0.203 HD
HETATM    4  C10 UNL     1     -14.316 -10.020  20.513  1.00  0.00     0.696 A 
HETATM    5  N5  UNL     1     -13.805  -9.107  19.680  1.00  0.00    -0.148 N 
ATOM      6  H5  UNL     1     -13.368  -9.431  18.817  1.00  0.00     0.188 HD
HETATM    7  C13 UNL     1     -13.839  -7.752  19.926  1.00  0.00     0.288 A 
HETATM    8  N9  UNL     1     -14.447  -7.384  21.111  1.00  0.00    -0.148 N 
ATOM      9  H9  UNL     1     -14.501  -6.393  21.346  1.00  0.00     0.188 HD
ENDROOT
BRANCH   7  10
HETATM   10  N6  UNL     1     -13.362  -6.977  19.153  1.00  0.00    -0.370 NA
BRANCH  10  11
HETATM   11  C14 UNL     1     -12.795  -6.092  18.352  1.00  0.00     0.117 A 
HETATM   12  C15 UNL     1     -13.546  -5.001  17.865  1.00  0.00     0.054 A 
HETATM   13  C16 UNL     1     -13.029  -4.046  17.046  1.00  0.00    -0.038 A 
HETATM   14  C22 UNL     1     -11.707  -4.168  16.686  1.00  0.00     0.009 A 
HETATM   15  C23 UNL     1     -10.917  -5.198  17.118  1.00  0.00     0.011 A 
HETATM   16  C24 UNL     1     -11.454  -6.144  17.938  1.00  0.00    -0.021 A 
HETATM   17  C25 UNL     1     -10.583  -7.273  18.405  1.00  0.00     0.052 C 
BRANCH  13  18
HETATM   18  C17 UNL     1     -13.851  -2.880  16.522  1.00  0.00     0.153 C 
BRANCH  18  19
HETATM   19  N7  UNL     1     -13.287  -1.724  17.103  1.00  0.00    -0.407 N 
ATOM     20  H7  UNL     1     -12.411  -1.762  17.625  1.00  0.00     0.154 HD
BRANCH  19  21
HETATM   21  C18 UNL     1     -14.012  -0.477  16.926  1.00  0.00     0.140 C 
BRANCH  21  22
HETATM   22  C19 UNL     1     -13.176   0.700  17.096  1.00  0.00     0.255 C 
HETATM   23  O2  UNL     1     -12.529   0.932  18.136  1.00  0.00    -0.305 OA
ENDBRANCH  21  22
BRANCH  21  24
HETATM   24  C20 UNL     1     -14.798  -0.527  15.660  1.00  0.00     0.059 C 
BRANCH  24  25
HETATM   25  C21 UNL     1     -14.337   0.289  14.510  1.00  0.00     0.232 C 
BRANCH  25  26
HETATM   26  N8  UNL     1     -14.080  -0.402  13.287  1.00  0.00    -0.079 N 
ATOM     27  H83 UNL     1     -14.700  -1.208  13.215  1.00  0.00     0.274 HD
ATOM     28  H82 UNL     1     -14.409   0.161  12.502  1.00  0.00     0.274 HD
ATOM     29  H81 UNL     1     -13.119  -0.696  13.115  1.00  0.00     0.274 HD
ENDBRANCH  25  26
ENDBRANCH  24  25
ENDBRANCH  21  24
ENDBRANCH  19  21
ENDBRANCH  18  19
ENDBRANCH  13  18
ENDBRANCH  10  11
ENDBRANCH   7  10
BRANCH   4  30
HETATM   30  N4  UNL     1     -14.227 -11.246  20.200  1.00  0.00    -0.223 N 
ATOM     31  H4  UNL     1     -14.318 -11.445  19.203  1.00  0.00     0.177 HD
BRANCH  30  32
HETATM   32  C11 UNL     1     -14.019 -12.387  21.023  1.00  0.00     0.164 C 
BRANCH  32  33
HETATM   33  C12 UNL     1     -14.214 -13.709  20.301  1.00  0.00     0.184 C 
BRANCH  33  34
HETATM   34  O1  UNL     1     -13.065 -14.488  20.291  1.00  0.00    -0.399 OA
ATOM     35  H1  UNL     1     -13.065 -15.150  20.974  1.00  0.00     0.209 HD
ENDBRANCH  33  34
ENDBRANCH  32  33
ENDBRANCH  30  32
ENDBRANCH   4  30
BRANCH   1  36
HETATM   36  N2  UNL     1     -15.524  -7.824  23.036  1.00  0.00    -0.225 N 
ATOM     37  H2  UNL     1     -15.258  -6.884  23.330  1.00  0.00     0.177 HD
BRANCH  36  38
HETATM   38  C8  UNL     1     -16.471  -8.502  23.858  1.00  0.00     0.138 C 
BRANCH  38  39
HETATM   39  C7  UNL     1     -17.131  -7.626  24.872  1.00  0.00     0.022 C 
BRANCH  39  40
HETATM   40  C6  UNL     1     -16.129  -6.941  25.751  1.00  0.00     0.021 C 
BRANCH  40  41
HETATM   41  C5  UNL     1     -15.552  -7.829  26.836  1.00  0.00     0.120 C 
BRANCH  41  42
HETATM   42  N1  UNL     1     -14.136  -7.904  26.794  1.00  0.00    -0.390 N 
ATOM     43  H1  UNL     1     -13.650  -7.588  27.633  1.00  0.00     0.159 HD
BRANCH  42  44
HETATM   44  C4  UNL     1     -13.395  -8.311  25.850  1.00  0.00     0.031 A 
HETATM   45  C3  UNL     1     -13.320  -9.600  25.397  1.00  0.00     0.053 A 
HETATM   46  C2  UNL     1     -12.471  -9.905  24.358  1.00  0.00     0.007 A 
HETATM   47  C1  UNL     1     -12.405 -11.325  23.872  1.00  0.00     0.068 C 
HETATM   48  N10 UNL     1     -11.697  -8.983  23.758  1.00  0.00    -0.369 N 
HETATM   49  C27 UNL     1     -11.768  -7.716  24.200  1.00  0.00     0.090 A 
ATOM     50  H10 UNL     1     -11.075  -9.238  22.990  1.00  0.00     0.165 HD
HETATM   51  C26 UNL     1     -12.585  -7.360  25.216  1.00  0.00     0.046 A 
ENDBRANCH  42  44
ENDBRANCH  41  42
ENDBRANCH  40  41
ENDBRANCH  39  40
ENDBRANCH  38  39
ENDBRANCH  36  38
ENDBRANCH   1  36
TORSDOF 20
ENDMDL
MODEL 4
REMARK VINA RESULT: -7.989584495      3.095      6.353
REMARK  20 active torsions:
REMARK  status: ('A' for Active; 'I' for Inactive)
REMARK    1  A    between atoms: C4_4  and  N1_5 
REMARK    2  A    between atoms: N1_5  and  C5_7 
REMARK    3  A    between atoms: C5_7  and  C6_8 
REMARK    4  A    between atoms: C6_8  and  C7_9 
REMARK    5  A    between atoms: C7_9  and  C8_10 
REMARK    6  A    between atoms: C8_10  and  N2_11 
REMARK    7  A    between atoms: N2_11  and  C9_13 
REMARK    8  A    between atoms: C10_16  and  N4_17 
REMARK    9  A    between atoms: N4_17  and  C11_19 
REMARK   10  A    between atoms: C11_19  and  C12_20 
REMARK   11  A    between atoms: C12_20  and  O1_21 
REMARK   12  A    between atoms: C13_25  and  N6_26 
REMARK   13  A    between atoms: N6_26  and  C14_27 
REMARK   14  A    between atoms: C16_29  and  C17_30 
REMARK   15  A    between atoms: C17_30  and  N7_31 
REMARK   16  A    between atoms: N7_31  and  C18_33 
REMARK   17  A    between atoms: C18_33  and  C19_34 
REMARK   18  A    between atoms: C18_33  and  C20_36 
REMARK   19  A    between atoms: C20_36  and  C21_37 
REMARK   20  A    between atoms: C21_37  and  N8_38 
ROOT
HETATM    1  C9  UNL     1     -13.837 -11.619  23.290  1.00  0.00     0.696 A 
HETATM    2  N3  UNL     1     -13.926 -12.896  22.921  1.00  0.00    -0.022 N 
ATOM      3  H3  UNL     1     -13.357 -13.204  22.132  1.00  0.00     0.203 HD
HETATM    4  C10 UNL     1     -14.707 -13.801  23.514  1.00  0.00     0.696 A 
HETATM    5  N5  UNL     1     -15.444 -13.373  24.546  1.00  0.00    -0.148 N 
ATOM      6  H5  UNL     1     -16.050 -14.044  25.017  1.00  0.00     0.188 HD
HETATM    7  C13 UNL     1     -15.425 -12.075  25.004  1.00  0.00     0.288 A 
HETATM    8  N9  UNL     1     -14.581 -11.221  24.321  1.00  0.00    -0.148 N 
ATOM      9  H9  UNL     1     -14.526 -10.246  24.617  1.00  0.00     0.188 HD
ENDROOT
BRANCH   7  10
HETATM   10  N6  UNL     1     -16.107 -11.741  25.926  1.00  0.00    -0.370 NA
BRANCH  10  11
HETATM   11  C14 UNL     1     -16.870 -11.308  26.914  1.00  0.00     0.117 A 
HETATM   12  C15 UNL     1     -18.085 -11.964  27.204  1.00  0.00     0.054 A 
HETATM   13  C16 UNL     1     -18.917 -11.582  28.211  1.00  0.00    -0.038 A 
HETATM   14  C22 UNL     1     -18.537 -10.501  28.971  1.00  0.00     0.009 A 
HETATM   15  C23 UNL     1     -17.375  -9.816  28.749  1.00  0.00     0.011 A 
HETATM   16  C24 UNL     1     -16.555 -10.214  27.736  1.00  0.00    -0.021 A 
HETATM   17  C25 UNL     1     -15.284  -9.454  27.496  1.00  0.00     0.052 C 
BRANCH  13  18
HETATM   18  C17 UNL     1     -20.227 -12.293  28.508  1.00  0.00     0.153 C 
BRANCH  18  19
HETATM   19  N7  UNL     1     -20.865 -11.519  29.501  1.00  0.00    -0.407 N 
ATOM     20  H7  UNL     1     -20.634 -10.535  29.640  1.00  0.00     0.154 HD
BRANCH  19  21
HETATM   21  C18 UNL     1     -21.865 -12.187  30.316  1.00  0.00     0.140 C 
BRANCH  21  22
HETATM   22  C19 UNL     1     -22.945 -11.308  30.733  1.00  0.00     0.255 C 
HETATM   23  O2  UNL     1     -22.999 -10.102  30.424  1.00  0.00    -0.305 OA
ENDBRANCH  21  22
BRANCH  21  24
HETATM   24  C20 UNL     1     -22.291 -13.453  29.654  1.00  0.00     0.059 C 
BRANCH  24  25
HETATM   25  C21 UNL     1     -22.100 -14.731  30.384  1.00  0.00     0.232 C 
BRANCH  25  26
HETATM   26  N8  UNL     1     -20.996 -14.803  31.286  1.00  0.00    -0.079 N 
ATOM     27  H83 UNL     1     -20.125 -14.823  30.757  1.00  0.00     0.274 HD
ATOM     28  H82 UNL     1     -20.898 -13.913  31.777  1.00  0.00     0.274 HD
ATOM     29  H81 UNL     1     -21.000 -15.566  31.963  1.00  0.00     0.274 HD
ENDBRANCH  25  26
ENDBRANCH  24  25
ENDBRANCH  21  24
ENDBRANCH  19  21
ENDBRANCH  18  19
ENDBRANCH  13  18
ENDBRANCH  10  11
ENDBRANCH   7  10
BRANCH   4  30
HETATM   30  N4  UNL     1     -14.802 -15.016  23.161  1.00  0.00    -0.223 N 
ATOM     31  H4  UNL     1     -14.154 -15.652  23.627  1.00  0.00     0.177 HD
BRANCH  30  32
HETATM   32  C11 UNL     1     -15.672 -15.629  22.218  1.00  0.00     0.164 C 
BRANCH  32  33
HETATM   33  C12 UNL     1     -15.299 -15.357  20.771  1.00  0.00     0.184 C 
BRANCH  33  34
HETATM   34  O1  UNL     1     -13.930 -15.224  20.587  1.00  0.00    -0.399 OA
ATOM     35  H1  UNL     1     -13.649 -15.488  19.718  1.00  0.00     0.209 HD
ENDBRANCH  33  34
ENDBRANCH  32  33
ENDBRANCH  30  32
ENDBRANCH   4  30
BRANCH   1  36
HETATM   36  N2  UNL     1     -13.069 -10.745  22.725  1.00  0.00    -0.225 N 
ATOM     37  H2  UNL     1     -13.122 -10.684  21.708  1.00  0.00     0.177 HD
BRANCH  36  38
HETATM   38  C8  UNL     1     -12.157  -9.858  23.368  1.00  0.00     0.138 C 
BRANCH  38  39
HETATM   39  C7  UNL     1     -12.294  -8.433  22.943  1.00  0.00     0.022 C 
BRANCH  39  40
HETATM   40  C6  UNL     1     -13.271  -8.281  21.816  1.00  0.00     0.021 C 
BRANCH  40  41
HETATM   41  C5  UNL     1     -14.618  -7.727  22.239  1.00  0.00     0.120 C 
BRANCH  41  42
HETATM   42  N1  UNL     1     -14.723  -7.544  23.642  1.00  0.00    -0.390 N 
ATOM     43  H1  UNL     1     -13.840  -7.448  24.143  1.00  0.00     0.159 HD
BRANCH  42  44
HETATM   44  C4  UNL     1     -15.771  -7.484  24.353  1.00  0.00     0.031 A 
HETATM   45  C3  UNL     1     -16.860  -8.303  24.236  1.00  0.00     0.053 A 
HETATM   46  C2  UNL     1     -17.934  -8.127  25.078  1.00  0.00     0.007 A 
HETATM   47  C1  UNL     1     -19.119  -9.039  24.936  1.00  0.00     0.068 C 
HETATM   48  N10 UNL     1     -17.965  -7.174  26.026  1.00  0.00    -0.369 N 
HETATM   49  C27 UNL     1     -16.896  -6.367  26.145  1.00  0.00     0.090 A 
ATOM     50  H10 UNL     1     -18.775  -7.066  26.636  1.00  0.00     0.165 HD
HETATM   51  C26 UNL     1     -15.815  -6.495  25.344  1.00  0.00     0.046 A 
ENDBRANCH  42  44
ENDBRANCH  41  42
ENDBRANCH  40  41
ENDBRANCH  39  40
ENDBRANCH  38  39
ENDBRANCH  36  38
ENDBRANCH   1  36
TORSDOF 20
ENDMDL
MODEL 5
REMARK VINA RESULT: -7.982239914      4.088     10.482
REMARK  20 active torsions:
REMARK  status: ('A' for Active; 'I' for Inactive)
REMARK    1  A    between atoms: C4_4  and  N1_5 
REMARK    2  A    between atoms: N1_5  and  C5_7 
REMARK    3  A    between atoms: C5_7  and  C6_8 
REMARK    4  A    between atoms: C6_8  and  C7_9 
REMARK    5  A    between atoms: C7_9  and  C8_10 
REMARK    6  A    between atoms: C8_10  and  N2_11 
REMARK    7  A    between atoms: N2_11  and  C9_13 
REMARK    8  A    between atoms: C10_16  and  N4_17 
REMARK    9  A    between atoms: N4_17  and  C11_19 
REMARK   10  A    between atoms: C11_19  and  C12_20 
REMARK   11  A    between atoms: C12_20  and  O1_21 
REMARK   12  A    between atoms: C13_25  and  N6_26 
REMARK   13  A    between atoms: N6_26  and  C14_27 
REMARK   14  A    between atoms: C16_29  and  C17_30 
REMARK   15  A    between atoms: C17_30  and  N7_31 
REMARK   16  A    between atoms: N7_31  and  C18_33 
REMARK   17  A    between atoms: C18_33  and  C19_34 
REMARK   18  A    between atoms: C18_33  and  C20_36 
REMARK   19  A    between atoms: C20_36  and  C21_37 
REMARK   20  A    between atoms: C21_37  and  N8_38 
ROOT
HETATM    1  C9  UNL     1     -13.202  -8.454  22.028  1.00  0.00     0.696 A 
HETATM    2  N3  UNL     1     -13.923  -9.565  21.883  1.00  0.00    -0.022 N 
ATOM      3  H3  UNL     1     -14.214 -10.057  22.727  1.00  0.00     0.203 HD
HETATM    4  C10 UNL     1     -14.291 -10.079  20.707  1.00  0.00     0.696 A 
HETATM    5  N5  UNL     1     -13.897  -9.416  19.614  1.00  0.00    -0.148 N 
ATOM      6  H5  UNL     1     -14.164  -9.787  18.702  1.00  0.00     0.188 HD
HETATM    7  C13 UNL     1     -13.149  -8.260  19.656  1.00  0.00     0.288 A 
HETATM    8  N9  UNL     1     -12.823  -7.815  20.922  1.00  0.00    -0.148 N 
ATOM      9  H9  UNL     1     -12.270  -6.963  21.014  1.00  0.00     0.188 HD
ENDROOT
BRANCH   7  10
HETATM   10  N6  UNL     1     -12.816  -7.709  18.649  1.00  0.00    -0.370 NA
BRANCH  10  11
HETATM   11  C14 UNL     1     -12.450  -7.164  17.504  1.00  0.00     0.117 A 
HETATM   12  C15 UNL     1     -11.179  -7.453  16.962  1.00  0.00     0.054 A 
HETATM   13  C16 UNL     1     -10.737  -6.937  15.783  1.00  0.00    -0.038 A 
HETATM   14  C22 UNL     1     -11.584  -6.095  15.101  1.00  0.00     0.009 A 
HETATM   15  C23 UNL     1     -12.829  -5.770  15.564  1.00  0.00     0.011 A 
HETATM   16  C24 UNL     1     -13.254  -6.296  16.747  1.00  0.00    -0.021 A 
HETATM   17  C25 UNL     1     -14.619  -5.931  17.251  1.00  0.00     0.052 C 
BRANCH  13  18
HETATM   18  C17 UNL     1      -9.363  -7.250  15.214  1.00  0.00     0.153 C 
BRANCH  18  19
HETATM   19  N7  UNL     1      -9.489  -7.115  13.814  1.00  0.00    -0.407 N 
ATOM     20  H7  UNL     1      -9.811  -6.245  13.389  1.00  0.00     0.154 HD
BRANCH  19  21
HETATM   21  C18 UNL     1      -9.141  -8.271  13.006  1.00  0.00     0.140 C 
BRANCH  21  22
HETATM   22  C19 UNL     1      -7.889  -8.892  13.404  1.00  0.00     0.255 C 
HETATM   23  O2  UNL     1      -6.772  -8.409  13.134  1.00  0.00    -0.305 OA
ENDBRANCH  21  22
BRANCH  21  24
HETATM   24  C20 UNL     1     -10.310  -9.191  12.912  1.00  0.00     0.059 C 
BRANCH  24  25
HETATM   25  C21 UNL     1     -10.267 -10.468  13.668  1.00  0.00     0.232 C 
BRANCH  25  26
HETATM   26  N8  UNL     1     -11.043 -10.539  14.864  1.00  0.00    -0.079 N 
ATOM     27  H83 UNL     1     -10.596  -9.982  15.593  1.00  0.00     0.274 HD
ATOM     28  H82 UNL     1     -11.913 -10.020  14.738  1.00  0.00     0.274 HD
ATOM     29  H81 UNL     1     -11.250 -11.469  15.227  1.00  0.00     0.274 HD
ENDBRANCH  25  26
ENDBRANCH  24  25
ENDBRANCH  21  24
ENDBRANCH  19  21
ENDBRANCH  18  19
ENDBRANCH  13  18
ENDBRANCH  10  11
ENDBRANCH   7  10
BRANCH   4  30
HETATM   30  N4  UNL     1     -14.970 -11.141  20.563  1.00  0.00    -0.223 N 
ATOM     31  H4  UNL     1     -15.526 -11.184  19.709  1.00  0.00     0.177 HD
BRANCH  30  32
HETATM   32  C11 UNL     1     -15.076 -12.279  21.408  1.00  0.00     0.164 C 
BRANCH  32  33
HETATM   33  C12 UNL     1     -13.899 -13.232  21.305  1.00  0.00     0.184 C 
BRANCH  33  34
HETATM   34  O1  UNL     1     -13.573 -13.542  19.992  1.00  0.00    -0.399 OA
ATOM     35  H1  UNL     1     -12.646 -13.437  19.809  1.00  0.00     0.209 HD
ENDBRANCH  33  34
ENDBRANCH  32  33
ENDBRANCH  30  32
ENDBRANCH   4  30
BRANCH   1  36
HETATM   36  N2  UNL     1     -12.857  -7.948  23.167  1.00  0.00    -0.225 N 
ATOM     37  H2  UNL     1     -12.061  -7.310  23.159  1.00  0.00     0.177 HD
BRANCH  36  38
HETATM   38  C8  UNL     1     -13.468  -8.185  24.434  1.00  0.00     0.138 C 
BRANCH  38  39
HETATM   39  C7  UNL     1     -13.060  -7.216  25.494  1.00  0.00     0.022 C 
BRANCH  39  40
HETATM   40  C6  UNL     1     -14.246  -6.632  26.200  1.00  0.00     0.021 C 
BRANCH  40  41
HETATM   41  C5  UNL     1     -15.333  -6.131  25.267  1.00  0.00     0.120 C 
BRANCH  41  42
HETATM   42  N1  UNL     1     -16.631  -6.237  25.827  1.00  0.00    -0.390 N 
ATOM     43  H1  UNL     1     -17.085  -5.354  26.065  1.00  0.00     0.159 HD
BRANCH  42  44
HETATM   44  C4  UNL     1     -17.303  -7.284  26.071  1.00  0.00     0.031 A 
HETATM   45  C3  UNL     1     -17.730  -7.686  27.307  1.00  0.00     0.053 A 
HETATM   46  C2  UNL     1     -18.455  -8.849  27.428  1.00  0.00     0.007 A 
HETATM   47  C1  UNL     1     -18.918  -9.272  28.793  1.00  0.00     0.068 C 
HETATM   48  N10 UNL     1     -18.768  -9.623  26.374  1.00  0.00    -0.369 N 
HETATM   49  C27 UNL     1     -18.351  -9.232  25.158  1.00  0.00     0.090 A 
ATOM     50  H10 UNL     1     -19.307 -10.481  26.494  1.00  0.00     0.165 HD
HETATM   51  C26 UNL     1     -17.636  -8.098  24.980  1.00  0.00     0.046 A 
ENDBRANCH  42  44
ENDBRANCH  41  42
ENDBRANCH  40  41
ENDBRANCH  39  40
ENDBRANCH  38  39
ENDBRANCH  36  38
ENDBRANCH   1  36
TORSDOF 20
ENDMDL
