MODEL 1
REMARK VINA RESULT: -9.151065434      0.000      0.000
REMARK  16 active torsions:
REMARK  status: ('A' for Active; 'I' for Inactive)
REMARK    1  A    between atoms: C4_4  and  N1_5 
REMARK    2  A    between atoms: N1_5  and  C5_7 
REMARK    3  A    between atoms: N2_10  and  O1_11 
REMARK    4  A    between atoms: C10_15  and  C11_16 
REMARK       I    between atoms: C11_16  and  N3_18 
REMARK    5  A    between atoms: N3_18  and  C12_20 
REMARK    6  A    between atoms: C12_20  and  C13_21 
REMARK    7  A    between atoms: C13_21  and  C14_22 
REMARK    8  A    between atoms: C14_22  and  C15_23 
REMARK    9  A    between atoms: C15_23  and  N4_24 
REMARK       I    between atoms: N4_24  and  C16_26 
REMARK   10  A    between atoms: N6_28  and  C17_30 
REMARK   11  A    between atoms: C17_30  and  C18_31 
REMARK   12  A    between atoms: C18_31  and  C19_32 
REMARK   13  A    between atoms: C19_32  and  C20_33 
REMARK   14  A    between atoms: C20_33  and  N7_35 
REMARK   15  A    between atoms: N7_35  and  S1_37 
REMARK   16  A    between atoms: C23_41  and  N8_42 
ROOT
HETATM    1  C11 UNL     1     -12.746  -7.433  18.808  1.00  0.00     0.257 C 
HETATM    2  O2  UNL     1     -11.806  -7.603  19.664  1.00  0.00    -0.267 OA
HETATM    3  N3  UNL     1     -13.921  -8.177  19.019  1.00  0.00    -0.357 N 
ATOM      4  H3  UNL     1     -14.710  -8.078  18.381  1.00  0.00     0.162 HD
ENDROOT
BRANCH   1   5
HETATM    5  C10 UNL     1     -12.467  -6.486  17.735  1.00  0.00     0.102 A 
HETATM    6  C4  UNL     1     -11.951  -6.965  16.535  1.00  0.00     0.054 A 
HETATM    7  C3  UNL     1     -11.811  -6.045  15.502  1.00  0.00     0.055 A 
HETATM    8  C2  UNL     1     -12.158  -4.729  15.640  1.00  0.00     0.009 A 
HETATM    9  C1  UNL     1     -11.967  -3.827  14.466  1.00  0.00     0.068 C 
HETATM   10  N9  UNL     1     -12.644  -4.292  16.789  1.00  0.00    -0.346 N 
HETATM   11  C23 UNL     1     -12.810  -5.131  17.843  1.00  0.00     0.117 A 
ATOM     12  H9  UNL     1     -12.897  -3.309  16.885  1.00  0.00     0.167 HD
BRANCH   6  13
HETATM   13  N1  UNL     1     -11.435  -8.261  16.366  1.00  0.00    -0.355 N 
ATOM     14  H1  UNL     1     -11.657  -8.974  17.060  1.00  0.00     0.166 HD
BRANCH  13  15
HETATM   15  C5  UNL     1     -10.616  -8.611  15.262  1.00  0.00     0.035 A 
HETATM   16  C6  UNL     1      -9.602  -7.865  14.726  1.00  0.00     0.049 A 
HETATM   17  C7  UNL     1      -8.855  -8.313  13.649  1.00  0.00     0.124 A 
HETATM   18  N2  UNL     1      -9.084  -9.506  13.066  1.00  0.00    -0.247 N 
HETATM   19  C8  UNL     1     -10.074 -10.261  13.570  1.00  0.00     0.124 A 
HETATM   20  C9  UNL     1     -10.836  -9.849  14.639  1.00  0.00     0.049 A 
BRANCH  18  21
HETATM   21  O1  UNL     1      -8.346  -9.948  12.002  1.00  0.00    -0.284 OA
ATOM     22  H1  UNL     1      -8.119 -10.865  11.892  1.00  0.00     0.245 HD
ENDBRANCH  18  21
ENDBRANCH  13  15
ENDBRANCH   6  13
BRANCH  11  23
HETATM   23  N8  UNL     1     -13.292  -4.647  18.926  1.00  0.00    -0.385 N 
ATOM     24  H82 UNL     1     -13.180  -5.188  19.784  1.00  0.00     0.157 HD
ATOM     25  H81 UNL     1     -13.770  -3.747  18.941  1.00  0.00     0.157 HD
ENDBRANCH  11  23
ENDBRANCH   1   5
BRANCH   3  26
HETATM   26  C12 UNL     1     -14.009  -9.099  20.160  1.00  0.00     0.123 C 
BRANCH  26  27
HETATM   27  C13 UNL     1     -14.804  -8.535  21.283  1.00  0.00     0.021 C 
BRANCH  27  28
HETATM   28  C14 UNL     1     -16.073  -9.364  21.460  1.00  0.00     0.021 C 
BRANCH  28  29
HETATM   29  C15 UNL     1     -16.511  -9.429  22.897  1.00  0.00     0.122 C 
BRANCH  29  30
HETATM   30  N4  UNL     1     -16.241  -8.161  23.530  1.00  0.00    -0.365 N 
HETATM   31  C16 UNL     1     -16.942  -7.797  24.703  1.00  0.00     0.183 C 
HETATM   32  N5  UNL     1     -18.144  -8.537  25.021  1.00  0.00    -0.064 NA
HETATM   33  N6  UNL     1     -16.574  -6.854  25.473  1.00  0.00    -0.365 N 
ATOM     34  H6  UNL     1     -17.164  -6.689  26.289  1.00  0.00     0.162 HD
ATOM     35  H4  UNL     1     -15.546  -7.528  23.132  1.00  0.00     0.162 HD
BRANCH  33  36
HETATM   36  C17 UNL     1     -15.443  -6.002  25.341  1.00  0.00     0.122 C 
BRANCH  36  37
HETATM   37  C18 UNL     1     -14.310  -6.441  26.273  1.00  0.00     0.022 C 
BRANCH  37  38
HETATM   38  C19 UNL     1     -13.290  -7.127  25.389  1.00  0.00     0.027 C 
BRANCH  38  39
HETATM   39  C20 UNL     1     -13.028  -8.550  25.859  1.00  0.00     0.088 C 
HETATM   40  C21 UNL     1     -13.975  -8.871  27.007  1.00  0.00     0.033 C 
BRANCH  39  41
HETATM   41  N7  UNL     1     -13.247  -9.510  24.826  1.00  0.00    -0.315 N 
ATOM     42  H7  UNL     1     -14.176  -9.847  24.573  1.00  0.00     0.172 HD
BRANCH  41  43
HETATM   43  S1  UNL     1     -11.831 -10.046  24.050  1.00  0.00     0.223 S 
HETATM   44  C22 UNL     1     -11.723 -11.814  23.959  1.00  0.00     0.185 C 
HETATM   45  O3  UNL     1     -10.651  -9.586  24.897  1.00  0.00    -0.206 OA
HETATM   46  O4  UNL     1     -11.691  -9.482  22.689  1.00  0.00    -0.206 OA
ENDBRANCH  41  43
ENDBRANCH  39  41
ENDBRANCH  38  39
ENDBRANCH  37  38
ENDBRANCH  36  37
ENDBRANCH  33  36
ENDBRANCH  29  30
ENDBRANCH  28  29
ENDBRANCH  27  28
ENDBRANCH  26  27
ENDBRANCH   3  26
TORSDOF 16
ENDMDL
MODEL 2
REMARK VINA RESULT: -8.959724490      2.623      4.614
REMARK  16 active torsions:
REMARK  status: ('A' for Active; 'I' for Inactive)
REMARK    1  A    between atoms: C4_4  and  N1_5 
REMARK    2  A    between atoms: N1_5  and  C5_7 
REMARK    3  A    between atoms: N2_10  and  O1_11 
REMARK    4  A    between atoms: C10_15  and  C11_16 
REMARK       I    between atoms: C11_16  and  N3_18 
REMARK    5  A    between atoms: N3_18  and  C12_20 
REMARK    6  A    between atoms: C12_20  and  C13_21 
REMARK    7  A    between atoms: C13_21  and  C14_22 
REMARK    8  A    between atoms: C14_22  and  C15_23 
REMARK    9  A    between atoms: C15_23  and  N4_24 
REMARK       I    between atoms: N4_24  and  C16_26 
REMARK   10  A    between atoms: N6_28  and  C17_30 
REMARK   11  A    between atoms: C17_30  and  C18_31 
REMARK   12  A    between atoms: C18_31  and  C19_32 
REMARK   13  A    between atoms: C19_32  and  C20_33 
REMARK   14  A    between atoms: C20_33  and  N7_35 
REMARK   15  A    between atoms: N7_35  and  S1_37 
REMARK   16  A    between atoms: C23_41  and  N8_42 
ROOT
HETATM    1  C11 UNL     1     -13.441  -5.853  18.297  1.00  0.00     0.257 C 
HETATM    2  O2  UNL     1     -14.614  -5.406  18.035  1.00  0.00    -0.267 OA
HETATM    3  N3  UNL     1     -13.316  -6.621  19.468  1.00  0.00    -0.357 N 
ATOM      4  H3  UNL     1     -12.412  -7.016  19.726  1.00  0.00     0.162 HD
ENDROOT
BRANCH   1   5
HETATM    5  C10 UNL     1     -12.398  -5.504  17.340  1.00  0.00     0.102 A 
HETATM    6  C4  UNL     1     -12.059  -4.164  17.174  1.00  0.00     0.054 A 
HETATM    7  C3  UNL     1     -10.981  -3.889  16.341  1.00  0.00     0.055 A 
HETATM    8  C2  UNL     1     -10.277  -4.873  15.705  1.00  0.00     0.009 A 
HETATM    9  C1  UNL     1      -9.136  -4.466  14.832  1.00  0.00     0.068 C 
HETATM   10  N9  UNL     1     -10.615  -6.140  15.872  1.00  0.00    -0.346 N 
HETATM   11  C23 UNL     1     -11.655  -6.487  16.671  1.00  0.00     0.117 A 
ATOM     12  H9  UNL     1     -10.085  -6.868  15.392  1.00  0.00     0.167 HD
BRANCH   6  13
HETATM   13  N1  UNL     1     -12.825  -3.096  17.672  1.00  0.00    -0.355 N 
ATOM     14  H1  UNL     1     -13.025  -3.057  18.671  1.00  0.00     0.166 HD
BRANCH  13  15
HETATM   15  C5  UNL     1     -13.328  -2.070  16.831  1.00  0.00     0.035 A 
HETATM   16  C6  UNL     1     -12.952  -0.755  16.829  1.00  0.00     0.049 A 
HETATM   17  C7  UNL     1     -13.504   0.162  15.949  1.00  0.00     0.124 A 
HETATM   18  N2  UNL     1     -14.443  -0.187  15.049  1.00  0.00    -0.247 N 
HETATM   19  C8  UNL     1     -14.833  -1.472  15.027  1.00  0.00     0.124 A 
HETATM   20  C9  UNL     1     -14.307  -2.410  15.885  1.00  0.00     0.049 A 
BRANCH  18  21
HETATM   21  O1  UNL     1     -14.988   0.719  14.180  1.00  0.00    -0.284 OA
ATOM     22  H1  UNL     1     -15.902   0.682  13.920  1.00  0.00     0.245 HD
ENDBRANCH  18  21
ENDBRANCH  13  15
ENDBRANCH   6  13
BRANCH  11  23
HETATM   23  N8  UNL     1     -11.927  -7.732  16.797  1.00  0.00    -0.385 N 
ATOM     24  H82 UNL     1     -11.188  -8.353  17.126  1.00  0.00     0.157 HD
ATOM     25  H81 UNL     1     -12.854  -8.098  16.582  1.00  0.00     0.157 HD
ENDBRANCH  11  23
ENDBRANCH   1   5
BRANCH   3  26
HETATM   26  C12 UNL     1     -14.490  -6.855  20.320  1.00  0.00     0.123 C 
BRANCH  26  27
HETATM   27  C13 UNL     1     -14.204  -7.798  21.434  1.00  0.00     0.021 C 
BRANCH  27  28
HETATM   28  C14 UNL     1     -15.088  -9.032  21.281  1.00  0.00     0.021 C 
BRANCH  28  29
HETATM   29  C15 UNL     1     -16.113  -9.133  22.375  1.00  0.00     0.122 C 
BRANCH  29  30
HETATM   30  N4  UNL     1     -16.008  -7.975  23.229  1.00  0.00    -0.365 N 
HETATM   31  C16 UNL     1     -16.746  -7.919  24.434  1.00  0.00     0.183 C 
HETATM   32  N5  UNL     1     -17.841  -8.852  24.591  1.00  0.00    -0.064 NA
HETATM   33  N6  UNL     1     -16.501  -7.090  25.367  1.00  0.00    -0.365 N 
ATOM     34  H6  UNL     1     -17.105  -7.151  26.186  1.00  0.00     0.162 HD
ATOM     35  H4  UNL     1     -15.402  -7.197  22.964  1.00  0.00     0.162 HD
BRANCH  33  36
HETATM   36  C17 UNL     1     -15.491  -6.090  25.411  1.00  0.00     0.122 C 
BRANCH  36  37
HETATM   37  C18 UNL     1     -14.355  -6.495  26.355  1.00  0.00     0.022 C 
BRANCH  37  38
HETATM   38  C19 UNL     1     -13.292  -7.121  25.478  1.00  0.00     0.027 C 
BRANCH  38  39
HETATM   39  C20 UNL     1     -13.031  -8.565  25.881  1.00  0.00     0.088 C 
HETATM   40  C21 UNL     1     -13.924  -8.915  27.062  1.00  0.00     0.033 C 
BRANCH  39  41
HETATM   41  N7  UNL     1     -13.317  -9.481  24.824  1.00  0.00    -0.315 N 
ATOM     42  H7  UNL     1     -14.268  -9.712  24.536  1.00  0.00     0.172 HD
BRANCH  41  43
HETATM   43  S1  UNL     1     -11.941 -10.156  24.085  1.00  0.00     0.223 S 
HETATM   44  C22 UNL     1     -11.909 -11.927  24.181  1.00  0.00     0.185 C 
HETATM   45  O3  UNL     1     -10.725  -9.662  24.859  1.00  0.00    -0.206 OA
HETATM   46  O4  UNL     1     -11.808  -9.746  22.670  1.00  0.00    -0.206 OA
ENDBRANCH  41  43
ENDBRANCH  39  41
ENDBRANCH  38  39
ENDBRANCH  37  38
ENDBRANCH  36  37
ENDBRANCH  33  36
ENDBRANCH  29  30
ENDBRANCH  28  29
ENDBRANCH  27  28
ENDBRANCH  26  27
ENDBRANCH   3  26
TORSDOF 16
ENDMDL
MODEL 3
REMARK VINA RESULT: -8.846656284      4.018      7.045
REMARK  16 active torsions:
REMARK  status: ('A' for Active; 'I' for Inactive)
REMARK    1  A    between atoms: C4_4  and  N1_5 
REMARK    2  A    between atoms: N1_5  and  C5_7 
REMARK    3  A    between atoms: N2_10  and  O1_11 
REMARK    4  A    between atoms: C10_15  and  C11_16 
REMARK       I    between atoms: C11_16  and  N3_18 
REMARK    5  A    between atoms: N3_18  and  C12_20 
REMARK    6  A    between atoms: C12_20  and  C13_21 
REMARK    7  A    between atoms: C13_21  and  C14_22 
REMARK    8  A    between atoms: C14_22  and  C15_23 
REMARK    9  A    between atoms: C15_23  and  N4_24 
REMARK       I    between atoms: N4_24  and  C16_26 
REMARK   10  A    between atoms: N6_28  and  C17_30 
REMARK   11  A    between atoms: C17_30  and  C18_31 
REMARK   12  A    between atoms: C18_31  and  C19_32 
REMARK   13  A    between atoms: C19_32  and  C20_33 
REMARK   14  A    between atoms: C20_33  and  N7_35 
REMARK   15  A    between atoms: N7_35  and  S1_37 
REMARK   16  A    between atoms: C23_41  and  N8_42 
ROOT
HETATM    1  C11 UNL     1     -12.753 -10.321  24.134  1.00  0.00     0.257 C 
HETATM    2  O2  UNL     1     -11.643  -9.776  23.793  1.00  0.00    -0.267 OA
HETATM    3  N3  UNL     1     -13.471  -9.680  25.160  1.00  0.00    -0.357 N 
ATOM      4  H3  UNL     1     -14.367 -10.057  25.469  1.00  0.00     0.162 HD
ENDROOT
BRANCH   1   5
HETATM    5  C10 UNL     1     -13.118 -11.530  23.407  1.00  0.00     0.102 A 
HETATM    6  C4  UNL     1     -14.094 -11.450  22.417  1.00  0.00     0.054 A 
HETATM    7  C3  UNL     1     -14.326 -12.599  21.671  1.00  0.00     0.055 A 
HETATM    8  C2  UNL     1     -13.638 -13.762  21.884  1.00  0.00     0.009 A 
HETATM    9  C1  UNL     1     -13.966 -14.938  21.025  1.00  0.00     0.068 C 
HETATM   10  N9  UNL     1     -12.717 -13.820  22.830  1.00  0.00    -0.346 N 
HETATM   11  C23 UNL     1     -12.434 -12.738  23.599  1.00  0.00     0.117 A 
ATOM     12  H9  UNL     1     -12.211 -14.692  22.984  1.00  0.00     0.167 HD
BRANCH   6  13
HETATM   13  N1  UNL     1     -14.940 -10.341  22.241  1.00  0.00    -0.355 N 
ATOM     14  H1  UNL     1     -15.860 -10.348  22.682  1.00  0.00     0.166 HD
BRANCH  13  15
HETATM   15  C5  UNL     1     -14.558  -9.214  21.470  1.00  0.00     0.035 A 
HETATM   16  C6  UNL     1     -14.688  -7.898  21.822  1.00  0.00     0.049 A 
HETATM   17  C7  UNL     1     -14.266  -6.874  20.990  1.00  0.00     0.124 A 
HETATM   18  N2  UNL     1     -13.706  -7.112  19.789  1.00  0.00    -0.247 N 
HETATM   19  C8  UNL     1     -13.565  -8.395  19.415  1.00  0.00     0.124 A 
HETATM   20  C9  UNL     1     -13.972  -9.438  20.215  1.00  0.00     0.049 A 
BRANCH  18  21
HETATM   21  O1  UNL     1     -13.289  -6.100  18.968  1.00  0.00    -0.284 OA
ATOM     22  H1  UNL     1     -12.369  -5.896  18.845  1.00  0.00     0.245 HD
ENDBRANCH  18  21
ENDBRANCH  13  15
ENDBRANCH   6  13
BRANCH  11  23
HETATM   23  N8  UNL     1     -11.526 -12.858  24.494  1.00  0.00    -0.385 N 
ATOM     24  H82 UNL     1     -10.701 -12.263  24.421  1.00  0.00     0.157 HD
ATOM     25  H81 UNL     1     -11.619 -13.521  25.262  1.00  0.00     0.157 HD
ENDBRANCH  11  23
ENDBRANCH   1   5
BRANCH   3  26
HETATM   26  C12 UNL     1     -12.928  -8.467  25.786  1.00  0.00     0.123 C 
BRANCH  26  27
HETATM   27  C13 UNL     1     -13.477  -7.223  25.184  1.00  0.00     0.021 C 
BRANCH  27  28
HETATM   28  C14 UNL     1     -14.455  -6.585  26.165  1.00  0.00     0.021 C 
BRANCH  28  29
HETATM   29  C15 UNL     1     -15.663  -6.018  25.472  1.00  0.00     0.122 C 
BRANCH  29  30
HETATM   30  N4  UNL     1     -16.853  -6.502  26.128  1.00  0.00    -0.365 N 
HETATM   31  C16 UNL     1     -17.559  -7.600  25.585  1.00  0.00     0.183 C 
HETATM   32  N5  UNL     1     -17.273  -7.969  24.216  1.00  0.00    -0.064 NA
HETATM   33  N6  UNL     1     -18.429  -8.262  26.235  1.00  0.00    -0.365 N 
ATOM     34  H6  UNL     1     -18.868  -9.034  25.732  1.00  0.00     0.162 HD
ATOM     35  H4  UNL     1     -17.185  -6.052  26.981  1.00  0.00     0.162 HD
BRANCH  33  36
HETATM   36  C17 UNL     1     -18.866  -8.063  27.573  1.00  0.00     0.122 C 
BRANCH  36  37
HETATM   37  C18 UNL     1     -18.264  -9.112  28.512  1.00  0.00     0.022 C 
BRANCH  37  38
HETATM   38  C19 UNL     1     -18.473 -10.447  27.828  1.00  0.00     0.027 C 
BRANCH  38  39
HETATM   39  C20 UNL     1     -17.265 -11.353  28.016  1.00  0.00     0.088 C 
HETATM   40  C21 UNL     1     -17.328 -11.975  29.403  1.00  0.00     0.033 C 
BRANCH  39  41
HETATM   41  N7  UNL     1     -17.228 -12.411  27.059  1.00  0.00    -0.315 N 
ATOM     42  H7  UNL     1     -17.898 -13.180  27.060  1.00  0.00     0.172 HD
BRANCH  41  43
HETATM   43  S1  UNL     1     -15.974 -12.284  25.916  1.00  0.00     0.223 S 
HETATM   44  C22 UNL     1     -15.799 -13.744  24.923  1.00  0.00     0.185 C 
HETATM   45  O3  UNL     1     -14.671 -12.132  26.691  1.00  0.00    -0.206 OA
HETATM   46  O4  UNL     1     -16.143 -11.113  25.028  1.00  0.00    -0.206 OA
ENDBRANCH  41  43
ENDBRANCH  39  41
ENDBRANCH  38  39
ENDBRANCH  37  38
ENDBRANCH  36  37
ENDBRANCH  33  36
ENDBRANCH  29  30
ENDBRANCH  28  29
ENDBRANCH  27  28
ENDBRANCH  26  27
ENDBRANCH   3  26
TORSDOF 16
ENDMDL
MODEL 4
REMARK VINA RESULT: -8.728087865      3.465      5.645
REMARK  16 active torsions:
REMARK  status: ('A' for Active; 'I' for Inactive)
REMARK    1  A    between atoms: C4_4  and  N1_5 
REMARK    2  A    between atoms: N1_5  and  C5_7 
REMARK    3  A    between atoms: N2_10  and  O1_11 
REMARK    4  A    between atoms: C10_15  and  C11_16 
REMARK       I    between atoms: C11_16  and  N3_18 
REMARK    5  A    between atoms: N3_18  and  C12_20 
REMARK    6  A    between atoms: C12_20  and  C13_21 
REMARK    7  A    between atoms: C13_21  and  C14_22 
REMARK    8  A    between atoms: C14_22  and  C15_23 
REMARK    9  A    between atoms: C15_23  and  N4_24 
REMARK       I    between atoms: N4_24  and  C16_26 
REMARK   10  A    between atoms: N6_28  and  C17_30 
REMARK   11  A    between atoms: C17_30  and  C18_31 
REMARK   12  A    between atoms: C18_31  and  C19_32 
REMARK   13  A    between atoms: C19_32  and  C20_33 
REMARK   14  A    between atoms: C20_33  and  N7_35 
REMARK   15  A    between atoms: N7_35  and  S1_37 
REMARK   16  A    between atoms: C23_41  and  N8_42 
ROOT
HETATM    1  C11 UNL     1     -13.483  -6.060  18.396  1.00  0.00     0.257 C 
HETATM    2  O2  UNL     1     -14.678  -5.653  18.173  1.00  0.00    -0.267 OA
HETATM    3  N3  UNL     1     -13.282  -6.771  19.593  1.00  0.00    -0.357 N 
ATOM      4  H3  UNL     1     -12.357  -7.131  19.824  1.00  0.00     0.162 HD
ENDROOT
BRANCH   1   5
HETATM    5  C10 UNL     1     -12.497  -5.731  17.375  1.00  0.00     0.102 A 
HETATM    6  C4  UNL     1     -12.229  -4.391  17.106  1.00  0.00     0.054 A 
HETATM    7  C3  UNL     1     -11.199  -4.125  16.211  1.00  0.00     0.055 A 
HETATM    8  C2  UNL     1     -10.474  -5.118  15.612  1.00  0.00     0.009 A 
HETATM    9  C1  UNL     1      -9.390  -4.721  14.666  1.00  0.00     0.068 C 
HETATM   10  N9  UNL     1     -10.745  -6.384  15.877  1.00  0.00    -0.346 N 
HETATM   11  C23 UNL     1     -11.735  -6.722  16.741  1.00  0.00     0.117 A 
ATOM     12  H9  UNL     1     -10.201  -7.119  15.424  1.00  0.00     0.167 HD
BRANCH   6  13
HETATM   13  N1  UNL     1     -13.024  -3.327  17.565  1.00  0.00    -0.355 N 
ATOM     14  H1  UNL     1     -13.236  -3.263  18.561  1.00  0.00     0.166 HD
BRANCH  13  15
HETATM   15  C5  UNL     1     -13.542  -2.339  16.689  1.00  0.00     0.035 A 
HETATM   16  C6  UNL     1     -14.498  -2.517  15.726  1.00  0.00     0.049 A 
HETATM   17  C7  UNL     1     -14.939  -1.472  14.932  1.00  0.00     0.124 A 
HETATM   18  N2  UNL     1     -14.453  -0.222  15.059  1.00  0.00    -0.247 N 
HETATM   19  C8  UNL     1     -13.512  -0.016  15.996  1.00  0.00     0.124 A 
HETATM   20  C9  UNL     1     -13.050  -1.029  16.803  1.00  0.00     0.049 A 
BRANCH  18  21
HETATM   21  O1  UNL     1     -14.890   0.811  14.275  1.00  0.00    -0.284 OA
ATOM     22  H1  UNL     1     -14.446   1.057  13.471  1.00  0.00     0.245 HD
ENDBRANCH  18  21
ENDBRANCH  13  15
ENDBRANCH   6  13
BRANCH  11  23
HETATM   23  N8  UNL     1     -11.943  -7.967  16.961  1.00  0.00    -0.385 N 
ATOM     24  H82 UNL     1     -12.739  -8.224  17.544  1.00  0.00     0.157 HD
ATOM     25  H81 UNL     1     -11.338  -8.686  16.564  1.00  0.00     0.157 HD
ENDBRANCH  11  23
ENDBRANCH   1   5
BRANCH   3  26
HETATM   26  C12 UNL     1     -14.408  -6.993  20.511  1.00  0.00     0.123 C 
BRANCH  26  27
HETATM   27  C13 UNL     1     -13.974  -7.572  21.810  1.00  0.00     0.021 C 
BRANCH  27  28
HETATM   28  C14 UNL     1     -12.674  -8.343  21.603  1.00  0.00     0.021 C 
BRANCH  28  29
HETATM   29  C15 UNL     1     -12.514  -9.460  22.595  1.00  0.00     0.122 C 
BRANCH  29  30
HETATM   30  N4  UNL     1     -13.113  -9.068  23.848  1.00  0.00    -0.365 N 
HETATM   31  C16 UNL     1     -12.292  -8.815  24.971  1.00  0.00     0.183 C 
HETATM   32  N5  UNL     1     -10.930  -9.299  24.927  1.00  0.00    -0.064 NA
HETATM   33  N6  UNL     1     -12.697  -8.199  26.008  1.00  0.00    -0.365 N 
ATOM     34  H6  UNL     1     -12.009  -8.079  26.751  1.00  0.00     0.162 HD
ATOM     35  H4  UNL     1     -14.126  -8.973  23.923  1.00  0.00     0.162 HD
BRANCH  33  36
HETATM   36  C17 UNL     1     -13.987  -7.657  26.261  1.00  0.00     0.122 C 
BRANCH  36  37
HETATM   37  C18 UNL     1     -14.538  -8.148  27.603  1.00  0.00     0.022 C 
BRANCH  37  38
HETATM   38  C19 UNL     1     -14.846  -9.617  27.411  1.00  0.00     0.027 C 
BRANCH  38  39
HETATM   39  C20 UNL     1     -15.924  -9.816  26.355  1.00  0.00     0.088 C 
HETATM   40  C21 UNL     1     -16.310 -11.287  26.318  1.00  0.00     0.033 C 
BRANCH  39  41
HETATM   41  N7  UNL     1     -17.102  -9.058  26.635  1.00  0.00    -0.315 N 
ATOM     42  H7  UNL     1     -17.538  -9.036  27.557  1.00  0.00     0.172 HD
BRANCH  41  43
HETATM   43  S1  UNL     1     -17.717  -8.195  25.304  1.00  0.00     0.223 S 
HETATM   44  C22 UNL     1     -16.996  -8.701  23.764  1.00  0.00     0.185 C 
HETATM   45  O3  UNL     1     -17.333  -6.734  25.498  1.00  0.00    -0.206 OA
HETATM   46  O4  UNL     1     -19.189  -8.295  25.205  1.00  0.00    -0.206 OA
ENDBRANCH  41  43
ENDBRANCH  39  41
ENDBRANCH  38  39
ENDBRANCH  37  38
ENDBRANCH  36  37
ENDBRANCH  33  36
ENDBRANCH  29  30
ENDBRANCH  28  29
ENDBRANCH  27  28
ENDBRANCH  26  27
ENDBRANCH   3  26
TORSDOF 16
ENDMDL
MODEL 5
REMARK VINA RESULT: -8.690662226      3.511     10.457
REMARK  16 active torsions:
REMARK  status: ('A' for Active; 'I' for Inactive)
REMARK    1  A    between atoms: C4_4  and  N1_5 
REMARK    2  A    between atoms: N1_5  and  C5_7 
REMARK    3  A    between atoms: N2_10  and  O1_11 
REMARK    4  A    between atoms: C10_15  and  C11_16 
REMARK       I    between atoms: C11_16  and  N3_18 
REMARK    5  A    between atoms: N3_18  and  C12_20 
REMARK    6  A    between atoms: C12_20  and  C13_21 
REMARK    7  A    between atoms: C13_21  and  C14_22 
REMARK    8  A    between atoms: C14_22  and  C15_23 
REMARK    9  A    between atoms: C15_23  and  N4_24 
REMARK       I    between atoms: N4_24  and  C16_26 
REMARK   10  A    between atoms: N6_28  and  C17_30 
REMARK   11  A    between atoms: C17_30  and  C18_31 
REMARK   12  A    between atoms: C18_31  and  C19_32 
REMARK   13  A    between atoms: C19_32  and  C20_33 
REMARK   14  A    between atoms: C20_33  and  N7_35 
REMARK   15  A    between atoms: N7_35  and  S1_37 
REMARK   16  A    between atoms: C23_41  and  N8_42 
ROOT
HETATM    1  C11 UNL     1     -14.556  -7.656  26.000  1.00  0.00     0.257 C 
HETATM    2  O2  UNL     1     -14.009  -6.566  26.397  1.00  0.00    -0.267 OA
HETATM    3  N3  UNL     1     -13.878  -8.358  24.988  1.00  0.00    -0.357 N 
ATOM      4  H3  UNL     1     -14.254  -9.238  24.636  1.00  0.00     0.162 HD
ENDROOT
BRANCH   1   5
HETATM    5  C10 UNL     1     -15.807  -8.017  26.656  1.00  0.00     0.102 A 
HETATM    6  C4  UNL     1     -15.828  -9.126  27.498  1.00  0.00     0.054 A 
HETATM    7  C3  UNL     1     -17.008  -9.362  28.192  1.00  0.00     0.055 A 
HETATM    8  C2  UNL     1     -18.106  -8.557  28.067  1.00  0.00     0.009 A 
HETATM    9  C1  UNL     1     -19.323  -8.903  28.860  1.00  0.00     0.068 C 
HETATM   10  N9  UNL     1     -18.069  -7.510  27.262  1.00  0.00    -0.346 N 
HETATM   11  C23 UNL     1     -16.951  -7.214  26.551  1.00  0.00     0.117 A 
ATOM     12  H9  UNL     1     -18.893  -6.916  27.172  1.00  0.00     0.167 HD
BRANCH   6  13
HETATM   13  N1  UNL     1     -14.797 -10.078  27.563  1.00  0.00    -0.355 N 
ATOM     14  H1  UNL     1     -13.978  -9.880  28.137  1.00  0.00     0.166 HD
BRANCH  13  15
HETATM   15  C5  UNL     1     -14.857 -11.306  26.856  1.00  0.00     0.035 A 
HETATM   16  C6  UNL     1     -15.504 -11.539  25.672  1.00  0.00     0.049 A 
HETATM   17  C7  UNL     1     -15.486 -12.782  25.062  1.00  0.00     0.124 A 
HETATM   18  N2  UNL     1     -14.834 -13.833  25.596  1.00  0.00    -0.247 N 
HETATM   19  C8  UNL     1     -14.190 -13.635  26.759  1.00  0.00     0.124 A 
HETATM   20  C9  UNL     1     -14.185 -12.415  27.394  1.00  0.00     0.049 A 
BRANCH  18  21
HETATM   21  O1  UNL     1     -14.816 -15.061  24.993  1.00  0.00    -0.284 OA
ATOM     22  H1  UNL     1     -14.266 -15.246  24.241  1.00  0.00     0.245 HD
ENDBRANCH  18  21
ENDBRANCH  13  15
ENDBRANCH   6  13
BRANCH  11  23
HETATM   23  N8  UNL     1     -16.976  -6.182  25.793  1.00  0.00    -0.385 N 
ATOM     24  H82 UNL     1     -16.655  -6.286  24.831  1.00  0.00     0.157 HD
ATOM     25  H81 UNL     1     -17.311  -5.281  26.132  1.00  0.00     0.157 HD
ENDBRANCH  11  23
ENDBRANCH   1   5
BRANCH   3  26
HETATM   26  C12 UNL     1     -12.625  -7.822  24.437  1.00  0.00     0.123 C 
BRANCH  26  27
HETATM   27  C13 UNL     1     -12.513  -8.038  22.970  1.00  0.00     0.021 C 
BRANCH  27  28
HETATM   28  C14 UNL     1     -13.399  -9.213  22.570  1.00  0.00     0.021 C 
BRANCH  28  29
HETATM   29  C15 UNL     1     -14.349  -8.855  21.462  1.00  0.00     0.122 C 
BRANCH  29  30
HETATM   30  N4  UNL     1     -13.593  -8.559  20.270  1.00  0.00    -0.365 N 
HETATM   31  C16 UNL     1     -13.466  -7.221  19.830  1.00  0.00     0.183 C 
HETATM   32  N5  UNL     1     -14.384  -6.247  20.379  1.00  0.00    -0.064 NA
HETATM   33  N6  UNL     1     -12.600  -6.844  18.978  1.00  0.00    -0.365 N 
ATOM     34  H6  UNL     1     -12.610  -5.851  18.743  1.00  0.00     0.162 HD
ATOM     35  H4  UNL     1     -13.150  -9.314  19.745  1.00  0.00     0.162 HD
BRANCH  33  36
HETATM   36  C17 UNL     1     -11.621  -7.632  18.312  1.00  0.00     0.122 C 
BRANCH  36  37
HETATM   37  C18 UNL     1     -10.304  -6.863  18.162  1.00  0.00     0.022 C 
BRANCH  37  38
HETATM   38  C19 UNL     1     -10.203  -6.501  16.696  1.00  0.00     0.027 C 
BRANCH  38  39
HETATM   39  C20 UNL     1     -10.462  -5.018  16.479  1.00  0.00     0.088 C 
HETATM   40  C21 UNL     1      -9.604  -4.532  15.320  1.00  0.00     0.033 C 
BRANCH  39  41
HETATM   41  N7  UNL     1     -11.827  -4.748  16.160  1.00  0.00    -0.315 N 
ATOM     42  H7  UNL     1     -12.280  -5.111  15.321  1.00  0.00     0.172 HD
BRANCH  41  43
HETATM   43  S1  UNL     1     -12.637  -3.773  17.294  1.00  0.00     0.223 S 
HETATM   44  C22 UNL     1     -12.765  -2.081  16.777  1.00  0.00     0.185 C 
HETATM   45  O3  UNL     1     -11.800  -3.771  18.567  1.00  0.00    -0.206 OA
HETATM   46  O4  UNL     1     -13.988  -4.286  17.610  1.00  0.00    -0.206 OA
ENDBRANCH  41  43
ENDBRANCH  39  41
ENDBRANCH  38  39
ENDBRANCH  37  38
ENDBRANCH  36  37
ENDBRANCH  33  36
ENDBRANCH  29  30
ENDBRANCH  28  29
ENDBRANCH  27  28
ENDBRANCH  26  27
ENDBRANCH   3  26
TORSDOF 16
ENDMDL
