MODEL 1
REMARK VINA RESULT: -9.007071106      0.000      0.000
REMARK  21 active torsions:
REMARK  status: ('A' for Active; 'I' for Inactive)
REMARK    1  A    between atoms: C2_2  and  C3_3 
REMARK    2  A    between atoms: C3_3  and  C5_5 
REMARK    3  A    between atoms: C5_5  and  N1_6 
REMARK    4  A    between atoms: C5_5  and  C16_28 
REMARK       I    between atoms: N1_6  and  C6_7 
REMARK    5  A    between atoms: C6_7  and  C7_9 
REMARK    6  A    between atoms: C7_9  and  N2_10 
REMARK    7  A    between atoms: C7_9  and  C13_25 
REMARK       I    between atoms: N2_10  and  C8_12 
REMARK    8  A    between atoms: C8_12  and  C9_14 
REMARK    9  A    between atoms: C9_14  and  N3_15 
REMARK       I    between atoms: N3_15  and  C10_16 
REMARK   10  A    between atoms: C10_16  and  C11_18 
REMARK   11  A    between atoms: C11_18  and  N5_22 
REMARK       I    between atoms: C16_28  and  N6_30 
REMARK   12  A    between atoms: N6_30  and  C17_32 
REMARK   13  A    between atoms: C17_32  and  C18_33 
REMARK   14  A    between atoms: C17_32  and  C25_46 
REMARK   15  A    between atoms: C18_33  and  O5_34 
REMARK   16  A    between atoms: C18_33  and  N7_36 
REMARK   17  A    between atoms: N7_36  and  C19_38 
REMARK   18  A    between atoms: C19_38  and  C20_39 
REMARK   19  A    between atoms: C19_38  and  C24_43 
REMARK   20  A    between atoms: C20_39  and  C21_40 
REMARK   21  A    between atoms: C25_46  and  C27_48 
ROOT
HETATM    1  C5  UNL     1       5.554 -13.524 -24.219  1.00  0.00     0.159 C 
ENDROOT
BRANCH   1   2
HETATM    2  C3  UNL     1       5.743 -12.449 -23.207  1.00  0.00     0.051 C 
HETATM    3  C4  UNL     1       4.413 -11.735 -22.875  1.00  0.00     0.018 C 
BRANCH   2   4
HETATM    4  C2  UNL     1       6.838 -11.481 -23.406  1.00  0.00     0.007 C 
HETATM    5  C1  UNL     1       6.473 -10.120 -23.825  1.00  0.00     0.006 C 
ENDBRANCH   2   4
ENDBRANCH   1   2
BRANCH   1   6
HETATM    6  N1  UNL     1       6.051 -13.307 -25.526  1.00  0.00    -0.367 NA
HETATM    7  C6  UNL     1       6.525 -13.107 -26.751  1.00  0.00     0.315 C 
HETATM    8  O1  UNL     1       7.671 -13.536 -27.158  1.00  0.00    -0.255 OA
BRANCH   7   9
HETATM    9  C7  UNL     1       5.817 -12.352 -27.875  1.00  0.00     0.195 C 
BRANCH   9  10
HETATM   10  N2  UNL     1       5.844 -10.986 -27.501  1.00  0.00    -0.341 N 
HETATM   11  C8  UNL     1       6.121  -9.760 -28.026  1.00  0.00     0.271 C 
HETATM   12  O2  UNL     1       6.462  -9.524 -29.178  1.00  0.00    -0.266 OA
ATOM     13  H2  UNL     1       5.566 -10.890 -26.525  1.00  0.00     0.163 HD
BRANCH  11  14
HETATM   14  C9  UNL     1       6.005  -8.528 -27.143  1.00  0.00     0.260 C 
BRANCH  14  15
HETATM   15  N3  UNL     1       7.217  -7.954 -26.784  1.00  0.00    -0.371 NA
HETATM   16  C10 UNL     1       8.364  -7.400 -26.442  1.00  0.00     0.359 C 
HETATM   17  O3  UNL     1       8.622  -6.147 -26.246  1.00  0.00    -0.248 OA
BRANCH  16  18
HETATM   18  C11 UNL     1       9.613  -8.206 -26.223  1.00  0.00     0.178 C 
HETATM   19  N4  UNL     1      10.710  -7.594 -26.461  1.00  0.00    -0.380 N 
ATOM     20  H42 UNL     1      10.715  -6.630 -26.794  1.00  0.00     0.158 HD
ATOM     21  H41 UNL     1      11.558  -8.142 -26.311  1.00  0.00     0.158 HD
BRANCH  18  22
HETATM   22  N5  UNL     1       9.606  -9.523 -25.767  1.00  0.00    -0.376 N 
HETATM   23  C12 UNL     1       9.547 -10.632 -26.721  1.00  0.00     0.148 C 
ATOM     24  H5  UNL     1       9.641  -9.714 -24.766  1.00  0.00     0.160 HD
ENDBRANCH  18  22
ENDBRANCH  16  18
ENDBRANCH  14  15
ENDBRANCH  11  14
ENDBRANCH   9  10
BRANCH   9  25
HETATM   25  C13 UNL     1       4.456 -12.996 -27.989  1.00  0.00     0.010 C 
HETATM   26  C14 UNL     1       4.043 -13.315 -29.408  1.00  0.00     0.012 C 
HETATM   27  C15 UNL     1       3.374 -12.115 -27.338  1.00  0.00     0.012 C 
ENDBRANCH   9  25
ENDBRANCH   7   9
ENDBRANCH   1   6
BRANCH   1  28
HETATM   28  C16 UNL     1       5.841 -14.912 -23.669  1.00  0.00     0.279 C 
HETATM   29  O4  UNL     1       5.543 -15.869 -24.453  1.00  0.00    -0.265 OA
HETATM   30  N6  UNL     1       6.361 -15.185 -22.464  1.00  0.00    -0.343 N 
ATOM     31  H6  UNL     1       6.567 -14.301 -21.999  1.00  0.00     0.163 HD
BRANCH  30  32
HETATM   32  C17 UNL     1       6.741 -16.266 -21.569  1.00  0.00     0.163 C 
BRANCH  32  33
HETATM   33  C18 UNL     1       5.550 -17.067 -21.316  1.00  0.00     0.135 C 
BRANCH  33  34
HETATM   34  O5  UNL     1       5.746 -18.026 -20.458  1.00  0.00    -0.348 OA
ATOM     35  H5  UNL     1       5.862 -17.717 -19.567  1.00  0.00     0.219 HD
ENDBRANCH  33  34
BRANCH  33  36
HETATM   36  N7  UNL     1       4.270 -17.004 -21.824  1.00  0.00    -0.360 N 
ATOM     37  H7  UNL     1       4.067 -17.446 -22.721  1.00  0.00     0.162 HD
BRANCH  36  38
HETATM   38  C19 UNL     1       3.205 -16.324 -21.112  1.00  0.00     0.173 C 
BRANCH  38  39
HETATM   39  C20 UNL     1       3.456 -14.897 -20.809  1.00  0.00     0.038 C 
BRANCH  39  40
HETATM   40  C21 UNL     1       3.434 -14.484 -19.385  1.00  0.00    -0.020 C 
HETATM   41  C22 UNL     1       3.742 -12.956 -19.422  1.00  0.00     0.009 C 
HETATM   42  C23 UNL     1       4.521 -15.050 -18.525  1.00  0.00     0.009 C 
ENDBRANCH  39  40
ENDBRANCH  38  39
BRANCH  38  43
HETATM   43  C24 UNL     1       2.065 -16.287 -22.138  1.00  0.00     0.253 C 
HETATM   44  N8  UNL     1       0.790 -16.745 -21.792  1.00  0.00    -0.060 NA
HETATM   45  O6  UNL     1       2.362 -15.835 -23.263  1.00  0.00    -0.275 OA
ENDBRANCH  38  43
ENDBRANCH  36  38
ENDBRANCH  33  36
ENDBRANCH  32  33
BRANCH  32  46
HETATM   46  C25 UNL     1       7.527 -15.698 -20.485  1.00  0.00     0.012 C 
HETATM   47  C26 UNL     1       7.370 -14.168 -20.519  1.00  0.00     0.012 C 
BRANCH  46  48
HETATM   48  C27 UNL     1       8.990 -15.939 -20.367  1.00  0.00     0.002 C 
HETATM   49  C28 UNL     1       9.782 -14.710 -19.922  1.00  0.00     0.005 C 
ENDBRANCH  46  48
ENDBRANCH  32  46
ENDBRANCH  30  32
ENDBRANCH   1  28
TORSDOF 21
ENDMDL
MODEL 2
REMARK VINA RESULT: -8.877456311      2.336      9.079
REMARK  21 active torsions:
REMARK  status: ('A' for Active; 'I' for Inactive)
REMARK    1  A    between atoms: C2_2  and  C3_3 
REMARK    2  A    between atoms: C3_3  and  C5_5 
REMARK    3  A    between atoms: C5_5  and  N1_6 
REMARK    4  A    between atoms: C5_5  and  C16_28 
REMARK       I    between atoms: N1_6  and  C6_7 
REMARK    5  A    between atoms: C6_7  and  C7_9 
REMARK    6  A    between atoms: C7_9  and  N2_10 
REMARK    7  A    between atoms: C7_9  and  C13_25 
REMARK       I    between atoms: N2_10  and  C8_12 
REMARK    8  A    between atoms: C8_12  and  C9_14 
REMARK    9  A    between atoms: C9_14  and  N3_15 
REMARK       I    between atoms: N3_15  and  C10_16 
REMARK   10  A    between atoms: C10_16  and  C11_18 
REMARK   11  A    between atoms: C11_18  and  N5_22 
REMARK       I    between atoms: C16_28  and  N6_30 
REMARK   12  A    between atoms: N6_30  and  C17_32 
REMARK   13  A    between atoms: C17_32  and  C18_33 
REMARK   14  A    between atoms: C17_32  and  C25_46 
REMARK   15  A    between atoms: C18_33  and  O5_34 
REMARK   16  A    between atoms: C18_33  and  N7_36 
REMARK   17  A    between atoms: N7_36  and  C19_38 
REMARK   18  A    between atoms: C19_38  and  C20_39 
REMARK   19  A    between atoms: C19_38  and  C24_43 
REMARK   20  A    between atoms: C20_39  and  C21_40 
REMARK   21  A    between atoms: C25_46  and  C27_48 
ROOT
HETATM    1  C5  UNL     1       7.207 -15.273 -22.452  1.00  0.00     0.159 C 
ENDROOT
BRANCH   1   2
HETATM    2  C3  UNL     1       8.190 -14.467 -21.678  1.00  0.00     0.051 C 
HETATM    3  C4  UNL     1       9.435 -15.297 -21.293  1.00  0.00     0.018 C 
BRANCH   2   4
HETATM    4  C2  UNL     1       7.702 -13.670 -20.537  1.00  0.00     0.007 C 
HETATM    5  C1  UNL     1       8.466 -13.740 -19.284  1.00  0.00     0.006 C 
ENDBRANCH   2   4
ENDBRANCH   1   2
BRANCH   1   6
HETATM    6  N1  UNL     1       6.133 -15.872 -21.752  1.00  0.00    -0.367 NA
HETATM    7  C6  UNL     1       5.128 -16.440 -21.094  1.00  0.00     0.315 C 
HETATM    8  O1  UNL     1       5.103 -17.683 -20.755  1.00  0.00    -0.255 OA
BRANCH   7   9
HETATM    9  C7  UNL     1       3.849 -15.743 -20.631  1.00  0.00     0.195 C 
BRANCH   9  10
HETATM   10  N2  UNL     1       3.158 -15.377 -21.812  1.00  0.00    -0.341 N 
HETATM   11  C8  UNL     1       3.105 -14.371 -22.727  1.00  0.00     0.271 C 
HETATM   12  O2  UNL     1       3.800 -13.362 -22.738  1.00  0.00    -0.266 OA
ATOM     13  H2  UNL     1       2.482 -16.101 -22.054  1.00  0.00     0.163 HD
BRANCH  11  14
HETATM   14  C9  UNL     1       2.110 -14.457 -23.874  1.00  0.00     0.260 C 
BRANCH  14  15
HETATM   15  N3  UNL     1       0.794 -14.671 -23.488  1.00  0.00    -0.371 NA
HETATM   16  C10 UNL     1      -0.457 -14.865 -23.118  1.00  0.00     0.359 C 
HETATM   17  O3  UNL     1      -1.306 -13.994 -22.676  1.00  0.00    -0.248 OA
BRANCH  16  18
HETATM   18  C11 UNL     1      -1.108 -16.219 -23.162  1.00  0.00     0.178 C 
HETATM   19  N4  UNL     1      -1.385 -16.731 -22.024  1.00  0.00    -0.380 N 
ATOM     20  H42 UNL     1      -1.154 -16.248 -21.157  1.00  0.00     0.158 HD
ATOM     21  H41 UNL     1      -1.827 -17.651 -22.055  1.00  0.00     0.158 HD
BRANCH  18  22
HETATM   22  N5  UNL     1      -1.423 -16.880 -24.347  1.00  0.00    -0.376 N 
HETATM   23  C12 UNL     1      -2.557 -17.805 -24.395  1.00  0.00     0.148 C 
ATOM     24  H5  UNL     1      -0.863 -16.718 -25.184  1.00  0.00     0.160 HD
ENDBRANCH  18  22
ENDBRANCH  16  18
ENDBRANCH  14  15
ENDBRANCH  11  14
ENDBRANCH   9  10
BRANCH   9  25
HETATM   25  C13 UNL     1       4.314 -14.614 -19.742  1.00  0.00     0.010 C 
HETATM   26  C14 UNL     1       4.982 -15.071 -18.465  1.00  0.00     0.012 C 
HETATM   27  C15 UNL     1       3.145 -13.676 -19.387  1.00  0.00     0.012 C 
ENDBRANCH   9  25
ENDBRANCH   7   9
ENDBRANCH   1   6
BRANCH   1  28
HETATM   28  C16 UNL     1       6.803 -14.616 -23.763  1.00  0.00     0.279 C 
HETATM   29  O4  UNL     1       5.980 -15.286 -24.465  1.00  0.00    -0.265 OA
HETATM   30  N6  UNL     1       7.240 -13.430 -24.211  1.00  0.00    -0.343 N 
ATOM     31  H6  UNL     1       7.855 -13.030 -23.503  1.00  0.00     0.163 HD
BRANCH  30  32
HETATM   32  C17 UNL     1       7.166 -12.500 -25.326  1.00  0.00     0.163 C 
BRANCH  32  33
HETATM   33  C18 UNL     1       8.516 -12.332 -25.849  1.00  0.00     0.135 C 
BRANCH  33  34
HETATM   34  O5  UNL     1       9.440 -12.779 -25.049  1.00  0.00    -0.348 OA
ATOM     35  H5  UNL     1       9.807 -13.611 -25.324  1.00  0.00     0.219 HD
ENDBRANCH  33  34
BRANCH  33  36
HETATM   36  N7  UNL     1       8.990 -11.780 -27.020  1.00  0.00    -0.360 N 
ATOM     37  H7  UNL     1       9.153 -12.383 -27.826  1.00  0.00     0.162 HD
BRANCH  36  38
HETATM   38  C19 UNL     1       9.261 -10.359 -27.132  1.00  0.00     0.173 C 
BRANCH  38  39
HETATM   39  C20 UNL     1       9.094  -9.582 -25.883  1.00  0.00     0.038 C 
BRANCH  39  40
HETATM   40  C21 UNL     1       8.194  -8.403 -25.924  1.00  0.00    -0.020 C 
HETATM   41  C22 UNL     1       7.204  -8.717 -27.088  1.00  0.00     0.009 C 
HETATM   42  C23 UNL     1       8.831  -7.110 -26.330  1.00  0.00     0.009 C 
ENDBRANCH  39  40
ENDBRANCH  38  39
BRANCH  38  43
HETATM   43  C24 UNL     1      10.771 -10.310 -27.397  1.00  0.00     0.253 C 
HETATM   44  N8  UNL     1      11.280 -10.686 -28.644  1.00  0.00    -0.060 NA
HETATM   45  O6  UNL     1      11.477  -9.926 -26.442  1.00  0.00    -0.275 OA
ENDBRANCH  38  43
ENDBRANCH  36  38
ENDBRANCH  33  36
ENDBRANCH  32  33
BRANCH  32  46
HETATM   46  C25 UNL     1       6.358 -11.364 -24.912  1.00  0.00     0.012 C 
HETATM   47  C26 UNL     1       6.604 -11.112 -23.414  1.00  0.00     0.012 C 
BRANCH  46  48
HETATM   48  C27 UNL     1       4.879 -11.352 -25.073  1.00  0.00     0.002 C 
HETATM   49  C28 UNL     1       4.278  -9.949 -25.135  1.00  0.00     0.005 C 
ENDBRANCH  46  48
ENDBRANCH  32  46
ENDBRANCH  30  32
ENDBRANCH   1  28
TORSDOF 21
ENDMDL
MODEL 3
REMARK VINA RESULT: -8.865326819      2.475      7.928
REMARK  21 active torsions:
REMARK  status: ('A' for Active; 'I' for Inactive)
REMARK    1  A    between atoms: C2_2  and  C3_3 
REMARK    2  A    between atoms: C3_3  and  C5_5 
REMARK    3  A    between atoms: C5_5  and  N1_6 
REMARK    4  A    between atoms: C5_5  and  C16_28 
REMARK       I    between atoms: N1_6  and  C6_7 
REMARK    5  A    between atoms: C6_7  and  C7_9 
REMARK    6  A    between atoms: C7_9  and  N2_10 
REMARK    7  A    between atoms: C7_9  and  C13_25 
REMARK       I    between atoms: N2_10  and  C8_12 
REMARK    8  A    between atoms: C8_12  and  C9_14 
REMARK    9  A    between atoms: C9_14  and  N3_15 
REMARK       I    between atoms: N3_15  and  C10_16 
REMARK   10  A    between atoms: C10_16  and  C11_18 
REMARK   11  A    between atoms: C11_18  and  N5_22 
REMARK       I    between atoms: C16_28  and  N6_30 
REMARK   12  A    between atoms: N6_30  and  C17_32 
REMARK   13  A    between atoms: C17_32  and  C18_33 
REMARK   14  A    between atoms: C17_32  and  C25_46 
REMARK   15  A    between atoms: C18_33  and  O5_34 
REMARK   16  A    between atoms: C18_33  and  N7_36 
REMARK   17  A    between atoms: N7_36  and  C19_38 
REMARK   18  A    between atoms: C19_38  and  C20_39 
REMARK   19  A    between atoms: C19_38  and  C24_43 
REMARK   20  A    between atoms: C20_39  and  C21_40 
REMARK   21  A    between atoms: C25_46  and  C27_48 
ROOT
HETATM    1  C5  UNL     1       8.518 -14.474 -23.050  1.00  0.00     0.159 C 
ENDROOT
BRANCH   1   2
HETATM    2  C3  UNL     1       9.227 -14.187 -21.773  1.00  0.00     0.051 C 
HETATM    3  C4  UNL     1       9.839 -15.465 -21.157  1.00  0.00     0.018 C 
BRANCH   2   4
HETATM    4  C2  UNL     1       8.536 -13.376 -20.753  1.00  0.00     0.007 C 
HETATM    5  C1  UNL     1       8.778 -13.710 -19.342  1.00  0.00     0.006 C 
ENDBRANCH   2   4
ENDBRANCH   1   2
BRANCH   1   6
HETATM    6  N1  UNL     1       7.311 -15.212 -22.994  1.00  0.00    -0.367 NA
HETATM    7  C6  UNL     1       6.179 -15.906 -22.947  1.00  0.00     0.315 C 
HETATM    8  O1  UNL     1       5.768 -16.673 -23.898  1.00  0.00    -0.255 OA
BRANCH   7   9
HETATM    9  C7  UNL     1       5.182 -15.923 -21.789  1.00  0.00     0.195 C 
BRANCH   9  10
HETATM   10  N2  UNL     1       4.331 -14.810 -21.994  1.00  0.00    -0.341 N 
HETATM   11  C8  UNL     1       4.382 -13.451 -22.070  1.00  0.00     0.271 C 
HETATM   12  O2  UNL     1       5.386 -12.756 -21.975  1.00  0.00    -0.266 OA
ATOM     13  H2  UNL     1       3.372 -15.128 -22.128  1.00  0.00     0.163 HD
BRANCH  11  14
HETATM   14  C9  UNL     1       3.100 -12.669 -22.304  1.00  0.00     0.260 C 
BRANCH  14  15
HETATM   15  N3  UNL     1       1.992 -13.447 -22.612  1.00  0.00    -0.371 NA
HETATM   16  C10 UNL     1       0.934 -14.181 -22.898  1.00  0.00     0.359 C 
HETATM   17  O3  UNL     1      -0.259 -14.095 -22.403  1.00  0.00    -0.248 OA
BRANCH  16  18
HETATM   18  C11 UNL     1       0.976 -15.294 -23.908  1.00  0.00     0.178 C 
HETATM   19  N4  UNL     1      -0.161 -15.686 -24.339  1.00  0.00    -0.380 N 
ATOM     20  H42 UNL     1      -1.028 -15.272 -23.996  1.00  0.00     0.158 HD
ATOM     21  H41 UNL     1      -0.132 -16.441 -25.024  1.00  0.00     0.158 HD
BRANCH  18  22
HETATM   22  N5  UNL     1       2.160 -15.859 -24.376  1.00  0.00    -0.376 N 
HETATM   23  C12 UNL     1       2.955 -15.166 -25.392  1.00  0.00     0.148 C 
ATOM     24  H5  UNL     1       2.474 -16.758 -24.011  1.00  0.00     0.160 HD
ENDBRANCH  18  22
ENDBRANCH  16  18
ENDBRANCH  14  15
ENDBRANCH  11  14
ENDBRANCH   9  10
BRANCH   9  25
HETATM   25  C13 UNL     1       6.029 -15.908 -20.539  1.00  0.00     0.010 C 
HETATM   26  C14 UNL     1       6.675 -17.236 -20.217  1.00  0.00     0.012 C 
HETATM   27  C15 UNL     1       5.205 -15.444 -19.322  1.00  0.00     0.012 C 
ENDBRANCH   9  25
ENDBRANCH   7   9
ENDBRANCH   1   6
BRANCH   1  28
HETATM   28  C16 UNL     1       8.468 -13.275 -23.983  1.00  0.00     0.279 C 
HETATM   29  O4  UNL     1       9.599 -12.749 -24.237  1.00  0.00    -0.265 OA
HETATM   30  N6  UNL     1       7.361 -12.752 -24.529  1.00  0.00    -0.343 N 
ATOM     31  H6  UNL     1       6.566 -13.323 -24.243  1.00  0.00     0.163 HD
BRANCH  30  32
HETATM   32  C17 UNL     1       6.867 -11.678 -25.375  1.00  0.00     0.163 C 
BRANCH  32  33
HETATM   33  C18 UNL     1       7.058 -12.087 -26.761  1.00  0.00     0.135 C 
BRANCH  33  34
HETATM   34  O5  UNL     1       8.253 -12.539 -27.007  1.00  0.00    -0.348 OA
ATOM     35  H5  UNL     1       8.877 -11.856 -27.226  1.00  0.00     0.219 HD
ENDBRANCH  33  34
BRANCH  33  36
HETATM   36  N7  UNL     1       6.215 -12.070 -27.852  1.00  0.00    -0.360 N 
ATOM     37  H7  UNL     1       6.566 -12.380 -28.759  1.00  0.00     0.162 HD
BRANCH  36  38
HETATM   38  C19 UNL     1       4.840 -11.622 -27.741  1.00  0.00     0.173 C 
BRANCH  38  39
HETATM   39  C20 UNL     1       4.531 -10.348 -28.428  1.00  0.00     0.038 C 
BRANCH  39  40
HETATM   40  C21 UNL     1       3.858  -9.288 -27.638  1.00  0.00    -0.020 C 
HETATM   41  C22 UNL     1       4.699  -8.005 -27.921  1.00  0.00     0.009 C 
HETATM   42  C23 UNL     1       3.925  -9.441 -26.150  1.00  0.00     0.009 C 
ENDBRANCH  39  40
ENDBRANCH  38  39
BRANCH  38  43
HETATM   43  C24 UNL     1       4.062 -12.672 -28.545  1.00  0.00     0.253 C 
HETATM   44  N8  UNL     1       4.578 -13.962 -28.704  1.00  0.00    -0.060 NA
HETATM   45  O6  UNL     1       2.976 -12.290 -29.027  1.00  0.00    -0.275 OA
ENDBRANCH  38  43
ENDBRANCH  36  38
ENDBRANCH  33  36
ENDBRANCH  32  33
BRANCH  32  46
HETATM   46  C25 UNL     1       7.398 -10.424 -24.867  1.00  0.00     0.012 C 
HETATM   47  C26 UNL     1       6.559  -9.997 -23.650  1.00  0.00     0.012 C 
BRANCH  46  48
HETATM   48  C27 UNL     1       7.496  -9.209 -25.721  1.00  0.00     0.002 C 
HETATM   49  C28 UNL     1       8.892  -8.968 -26.292  1.00  0.00     0.005 C 
ENDBRANCH  46  48
ENDBRANCH  32  46
ENDBRANCH  30  32
ENDBRANCH   1  28
TORSDOF 21
ENDMDL
MODEL 4
REMARK VINA RESULT: -8.847109725      2.436      4.644
REMARK  21 active torsions:
REMARK  status: ('A' for Active; 'I' for Inactive)
REMARK    1  A    between atoms: C2_2  and  C3_3 
REMARK    2  A    between atoms: C3_3  and  C5_5 
REMARK    3  A    between atoms: C5_5  and  N1_6 
REMARK    4  A    between atoms: C5_5  and  C16_28 
REMARK       I    between atoms: N1_6  and  C6_7 
REMARK    5  A    between atoms: C6_7  and  C7_9 
REMARK    6  A    between atoms: C7_9  and  N2_10 
REMARK    7  A    between atoms: C7_9  and  C13_25 
REMARK       I    between atoms: N2_10  and  C8_12 
REMARK    8  A    between atoms: C8_12  and  C9_14 
REMARK    9  A    between atoms: C9_14  and  N3_15 
REMARK       I    between atoms: N3_15  and  C10_16 
REMARK   10  A    between atoms: C10_16  and  C11_18 
REMARK   11  A    between atoms: C11_18  and  N5_22 
REMARK       I    between atoms: C16_28  and  N6_30 
REMARK   12  A    between atoms: N6_30  and  C17_32 
REMARK   13  A    between atoms: C17_32  and  C18_33 
REMARK   14  A    between atoms: C17_32  and  C25_46 
REMARK   15  A    between atoms: C18_33  and  O5_34 
REMARK   16  A    between atoms: C18_33  and  N7_36 
REMARK   17  A    between atoms: N7_36  and  C19_38 
REMARK   18  A    between atoms: C19_38  and  C20_39 
REMARK   19  A    between atoms: C19_38  and  C24_43 
REMARK   20  A    between atoms: C20_39  and  C21_40 
REMARK   21  A    between atoms: C25_46  and  C27_48 
ROOT
HETATM    1  C5  UNL     1       8.198 -13.653 -22.661  1.00  0.00     0.159 C 
ENDROOT
BRANCH   1   2
HETATM    2  C3  UNL     1       9.304 -13.975 -21.718  1.00  0.00     0.051 C 
HETATM    3  C4  UNL     1      10.518 -14.591 -22.448  1.00  0.00     0.018 C 
BRANCH   2   4
HETATM    4  C2  UNL     1       8.982 -14.720 -20.486  1.00  0.00     0.007 C 
HETATM    5  C1  UNL     1       7.887 -14.206 -19.650  1.00  0.00     0.006 C 
ENDBRANCH   2   4
ENDBRANCH   1   2
BRANCH   1   6
HETATM    6  N1  UNL     1       8.312 -12.485 -23.452  1.00  0.00    -0.367 NA
HETATM    7  C6  UNL     1       8.427 -11.389 -24.195  1.00  0.00     0.315 C 
HETATM    8  O1  UNL     1       9.528 -11.007 -24.746  1.00  0.00    -0.255 OA
BRANCH   7   9
HETATM    9  C7  UNL     1       7.305 -10.406 -24.524  1.00  0.00     0.195 C 
BRANCH   9  10
HETATM   10  N2  UNL     1       6.098 -11.068 -24.189  1.00  0.00    -0.341 N 
HETATM   11  C8  UNL     1       4.966 -10.879 -23.457  1.00  0.00     0.271 C 
HETATM   12  O2  UNL     1       4.681  -9.880 -22.807  1.00  0.00    -0.266 OA
ATOM     13  H2  UNL     1       6.067 -11.980 -24.644  1.00  0.00     0.163 HD
BRANCH  11  14
HETATM   14  C9  UNL     1       3.915 -11.976 -23.410  1.00  0.00     0.260 C 
BRANCH  14  15
HETATM   15  N3  UNL     1       3.657 -12.586 -24.630  1.00  0.00    -0.371 NA
HETATM   16  C10 UNL     1       3.402 -13.164 -25.788  1.00  0.00     0.359 C 
HETATM   17  O3  UNL     1       2.256 -13.336 -26.363  1.00  0.00    -0.248 OA
BRANCH  16  18
HETATM   18  C11 UNL     1       4.486 -13.741 -26.655  1.00  0.00     0.178 C 
HETATM   19  N4  UNL     1       5.558 -14.073 -26.043  1.00  0.00    -0.380 N 
ATOM     20  H42 UNL     1       5.660 -13.930 -25.038  1.00  0.00     0.158 HD
ATOM     21  H41 UNL     1       6.294 -14.465 -26.632  1.00  0.00     0.158 HD
BRANCH  18  22
HETATM   22  N5  UNL     1       4.348 -13.937 -28.027  1.00  0.00    -0.376 N 
HETATM   23  C12 UNL     1       4.380 -12.794 -28.942  1.00  0.00     0.148 C 
ATOM     24  H5  UNL     1       4.224 -14.880 -28.396  1.00  0.00     0.160 HD
ENDBRANCH  18  22
ENDBRANCH  16  18
ENDBRANCH  14  15
ENDBRANCH  11  14
ENDBRANCH   9  10
BRANCH   9  25
HETATM   25  C13 UNL     1       7.502 -10.053 -25.979  1.00  0.00     0.010 C 
HETATM   26  C14 UNL     1       7.664  -8.572 -26.237  1.00  0.00     0.012 C 
HETATM   27  C15 UNL     1       6.340 -10.587 -26.838  1.00  0.00     0.012 C 
ENDBRANCH   9  25
ENDBRANCH   7   9
ENDBRANCH   1   6
BRANCH   1  28
HETATM   28  C16 UNL     1       7.696 -14.870 -23.422  1.00  0.00     0.279 C 
HETATM   29  O4  UNL     1       8.255 -15.062 -24.550  1.00  0.00    -0.265 OA
HETATM   30  N6  UNL     1       6.743 -15.715 -23.007  1.00  0.00    -0.343 N 
ATOM     31  H6  UNL     1       6.444 -15.424 -22.076  1.00  0.00     0.163 HD
BRANCH  30  32
HETATM   32  C17 UNL     1       5.974 -16.891 -23.382  1.00  0.00     0.163 C 
BRANCH  32  33
HETATM   33  C18 UNL     1       4.577 -16.488 -23.487  1.00  0.00     0.135 C 
BRANCH  33  34
HETATM   34  O5  UNL     1       3.888 -17.225 -24.310  1.00  0.00    -0.348 OA
ATOM     35  H5  UNL     1       3.057 -16.837 -24.557  1.00  0.00     0.219 HD
ENDBRANCH  33  34
BRANCH  33  36
HETATM   36  N7  UNL     1       3.862 -15.472 -22.890  1.00  0.00    -0.360 N 
ATOM     37  H7  UNL     1       4.153 -14.505 -23.036  1.00  0.00     0.162 HD
BRANCH  36  38
HETATM   38  C19 UNL     1       2.704 -15.746 -22.060  1.00  0.00     0.173 C 
BRANCH  38  39
HETATM   39  C20 UNL     1       2.728 -15.128 -20.715  1.00  0.00     0.038 C 
BRANCH  39  40
HETATM   40  C21 UNL     1       3.993 -14.492 -20.275  1.00  0.00    -0.020 C 
HETATM   41  C22 UNL     1       4.366 -15.244 -18.961  1.00  0.00     0.009 C 
HETATM   42  C23 UNL     1       3.890 -13.058 -19.853  1.00  0.00     0.009 C 
ENDBRANCH  39  40
ENDBRANCH  38  39
BRANCH  38  43
HETATM   43  C24 UNL     1       1.571 -15.008 -22.784  1.00  0.00     0.253 C 
HETATM   44  N8  UNL     1       0.882 -13.974 -22.144  1.00  0.00    -0.060 NA
HETATM   45  O6  UNL     1       1.326 -15.396 -23.945  1.00  0.00    -0.275 OA
ENDBRANCH  38  43
ENDBRANCH  36  38
ENDBRANCH  33  36
ENDBRANCH  32  33
BRANCH  32  46
HETATM   46  C25 UNL     1       6.392 -17.993 -22.530  1.00  0.00     0.012 C 
HETATM   47  C26 UNL     1       6.258 -17.552 -21.063  1.00  0.00     0.012 C 
BRANCH  46  48
HETATM   48  C27 UNL     1       7.748 -18.596 -22.635  1.00  0.00     0.002 C 
HETATM   49  C28 UNL     1       8.608 -18.399 -21.388  1.00  0.00     0.005 C 
ENDBRANCH  46  48
ENDBRANCH  32  46
ENDBRANCH  30  32
ENDBRANCH   1  28
TORSDOF 21
ENDMDL
MODEL 5
REMARK VINA RESULT: -8.783981773      2.576      8.618
REMARK  21 active torsions:
REMARK  status: ('A' for Active; 'I' for Inactive)
REMARK    1  A    between atoms: C2_2  and  C3_3 
REMARK    2  A    between atoms: C3_3  and  C5_5 
REMARK    3  A    between atoms: C5_5  and  N1_6 
REMARK    4  A    between atoms: C5_5  and  C16_28 
REMARK       I    between atoms: N1_6  and  C6_7 
REMARK    5  A    between atoms: C6_7  and  C7_9 
REMARK    6  A    between atoms: C7_9  and  N2_10 
REMARK    7  A    between atoms: C7_9  and  C13_25 
REMARK       I    between atoms: N2_10  and  C8_12 
REMARK    8  A    between atoms: C8_12  and  C9_14 
REMARK    9  A    between atoms: C9_14  and  N3_15 
REMARK       I    between atoms: N3_15  and  C10_16 
REMARK   10  A    between atoms: C10_16  and  C11_18 
REMARK   11  A    between atoms: C11_18  and  N5_22 
REMARK       I    between atoms: C16_28  and  N6_30 
REMARK   12  A    between atoms: N6_30  and  C17_32 
REMARK   13  A    between atoms: C17_32  and  C18_33 
REMARK   14  A    between atoms: C17_32  and  C25_46 
REMARK   15  A    between atoms: C18_33  and  O5_34 
REMARK   16  A    between atoms: C18_33  and  N7_36 
REMARK   17  A    between atoms: N7_36  and  C19_38 
REMARK   18  A    between atoms: C19_38  and  C20_39 
REMARK   19  A    between atoms: C19_38  and  C24_43 
REMARK   20  A    between atoms: C20_39  and  C21_40 
REMARK   21  A    between atoms: C25_46  and  C27_48 
ROOT
HETATM    1  C5  UNL     1       7.416 -14.925 -22.308  1.00  0.00     0.159 C 
ENDROOT
BRANCH   1   2
HETATM    2  C3  UNL     1       8.658 -14.878 -21.488  1.00  0.00     0.051 C 
HETATM    3  C4  UNL     1       9.745 -15.826 -22.040  1.00  0.00     0.018 C 
BRANCH   2   4
HETATM    4  C2  UNL     1       8.537 -14.993 -20.022  1.00  0.00     0.007 C 
HETATM    5  C1  UNL     1       8.886 -13.814 -19.217  1.00  0.00     0.006 C 
ENDBRANCH   2   4
ENDBRANCH   1   2
BRANCH   1   6
HETATM    6  N1  UNL     1       6.315 -15.662 -21.812  1.00  0.00    -0.367 NA
HETATM    7  C6  UNL     1       5.285 -16.362 -21.348  1.00  0.00     0.315 C 
HETATM    8  O1  UNL     1       5.280 -17.646 -21.237  1.00  0.00    -0.255 OA
BRANCH   7   9
HETATM    9  C7  UNL     1       3.951 -15.788 -20.872  1.00  0.00     0.195 C 
BRANCH   9  10
HETATM   10  N2  UNL     1       3.198 -15.535 -22.045  1.00  0.00    -0.341 N 
HETATM   11  C8  UNL     1       3.129 -14.649 -23.077  1.00  0.00     0.271 C 
HETATM   12  O2  UNL     1       3.868 -13.689 -23.259  1.00  0.00    -0.266 OA
ATOM     13  H2  UNL     1       2.474 -16.246 -22.151  1.00  0.00     0.163 HD
BRANCH  11  14
HETATM   14  C9  UNL     1       2.056 -14.823 -24.139  1.00  0.00     0.260 C 
BRANCH  14  15
HETATM   15  N3  UNL     1       0.758 -14.888 -23.650  1.00  0.00    -0.371 NA
HETATM   16  C10 UNL     1      -0.474 -14.940 -23.182  1.00  0.00     0.359 C 
HETATM   17  O3  UNL     1      -1.168 -13.989 -22.645  1.00  0.00    -0.248 OA
BRANCH  16  18
HETATM   18  C11 UNL     1      -1.293 -16.200 -23.212  1.00  0.00     0.178 C 
HETATM   19  N4  UNL     1      -1.410 -16.751 -24.359  1.00  0.00    -0.380 N 
ATOM     20  H42 UNL     1      -0.986 -16.338 -25.190  1.00  0.00     0.158 HD
ATOM     21  H41 UNL     1      -1.966 -17.606 -24.379  1.00  0.00     0.158 HD
BRANCH  18  22
HETATM   22  N5  UNL     1      -1.872 -16.765 -22.078  1.00  0.00    -0.376 N 
HETATM   23  C12 UNL     1      -2.936 -17.762 -22.213  1.00  0.00     0.148 C 
ATOM     24  H5  UNL     1      -1.555 -16.482 -21.150  1.00  0.00     0.160 HD
ENDBRANCH  18  22
ENDBRANCH  16  18
ENDBRANCH  14  15
ENDBRANCH  11  14
ENDBRANCH   9  10
BRANCH   9  25
HETATM   25  C13 UNL     1       4.314 -14.588 -20.030  1.00  0.00     0.010 C 
HETATM   26  C14 UNL     1       5.019 -14.934 -18.738  1.00  0.00     0.012 C 
HETATM   27  C15 UNL     1       3.067 -13.743 -19.709  1.00  0.00     0.012 C 
ENDBRANCH   9  25
ENDBRANCH   7   9
ENDBRANCH   1   6
BRANCH   1  28
HETATM   28  C16 UNL     1       7.043 -13.572 -22.895  1.00  0.00     0.279 C 
HETATM   29  O4  UNL     1       6.844 -12.654 -22.036  1.00  0.00    -0.265 OA
HETATM   30  N6  UNL     1       6.911 -13.295 -24.199  1.00  0.00    -0.343 N 
ATOM     31  H6  UNL     1       7.143 -14.135 -24.728  1.00  0.00     0.163 HD
BRANCH  30  32
HETATM   32  C17 UNL     1       6.560 -12.247 -25.144  1.00  0.00     0.163 C 
BRANCH  32  33
HETATM   33  C18 UNL     1       6.385 -12.872 -26.449  1.00  0.00     0.135 C 
BRANCH  33  34
HETATM   34  O5  UNL     1       7.247 -13.817 -26.690  1.00  0.00    -0.348 OA
ATOM     35  H5  UNL     1       6.872 -14.562 -27.145  1.00  0.00     0.219 HD
ENDBRANCH  33  34
BRANCH  33  36
HETATM   36  N7  UNL     1       5.489 -12.638 -27.471  1.00  0.00    -0.360 N 
ATOM     37  H7  UNL     1       5.443 -13.291 -28.253  1.00  0.00     0.162 HD
BRANCH  36  38
HETATM   38  C19 UNL     1       4.611 -11.483 -27.460  1.00  0.00     0.173 C 
BRANCH  38  39
HETATM   39  C20 UNL     1       4.894 -10.461 -28.492  1.00  0.00     0.038 C 
BRANCH  39  40
HETATM   40  C21 UNL     1       4.844  -9.037 -28.079  1.00  0.00    -0.020 C 
HETATM   41  C22 UNL     1       4.208  -9.073 -26.655  1.00  0.00     0.009 C 
HETATM   42  C23 UNL     1       3.918  -8.162 -28.866  1.00  0.00     0.009 C 
ENDBRANCH  39  40
ENDBRANCH  38  39
BRANCH  38  43
HETATM   43  C24 UNL     1       3.258 -12.069 -27.884  1.00  0.00     0.253 C 
HETATM   44  N8  UNL     1       2.422 -12.671 -26.937  1.00  0.00    -0.060 NA
HETATM   45  O6  UNL     1       2.979 -11.968 -29.096  1.00  0.00    -0.275 OA
ENDBRANCH  38  43
ENDBRANCH  36  38
ENDBRANCH  33  36
ENDBRANCH  32  33
BRANCH  32  46
HETATM   46  C25 UNL     1       7.476 -11.135 -24.944  1.00  0.00     0.012 C 
HETATM   47  C26 UNL     1       6.724 -10.011 -24.211  1.00  0.00     0.012 C 
BRANCH  46  48
HETATM   48  C27 UNL     1       8.163 -10.469 -26.083  1.00  0.00     0.002 C 
HETATM   49  C28 UNL     1       7.944  -8.958 -26.136  1.00  0.00     0.005 C 
ENDBRANCH  46  48
ENDBRANCH  32  46
ENDBRANCH  30  32
ENDBRANCH   1  28
TORSDOF 21
ENDMDL
