MODEL 1
REMARK VINA RESULT: -8.610537839      0.000      0.000
REMARK  21 active torsions:
REMARK  status: ('A' for Active; 'I' for Inactive)
REMARK    1  A    between atoms: C2_2  and  N1_4 
REMARK    2  A    between atoms: N1_4  and  C4_6 
REMARK    3  A    between atoms: C4_6  and  C5_7 
REMARK    4  A    between atoms: C5_7  and  O1_8 
REMARK    5  A    between atoms: C5_7  and  N2_10 
REMARK    6  A    between atoms: N2_10  and  C6_12 
REMARK    7  A    between atoms: C6_12  and  C7_13 
REMARK       I    between atoms: C7_13  and  N3_15 
REMARK    8  A    between atoms: N3_15  and  C8_17 
REMARK    9  A    between atoms: C8_17  and  C10_19 
REMARK       I    between atoms: C10_19  and  N4_21 
REMARK   10  A    between atoms: N4_21  and  C11_23 
REMARK   11  A    between atoms: C11_23  and  C12_24 
REMARK   12  A    between atoms: C11_23  and  C15_29 
REMARK   13  A    between atoms: C12_24  and  C13_25 
REMARK   14  A    between atoms: C13_25  and  C14_26 
REMARK       I    between atoms: C15_29  and  N6_31 
REMARK   15  A    between atoms: N6_31  and  C16_33 
REMARK   16  A    between atoms: C16_33  and  C18_35 
REMARK   17  A    between atoms: C18_35  and  N7_36 
REMARK   18  A    between atoms: C18_35  and  C27_46 
REMARK   19  A    between atoms: N7_36  and  C19_38 
REMARK   20  A    between atoms: C19_38  and  C20_39 
REMARK   21  A    between atoms: C19_38  and  C23_42 
ROOT
HETATM    1  C11 UNL     1       3.640 -16.286 -23.584  1.00  0.00     0.177 C 
ENDROOT
BRANCH   1   2
HETATM    2  N4  UNL     1       3.929 -15.177 -24.438  1.00  0.00    -0.346 N 
HETATM    3  C10 UNL     1       5.250 -14.742 -24.800  1.00  0.00     0.240 C 
HETATM    4  O3  UNL     1       6.267 -15.341 -24.376  1.00  0.00    -0.271 OA
ATOM      5  H4  UNL     1       3.139 -14.656 -24.819  1.00  0.00     0.163 HD
BRANCH   3   6
HETATM    6  C8  UNL     1       5.438 -13.574 -25.686  1.00  0.00     0.172 C 
HETATM    7  C9  UNL     1       4.207 -12.683 -25.499  1.00  0.00     0.042 C 
BRANCH   6   8
HETATM    8  N3  UNL     1       6.577 -12.771 -25.309  1.00  0.00    -0.347 N 
HETATM    9  C7  UNL     1       7.580 -12.489 -26.288  1.00  0.00     0.236 C 
HETATM   10  O2  UNL     1       7.454 -12.949 -27.464  1.00  0.00    -0.272 OA
ATOM     11  H3  UNL     1       6.665 -12.410 -24.359  1.00  0.00     0.163 HD
BRANCH   9  12
HETATM   12  C6  UNL     1       8.741 -11.669 -25.924  1.00  0.00     0.224 C 
BRANCH  12  13
HETATM   13  N2  UNL     1       9.457 -11.182 -27.101  1.00  0.00    -0.361 N 
ATOM     14  H2  UNL     1       9.158 -11.481 -28.028  1.00  0.00     0.162 HD
BRANCH  13  15
HETATM   15  C5  UNL     1      10.545 -10.312 -26.976  1.00  0.00     0.151 C 
BRANCH  15  16
HETATM   16  C4  UNL     1      10.532  -8.876 -26.714  1.00  0.00     0.139 C 
BRANCH  16  17
HETATM   17  N1  UNL     1       9.800  -8.302 -25.687  1.00  0.00    -0.392 N 
ATOM     18  H1  UNL     1      10.007  -8.556 -24.722  1.00  0.00     0.159 HD
BRANCH  17  19
HETATM   19  C2  UNL     1       8.781  -7.380 -25.952  1.00  0.00     0.072 C 
HETATM   20  C1  UNL     1       9.160  -6.159 -26.696  1.00  0.00     0.031 C 
HETATM   21  C3  UNL     1       7.586  -8.055 -26.657  1.00  0.00     0.031 C 
ENDBRANCH  17  19
ENDBRANCH  16  17
ENDBRANCH  15  16
BRANCH  15  22
HETATM   22  O1  UNL     1      11.753 -10.809 -27.093  1.00  0.00    -0.345 OA
ATOM     23  H1  UNL     1      12.077 -11.203 -26.291  1.00  0.00     0.219 HD
ENDBRANCH  15  22
ENDBRANCH  13  15
ENDBRANCH  12  13
ENDBRANCH   9  12
ENDBRANCH   6   8
ENDBRANCH   3   6
ENDBRANCH   1   2
BRANCH   1  24
HETATM   24  C12 UNL     1       2.194 -16.212 -23.052  1.00  0.00     0.043 C 
BRANCH  24  25
HETATM   25  C13 UNL     1       1.545 -14.931 -23.530  1.00  0.00     0.102 C 
BRANCH  25  26
HETATM   26  C14 UNL     1       0.908 -14.239 -22.387  1.00  0.00     0.231 C 
HETATM   27  N5  UNL     1       1.754 -13.883 -21.279  1.00  0.00    -0.062 NA
HETATM   28  O4  UNL     1      -0.306 -13.985 -22.399  1.00  0.00    -0.277 OA
ENDBRANCH  25  26
ENDBRANCH  24  25
ENDBRANCH   1  24
BRANCH   1  29
HETATM   29  C15 UNL     1       4.516 -16.323 -22.395  1.00  0.00     0.240 C 
HETATM   30  O5  UNL     1       4.925 -17.448 -22.005  1.00  0.00    -0.271 OA
HETATM   31  N6  UNL     1       4.923 -15.174 -21.672  1.00  0.00    -0.353 N 
ATOM     32  H6  UNL     1       4.604 -14.253 -21.971  1.00  0.00     0.163 HD
BRANCH  31  33
HETATM   33  C16 UNL     1       5.781 -15.287 -20.522  1.00  0.00     0.103 C 
HETATM   34  C17 UNL     1       5.266 -14.410 -19.409  1.00  0.00     0.034 C 
BRANCH  33  35
HETATM   35  C18 UNL     1       7.241 -15.255 -20.719  1.00  0.00     0.106 C 
BRANCH  35  36
HETATM   36  N7  UNL     1       8.028 -15.589 -21.724  1.00  0.00    -0.388 N 
ATOM     37  H7  UNL     1       7.686 -15.171 -22.589  1.00  0.00     0.159 HD
BRANCH  36  38
HETATM   38  C19 UNL     1       9.182 -16.335 -21.974  1.00  0.00    -0.006 C 
BRANCH  38  39
HETATM   39  C20 UNL     1       8.928 -17.770 -22.142  1.00  0.00     0.023 C 
HETATM   40  C21 UNL     1       7.852 -18.165 -23.167  1.00  0.00     0.016 C 
HETATM   41  C22 UNL     1       8.669 -18.530 -20.843  1.00  0.00     0.016 C 
ENDBRANCH  38  39
BRANCH  38  42
HETATM   42  C23 UNL     1      10.149 -15.625 -22.878  1.00  0.00    -0.013 C 
HETATM   43  C24 UNL     1       9.695 -14.875 -24.051  1.00  0.00     0.021 C 
HETATM   44  C25 UNL     1      11.094 -16.719 -23.459  1.00  0.00     0.021 C 
HETATM   45  C26 UNL     1      11.102 -14.717 -22.116  1.00  0.00     0.021 C 
ENDBRANCH  38  42
ENDBRANCH  36  38
ENDBRANCH  35  36
BRANCH  35  46
HETATM   46  C27 UNL     1       7.610 -13.797 -20.268  1.00  0.00     0.002 C 
HETATM   47  C28 UNL     1       7.953 -12.893 -21.381  1.00  0.00     0.011 C 
HETATM   48  C29 UNL     1       8.785 -13.873 -19.278  1.00  0.00     0.011 C 
ENDBRANCH  35  46
ENDBRANCH  33  35
ENDBRANCH  31  33
ENDBRANCH   1  29
TORSDOF 21
ENDMDL
MODEL 2
REMARK VINA RESULT: -8.599112671      2.751      8.239
REMARK  21 active torsions:
REMARK  status: ('A' for Active; 'I' for Inactive)
REMARK    1  A    between atoms: C2_2  and  N1_4 
REMARK    2  A    between atoms: N1_4  and  C4_6 
REMARK    3  A    between atoms: C4_6  and  C5_7 
REMARK    4  A    between atoms: C5_7  and  O1_8 
REMARK    5  A    between atoms: C5_7  and  N2_10 
REMARK    6  A    between atoms: N2_10  and  C6_12 
REMARK    7  A    between atoms: C6_12  and  C7_13 
REMARK       I    between atoms: C7_13  and  N3_15 
REMARK    8  A    between atoms: N3_15  and  C8_17 
REMARK    9  A    between atoms: C8_17  and  C10_19 
REMARK       I    between atoms: C10_19  and  N4_21 
REMARK   10  A    between atoms: N4_21  and  C11_23 
REMARK   11  A    between atoms: C11_23  and  C12_24 
REMARK   12  A    between atoms: C11_23  and  C15_29 
REMARK   13  A    between atoms: C12_24  and  C13_25 
REMARK   14  A    between atoms: C13_25  and  C14_26 
REMARK       I    between atoms: C15_29  and  N6_31 
REMARK   15  A    between atoms: N6_31  and  C16_33 
REMARK   16  A    between atoms: C16_33  and  C18_35 
REMARK   17  A    between atoms: C18_35  and  N7_36 
REMARK   18  A    between atoms: C18_35  and  C27_46 
REMARK   19  A    between atoms: N7_36  and  C19_38 
REMARK   20  A    between atoms: C19_38  and  C20_39 
REMARK   21  A    between atoms: C19_38  and  C23_42 
ROOT
HETATM    1  C11 UNL     1       5.609 -11.504 -24.218  1.00  0.00     0.177 C 
ENDROOT
BRANCH   1   2
HETATM    2  N4  UNL     1       4.714 -12.481 -24.754  1.00  0.00    -0.346 N 
HETATM    3  C10 UNL     1       3.549 -12.984 -24.080  1.00  0.00     0.240 C 
HETATM    4  O3  UNL     1       3.232 -12.571 -22.938  1.00  0.00    -0.271 OA
ATOM      5  H4  UNL     1       4.917 -12.848 -25.683  1.00  0.00     0.163 HD
BRANCH   3   6
HETATM    6  C8  UNL     1       2.692 -14.003 -24.722  1.00  0.00     0.172 C 
HETATM    7  C9  UNL     1       3.524 -14.622 -25.850  1.00  0.00     0.042 C 
BRANCH   6   8
HETATM    8  N3  UNL     1       2.357 -15.087 -23.828  1.00  0.00    -0.347 N 
HETATM    9  C7  UNL     1       0.980 -15.372 -23.574  1.00  0.00     0.236 C 
HETATM   10  O2  UNL     1       0.080 -14.672 -24.132  1.00  0.00    -0.272 OA
ATOM     11  H3  UNL     1       3.090 -15.639 -23.386  1.00  0.00     0.163 HD
BRANCH   9  12
HETATM   12  C6  UNL     1       0.620 -16.475 -22.674  1.00  0.00     0.224 C 
BRANCH  12  13
HETATM   13  N2  UNL     1      -0.426 -17.324 -23.240  1.00  0.00    -0.361 N 
ATOM     14  H2  UNL     1      -0.191 -17.980 -23.984  1.00  0.00     0.162 HD
BRANCH  13  15
HETATM   15  C5  UNL     1      -1.744 -17.250 -22.779  1.00  0.00     0.151 C 
BRANCH  15  16
HETATM   16  C4  UNL     1      -2.905 -16.661 -23.441  1.00  0.00     0.139 C 
BRANCH  16  17
HETATM   17  N1  UNL     1      -2.812 -15.592 -24.319  1.00  0.00    -0.392 N 
ATOM     18  H1  UNL     1      -2.295 -15.704 -25.191  1.00  0.00     0.159 HD
BRANCH  17  19
HETATM   19  C2  UNL     1      -3.415 -14.363 -24.029  1.00  0.00     0.072 C 
HETATM   20  C1  UNL     1      -4.857 -14.239 -24.328  1.00  0.00     0.031 C 
HETATM   21  C3  UNL     1      -3.160 -13.948 -22.565  1.00  0.00     0.031 C 
ENDBRANCH  17  19
ENDBRANCH  16  17
ENDBRANCH  15  16
BRANCH  15  22
HETATM   22  O1  UNL     1      -2.023 -17.772 -21.609  1.00  0.00    -0.345 OA
ATOM     23  H1  UNL     1      -1.258 -17.885 -21.056  1.00  0.00     0.219 HD
ENDBRANCH  15  22
ENDBRANCH  13  15
ENDBRANCH  12  13
ENDBRANCH   9  12
ENDBRANCH   6   8
ENDBRANCH   3   6
ENDBRANCH   1   2
BRANCH   1  24
HETATM   24  C12 UNL     1       6.335 -10.742 -25.345  1.00  0.00     0.043 C 
BRANCH  24  25
HETATM   25  C13 UNL     1       6.107 -11.452 -26.663  1.00  0.00     0.102 C 
BRANCH  25  26
HETATM   26  C14 UNL     1       7.277 -12.304 -26.976  1.00  0.00     0.231 C 
HETATM   27  N5  UNL     1       7.176 -13.703 -26.659  1.00  0.00    -0.062 NA
HETATM   28  O4  UNL     1       8.294 -11.815 -27.492  1.00  0.00    -0.277 OA
ENDBRANCH  25  26
ENDBRANCH  24  25
ENDBRANCH   1  24
BRANCH   1  29
HETATM   29  C15 UNL     1       6.666 -12.110 -23.381  1.00  0.00     0.240 C 
HETATM   30  O5  UNL     1       7.324 -11.345 -22.627  1.00  0.00    -0.271 OA
HETATM   31  N6  UNL     1       6.982 -13.491 -23.376  1.00  0.00    -0.353 N 
ATOM     32  H6  UNL     1       6.461 -14.127 -23.979  1.00  0.00     0.163 HD
BRANCH  31  33
HETATM   33  C16 UNL     1       8.025 -14.010 -22.532  1.00  0.00     0.103 C 
HETATM   34  C17 UNL     1       8.974 -14.852 -23.347  1.00  0.00     0.034 C 
BRANCH  33  35
HETATM   35  C18 UNL     1       7.663 -14.569 -21.217  1.00  0.00     0.106 C 
BRANCH  35  36
HETATM   36  N7  UNL     1       6.901 -15.576 -20.840  1.00  0.00    -0.388 N 
ATOM     37  H7  UNL     1       7.385 -16.140 -20.141  1.00  0.00     0.159 HD
BRANCH  36  38
HETATM   38  C19 UNL     1       5.637 -16.114 -21.098  1.00  0.00    -0.006 C 
BRANCH  38  39
HETATM   39  C20 UNL     1       5.666 -17.286 -21.979  1.00  0.00     0.023 C 
HETATM   40  C21 UNL     1       6.917 -18.176 -21.902  1.00  0.00     0.016 C 
HETATM   41  C22 UNL     1       5.366 -16.990 -23.446  1.00  0.00     0.016 C 
ENDBRANCH  38  39
BRANCH  38  42
HETATM   42  C23 UNL     1       4.739 -16.092 -19.893  1.00  0.00    -0.013 C 
HETATM   43  C24 UNL     1       4.467 -17.302 -19.115  1.00  0.00     0.021 C 
HETATM   44  C25 UNL     1       3.338 -15.632 -20.396  1.00  0.00     0.021 C 
HETATM   45  C26 UNL     1       5.121 -15.005 -18.900  1.00  0.00     0.021 C 
ENDBRANCH  38  42
ENDBRANCH  36  38
ENDBRANCH  35  36
BRANCH  35  46
HETATM   46  C27 UNL     1       9.063 -14.723 -20.522  1.00  0.00     0.002 C 
HETATM   47  C28 UNL     1       9.386 -16.106 -20.121  1.00  0.00     0.011 C 
HETATM   48  C29 UNL     1       9.101 -13.803 -19.290  1.00  0.00     0.011 C 
ENDBRANCH  35  46
ENDBRANCH  33  35
ENDBRANCH  31  33
ENDBRANCH   1  29
TORSDOF 21
ENDMDL
MODEL 3
REMARK VINA RESULT: -8.464433565      4.011      9.471
REMARK  21 active torsions:
REMARK  status: ('A' for Active; 'I' for Inactive)
REMARK    1  A    between atoms: C2_2  and  N1_4 
REMARK    2  A    between atoms: N1_4  and  C4_6 
REMARK    3  A    between atoms: C4_6  and  C5_7 
REMARK    4  A    between atoms: C5_7  and  O1_8 
REMARK    5  A    between atoms: C5_7  and  N2_10 
REMARK    6  A    between atoms: N2_10  and  C6_12 
REMARK    7  A    between atoms: C6_12  and  C7_13 
REMARK       I    between atoms: C7_13  and  N3_15 
REMARK    8  A    between atoms: N3_15  and  C8_17 
REMARK    9  A    between atoms: C8_17  and  C10_19 
REMARK       I    between atoms: C10_19  and  N4_21 
REMARK   10  A    between atoms: N4_21  and  C11_23 
REMARK   11  A    between atoms: C11_23  and  C12_24 
REMARK   12  A    between atoms: C11_23  and  C15_29 
REMARK   13  A    between atoms: C12_24  and  C13_25 
REMARK   14  A    between atoms: C13_25  and  C14_26 
REMARK       I    between atoms: C15_29  and  N6_31 
REMARK   15  A    between atoms: N6_31  and  C16_33 
REMARK   16  A    between atoms: C16_33  and  C18_35 
REMARK   17  A    between atoms: C18_35  and  N7_36 
REMARK   18  A    between atoms: C18_35  and  C27_46 
REMARK   19  A    between atoms: N7_36  and  C19_38 
REMARK   20  A    between atoms: C19_38  and  C20_39 
REMARK   21  A    between atoms: C19_38  and  C23_42 
ROOT
HETATM    1  C11 UNL     1       3.250 -16.170 -21.005  1.00  0.00     0.177 C 
ENDROOT
BRANCH   1   2
HETATM    2  N4  UNL     1       2.446 -15.526 -21.996  1.00  0.00    -0.346 N 
HETATM    3  C10 UNL     1       1.110 -15.918 -22.351  1.00  0.00     0.240 C 
HETATM    4  O3  UNL     1       0.545 -16.882 -21.781  1.00  0.00    -0.271 OA
ATOM      5  H4  UNL     1       2.852 -14.730 -22.488  1.00  0.00     0.163 HD
BRANCH   3   6
HETATM    6  C8  UNL     1       0.368 -15.187 -23.400  1.00  0.00     0.172 C 
HETATM    7  C9  UNL     1       1.225 -15.257 -24.667  1.00  0.00     0.042 C 
BRANCH   6   8
HETATM    8  N3  UNL     1      -0.889 -15.817 -23.728  1.00  0.00    -0.347 N 
HETATM    9  C7  UNL     1      -2.095 -15.281 -23.179  1.00  0.00     0.236 C 
HETATM   10  O2  UNL     1      -2.041 -14.269 -22.415  1.00  0.00    -0.272 OA
ATOM     11  H3  UNL     1      -0.916 -16.630 -24.343  1.00  0.00     0.163 HD
BRANCH   9  12
HETATM   12  C6  UNL     1      -3.384 -15.904 -23.508  1.00  0.00     0.224 C 
BRANCH  12  13
HETATM   13  N2  UNL     1      -3.989 -16.553 -22.348  1.00  0.00    -0.361 N 
ATOM     14  H2  UNL     1      -4.750 -16.088 -21.853  1.00  0.00     0.162 HD
BRANCH  13  15
HETATM   15  C5  UNL     1      -3.541 -17.801 -21.903  1.00  0.00     0.151 C 
BRANCH  15  16
HETATM   16  C4  UNL     1      -4.332 -18.978 -21.557  1.00  0.00     0.139 C 
BRANCH  16  17
HETATM   17  N1  UNL     1      -4.738 -19.261 -20.262  1.00  0.00    -0.392 N 
ATOM     18  H1  UNL     1      -4.776 -18.509 -19.574  1.00  0.00     0.159 HD
BRANCH  17  19
HETATM   19  C2  UNL     1      -5.098 -20.559 -19.884  1.00  0.00     0.072 C 
HETATM   20  C1  UNL     1      -6.189 -20.689 -18.895  1.00  0.00     0.031 C 
HETATM   21  C3  UNL     1      -5.418 -21.432 -21.116  1.00  0.00     0.031 C 
ENDBRANCH  17  19
ENDBRANCH  16  17
ENDBRANCH  15  16
BRANCH  15  22
HETATM   22  O1  UNL     1      -2.249 -17.986 -21.773  1.00  0.00    -0.345 OA
ATOM     23  H1  UNL     1      -1.732 -17.236 -22.043  1.00  0.00     0.219 HD
ENDBRANCH  15  22
ENDBRANCH  13  15
ENDBRANCH  12  13
ENDBRANCH   9  12
ENDBRANCH   6   8
ENDBRANCH   3   6
ENDBRANCH   1   2
BRANCH   1  24
HETATM   24  C12 UNL     1       3.419 -15.272 -19.762  1.00  0.00     0.043 C 
BRANCH  24  25
HETATM   25  C13 UNL     1       2.752 -13.936 -20.010  1.00  0.00     0.102 C 
BRANCH  25  26
HETATM   26  C14 UNL     1       3.775 -12.866 -20.035  1.00  0.00     0.231 C 
HETATM   27  N5  UNL     1       3.338 -11.545 -20.398  1.00  0.00    -0.062 NA
HETATM   28  O4  UNL     1       4.957 -13.116 -19.751  1.00  0.00    -0.277 OA
ENDBRANCH  25  26
ENDBRANCH  24  25
ENDBRANCH   1  24
BRANCH   1  29
HETATM   29  C15 UNL     1       4.614 -16.466 -21.491  1.00  0.00     0.240 C 
HETATM   30  O5  UNL     1       4.724 -17.076 -22.587  1.00  0.00    -0.271 OA
HETATM   31  N6  UNL     1       5.798 -16.105 -20.802  1.00  0.00    -0.353 N 
ATOM     32  H6  UNL     1       5.731 -15.611 -19.913  1.00  0.00     0.163 HD
BRANCH  31  33
HETATM   33  C16 UNL     1       7.094 -16.426 -21.338  1.00  0.00     0.103 C 
HETATM   34  C17 UNL     1       7.777 -17.442 -20.459  1.00  0.00     0.034 C 
BRANCH  33  35
HETATM   35  C18 UNL     1       7.957 -15.330 -21.815  1.00  0.00     0.106 C 
BRANCH  35  36
HETATM   36  N7  UNL     1       7.724 -14.223 -22.492  1.00  0.00    -0.388 N 
ATOM     37  H7  UNL     1       7.568 -13.446 -21.851  1.00  0.00     0.159 HD
BRANCH  36  38
HETATM   38  C19 UNL     1       7.624 -13.781 -23.814  1.00  0.00    -0.006 C 
BRANCH  38  39
HETATM   39  C20 UNL     1       6.263 -13.395 -24.203  1.00  0.00     0.023 C 
HETATM   40  C21 UNL     1       5.439 -12.628 -23.155  1.00  0.00     0.016 C 
HETATM   41  C22 UNL     1       5.410 -14.531 -24.760  1.00  0.00     0.016 C 
ENDBRANCH  38  39
BRANCH  38  42
HETATM   42  C23 UNL     1       8.800 -12.949 -24.240  1.00  0.00    -0.013 C 
HETATM   43  C24 UNL     1       8.794 -12.196 -25.496  1.00  0.00     0.021 C 
HETATM   44  C25 UNL     1      10.005 -13.927 -24.380  1.00  0.00     0.021 C 
HETATM   45  C26 UNL     1       9.260 -11.990 -23.153  1.00  0.00     0.021 C 
ENDBRANCH  38  42
ENDBRANCH  36  38
ENDBRANCH  35  36
BRANCH  35  46
HETATM   46  C27 UNL     1       8.769 -14.956 -20.524  1.00  0.00     0.002 C 
HETATM   47  C28 UNL     1       8.327 -13.707 -19.877  1.00  0.00     0.011 C 
HETATM   48  C29 UNL     1      10.258 -14.850 -20.897  1.00  0.00     0.011 C 
ENDBRANCH  35  46
ENDBRANCH  33  35
ENDBRANCH  31  33
ENDBRANCH   1  29
TORSDOF 21
ENDMDL
MODEL 4
REMARK VINA RESULT: -8.443684764      1.504      2.687
REMARK  21 active torsions:
REMARK  status: ('A' for Active; 'I' for Inactive)
REMARK    1  A    between atoms: C2_2  and  N1_4 
REMARK    2  A    between atoms: N1_4  and  C4_6 
REMARK    3  A    between atoms: C4_6  and  C5_7 
REMARK    4  A    between atoms: C5_7  and  O1_8 
REMARK    5  A    between atoms: C5_7  and  N2_10 
REMARK    6  A    between atoms: N2_10  and  C6_12 
REMARK    7  A    between atoms: C6_12  and  C7_13 
REMARK       I    between atoms: C7_13  and  N3_15 
REMARK    8  A    between atoms: N3_15  and  C8_17 
REMARK    9  A    between atoms: C8_17  and  C10_19 
REMARK       I    between atoms: C10_19  and  N4_21 
REMARK   10  A    between atoms: N4_21  and  C11_23 
REMARK   11  A    between atoms: C11_23  and  C12_24 
REMARK   12  A    between atoms: C11_23  and  C15_29 
REMARK   13  A    between atoms: C12_24  and  C13_25 
REMARK   14  A    between atoms: C13_25  and  C14_26 
REMARK       I    between atoms: C15_29  and  N6_31 
REMARK   15  A    between atoms: N6_31  and  C16_33 
REMARK   16  A    between atoms: C16_33  and  C18_35 
REMARK   17  A    between atoms: C18_35  and  N7_36 
REMARK   18  A    between atoms: C18_35  and  C27_46 
REMARK   19  A    between atoms: N7_36  and  C19_38 
REMARK   20  A    between atoms: C19_38  and  C20_39 
REMARK   21  A    between atoms: C19_38  and  C23_42 
ROOT
HETATM    1  C11 UNL     1       3.897 -14.976 -24.020  1.00  0.00     0.177 C 
ENDROOT
BRANCH   1   2
HETATM    2  N4  UNL     1       4.555 -13.823 -24.552  1.00  0.00    -0.346 N 
HETATM    3  C10 UNL     1       4.083 -13.050 -25.667  1.00  0.00     0.240 C 
HETATM    4  O3  UNL     1       3.017 -13.349 -26.257  1.00  0.00    -0.271 OA
ATOM      5  H4  UNL     1       5.424 -13.529 -24.106  1.00  0.00     0.163 HD
BRANCH   3   6
HETATM    6  C8  UNL     1       4.846 -11.878 -26.143  1.00  0.00     0.172 C 
HETATM    7  C9  UNL     1       4.263 -10.658 -25.424  1.00  0.00     0.042 C 
BRANCH   6   8
HETATM    8  N3  UNL     1       6.240 -11.936 -25.768  1.00  0.00    -0.347 N 
HETATM    9  C7  UNL     1       7.232 -11.600 -26.741  1.00  0.00     0.236 C 
HETATM   10  O2  UNL     1       6.875 -11.261 -27.910  1.00  0.00    -0.272 OA
ATOM     11  H3  UNL     1       6.512 -12.213 -24.825  1.00  0.00     0.163 HD
BRANCH   9  12
HETATM   12  C6  UNL     1       8.654 -11.648 -26.376  1.00  0.00     0.224 C 
BRANCH  12  13
HETATM   13  N2  UNL     1       9.503 -11.061 -27.410  1.00  0.00    -0.361 N 
ATOM     14  H2  UNL     1       9.294 -11.241 -28.392  1.00  0.00     0.162 HD
BRANCH  13  15
HETATM   15  C5  UNL     1      10.598 -10.258 -27.075  1.00  0.00     0.151 C 
BRANCH  15  16
HETATM   16  C4  UNL     1      10.606  -8.850 -26.693  1.00  0.00     0.139 C 
BRANCH  16  17
HETATM   17  N1  UNL     1       9.805  -8.336 -25.685  1.00  0.00    -0.392 N 
ATOM     18  H1  UNL     1       9.902  -8.697 -24.736  1.00  0.00     0.159 HD
BRANCH  17  19
HETATM   19  C2  UNL     1       8.866  -7.333 -25.946  1.00  0.00     0.072 C 
HETATM   20  C1  UNL     1       9.344  -6.146 -26.686  1.00  0.00     0.031 C 
HETATM   21  C3  UNL     1       7.619  -7.906 -26.652  1.00  0.00     0.031 C 
ENDBRANCH  17  19
ENDBRANCH  16  17
ENDBRANCH  15  16
BRANCH  15  22
HETATM   22  O1  UNL     1      11.792 -10.802 -27.085  1.00  0.00    -0.345 OA
ATOM     23  H1  UNL     1      11.816 -11.650 -27.511  1.00  0.00     0.219 HD
ENDBRANCH  15  22
ENDBRANCH  13  15
ENDBRANCH  12  13
ENDBRANCH   9  12
ENDBRANCH   6   8
ENDBRANCH   3   6
ENDBRANCH   1   2
BRANCH   1  24
HETATM   24  C12 UNL     1       2.893 -14.580 -22.919  1.00  0.00     0.043 C 
BRANCH  24  25
HETATM   25  C13 UNL     1       1.573 -15.280 -23.164  1.00  0.00     0.102 C 
BRANCH  25  26
HETATM   26  C14 UNL     1       1.332 -16.275 -22.095  1.00  0.00     0.231 C 
HETATM   27  N5  UNL     1       0.033 -16.891 -22.049  1.00  0.00    -0.062 NA
HETATM   28  O4  UNL     1       2.224 -16.555 -21.280  1.00  0.00    -0.277 OA
ENDBRANCH  25  26
ENDBRANCH  24  25
ENDBRANCH   1  24
BRANCH   1  29
HETATM   29  C15 UNL     1       4.842 -15.925 -23.396  1.00  0.00     0.240 C 
HETATM   30  O5  UNL     1       5.587 -16.595 -24.160  1.00  0.00    -0.271 OA
HETATM   31  N6  UNL     1       4.961 -16.126 -21.999  1.00  0.00    -0.353 N 
ATOM     32  H6  UNL     1       4.367 -15.595 -21.363  1.00  0.00     0.163 HD
BRANCH  31  33
HETATM   33  C16 UNL     1       5.906 -17.069 -21.463  1.00  0.00     0.103 C 
HETATM   34  C17 UNL     1       5.487 -17.483 -20.075  1.00  0.00     0.034 C 
BRANCH  33  35
HETATM   35  C18 UNL     1       7.347 -16.803 -21.629  1.00  0.00     0.106 C 
BRANCH  35  36
HETATM   36  N7  UNL     1       8.099 -15.737 -21.441  1.00  0.00    -0.388 N 
ATOM     37  H7  UNL     1       9.045 -16.017 -21.182  1.00  0.00     0.159 HD
BRANCH  36  38
HETATM   38  C19 UNL     1       8.006 -14.343 -21.487  1.00  0.00    -0.006 C 
BRANCH  38  39
HETATM   39  C20 UNL     1       7.879 -13.720 -20.164  1.00  0.00     0.023 C 
HETATM   40  C21 UNL     1       9.036 -13.954 -19.179  1.00  0.00     0.016 C 
HETATM   41  C22 UNL     1       6.561 -14.002 -19.448  1.00  0.00     0.016 C 
ENDBRANCH  38  39
BRANCH  38  42
HETATM   42  C23 UNL     1       8.898 -13.735 -22.530  1.00  0.00    -0.013 C 
HETATM   43  C24 UNL     1       9.017 -12.284 -22.689  1.00  0.00     0.021 C 
HETATM   44  C25 UNL     1       8.369 -14.234 -23.909  1.00  0.00     0.021 C 
HETATM   45  C26 UNL     1      10.313 -14.290 -22.484  1.00  0.00     0.021 C 
ENDBRANCH  38  42
ENDBRANCH  36  38
ENDBRANCH  35  36
BRANCH  35  46
HETATM   46  C27 UNL     1       8.000 -18.009 -20.863  1.00  0.00     0.002 C 
HETATM   47  C28 UNL     1       9.078 -17.617 -19.935  1.00  0.00     0.011 C 
HETATM   48  C29 UNL     1       8.543 -19.009 -21.897  1.00  0.00     0.011 C 
ENDBRANCH  35  46
ENDBRANCH  33  35
ENDBRANCH  31  33
ENDBRANCH   1  29
TORSDOF 21
ENDMDL
MODEL 5
REMARK VINA RESULT: -8.394698368      2.436      7.322
REMARK  21 active torsions:
REMARK  status: ('A' for Active; 'I' for Inactive)
REMARK    1  A    between atoms: C2_2  and  N1_4 
REMARK    2  A    between atoms: N1_4  and  C4_6 
REMARK    3  A    between atoms: C4_6  and  C5_7 
REMARK    4  A    between atoms: C5_7  and  O1_8 
REMARK    5  A    between atoms: C5_7  and  N2_10 
REMARK    6  A    between atoms: N2_10  and  C6_12 
REMARK    7  A    between atoms: C6_12  and  C7_13 
REMARK       I    between atoms: C7_13  and  N3_15 
REMARK    8  A    between atoms: N3_15  and  C8_17 
REMARK    9  A    between atoms: C8_17  and  C10_19 
REMARK       I    between atoms: C10_19  and  N4_21 
REMARK   10  A    between atoms: N4_21  and  C11_23 
REMARK   11  A    between atoms: C11_23  and  C12_24 
REMARK   12  A    between atoms: C11_23  and  C15_29 
REMARK   13  A    between atoms: C12_24  and  C13_25 
REMARK   14  A    between atoms: C13_25  and  C14_26 
REMARK       I    between atoms: C15_29  and  N6_31 
REMARK   15  A    between atoms: N6_31  and  C16_33 
REMARK   16  A    between atoms: C16_33  and  C18_35 
REMARK   17  A    between atoms: C18_35  and  N7_36 
REMARK   18  A    between atoms: C18_35  and  C27_46 
REMARK   19  A    between atoms: N7_36  and  C19_38 
REMARK   20  A    between atoms: C19_38  and  C20_39 
REMARK   21  A    between atoms: C19_38  and  C23_42 
ROOT
HETATM    1  C11 UNL     1       3.880 -14.692 -23.011  1.00  0.00     0.177 C 
ENDROOT
BRANCH   1   2
HETATM    2  N4  UNL     1       4.501 -14.884 -21.737  1.00  0.00    -0.346 N 
HETATM    3  C10 UNL     1       4.928 -13.826 -20.864  1.00  0.00     0.240 C 
HETATM    4  O3  UNL     1       4.766 -12.622 -21.179  1.00  0.00    -0.271 OA
ATOM      5  H4  UNL     1       4.652 -15.843 -21.426  1.00  0.00     0.163 HD
BRANCH   3   6
HETATM    6  C8  UNL     1       5.568 -14.135 -19.569  1.00  0.00     0.172 C 
HETATM    7  C9  UNL     1       4.645 -15.125 -18.853  1.00  0.00     0.042 C 
BRANCH   6   8
HETATM    8  N3  UNL     1       6.836 -14.809 -19.726  1.00  0.00    -0.347 N 
HETATM    9  C7  UNL     1       8.033 -14.029 -19.772  1.00  0.00     0.236 C 
HETATM   10  O2  UNL     1       7.962 -12.766 -19.678  1.00  0.00    -0.272 OA
ATOM     11  H3  UNL     1       6.877 -15.825 -19.802  1.00  0.00     0.163 HD
BRANCH   9  12
HETATM   12  C6  UNL     1       9.331 -14.698 -19.924  1.00  0.00     0.224 C 
BRANCH  12  13
HETATM   13  N2  UNL     1       9.253 -15.843 -20.829  1.00  0.00    -0.361 N 
ATOM     14  H2  UNL     1       9.058 -16.769 -20.450  1.00  0.00     0.162 HD
BRANCH  13  15
HETATM   15  C5  UNL     1       9.443 -15.690 -22.206  1.00  0.00     0.151 C 
BRANCH  15  16
HETATM   16  C4  UNL     1       8.903 -16.502 -23.292  1.00  0.00     0.139 C 
BRANCH  16  17
HETATM   17  N1  UNL     1       7.558 -16.815 -23.403  1.00  0.00    -0.392 N 
ATOM     18  H1  UNL     1       6.927 -16.158 -23.861  1.00  0.00     0.159 HD
BRANCH  17  19
HETATM   19  C2  UNL     1       7.050 -18.017 -22.897  1.00  0.00     0.072 C 
HETATM   20  C1  UNL     1       8.029 -19.087 -22.607  1.00  0.00     0.031 C 
HETATM   21  C3  UNL     1       6.176 -17.773 -21.649  1.00  0.00     0.031 C 
ENDBRANCH  17  19
ENDBRANCH  16  17
ENDBRANCH  15  16
BRANCH  15  22
HETATM   22  O1  UNL     1      10.190 -14.694 -22.622  1.00  0.00    -0.345 OA
ATOM     23  H1  UNL     1      10.967 -14.977 -23.089  1.00  0.00     0.219 HD
ENDBRANCH  15  22
ENDBRANCH  13  15
ENDBRANCH  12  13
ENDBRANCH   9  12
ENDBRANCH   6   8
ENDBRANCH   3   6
ENDBRANCH   1   2
BRANCH   1  24
HETATM   24  C12 UNL     1       3.084 -15.944 -23.433  1.00  0.00     0.043 C 
BRANCH  24  25
HETATM   25  C13 UNL     1       1.669 -15.545 -23.792  1.00  0.00     0.102 C 
BRANCH  25  26
HETATM   26  C14 UNL     1       0.839 -15.498 -22.567  1.00  0.00     0.231 C 
HETATM   27  N5  UNL     1       0.542 -16.750 -21.925  1.00  0.00    -0.062 NA
HETATM   28  O4  UNL     1       0.426 -14.415 -22.126  1.00  0.00    -0.277 OA
ENDBRANCH  25  26
ENDBRANCH  24  25
ENDBRANCH   1  24
BRANCH   1  29
HETATM   29  C15 UNL     1       4.865 -14.447 -24.085  1.00  0.00     0.240 C 
HETATM   30  O5  UNL     1       5.164 -15.413 -24.835  1.00  0.00    -0.271 OA
HETATM   31  N6  UNL     1       5.489 -13.197 -24.320  1.00  0.00    -0.353 N 
ATOM     32  H6  UNL     1       5.262 -12.402 -23.724  1.00  0.00     0.163 HD
BRANCH  31  33
HETATM   33  C16 UNL     1       6.440 -13.032 -25.388  1.00  0.00     0.103 C 
HETATM   34  C17 UNL     1       7.840 -13.232 -24.865  1.00  0.00     0.034 C 
BRANCH  33  35
HETATM   35  C18 UNL     1       6.274 -11.901 -26.319  1.00  0.00     0.106 C 
BRANCH  35  36
HETATM   36  N7  UNL     1       5.226 -11.224 -26.744  1.00  0.00    -0.388 N 
ATOM     37  H7  UNL     1       4.914 -10.572 -26.024  1.00  0.00     0.159 HD
BRANCH  36  38
HETATM   38  C19 UNL     1       4.409 -11.119 -27.872  1.00  0.00    -0.006 C 
BRANCH  38  39
HETATM   39  C20 UNL     1       3.507 -12.263 -28.052  1.00  0.00     0.023 C 
HETATM   40  C21 UNL     1       2.866 -12.841 -26.780  1.00  0.00     0.016 C 
HETATM   41  C22 UNL     1       4.087 -13.411 -28.873  1.00  0.00     0.016 C 
ENDBRANCH  38  39
BRANCH  38  42
HETATM   42  C23 UNL     1       3.915  -9.720 -28.105  1.00  0.00    -0.013 C 
HETATM   43  C24 UNL     1       2.729  -9.449 -28.920  1.00  0.00     0.021 C 
HETATM   44  C25 UNL     1       5.066  -8.961 -28.832  1.00  0.00     0.021 C 
HETATM   45  C26 UNL     1       3.751  -8.936 -26.812  1.00  0.00     0.021 C 
ENDBRANCH  38  42
ENDBRANCH  36  38
ENDBRANCH  35  36
BRANCH  35  46
HETATM   46  C27 UNL     1       7.344 -10.877 -25.795  1.00  0.00     0.002 C 
HETATM   47  C28 UNL     1       6.788  -9.814 -24.937  1.00  0.00     0.011 C 
HETATM   48  C29 UNL     1       8.054 -10.249 -27.007  1.00  0.00     0.011 C 
ENDBRANCH  35  46
ENDBRANCH  33  35
ENDBRANCH  31  33
ENDBRANCH   1  29
TORSDOF 21
ENDMDL
