MODEL 1
REMARK VINA RESULT: -9.317510660      0.000      0.000
REMARK  18 active torsions:
REMARK  status: ('A' for Active; 'I' for Inactive)
REMARK    1  A    between atoms: C1_2  and  C2_4 
REMARK    2  A    between atoms: C2_4  and  C3_5 
REMARK    3  A    between atoms: C3_5  and  C4_6 
REMARK    4  A    between atoms: C3_5  and  N6_19 
REMARK    5  A    between atoms: C4_6  and  N2_7 
REMARK    6  A    between atoms: C4_6  and  C5_11 
REMARK    7  A    between atoms: C5_11  and  C6_12 
REMARK    8  A    between atoms: C6_12  and  C7_13 
REMARK    9  A    between atoms: C7_13  and  N3_14 
REMARK   10  A    between atoms: C12_23  and  C13_24 
REMARK       I    between atoms: C13_24  and  N7_26 
REMARK   11  A    between atoms: N7_26  and  C14_28 
REMARK   12  A    between atoms: C14_28  and  C15_29 
REMARK   13  A    between atoms: C14_28  and  C24_42 
REMARK   14  A    between atoms: C15_29  and  C16_30 
REMARK   15  A    between atoms: C16_30  and  C17_31 
REMARK       I    between atoms: N8_32  and  C18_34 
REMARK       I    between atoms: C18_34  and  N9_36 
REMARK   16  A    between atoms: C24_42  and  C25_43 
REMARK   17  A    between atoms: C25_43  and  C26_44 
REMARK   18  A    between atoms: C26_44  and  N10_45 
ROOT
HETATM    1  C13 UNL     1       7.373 -14.337 -20.291  1.00  0.00     0.240 C 
HETATM    2  O2  UNL     1       7.964 -13.876 -19.250  1.00  0.00    -0.271 OA
HETATM    3  N7  UNL     1       8.122 -15.211 -21.100  1.00  0.00    -0.355 N 
ATOM      4  H7  UNL     1       7.683 -15.606 -21.933  1.00  0.00     0.162 HD
ENDROOT
BRANCH   1   5
HETATM    5  C12 UNL     1       5.976 -13.894 -20.509  1.00  0.00     0.176 C 
HETATM    6  N6  UNL     1       5.357 -14.476 -21.585  1.00  0.00    -0.373 N 
HETATM    7  C9  UNL     1       4.698 -15.679 -21.273  1.00  0.00     0.059 C 
HETATM    8  C10 UNL     1       4.763 -15.873 -19.776  1.00  0.00     0.047 C 
HETATM    9  C11 UNL     1       5.226 -14.514 -19.291  1.00  0.00     0.040 C 
BRANCH   6  10
HETATM   10  C3  UNL     1       4.787 -13.702 -22.670  1.00  0.00     0.123 C 
BRANCH  10  11
HETATM   11  C2  UNL     1       3.465 -13.101 -22.392  1.00  0.00     0.126 C 
BRANCH  11  12
HETATM   12  C1  UNL     1       3.420 -11.709 -21.914  1.00  0.00     0.233 C 
HETATM   13  N1  UNL     1       3.234 -11.467 -20.535  1.00  0.00    -0.062 NA
HETATM   14  O1  UNL     1       3.538 -10.721 -22.667  1.00  0.00    -0.277 OA
ENDBRANCH  11  12
ENDBRANCH  10  11
BRANCH  10  15
HETATM   15  C4  UNL     1       4.849 -14.578 -23.846  1.00  0.00     0.206 C 
BRANCH  15  16
HETATM   16  N2  UNL     1       6.304 -14.725 -24.167  1.00  0.00    -0.073 N 
ATOM     17  H23 UNL     1       6.483 -15.262 -25.016  1.00  0.00     0.274 HD
ATOM     18  H22 UNL     1       6.744 -13.858 -24.476  1.00  0.00     0.274 HD
ATOM     19  H21 UNL     1       6.734 -15.125 -23.333  1.00  0.00     0.274 HD
ENDBRANCH  15  16
BRANCH  15  20
HETATM   20  C5  UNL     1       4.084 -14.482 -25.065  1.00  0.00     0.036 C 
BRANCH  20  21
HETATM   21  C6  UNL     1       3.043 -15.494 -25.331  1.00  0.00     0.022 C 
BRANCH  21  22
HETATM   22  C7  UNL     1       1.689 -15.079 -24.721  1.00  0.00     0.122 C 
BRANCH  22  23
HETATM   23  N3  UNL     1       1.228 -16.060 -23.784  1.00  0.00    -0.367 N 
HETATM   24  C8  UNL     1       0.492 -15.752 -22.784  1.00  0.00     0.196 C 
HETATM   25  N4  UNL     1       0.081 -16.789 -21.902  1.00  0.00    -0.067 NA
HETATM   26  N5  UNL     1       0.060 -14.425 -22.511  1.00  0.00    -0.067 NA
ATOM     27  H3  UNL     1       1.496 -17.035 -23.919  1.00  0.00     0.161 HD
ENDBRANCH  22  23
ENDBRANCH  21  22
ENDBRANCH  20  21
ENDBRANCH  15  20
ENDBRANCH  10  15
ENDBRANCH   6  10
ENDBRANCH   1   5
BRANCH   3  28
HETATM   28  C14 UNL     1       9.502 -15.573 -20.795  1.00  0.00     0.084 C 
BRANCH  28  29
HETATM   29  C15 UNL     1      10.377 -15.434 -21.992  1.00  0.00     0.030 C 
BRANCH  29  30
HETATM   30  C16 UNL     1      10.327 -14.137 -22.711  1.00  0.00     0.046 C 
BRANCH  30  31
HETATM   31  C17 UNL     1      10.084 -14.154 -24.144  1.00  0.00     0.065 C 
HETATM   32  N8  UNL     1       9.424 -13.340 -24.850  1.00  0.00    -0.323 N 
HETATM   33  C18 UNL     1       8.730 -12.188 -24.499  1.00  0.00     0.322 C 
ATOM     34  H8  UNL     1       9.395 -13.566 -25.844  1.00  0.00     0.169 HD
HETATM   35  O3  UNL     1       8.843 -11.707 -23.345  1.00  0.00    -0.247 OA
HETATM   36  N9  UNL     1       7.872 -11.508 -25.409  1.00  0.00    -0.334 N 
HETATM   37  C19 UNL     1       7.172 -10.320 -24.978  1.00  0.00     0.127 C 
HETATM   38  C23 UNL     1       7.661 -11.953 -26.770  1.00  0.00     0.127 C 
HETATM   39  C20 UNL     1       7.252  -9.189 -25.961  1.00  0.00     0.020 C 
HETATM   40  C21 UNL     1       7.115  -9.632 -27.381  1.00  0.00     0.003 C 
HETATM   41  C22 UNL     1       6.608 -11.051 -27.383  1.00  0.00     0.020 C 
ENDBRANCH  30  31
ENDBRANCH  29  30
ENDBRANCH  28  29
BRANCH  28  42
HETATM   42  C24 UNL     1       9.557 -16.849 -20.048  1.00  0.00     0.027 C 
BRANCH  42  43
HETATM   43  C25 UNL     1       8.297 -17.672 -20.093  1.00  0.00     0.022 C 
BRANCH  43  44
HETATM   44  C26 UNL     1       8.335 -18.595 -21.303  1.00  0.00     0.122 C 
BRANCH  44  45
HETATM   45  N10 UNL     1       7.062 -18.520 -21.981  1.00  0.00    -0.367 N 
HETATM   46  C27 UNL     1       7.007 -17.934 -23.140  1.00  0.00     0.196 C 
HETATM   47  N11 UNL     1       8.161 -17.392 -23.707  1.00  0.00    -0.067 NA
HETATM   48  N12 UNL     1       5.755 -17.834 -23.840  1.00  0.00    -0.067 NA
ATOM     49  H10 UNL     1       6.224 -18.919 -21.559  1.00  0.00     0.161 HD
ENDBRANCH  44  45
ENDBRANCH  43  44
ENDBRANCH  42  43
ENDBRANCH  28  42
ENDBRANCH   3  28
TORSDOF 18
ENDMDL
MODEL 2
REMARK VINA RESULT: -8.902718036      1.677      2.501
REMARK  18 active torsions:
REMARK  status: ('A' for Active; 'I' for Inactive)
REMARK    1  A    between atoms: C1_2  and  C2_4 
REMARK    2  A    between atoms: C2_4  and  C3_5 
REMARK    3  A    between atoms: C3_5  and  C4_6 
REMARK    4  A    between atoms: C3_5  and  N6_19 
REMARK    5  A    between atoms: C4_6  and  N2_7 
REMARK    6  A    between atoms: C4_6  and  C5_11 
REMARK    7  A    between atoms: C5_11  and  C6_12 
REMARK    8  A    between atoms: C6_12  and  C7_13 
REMARK    9  A    between atoms: C7_13  and  N3_14 
REMARK   10  A    between atoms: C12_23  and  C13_24 
REMARK       I    between atoms: C13_24  and  N7_26 
REMARK   11  A    between atoms: N7_26  and  C14_28 
REMARK   12  A    between atoms: C14_28  and  C15_29 
REMARK   13  A    between atoms: C14_28  and  C24_42 
REMARK   14  A    between atoms: C15_29  and  C16_30 
REMARK   15  A    between atoms: C16_30  and  C17_31 
REMARK       I    between atoms: N8_32  and  C18_34 
REMARK       I    between atoms: C18_34  and  N9_36 
REMARK   16  A    between atoms: C24_42  and  C25_43 
REMARK   17  A    between atoms: C25_43  and  C26_44 
REMARK   18  A    between atoms: C26_44  and  N10_45 
ROOT
HETATM    1  C13 UNL     1       7.428 -14.368 -20.269  1.00  0.00     0.240 C 
HETATM    2  O2  UNL     1       8.030 -13.895 -19.238  1.00  0.00    -0.271 OA
HETATM    3  N7  UNL     1       8.164 -15.258 -21.071  1.00  0.00    -0.355 N 
ATOM      4  H7  UNL     1       7.716 -15.662 -21.894  1.00  0.00     0.162 HD
ENDROOT
BRANCH   1   5
HETATM    5  C12 UNL     1       6.032 -13.916 -20.481  1.00  0.00     0.176 C 
HETATM    6  N6  UNL     1       5.386 -14.541 -21.517  1.00  0.00    -0.373 N 
HETATM    7  C9  UNL     1       4.719 -15.720 -21.135  1.00  0.00     0.059 C 
HETATM    8  C10 UNL     1       4.810 -15.843 -19.631  1.00  0.00     0.047 C 
HETATM    9  C11 UNL     1       5.299 -14.468 -19.221  1.00  0.00     0.040 C 
BRANCH   6  10
HETATM   10  C3  UNL     1       4.804 -13.813 -22.627  1.00  0.00     0.123 C 
BRANCH  10  11
HETATM   11  C2  UNL     1       3.461 -13.247 -22.378  1.00  0.00     0.126 C 
BRANCH  11  12
HETATM   12  C1  UNL     1       3.370 -11.852 -21.912  1.00  0.00     0.233 C 
HETATM   13  N1  UNL     1       3.206 -11.604 -20.531  1.00  0.00    -0.062 NA
HETATM   14  O1  UNL     1       3.429 -10.868 -22.677  1.00  0.00    -0.277 OA
ENDBRANCH  11  12
ENDBRANCH  10  11
BRANCH  10  15
HETATM   15  C4  UNL     1       4.906 -14.715 -23.779  1.00  0.00     0.206 C 
BRANCH  15  16
HETATM   16  N2  UNL     1       6.353 -14.716 -24.168  1.00  0.00    -0.073 N 
ATOM     17  H23 UNL     1       6.565 -14.101 -24.954  1.00  0.00     0.274 HD
ATOM     18  H22 UNL     1       6.959 -14.259 -23.487  1.00  0.00     0.274 HD
ATOM     19  H21 UNL     1       6.594 -15.693 -24.338  1.00  0.00     0.274 HD
ENDBRANCH  15  16
BRANCH  15  20
HETATM   20  C5  UNL     1       4.080 -14.743 -24.961  1.00  0.00     0.036 C 
BRANCH  20  21
HETATM   21  C6  UNL     1       4.337 -13.757 -26.029  1.00  0.00     0.022 C 
BRANCH  21  22
HETATM   22  C7  UNL     1       3.020 -13.254 -26.656  1.00  0.00     0.122 C 
BRANCH  22  23
HETATM   23  N3  UNL     1       3.159 -11.906 -27.122  1.00  0.00    -0.367 N 
HETATM   24  C8  UNL     1       3.208 -11.619 -28.369  1.00  0.00     0.196 C 
HETATM   25  N4  UNL     1       3.348 -10.255 -28.743  1.00  0.00    -0.067 NA
HETATM   26  N5  UNL     1       3.125 -12.596 -29.399  1.00  0.00    -0.067 NA
ATOM     27  H3  UNL     1       3.220 -11.151 -26.439  1.00  0.00     0.161 HD
ENDBRANCH  22  23
ENDBRANCH  21  22
ENDBRANCH  20  21
ENDBRANCH  15  20
ENDBRANCH  10  15
ENDBRANCH   6  10
ENDBRANCH   1   5
BRANCH   3  28
HETATM   28  C14 UNL     1       9.543 -15.626 -20.772  1.00  0.00     0.084 C 
BRANCH  28  29
HETATM   29  C15 UNL     1      10.420 -15.463 -21.964  1.00  0.00     0.030 C 
BRANCH  29  30
HETATM   30  C16 UNL     1      10.353 -14.161 -22.672  1.00  0.00     0.046 C 
BRANCH  30  31
HETATM   31  C17 UNL     1      10.098 -14.166 -24.103  1.00  0.00     0.065 C 
HETATM   32  N8  UNL     1       9.451 -13.334 -24.800  1.00  0.00    -0.323 N 
HETATM   33  C18 UNL     1       8.788 -12.167 -24.439  1.00  0.00     0.322 C 
ATOM     34  H8  UNL     1       9.409 -13.556 -25.795  1.00  0.00     0.169 HD
HETATM   35  O3  UNL     1       8.923 -11.693 -23.285  1.00  0.00    -0.247 OA
HETATM   36  N9  UNL     1       7.939 -11.464 -25.340  1.00  0.00    -0.334 N 
HETATM   37  C19 UNL     1       7.272 -10.261 -24.899  1.00  0.00     0.127 C 
HETATM   38  C23 UNL     1       7.706 -11.899 -26.700  1.00  0.00     0.127 C 
HETATM   39  C20 UNL     1       7.371  -9.128 -25.879  1.00  0.00     0.020 C 
HETATM   40  C21 UNL     1       7.212  -9.563 -27.299  1.00  0.00     0.003 C 
HETATM   41  C22 UNL     1       6.670 -10.970 -27.302  1.00  0.00     0.020 C 
ENDBRANCH  30  31
ENDBRANCH  29  30
ENDBRANCH  28  29
BRANCH  28  42
HETATM   42  C24 UNL     1       9.598 -16.916 -20.050  1.00  0.00     0.027 C 
BRANCH  42  43
HETATM   43  C25 UNL     1       8.331 -17.729 -20.095  1.00  0.00     0.022 C 
BRANCH  43  44
HETATM   44  C26 UNL     1       8.365 -18.658 -21.302  1.00  0.00     0.122 C 
BRANCH  44  45
HETATM   45  N10 UNL     1       7.091 -18.581 -21.978  1.00  0.00    -0.367 N 
HETATM   46  C27 UNL     1       7.028 -17.967 -23.122  1.00  0.00     0.196 C 
HETATM   47  N11 UNL     1       8.176 -17.395 -23.673  1.00  0.00    -0.067 NA
HETATM   48  N12 UNL     1       5.776 -17.864 -23.819  1.00  0.00    -0.067 NA
ATOM     49  H10 UNL     1       6.258 -19.001 -21.567  1.00  0.00     0.161 HD
ENDBRANCH  44  45
ENDBRANCH  43  44
ENDBRANCH  42  43
ENDBRANCH  28  42
ENDBRANCH   3  28
TORSDOF 18
ENDMDL
MODEL 3
REMARK VINA RESULT: -8.890200554      2.268      3.687
REMARK  18 active torsions:
REMARK  status: ('A' for Active; 'I' for Inactive)
REMARK    1  A    between atoms: C1_2  and  C2_4 
REMARK    2  A    between atoms: C2_4  and  C3_5 
REMARK    3  A    between atoms: C3_5  and  C4_6 
REMARK    4  A    between atoms: C3_5  and  N6_19 
REMARK    5  A    between atoms: C4_6  and  N2_7 
REMARK    6  A    between atoms: C4_6  and  C5_11 
REMARK    7  A    between atoms: C5_11  and  C6_12 
REMARK    8  A    between atoms: C6_12  and  C7_13 
REMARK    9  A    between atoms: C7_13  and  N3_14 
REMARK   10  A    between atoms: C12_23  and  C13_24 
REMARK       I    between atoms: C13_24  and  N7_26 
REMARK   11  A    between atoms: N7_26  and  C14_28 
REMARK   12  A    between atoms: C14_28  and  C15_29 
REMARK   13  A    between atoms: C14_28  and  C24_42 
REMARK   14  A    between atoms: C15_29  and  C16_30 
REMARK   15  A    between atoms: C16_30  and  C17_31 
REMARK       I    between atoms: N8_32  and  C18_34 
REMARK       I    between atoms: C18_34  and  N9_36 
REMARK   16  A    between atoms: C24_42  and  C25_43 
REMARK   17  A    between atoms: C25_43  and  C26_44 
REMARK   18  A    between atoms: C26_44  and  N10_45 
ROOT
HETATM    1  C13 UNL     1       6.741 -13.947 -20.641  1.00  0.00     0.240 C 
HETATM    2  O2  UNL     1       7.253 -13.301 -19.657  1.00  0.00    -0.271 OA
HETATM    3  N7  UNL     1       7.587 -14.194 -21.736  1.00  0.00    -0.355 N 
ATOM      4  H7  UNL     1       7.219 -14.714 -22.533  1.00  0.00     0.162 HD
ENDROOT
BRANCH   1   5
HETATM    5  C12 UNL     1       5.322 -14.352 -20.496  1.00  0.00     0.176 C 
HETATM    6  N6  UNL     1       4.840 -15.107 -21.535  1.00  0.00    -0.373 N 
HETATM    7  C9  UNL     1       5.029 -16.491 -21.361  1.00  0.00     0.059 C 
HETATM    8  C10 UNL     1       5.589 -16.715 -19.975  1.00  0.00     0.047 C 
HETATM    9  C11 UNL     1       5.376 -15.368 -19.315  1.00  0.00     0.040 C 
BRANCH   6  10
HETATM   10  C3  UNL     1       3.679 -14.717 -22.310  1.00  0.00     0.123 C 
BRANCH  10  11
HETATM   11  C2  UNL     1       2.748 -15.814 -22.651  1.00  0.00     0.126 C 
BRANCH  11  12
HETATM   12  C1  UNL     1       1.332 -15.667 -22.273  1.00  0.00     0.233 C 
HETATM   13  N1  UNL     1       0.600 -16.818 -21.909  1.00  0.00    -0.062 NA
HETATM   14  O1  UNL     1       0.736 -14.570 -22.259  1.00  0.00    -0.277 OA
ENDBRANCH  11  12
ENDBRANCH  10  11
BRANCH  10  15
HETATM   15  C4  UNL     1       4.209 -13.961 -23.449  1.00  0.00     0.206 C 
BRANCH  15  16
HETATM   16  N2  UNL     1       3.232 -12.852 -23.692  1.00  0.00    -0.073 N 
ATOM     17  H23 UNL     1       2.316 -13.014 -23.271  1.00  0.00     0.274 HD
ATOM     18  H22 UNL     1       3.450 -11.996 -23.182  1.00  0.00     0.274 HD
ATOM     19  H21 UNL     1       3.199 -12.727 -24.704  1.00  0.00     0.274 HD
ENDBRANCH  15  16
BRANCH  15  20
HETATM   20  C5  UNL     1       4.691 -14.474 -24.709  1.00  0.00     0.036 C 
BRANCH  20  21
HETATM   21  C6  UNL     1       6.047 -14.099 -25.155  1.00  0.00     0.022 C 
BRANCH  21  22
HETATM   22  C7  UNL     1       6.060 -13.716 -26.649  1.00  0.00     0.122 C 
BRANCH  22  23
HETATM   23  N3  UNL     1       4.739 -13.407 -27.109  1.00  0.00    -0.367 N 
HETATM   24  C8  UNL     1       4.522 -12.901 -28.264  1.00  0.00     0.196 C 
HETATM   25  N4  UNL     1       3.179 -12.624 -28.639  1.00  0.00    -0.067 NA
HETATM   26  N5  UNL     1       5.556 -12.605 -29.194  1.00  0.00    -0.067 NA
ATOM     27  H3  UNL     1       3.946 -13.597 -26.496  1.00  0.00     0.161 HD
ENDBRANCH  22  23
ENDBRANCH  21  22
ENDBRANCH  20  21
ENDBRANCH  15  20
ENDBRANCH  10  15
ENDBRANCH   6  10
ENDBRANCH   1   5
BRANCH   3  28
HETATM   28  C14 UNL     1       8.972 -13.737 -21.776  1.00  0.00     0.084 C 
BRANCH  28  29
HETATM   29  C15 UNL     1       9.260 -12.987 -23.030  1.00  0.00     0.030 C 
BRANCH  29  30
HETATM   30  C16 UNL     1       8.394 -11.820 -23.326  1.00  0.00     0.046 C 
BRANCH  30  31
HETATM   31  C17 UNL     1       8.636 -11.075 -24.551  1.00  0.00     0.065 C 
HETATM   32  N8  UNL     1       7.804 -10.519 -25.323  1.00  0.00    -0.323 N 
HETATM   33  C18 UNL     1       6.419 -10.436 -25.258  1.00  0.00     0.322 C 
ATOM     34  H8  UNL     1       8.220 -10.053 -26.129  1.00  0.00     0.169 HD
HETATM   35  O3  UNL     1       5.810 -10.807 -24.225  1.00  0.00    -0.247 OA
HETATM   36  N9  UNL     1       5.634  -9.936 -26.336  1.00  0.00    -0.334 N 
HETATM   37  C19 UNL     1       4.196  -9.884 -26.206  1.00  0.00     0.127 C 
HETATM   38  C23 UNL     1       6.213  -9.468 -27.576  1.00  0.00     0.127 C 
HETATM   39  C20 UNL     1       3.603  -8.579 -26.650  1.00  0.00     0.020 C 
HETATM   40  C21 UNL     1       4.237  -8.034 -27.887  1.00  0.00     0.003 C 
HETATM   41  C22 UNL     1       5.068  -9.126 -28.509  1.00  0.00     0.020 C 
ENDBRANCH  30  31
ENDBRANCH  29  30
ENDBRANCH  28  29
BRANCH  28  42
HETATM   42  C24 UNL     1       9.897 -14.829 -21.401  1.00  0.00     0.027 C 
BRANCH  42  43
HETATM   43  C25 UNL     1      10.947 -15.159 -22.429  1.00  0.00     0.022 C 
BRANCH  43  44
HETATM   44  C26 UNL     1      10.427 -16.249 -23.356  1.00  0.00     0.122 C 
BRANCH  44  45
HETATM   45  N10 UNL     1       9.893 -17.324 -22.551  1.00  0.00    -0.367 N 
HETATM   46  C27 UNL     1       8.641 -17.642 -22.687  1.00  0.00     0.196 C 
HETATM   47  N11 UNL     1       7.837 -16.951 -23.595  1.00  0.00    -0.067 NA
HETATM   48  N12 UNL     1       8.074 -18.700 -21.896  1.00  0.00    -0.067 NA
ATOM     49  H10 UNL     1      10.488 -17.822 -21.889  1.00  0.00     0.161 HD
ENDBRANCH  44  45
ENDBRANCH  43  44
ENDBRANCH  42  43
ENDBRANCH  28  42
ENDBRANCH   3  28
TORSDOF 18
ENDMDL
MODEL 4
REMARK VINA RESULT: -8.885573740      2.477      5.855
REMARK  18 active torsions:
REMARK  status: ('A' for Active; 'I' for Inactive)
REMARK    1  A    between atoms: C1_2  and  C2_4 
REMARK    2  A    between atoms: C2_4  and  C3_5 
REMARK    3  A    between atoms: C3_5  and  C4_6 
REMARK    4  A    between atoms: C3_5  and  N6_19 
REMARK    5  A    between atoms: C4_6  and  N2_7 
REMARK    6  A    between atoms: C4_6  and  C5_11 
REMARK    7  A    between atoms: C5_11  and  C6_12 
REMARK    8  A    between atoms: C6_12  and  C7_13 
REMARK    9  A    between atoms: C7_13  and  N3_14 
REMARK   10  A    between atoms: C12_23  and  C13_24 
REMARK       I    between atoms: C13_24  and  N7_26 
REMARK   11  A    between atoms: N7_26  and  C14_28 
REMARK   12  A    between atoms: C14_28  and  C15_29 
REMARK   13  A    between atoms: C14_28  and  C24_42 
REMARK   14  A    between atoms: C15_29  and  C16_30 
REMARK   15  A    between atoms: C16_30  and  C17_31 
REMARK       I    between atoms: N8_32  and  C18_34 
REMARK       I    between atoms: C18_34  and  N9_36 
REMARK   16  A    between atoms: C24_42  and  C25_43 
REMARK   17  A    between atoms: C25_43  and  C26_44 
REMARK   18  A    between atoms: C26_44  and  N10_45 
ROOT
HETATM    1  C13 UNL     1       7.283 -16.818 -23.099  1.00  0.00     0.240 C 
HETATM    2  O2  UNL     1       7.096 -17.914 -23.739  1.00  0.00    -0.271 OA
HETATM    3  N7  UNL     1       6.184 -15.945 -23.016  1.00  0.00    -0.355 N 
ATOM      4  H7  UNL     1       6.291 -15.067 -22.507  1.00  0.00     0.162 HD
ENDROOT
BRANCH   1   5
HETATM    5  C12 UNL     1       8.634 -16.612 -22.525  1.00  0.00     0.176 C 
HETATM    6  N6  UNL     1       8.642 -15.999 -21.298  1.00  0.00    -0.373 N 
HETATM    7  C9  UNL     1       8.557 -16.899 -20.219  1.00  0.00     0.059 C 
HETATM    8  C10 UNL     1       8.634 -18.303 -20.774  1.00  0.00     0.047 C 
HETATM    9  C11 UNL     1       9.093 -18.066 -22.198  1.00  0.00     0.040 C 
BRANCH   6  10
HETATM   10  C3  UNL     1       9.365 -14.769 -21.044  1.00  0.00     0.123 C 
BRANCH  10  11
HETATM   11  C2  UNL     1       8.600 -13.721 -20.334  1.00  0.00     0.126 C 
BRANCH  11  12
HETATM   12  C1  UNL     1       7.129 -13.780 -20.382  1.00  0.00     0.233 C 
HETATM   13  N1  UNL     1       6.430 -14.275 -19.259  1.00  0.00    -0.062 NA
HETATM   14  O1  UNL     1       6.459 -13.416 -21.369  1.00  0.00    -0.277 OA
ENDBRANCH  11  12
ENDBRANCH  10  11
BRANCH  10  15
HETATM   15  C4  UNL     1       9.927 -14.374 -22.339  1.00  0.00     0.206 C 
BRANCH  15  16
HETATM   16  N2  UNL     1      11.409 -14.555 -22.212  1.00  0.00    -0.073 N 
ATOM     17  H23 UNL     1      11.712 -14.797 -21.268  1.00  0.00     0.274 HD
ATOM     18  H22 UNL     1      11.759 -15.395 -22.672  1.00  0.00     0.274 HD
ATOM     19  H21 UNL     1      11.825 -13.693 -22.565  1.00  0.00     0.274 HD
ENDBRANCH  15  16
BRANCH  15  20
HETATM   20  C5  UNL     1       9.642 -13.186 -23.106  1.00  0.00     0.036 C 
BRANCH  20  21
HETATM   21  C6  UNL     1       9.159 -13.334 -24.492  1.00  0.00     0.022 C 
BRANCH  21  22
HETATM   22  C7  UNL     1       7.720 -12.800 -24.645  1.00  0.00     0.122 C 
BRANCH  22  23
HETATM   23  N3  UNL     1       7.561 -12.108 -25.889  1.00  0.00    -0.367 N 
HETATM   24  C8  UNL     1       7.054 -12.672 -26.921  1.00  0.00     0.196 C 
HETATM   25  N4  UNL     1       6.935 -11.911 -28.116  1.00  0.00    -0.067 NA
HETATM   26  N5  UNL     1       6.601 -14.020 -26.931  1.00  0.00    -0.067 NA
ATOM     27  H3  UNL     1       7.860 -11.135 -25.954  1.00  0.00     0.161 HD
ENDBRANCH  22  23
ENDBRANCH  21  22
ENDBRANCH  20  21
ENDBRANCH  15  20
ENDBRANCH  10  15
ENDBRANCH   6  10
ENDBRANCH   1   5
BRANCH   3  28
HETATM   28  C14 UNL     1       4.896 -16.246 -23.631  1.00  0.00     0.084 C 
BRANCH  28  29
HETATM   29  C15 UNL     1       4.531 -15.227 -24.654  1.00  0.00     0.030 C 
BRANCH  29  30
HETATM   30  C16 UNL     1       3.563 -14.182 -24.242  1.00  0.00     0.046 C 
BRANCH  30  31
HETATM   31  C17 UNL     1       4.035 -12.812 -24.129  1.00  0.00     0.065 C 
HETATM   32  N8  UNL     1       4.018 -11.889 -24.993  1.00  0.00    -0.323 N 
HETATM   33  C18 UNL     1       3.553 -11.879 -26.302  1.00  0.00     0.322 C 
ATOM     34  H8  UNL     1       4.412 -11.004 -24.675  1.00  0.00     0.169 HD
HETATM   35  O3  UNL     1       2.885 -12.844 -26.745  1.00  0.00    -0.247 OA
HETATM   36  N9  UNL     1       3.806 -10.796 -27.192  1.00  0.00    -0.334 N 
HETATM   37  C19 UNL     1       3.302 -10.852 -28.544  1.00  0.00     0.127 C 
HETATM   38  C23 UNL     1       4.556  -9.621 -26.804  1.00  0.00     0.127 C 
HETATM   39  C20 UNL     1       2.631  -9.583 -28.985  1.00  0.00     0.020 C 
HETATM   40  C21 UNL     1       3.343  -8.352 -28.530  1.00  0.00     0.003 C 
HETATM   41  C22 UNL     1       4.710  -8.754 -28.038  1.00  0.00     0.020 C 
ENDBRANCH  30  31
ENDBRANCH  29  30
ENDBRANCH  28  29
BRANCH  28  42
HETATM   42  C24 UNL     1       3.886 -16.578 -22.601  1.00  0.00     0.027 C 
BRANCH  42  43
HETATM   43  C25 UNL     1       4.306 -16.301 -21.182  1.00  0.00     0.022 C 
BRANCH  43  44
HETATM   44  C26 UNL     1       3.200 -15.541 -20.462  1.00  0.00     0.122 C 
BRANCH  44  45
HETATM   45  N10 UNL     1       3.621 -14.170 -20.286  1.00  0.00    -0.367 N 
HETATM   46  C27 UNL     1       2.818 -13.218 -20.657  1.00  0.00     0.196 C 
HETATM   47  N11 UNL     1       1.577 -13.527 -21.215  1.00  0.00    -0.067 NA
HETATM   48  N12 UNL     1       3.208 -11.843 -20.504  1.00  0.00    -0.067 NA
ATOM     49  H10 UNL     1       4.531 -13.955 -19.878  1.00  0.00     0.161 HD
ENDBRANCH  44  45
ENDBRANCH  43  44
ENDBRANCH  42  43
ENDBRANCH  28  42
ENDBRANCH   3  28
TORSDOF 18
ENDMDL
MODEL 5
REMARK VINA RESULT: -8.807347094      2.126      5.992
REMARK  18 active torsions:
REMARK  status: ('A' for Active; 'I' for Inactive)
REMARK    1  A    between atoms: C1_2  and  C2_4 
REMARK    2  A    between atoms: C2_4  and  C3_5 
REMARK    3  A    between atoms: C3_5  and  C4_6 
REMARK    4  A    between atoms: C3_5  and  N6_19 
REMARK    5  A    between atoms: C4_6  and  N2_7 
REMARK    6  A    between atoms: C4_6  and  C5_11 
REMARK    7  A    between atoms: C5_11  and  C6_12 
REMARK    8  A    between atoms: C6_12  and  C7_13 
REMARK    9  A    between atoms: C7_13  and  N3_14 
REMARK   10  A    between atoms: C12_23  and  C13_24 
REMARK       I    between atoms: C13_24  and  N7_26 
REMARK   11  A    between atoms: N7_26  and  C14_28 
REMARK   12  A    between atoms: C14_28  and  C15_29 
REMARK   13  A    between atoms: C14_28  and  C24_42 
REMARK   14  A    between atoms: C15_29  and  C16_30 
REMARK   15  A    between atoms: C16_30  and  C17_31 
REMARK       I    between atoms: N8_32  and  C18_34 
REMARK       I    between atoms: C18_34  and  N9_36 
REMARK   16  A    between atoms: C24_42  and  C25_43 
REMARK   17  A    between atoms: C25_43  and  C26_44 
REMARK   18  A    between atoms: C26_44  and  N10_45 
ROOT
HETATM    1  C13 UNL     1       5.772 -14.479 -24.015  1.00  0.00     0.240 C 
HETATM    2  O2  UNL     1       5.580 -15.725 -24.257  1.00  0.00    -0.271 OA
HETATM    3  N7  UNL     1       5.140 -13.569 -24.881  1.00  0.00    -0.355 N 
ATOM      4  H7  UNL     1       5.262 -12.569 -24.715  1.00  0.00     0.162 HD
ENDROOT
BRANCH   1   5
HETATM    5  C12 UNL     1       6.635 -14.158 -22.853  1.00  0.00     0.176 C 
HETATM    6  N6  UNL     1       7.482 -15.170 -22.479  1.00  0.00    -0.373 N 
HETATM    7  C9  UNL     1       8.725 -15.135 -23.137  1.00  0.00     0.059 C 
HETATM    8  C10 UNL     1       8.783 -13.870 -23.962  1.00  0.00     0.047 C 
HETATM    9  C11 UNL     1       7.602 -13.081 -23.432  1.00  0.00     0.040 C 
BRANCH   6  10
HETATM   10  C3  UNL     1       7.486 -15.731 -21.143  1.00  0.00     0.123 C 
BRANCH  10  11
HETATM   11  C2  UNL     1       7.241 -17.187 -21.067  1.00  0.00     0.126 C 
BRANCH  11  12
HETATM   12  C1  UNL     1       8.367 -18.064 -20.703  1.00  0.00     0.233 C 
HETATM   13  N1  UNL     1       8.712 -19.125 -21.569  1.00  0.00    -0.062 NA
HETATM   14  O1  UNL     1       9.039 -17.921 -19.662  1.00  0.00    -0.277 OA
ENDBRANCH  11  12
ENDBRANCH  10  11
BRANCH  10  15
HETATM   15  C4  UNL     1       6.565 -14.894 -20.367  1.00  0.00     0.206 C 
BRANCH  15  16
HETATM   16  N2  UNL     1       7.428 -14.073 -19.458  1.00  0.00    -0.073 N 
ATOM     17  H23 UNL     1       7.915 -14.623 -18.750  1.00  0.00     0.274 HD
ATOM     18  H22 UNL     1       8.260 -13.697 -19.914  1.00  0.00     0.274 HD
ATOM     19  H21 UNL     1       6.817 -13.356 -19.068  1.00  0.00     0.274 HD
ENDBRANCH  15  16
BRANCH  15  20
HETATM   20  C5  UNL     1       5.368 -15.299 -19.672  1.00  0.00     0.036 C 
BRANCH  20  21
HETATM   21  C6  UNL     1       4.457 -14.257 -19.160  1.00  0.00     0.022 C 
BRANCH  21  22
HETATM   22  C7  UNL     1       3.154 -14.197 -19.983  1.00  0.00     0.122 C 
BRANCH  22  23
HETATM   23  N3  UNL     1       3.389 -13.615 -21.271  1.00  0.00    -0.367 N 
HETATM   24  C8  UNL     1       3.400 -12.348 -21.453  1.00  0.00     0.196 C 
HETATM   25  N4  UNL     1       3.640 -11.856 -22.765  1.00  0.00    -0.067 NA
HETATM   26  N5  UNL     1       3.189 -11.407 -20.408  1.00  0.00    -0.067 NA
ATOM     27  H3  UNL     1       3.553 -14.230 -22.068  1.00  0.00     0.161 HD
ENDBRANCH  22  23
ENDBRANCH  21  22
ENDBRANCH  20  21
ENDBRANCH  15  20
ENDBRANCH  10  15
ENDBRANCH   6  10
ENDBRANCH   1   5
BRANCH   3  28
HETATM   28  C14 UNL     1       4.318 -13.999 -26.006  1.00  0.00     0.084 C 
BRANCH  28  29
HETATM   29  C15 UNL     1       4.953 -13.652 -27.308  1.00  0.00     0.030 C 
BRANCH  29  30
HETATM   30  C16 UNL     1       6.098 -12.710 -27.264  1.00  0.00     0.046 C 
BRANCH  30  31
HETATM   31  C17 UNL     1       5.833 -11.294 -27.464  1.00  0.00     0.065 C 
HETATM   32  N8  UNL     1       6.590 -10.305 -27.254  1.00  0.00    -0.323 N 
HETATM   33  C18 UNL     1       7.894 -10.243 -26.777  1.00  0.00     0.322 C 
ATOM     34  H8  UNL     1       6.175  -9.399 -27.472  1.00  0.00     0.169 HD
HETATM   35  O3  UNL     1       8.572 -11.292 -26.649  1.00  0.00    -0.247 OA
HETATM   36  N9  UNL     1       8.515  -9.014 -26.414  1.00  0.00    -0.334 N 
HETATM   37  C19 UNL     1       9.871  -9.021 -25.916  1.00  0.00     0.127 C 
HETATM   38  C23 UNL     1       7.847  -7.736 -26.521  1.00  0.00     0.127 C 
HETATM   39  C20 UNL     1      10.746  -7.978 -26.549  1.00  0.00     0.020 C 
HETATM   40  C21 UNL     1      10.054  -6.669 -26.743  1.00  0.00     0.003 C 
HETATM   41  C22 UNL     1       8.778  -6.688 -25.942  1.00  0.00     0.020 C 
ENDBRANCH  30  31
ENDBRANCH  29  30
ENDBRANCH  28  29
BRANCH  28  42
HETATM   42  C24 UNL     1       2.905 -13.606 -25.805  1.00  0.00     0.027 C 
BRANCH  42  43
HETATM   43  C25 UNL     1       1.941 -14.751 -25.636  1.00  0.00     0.022 C 
BRANCH  43  44
HETATM   44  C26 UNL     1       1.899 -15.169 -24.173  1.00  0.00     0.122 C 
BRANCH  44  45
HETATM   45  N10 UNL     1       0.601 -15.739 -23.892  1.00  0.00    -0.367 N 
HETATM   46  C27 UNL     1      -0.157 -15.158 -23.012  1.00  0.00     0.196 C 
HETATM   47  N11 UNL     1       0.285 -14.008 -22.356  1.00  0.00    -0.067 NA
HETATM   48  N12 UNL     1      -1.452 -15.701 -22.702  1.00  0.00    -0.067 NA
ATOM     49  H10 UNL     1       0.287 -16.580 -24.376  1.00  0.00     0.161 HD
ENDBRANCH  44  45
ENDBRANCH  43  44
ENDBRANCH  42  43
ENDBRANCH  28  42
ENDBRANCH   3  28
TORSDOF 18
ENDMDL
