MODEL 1
REMARK VINA RESULT: -8.308398452      0.000      0.000
REMARK  20 active torsions:
REMARK  status: ('A' for Active; 'I' for Inactive)
REMARK    1  A    between atoms: N1_2  and  C3_4 
REMARK    2  A    between atoms: C3_4  and  C4_5 
REMARK    3  A    between atoms: C4_5  and  N2_6 
REMARK    4  A    between atoms: N2_6  and  C5_8 
REMARK    5  A    between atoms: C7_17  and  N6_18 
REMARK    6  A    between atoms: N6_18  and  C8_20 
REMARK    7  A    between atoms: C8_20  and  C9_21 
REMARK    8  A    between atoms: C9_21  and  C10_22 
REMARK    9  A    between atoms: C10_22  and  N7_23 
REMARK   10  A    between atoms: N7_23  and  C11_26 
REMARK   11  A    between atoms: C11_26  and  C12_27 
REMARK   12  A    between atoms: C12_27  and  C13_28 
REMARK   13  A    between atoms: C13_28  and  C14_29 
REMARK   14  A    between atoms: C14_29  and  N8_30 
REMARK   15  A    between atoms: N8_30  and  C15_32 
REMARK   16  A    between atoms: C15_32  and  C16_33 
REMARK   17  A    between atoms: C16_33  and  C17_34 
REMARK   18  A    between atoms: C17_34  and  C18_35 
REMARK   19  A    between atoms: C18_35  and  N9_36 
REMARK   20  A    between atoms: N9_36  and  C19_38 
ROOT
HETATM    1  N7  UNL     1       5.884 -15.201 -23.970  1.00  0.00    -0.075 N 
ATOM      2  H71 UNL     1       6.292 -16.013 -24.434  1.00  0.00     0.277 HD
ATOM      3  H72 UNL     1       6.046 -15.461 -22.998  1.00  0.00     0.277 HD
ENDROOT
BRANCH   1   4
HETATM    4  C10 UNL     1       4.494 -15.112 -24.242  1.00  0.00     0.234 C 
BRANCH   4   5
HETATM    5  C9  UNL     1       4.093 -14.458 -25.527  1.00  0.00     0.048 C 
BRANCH   5   6
HETATM    6  C8  UNL     1       3.240 -13.233 -25.428  1.00  0.00     0.139 C 
BRANCH   6   7
HETATM    7  N6  UNL     1       2.866 -12.766 -26.707  1.00  0.00    -0.225 N 
ATOM      8  H6  UNL     1       1.863 -12.746 -26.887  1.00  0.00     0.177 HD
BRANCH   7   9
HETATM    9  C7  UNL     1       3.600 -12.366 -27.669  1.00  0.00     0.707 A 
HETATM   10  N5  UNL     1       3.646 -13.042 -28.828  1.00  0.00    -0.022 N 
HETATM   11  C6  UNL     1       4.455 -12.592 -29.832  1.00  0.00     0.705 A 
ATOM     12  H5  UNL     1       3.084 -13.884 -28.957  1.00  0.00     0.203 HD
HETATM   13  N3  UNL     1       5.205 -11.484 -29.685  1.00  0.00    -0.022 N 
HETATM   14  N4  UNL     1       4.495 -13.247 -30.948  1.00  0.00    -0.234 N 
HETATM   15  C5  UNL     1       5.166 -10.799 -28.532  1.00  0.00     0.707 A 
ATOM     16  H3  UNL     1       5.801 -11.166 -30.449  1.00  0.00     0.203 HD
HETATM   17  N12 UNL     1       4.372 -11.248 -27.553  1.00  0.00    -0.022 N 
ATOM     18  H12 UNL     1       4.342 -10.727 -26.676  1.00  0.00     0.203 HD
ATOM     19  H42 UNL     1       5.099 -12.910 -31.698  1.00  0.00     0.174 HD
ATOM     20  H41 UNL     1       3.926 -14.086 -31.060  1.00  0.00     0.174 HD
BRANCH  15  21
HETATM   21  N2  UNL     1       5.872  -9.743 -28.339  1.00  0.00    -0.223 N 
ATOM     22  H2  UNL     1       6.380  -9.383 -29.147  1.00  0.00     0.177 HD
BRANCH  21  23
HETATM   23  C4  UNL     1       6.024  -9.022 -27.128  1.00  0.00     0.168 C 
BRANCH  23  24
HETATM   24  C3  UNL     1       7.403  -8.860 -26.602  1.00  0.00     0.291 C 
BRANCH  24  25
HETATM   25  N1  UNL     1       7.795  -9.742 -25.552  1.00  0.00     0.081 N 
HETATM   26  C1  UNL     1       6.565 -10.052 -24.796  1.00  0.00     0.309 C 
HETATM   27  C2  UNL     1       8.296 -11.022 -25.995  1.00  0.00     0.309 C 
ENDBRANCH  24  25
ENDBRANCH  23  24
ENDBRANCH  21  23
ENDBRANCH  15  21
ENDBRANCH   7   9
ENDBRANCH   6   7
ENDBRANCH   5   6
ENDBRANCH   4   5
ENDBRANCH   1   4
BRANCH   1  28
HETATM   28  C11 UNL     1       6.632 -13.974 -24.314  1.00  0.00     0.232 C 
BRANCH  28  29
HETATM   29  C12 UNL     1       7.463 -13.515 -23.169  1.00  0.00     0.032 C 
BRANCH  29  30
HETATM   30  C13 UNL     1       8.930 -13.770 -23.309  1.00  0.00     0.046 C 
BRANCH  30  31
HETATM   31  C14 UNL     1       9.371 -14.357 -24.600  1.00  0.00     0.055 C 
BRANCH  31  32
HETATM   32  N8  UNL     1       9.652 -15.733 -24.602  1.00  0.00    -0.402 N 
ATOM     33  H8  UNL     1       9.334 -16.324 -25.370  1.00  0.00     0.158 HD
BRANCH  32  34
HETATM   34  C15 UNL     1      10.380 -16.288 -23.524  1.00  0.00     0.118 C 
BRANCH  34  35
HETATM   35  C16 UNL     1       9.798 -17.637 -23.125  1.00  0.00     0.021 C 
BRANCH  35  36
HETATM   36  C17 UNL     1       8.325 -17.719 -23.434  1.00  0.00     0.021 C 
BRANCH  36  37
HETATM   37  C18 UNL     1       7.649 -18.755 -22.523  1.00  0.00     0.121 C 
BRANCH  37  38
HETATM   38  N9  UNL     1       7.492 -18.203 -21.213  1.00  0.00    -0.374 N 
ATOM     39  H9  UNL     1       7.998 -18.670 -20.461  1.00  0.00     0.161 HD
BRANCH  38  40
HETATM   40  C19 UNL     1       6.790 -17.190 -20.881  1.00  0.00     0.127 A 
HETATM   41  N10 UNL     1       5.463 -17.087 -20.985  1.00  0.00    -0.283 N 
HETATM   42  N11 UNL     1       4.779 -15.987 -20.610  1.00  0.00    -0.294 N 
ATOM     43  H10 UNL     1       4.943 -17.877 -21.367  1.00  0.00     0.189 HD
HETATM   44  C20 UNL     1       5.367 -14.907 -20.101  1.00  0.00     0.040 A 
HETATM   45  C30 UNL     1       3.336 -16.089 -20.818  1.00  0.00     0.149 C 
HETATM   46  C21 UNL     1       6.769 -14.952 -19.966  1.00  0.00     0.002 A 
HETATM   47  C27 UNL     1       4.666 -13.688 -19.675  1.00  0.00     0.060 C 
HETATM   48  C22 UNL     1       7.407 -13.846 -19.442  1.00  0.00     0.014 A 
HETATM   49  C26 UNL     1       7.446 -16.079 -20.354  1.00  0.00     0.021 A 
HETATM   50  C23 UNL     1       8.796 -13.892 -19.306  1.00  0.00     0.001 A 
HETATM   51  C24 UNL     1       9.480 -15.029 -19.697  1.00  0.00     0.001 A 
HETATM   52  C25 UNL     1       8.827 -16.129 -20.221  1.00  0.00     0.016 A 
HETATM   53  C28 UNL     1       3.184 -13.901 -19.668  1.00  0.00     0.008 C 
HETATM   54  C29 UNL     1       2.726 -14.705 -20.850  1.00  0.00     0.022 C 
ENDBRANCH  38  40
ENDBRANCH  37  38
ENDBRANCH  36  37
ENDBRANCH  35  36
ENDBRANCH  34  35
ENDBRANCH  32  34
ENDBRANCH  31  32
ENDBRANCH  30  31
ENDBRANCH  29  30
ENDBRANCH  28  29
ENDBRANCH   1  28
TORSDOF 20
ENDMDL
MODEL 2
REMARK VINA RESULT: -8.209007777      4.987      8.442
REMARK  20 active torsions:
REMARK  status: ('A' for Active; 'I' for Inactive)
REMARK    1  A    between atoms: N1_2  and  C3_4 
REMARK    2  A    between atoms: C3_4  and  C4_5 
REMARK    3  A    between atoms: C4_5  and  N2_6 
REMARK    4  A    between atoms: N2_6  and  C5_8 
REMARK    5  A    between atoms: C7_17  and  N6_18 
REMARK    6  A    between atoms: N6_18  and  C8_20 
REMARK    7  A    between atoms: C8_20  and  C9_21 
REMARK    8  A    between atoms: C9_21  and  C10_22 
REMARK    9  A    between atoms: C10_22  and  N7_23 
REMARK   10  A    between atoms: N7_23  and  C11_26 
REMARK   11  A    between atoms: C11_26  and  C12_27 
REMARK   12  A    between atoms: C12_27  and  C13_28 
REMARK   13  A    between atoms: C13_28  and  C14_29 
REMARK   14  A    between atoms: C14_29  and  N8_30 
REMARK   15  A    between atoms: N8_30  and  C15_32 
REMARK   16  A    between atoms: C15_32  and  C16_33 
REMARK   17  A    between atoms: C16_33  and  C17_34 
REMARK   18  A    between atoms: C17_34  and  C18_35 
REMARK   19  A    between atoms: C18_35  and  N9_36 
REMARK   20  A    between atoms: N9_36  and  C19_38 
ROOT
HETATM    1  N7  UNL     1       2.858 -16.135 -24.845  1.00  0.00    -0.075 N 
ATOM      2  H71 UNL     1       2.903 -16.284 -25.854  1.00  0.00     0.277 HD
ATOM      3  H72 UNL     1       2.554 -17.062 -24.550  1.00  0.00     0.277 HD
ENDROOT
BRANCH   1   4
HETATM    4  C10 UNL     1       1.879 -15.159 -24.524  1.00  0.00     0.234 C 
BRANCH   4   5
HETATM    5  C9  UNL     1       1.505 -15.022 -23.081  1.00  0.00     0.048 C 
BRANCH   5   6
HETATM    6  C8  UNL     1       1.138 -16.276 -22.353  1.00  0.00     0.139 C 
BRANCH   6   7
HETATM    7  N6  UNL     1       0.098 -16.965 -23.013  1.00  0.00    -0.225 N 
ATOM      8  H6  UNL     1       0.396 -17.739 -23.606  1.00  0.00     0.177 HD
BRANCH   7   9
HETATM    9  C7  UNL     1      -1.160 -16.760 -22.977  1.00  0.00     0.707 A 
HETATM   10  N5  UNL     1      -1.772 -16.065 -23.949  1.00  0.00    -0.022 N 
HETATM   11  C6  UNL     1      -3.119 -15.853 -23.870  1.00  0.00     0.705 A 
ATOM     12  H5  UNL     1      -1.237 -15.698 -24.737  1.00  0.00     0.203 HD
HETATM   13  N3  UNL     1      -3.845 -16.327 -22.841  1.00  0.00    -0.022 N 
HETATM   14  N4  UNL     1      -3.705 -15.182 -24.809  1.00  0.00    -0.234 N 
HETATM   15  C5  UNL     1      -3.244 -17.024 -21.865  1.00  0.00     0.707 A 
ATOM     16  H3  UNL     1      -4.850 -16.156 -22.803  1.00  0.00     0.203 HD
HETATM   17  N12 UNL     1      -1.924 -17.226 -21.949  1.00  0.00    -0.022 N 
ATOM     18  H12 UNL     1      -1.466 -17.757 -21.207  1.00  0.00     0.203 HD
ATOM     19  H42 UNL     1      -4.711 -15.024 -24.751  1.00  0.00     0.174 HD
ATOM     20  H41 UNL     1      -3.156 -14.823 -25.590  1.00  0.00     0.174 HD
BRANCH  15  21
HETATM   21  N2  UNL     1      -3.891 -17.487 -20.855  1.00  0.00    -0.223 N 
ATOM     22  H2  UNL     1      -3.594 -17.158 -19.937  1.00  0.00     0.177 HD
BRANCH  21  23
HETATM   23  C4  UNL     1      -4.972 -18.403 -20.877  1.00  0.00     0.168 C 
BRANCH  23  24
HETATM   24  C3  UNL     1      -4.753 -19.696 -21.574  1.00  0.00     0.291 C 
BRANCH  24  25
HETATM   25  N1  UNL     1      -5.402 -20.839 -21.021  1.00  0.00     0.081 N 
HETATM   26  C1  UNL     1      -5.110 -20.816 -19.573  1.00  0.00     0.309 C 
HETATM   27  C2  UNL     1      -6.843 -20.819 -21.114  1.00  0.00     0.309 C 
ENDBRANCH  24  25
ENDBRANCH  23  24
ENDBRANCH  21  23
ENDBRANCH  15  21
ENDBRANCH   7   9
ENDBRANCH   6   7
ENDBRANCH   5   6
ENDBRANCH   4   5
ENDBRANCH   1   4
BRANCH   1  28
HETATM   28  C11 UNL     1       4.198 -15.828 -24.303  1.00  0.00     0.232 C 
BRANCH  28  29
HETATM   29  C12 UNL     1       4.853 -17.053 -23.772  1.00  0.00     0.032 C 
BRANCH  29  30
HETATM   30  C13 UNL     1       5.804 -16.822 -22.639  1.00  0.00     0.046 C 
BRANCH  30  31
HETATM   31  C14 UNL     1       5.422 -17.418 -21.334  1.00  0.00     0.055 C 
BRANCH  31  32
HETATM   32  N8  UNL     1       6.465 -17.936 -20.550  1.00  0.00    -0.402 N 
ATOM     33  H8  UNL     1       6.297 -18.212 -19.582  1.00  0.00     0.158 HD
BRANCH  32  34
HETATM   34  C15 UNL     1       7.752 -18.071 -21.120  1.00  0.00     0.118 C 
BRANCH  34  35
HETATM   35  C16 UNL     1       8.761 -17.214 -20.369  1.00  0.00     0.021 C 
BRANCH  35  36
HETATM   36  C17 UNL     1       9.452 -16.237 -21.286  1.00  0.00     0.021 C 
BRANCH  36  37
HETATM   37  C18 UNL     1       9.572 -14.865 -20.606  1.00  0.00     0.121 C 
BRANCH  37  38
HETATM   38  N9  UNL     1       8.280 -14.441 -20.163  1.00  0.00    -0.374 N 
ATOM     39  H9  UNL     1       8.081 -14.557 -19.169  1.00  0.00     0.161 HD
BRANCH  38  40
HETATM   40  C19 UNL     1       7.348 -13.935 -20.872  1.00  0.00     0.127 A 
HETATM   41  N10 UNL     1       7.502 -13.323 -22.049  1.00  0.00    -0.283 N 
HETATM   42  N11 UNL     1       6.471 -12.814 -22.753  1.00  0.00    -0.294 N 
ATOM     43  H10 UNL     1       8.443 -13.238 -22.433  1.00  0.00     0.189 HD
HETATM   44  C20 UNL     1       5.208 -12.875 -22.337  1.00  0.00     0.040 A 
HETATM   45  C30 UNL     1       6.869 -12.182 -24.010  1.00  0.00     0.149 C 
HETATM   46  C21 UNL     1       4.979 -13.508 -21.100  1.00  0.00     0.002 A 
HETATM   47  C27 UNL     1       4.053 -12.338 -23.068  1.00  0.00     0.060 C 
HETATM   48  C22 UNL     1       3.679 -13.587 -20.641  1.00  0.00     0.014 A 
HETATM   49  C26 UNL     1       6.039 -14.020 -20.399  1.00  0.00     0.021 A 
HETATM   50  C23 UNL     1       3.452 -14.217 -19.416  1.00  0.00     0.001 A 
HETATM   51  C24 UNL     1       4.522 -14.734 -18.708  1.00  0.00     0.001 A 
HETATM   52  C25 UNL     1       5.818 -14.647 -19.180  1.00  0.00     0.016 A 
HETATM   53  C28 UNL     1       4.446 -11.918 -24.450  1.00  0.00     0.008 C 
HETATM   54  C29 UNL     1       5.784 -11.236 -24.473  1.00  0.00     0.022 C 
ENDBRANCH  38  40
ENDBRANCH  37  38
ENDBRANCH  36  37
ENDBRANCH  35  36
ENDBRANCH  34  35
ENDBRANCH  32  34
ENDBRANCH  31  32
ENDBRANCH  30  31
ENDBRANCH  29  30
ENDBRANCH  28  29
ENDBRANCH   1  28
TORSDOF 20
ENDMDL
MODEL 3
REMARK VINA RESULT: -8.185257365      4.782      7.445
REMARK  20 active torsions:
REMARK  status: ('A' for Active; 'I' for Inactive)
REMARK    1  A    between atoms: N1_2  and  C3_4 
REMARK    2  A    between atoms: C3_4  and  C4_5 
REMARK    3  A    between atoms: C4_5  and  N2_6 
REMARK    4  A    between atoms: N2_6  and  C5_8 
REMARK    5  A    between atoms: C7_17  and  N6_18 
REMARK    6  A    between atoms: N6_18  and  C8_20 
REMARK    7  A    between atoms: C8_20  and  C9_21 
REMARK    8  A    between atoms: C9_21  and  C10_22 
REMARK    9  A    between atoms: C10_22  and  N7_23 
REMARK   10  A    between atoms: N7_23  and  C11_26 
REMARK   11  A    between atoms: C11_26  and  C12_27 
REMARK   12  A    between atoms: C12_27  and  C13_28 
REMARK   13  A    between atoms: C13_28  and  C14_29 
REMARK   14  A    between atoms: C14_29  and  N8_30 
REMARK   15  A    between atoms: N8_30  and  C15_32 
REMARK   16  A    between atoms: C15_32  and  C16_33 
REMARK   17  A    between atoms: C16_33  and  C17_34 
REMARK   18  A    between atoms: C17_34  and  C18_35 
REMARK   19  A    between atoms: C18_35  and  N9_36 
REMARK   20  A    between atoms: N9_36  and  C19_38 
ROOT
HETATM    1  N7  UNL     1       3.470 -15.252 -24.967  1.00  0.00    -0.075 N 
ATOM      2  H71 UNL     1       3.204 -15.511 -25.918  1.00  0.00     0.277 HD
ATOM      3  H72 UNL     1       3.598 -16.181 -24.567  1.00  0.00     0.277 HD
ENDROOT
BRANCH   1   4
HETATM    4  C10 UNL     1       2.410 -14.566 -24.318  1.00  0.00     0.234 C 
BRANCH   4   5
HETATM    5  C9  UNL     1       1.035 -15.137 -24.475  1.00  0.00     0.048 C 
BRANCH   5   6
HETATM    6  C8  UNL     1       0.358 -15.627 -23.234  1.00  0.00     0.139 C 
BRANCH   6   7
HETATM    7  N6  UNL     1      -0.800 -14.871 -22.951  1.00  0.00    -0.225 N 
ATOM      8  H6  UNL     1      -0.637 -13.988 -22.469  1.00  0.00     0.177 HD
BRANCH   7   9
HETATM    9  C7  UNL     1      -2.021 -15.133 -23.211  1.00  0.00     0.707 A 
HETATM   10  N5  UNL     1      -2.988 -14.241 -22.944  1.00  0.00    -0.022 N 
HETATM   11  C6  UNL     1      -4.286 -14.560 -23.223  1.00  0.00     0.705 A 
ATOM     12  H5  UNL     1      -2.756 -13.334 -22.536  1.00  0.00     0.203 HD
HETATM   13  N3  UNL     1      -4.616 -15.749 -23.760  1.00  0.00    -0.022 N 
HETATM   14  N4  UNL     1      -5.215 -13.697 -22.963  1.00  0.00    -0.234 N 
HETATM   15  C5  UNL     1      -3.658 -16.648 -24.033  1.00  0.00     0.707 A 
ATOM     16  H3  UNL     1      -5.592 -15.966 -23.960  1.00  0.00     0.203 HD
HETATM   17  N12 UNL     1      -2.388 -16.327 -23.756  1.00  0.00    -0.022 N 
ATOM     18  H12 UNL     1      -1.660 -17.010 -23.964  1.00  0.00     0.203 HD
ATOM     19  H42 UNL     1      -6.185 -13.936 -23.171  1.00  0.00     0.174 HD
ATOM     20  H41 UNL     1      -4.965 -12.796 -22.556  1.00  0.00     0.174 HD
BRANCH  15  21
HETATM   21  N2  UNL     1      -3.923 -17.801 -24.535  1.00  0.00    -0.223 N 
ATOM     22  H2  UNL     1      -4.318 -17.805 -25.475  1.00  0.00     0.177 HD
BRANCH  21  23
HETATM   23  C4  UNL     1      -3.727 -19.067 -23.929  1.00  0.00     0.168 C 
BRANCH  23  24
HETATM   24  C3  UNL     1      -4.803 -19.566 -23.035  1.00  0.00     0.291 C 
BRANCH  24  25
HETATM   25  N1  UNL     1      -4.521 -19.574 -21.637  1.00  0.00     0.081 N 
HETATM   26  C1  UNL     1      -5.141 -18.353 -21.086  1.00  0.00     0.309 C 
HETATM   27  C2  UNL     1      -5.124 -20.664 -20.907  1.00  0.00     0.309 C 
ENDBRANCH  24  25
ENDBRANCH  23  24
ENDBRANCH  21  23
ENDBRANCH  15  21
ENDBRANCH   7   9
ENDBRANCH   6   7
ENDBRANCH   5   6
ENDBRANCH   4   5
ENDBRANCH   1   4
BRANCH   1  28
HETATM   28  C11 UNL     1       4.744 -14.503 -24.967  1.00  0.00     0.232 C 
BRANCH  28  29
HETATM   29  C12 UNL     1       5.514 -14.758 -23.720  1.00  0.00     0.032 C 
BRANCH  29  30
HETATM   30  C13 UNL     1       6.506 -13.698 -23.360  1.00  0.00     0.046 C 
BRANCH  30  31
HETATM   31  C14 UNL     1       7.931 -14.115 -23.343  1.00  0.00     0.055 C 
BRANCH  31  32
HETATM   32  N8  UNL     1       8.221 -15.383 -23.872  1.00  0.00    -0.402 N 
ATOM     33  H8  UNL     1       7.496 -15.925 -24.343  1.00  0.00     0.158 HD
BRANCH  32  34
HETATM   34  C15 UNL     1       9.532 -15.898 -23.745  1.00  0.00     0.118 C 
BRANCH  34  35
HETATM   35  C16 UNL     1       9.491 -17.372 -23.363  1.00  0.00     0.021 C 
BRANCH  35  36
HETATM   36  C17 UNL     1       8.077 -17.892 -23.310  1.00  0.00     0.021 C 
BRANCH  36  37
HETATM   37  C18 UNL     1       7.944 -18.954 -22.208  1.00  0.00     0.121 C 
BRANCH  37  38
HETATM   38  N9  UNL     1       7.807 -18.306 -20.941  1.00  0.00    -0.374 N 
ATOM     39  H9  UNL     1       8.357 -18.691 -20.173  1.00  0.00     0.161 HD
BRANCH  38  40
HETATM   40  C19 UNL     1       7.073 -17.300 -20.663  1.00  0.00     0.127 A 
HETATM   41  N10 UNL     1       5.740 -17.255 -20.744  1.00  0.00    -0.283 N 
HETATM   42  N11 UNL     1       5.022 -16.158 -20.430  1.00  0.00    -0.294 N 
ATOM     43  H10 UNL     1       5.244 -18.088 -21.058  1.00  0.00     0.189 HD
HETATM   44  C20 UNL     1       5.577 -15.023 -20.012  1.00  0.00     0.040 A 
HETATM   45  C30 UNL     1       3.580 -16.329 -20.597  1.00  0.00     0.149 C 
HETATM   46  C21 UNL     1       6.981 -15.006 -19.906  1.00  0.00     0.002 A 
HETATM   47  C27 UNL     1       4.837 -13.804 -19.655  1.00  0.00     0.060 C 
HETATM   48  C22 UNL     1       7.586 -13.842 -19.474  1.00  0.00     0.014 A 
HETATM   49  C26 UNL     1       7.694 -16.130 -20.230  1.00  0.00     0.021 A 
HETATM   50  C23 UNL     1       8.978 -13.826 -19.368  1.00  0.00     0.001 A 
HETATM   51  C24 UNL     1       9.699 -14.961 -19.694  1.00  0.00     0.001 A 
HETATM   52  C25 UNL     1       9.079 -16.119 -20.126  1.00  0.00     0.016 A 
HETATM   53  C28 UNL     1       3.365 -14.072 -19.599  1.00  0.00     0.008 C 
HETATM   54  C29 UNL     1       2.915 -14.975 -20.711  1.00  0.00     0.022 C 
ENDBRANCH  38  40
ENDBRANCH  37  38
ENDBRANCH  36  37
ENDBRANCH  35  36
ENDBRANCH  34  35
ENDBRANCH  32  34
ENDBRANCH  31  32
ENDBRANCH  30  31
ENDBRANCH  29  30
ENDBRANCH  28  29
ENDBRANCH   1  28
TORSDOF 20
ENDMDL
MODEL 4
REMARK VINA RESULT: -8.105995697      1.821      4.223
REMARK  20 active torsions:
REMARK  status: ('A' for Active; 'I' for Inactive)
REMARK    1  A    between atoms: N1_2  and  C3_4 
REMARK    2  A    between atoms: C3_4  and  C4_5 
REMARK    3  A    between atoms: C4_5  and  N2_6 
REMARK    4  A    between atoms: N2_6  and  C5_8 
REMARK    5  A    between atoms: C7_17  and  N6_18 
REMARK    6  A    between atoms: N6_18  and  C8_20 
REMARK    7  A    between atoms: C8_20  and  C9_21 
REMARK    8  A    between atoms: C9_21  and  C10_22 
REMARK    9  A    between atoms: C10_22  and  N7_23 
REMARK   10  A    between atoms: N7_23  and  C11_26 
REMARK   11  A    between atoms: C11_26  and  C12_27 
REMARK   12  A    between atoms: C12_27  and  C13_28 
REMARK   13  A    between atoms: C13_28  and  C14_29 
REMARK   14  A    between atoms: C14_29  and  N8_30 
REMARK   15  A    between atoms: N8_30  and  C15_32 
REMARK   16  A    between atoms: C15_32  and  C16_33 
REMARK   17  A    between atoms: C16_33  and  C17_34 
REMARK   18  A    between atoms: C17_34  and  C18_35 
REMARK   19  A    between atoms: C18_35  and  N9_36 
REMARK   20  A    between atoms: N9_36  and  C19_38 
ROOT
HETATM    1  N7  UNL     1       6.581 -13.816 -25.943  1.00  0.00    -0.075 N 
ATOM      2  H71 UNL     1       6.337 -14.714 -26.362  1.00  0.00     0.277 HD
ATOM      3  H72 UNL     1       6.045 -13.195 -26.548  1.00  0.00     0.277 HD
ENDROOT
BRANCH   1   4
HETATM    4  C10 UNL     1       7.972 -13.564 -26.070  1.00  0.00     0.234 C 
BRANCH   4   5
HETATM    5  C9  UNL     1       8.385 -12.147 -26.317  1.00  0.00     0.048 C 
BRANCH   5   6
HETATM    6  C8  UNL     1       8.740 -11.324 -25.119  1.00  0.00     0.139 C 
BRANCH   6   7
HETATM    7  N6  UNL     1       7.812 -10.279 -24.924  1.00  0.00    -0.225 N 
ATOM      8  H6  UNL     1       7.225 -10.366 -24.095  1.00  0.00     0.177 HD
BRANCH   7   9
HETATM    9  C7  UNL     1       7.601  -9.240 -25.633  1.00  0.00     0.707 A 
HETATM   10  N5  UNL     1       8.494  -8.238 -25.668  1.00  0.00    -0.022 N 
HETATM   11  C6  UNL     1       8.228  -7.134 -26.428  1.00  0.00     0.705 A 
ATOM     12  H5  UNL     1       9.361  -8.300 -25.133  1.00  0.00     0.203 HD
HETATM   13  N3  UNL     1       7.093  -7.031 -27.142  1.00  0.00    -0.022 N 
HETATM   14  N4  UNL     1       9.092  -6.171 -26.460  1.00  0.00    -0.234 N 
HETATM   15  C5  UNL     1       6.194  -8.027 -27.115  1.00  0.00     0.707 A 
ATOM     16  H3  UNL     1       6.915  -6.198 -27.703  1.00  0.00     0.203 HD
HETATM   17  N12 UNL     1       6.462  -9.104 -26.368  1.00  0.00    -0.022 N 
ATOM     18  H12 UNL     1       5.778  -9.862 -26.348  1.00  0.00     0.203 HD
ATOM     19  H42 UNL     1       8.894  -5.347 -27.027  1.00  0.00     0.174 HD
ATOM     20  H41 UNL     1       9.954  -6.249 -25.919  1.00  0.00     0.174 HD
BRANCH  15  21
HETATM   21  N2  UNL     1       5.089  -7.971 -27.770  1.00  0.00    -0.223 N 
ATOM     22  H2  UNL     1       5.068  -7.337 -28.569  1.00  0.00     0.177 HD
BRANCH  21  23
HETATM   23  C4  UNL     1       3.897  -8.691 -27.505  1.00  0.00     0.168 C 
BRANCH  23  24
HETATM   24  C3  UNL     1       3.450  -9.666 -28.532  1.00  0.00     0.291 C 
BRANCH  24  25
HETATM   25  N1  UNL     1       3.670 -11.045 -28.242  1.00  0.00     0.081 N 
HETATM   26  C1  UNL     1       4.990 -11.379 -28.814  1.00  0.00     0.309 C 
HETATM   27  C2  UNL     1       3.779 -11.356 -26.837  1.00  0.00     0.309 C 
ENDBRANCH  24  25
ENDBRANCH  23  24
ENDBRANCH  21  23
ENDBRANCH  15  21
ENDBRANCH   7   9
ENDBRANCH   6   7
ENDBRANCH   5   6
ENDBRANCH   4   5
ENDBRANCH   1   4
BRANCH   1  28
HETATM   28  C11 UNL     1       6.092 -13.739 -24.551  1.00  0.00     0.232 C 
BRANCH  28  29
HETATM   29  C12 UNL     1       6.911 -14.593 -23.649  1.00  0.00     0.032 C 
BRANCH  29  30
HETATM   30  C13 UNL     1       7.335 -13.940 -22.371  1.00  0.00     0.046 C 
BRANCH  30  31
HETATM   31  C14 UNL     1       8.791 -13.694 -22.214  1.00  0.00     0.055 C 
BRANCH  31  32
HETATM   32  N8  UNL     1       9.474 -14.518 -21.306  1.00  0.00    -0.402 N 
ATOM     33  H8  UNL     1      10.014 -14.110 -20.542  1.00  0.00     0.158 HD
BRANCH  32  34
HETATM   34  C15 UNL     1       9.403 -15.922 -21.464  1.00  0.00     0.118 C 
BRANCH  34  35
HETATM   35  C16 UNL     1       8.897 -16.577 -20.186  1.00  0.00     0.021 C 
BRANCH  35  36
HETATM   36  C17 UNL     1       8.504 -18.014 -20.417  1.00  0.00     0.021 C 
BRANCH  36  37
HETATM   37  C18 UNL     1       7.433 -18.100 -21.515  1.00  0.00     0.121 C 
BRANCH  37  38
HETATM   38  N9  UNL     1       6.155 -17.788 -20.955  1.00  0.00    -0.374 N 
ATOM     39  H9  UNL     1       5.938 -18.214 -20.055  1.00  0.00     0.161 HD
BRANCH  38  40
HETATM   40  C19 UNL     1       5.256 -17.035 -21.457  1.00  0.00     0.127 A 
HETATM   41  N10 UNL     1       4.763 -17.119 -22.695  1.00  0.00    -0.283 N 
HETATM   42  N11 UNL     1       3.806 -16.293 -23.164  1.00  0.00    -0.294 N 
ATOM     43  H10 UNL     1       5.127 -17.842 -23.316  1.00  0.00     0.189 HD
HETATM   44  C20 UNL     1       3.268 -15.319 -22.434  1.00  0.00     0.040 A 
HETATM   45  C30 UNL     1       3.420 -16.561 -24.548  1.00  0.00     0.149 C 
HETATM   46  C21 UNL     1       3.746 -15.177 -21.116  1.00  0.00     0.002 A 
HETATM   47  C27 UNL     1       2.222 -14.397 -22.897  1.00  0.00     0.060 C 
HETATM   48  C22 UNL     1       3.207 -14.175 -20.333  1.00  0.00     0.014 A 
HETATM   49  C26 UNL     1       4.719 -16.026 -20.658  1.00  0.00     0.021 A 
HETATM   50  C23 UNL     1       3.680 -14.036 -19.028  1.00  0.00     0.001 A 
HETATM   51  C24 UNL     1       4.662 -14.893 -18.564  1.00  0.00     0.001 A 
HETATM   52  C25 UNL     1       5.193 -15.891 -19.360  1.00  0.00     0.016 A 
HETATM   53  C28 UNL     1       1.673 -14.836 -24.219  1.00  0.00     0.008 C 
HETATM   54  C29 UNL     1       2.749 -15.339 -25.137  1.00  0.00     0.022 C 
ENDBRANCH  38  40
ENDBRANCH  37  38
ENDBRANCH  36  37
ENDBRANCH  35  36
ENDBRANCH  34  35
ENDBRANCH  32  34
ENDBRANCH  31  32
ENDBRANCH  30  31
ENDBRANCH  29  30
ENDBRANCH  28  29
ENDBRANCH   1  28
TORSDOF 20
ENDMDL
MODEL 5
REMARK VINA RESULT: -8.097998685      5.186      7.243
REMARK  20 active torsions:
REMARK  status: ('A' for Active; 'I' for Inactive)
REMARK    1  A    between atoms: N1_2  and  C3_4 
REMARK    2  A    between atoms: C3_4  and  C4_5 
REMARK    3  A    between atoms: C4_5  and  N2_6 
REMARK    4  A    between atoms: N2_6  and  C5_8 
REMARK    5  A    between atoms: C7_17  and  N6_18 
REMARK    6  A    between atoms: N6_18  and  C8_20 
REMARK    7  A    between atoms: C8_20  and  C9_21 
REMARK    8  A    between atoms: C9_21  and  C10_22 
REMARK    9  A    between atoms: C10_22  and  N7_23 
REMARK   10  A    between atoms: N7_23  and  C11_26 
REMARK   11  A    between atoms: C11_26  and  C12_27 
REMARK   12  A    between atoms: C12_27  and  C13_28 
REMARK   13  A    between atoms: C13_28  and  C14_29 
REMARK   14  A    between atoms: C14_29  and  N8_30 
REMARK   15  A    between atoms: N8_30  and  C15_32 
REMARK   16  A    between atoms: C15_32  and  C16_33 
REMARK   17  A    between atoms: C16_33  and  C17_34 
REMARK   18  A    between atoms: C17_34  and  C18_35 
REMARK   19  A    between atoms: C18_35  and  N9_36 
REMARK   20  A    between atoms: N9_36  and  C19_38 
ROOT
HETATM    1  N7  UNL     1       3.122 -14.088 -25.137  1.00  0.00    -0.075 N 
ATOM      2  H71 UNL     1       3.295 -13.581 -26.006  1.00  0.00     0.277 HD
ATOM      3  H72 UNL     1       3.891 -14.756 -25.173  1.00  0.00     0.277 HD
ENDROOT
BRANCH   1   4
HETATM    4  C10 UNL     1       1.871 -14.758 -25.187  1.00  0.00     0.234 C 
BRANCH   4   5
HETATM    5  C9  UNL     1       1.353 -15.326 -23.903  1.00  0.00     0.048 C 
BRANCH   5   6
HETATM    6  C8  UNL     1      -0.127 -15.286 -23.691  1.00  0.00     0.139 C 
BRANCH   6   7
HETATM    7  N6  UNL     1      -0.755 -16.418 -24.253  1.00  0.00    -0.225 N 
ATOM      8  H6  UNL     1      -0.143 -17.039 -24.781  1.00  0.00     0.177 HD
BRANCH   7   9
HETATM    9  C7  UNL     1      -1.977 -16.778 -24.195  1.00  0.00     0.707 A 
HETATM   10  N5  UNL     1      -2.312 -18.078 -24.191  1.00  0.00    -0.022 N 
HETATM   11  C6  UNL     1      -3.632 -18.427 -24.143  1.00  0.00     0.705 A 
ATOM     12  H5  UNL     1      -1.589 -18.798 -24.223  1.00  0.00     0.203 HD
HETATM   13  N3  UNL     1      -4.602 -17.495 -24.099  1.00  0.00    -0.022 N 
HETATM   14  N4  UNL     1      -3.950 -19.681 -24.138  1.00  0.00    -0.234 N 
HETATM   15  C5  UNL     1      -4.279 -16.193 -24.103  1.00  0.00     0.707 A 
ATOM     16  H3  UNL     1      -5.582 -17.779 -24.064  1.00  0.00     0.203 HD
HETATM   17  N12 UNL     1      -2.984 -15.860 -24.150  1.00  0.00    -0.022 N 
ATOM     18  H12 UNL     1      -2.738 -14.870 -24.153  1.00  0.00     0.203 HD
ATOM     19  H42 UNL     1      -4.936 -19.942 -24.102  1.00  0.00     0.174 HD
ATOM     20  H41 UNL     1      -3.215 -20.387 -24.170  1.00  0.00     0.174 HD
BRANCH  15  21
HETATM   21  N2  UNL     1      -5.169 -15.267 -24.074  1.00  0.00    -0.223 N 
ATOM     22  H2  UNL     1      -5.848 -15.313 -23.314  1.00  0.00     0.177 HD
BRANCH  21  23
HETATM   23  C4  UNL     1      -5.313 -14.187 -24.982  1.00  0.00     0.168 C 
BRANCH  23  24
HETATM   24  C3  UNL     1      -6.680 -13.640 -25.176  1.00  0.00     0.291 C 
BRANCH  24  25
HETATM   25  N1  UNL     1      -6.871 -12.783 -26.300  1.00  0.00     0.081 N 
HETATM   26  C1  UNL     1      -6.662 -13.622 -27.497  1.00  0.00     0.309 C 
HETATM   27  C2  UNL     1      -8.210 -12.259 -26.438  1.00  0.00     0.309 C 
ENDBRANCH  24  25
ENDBRANCH  23  24
ENDBRANCH  21  23
ENDBRANCH  15  21
ENDBRANCH   7   9
ENDBRANCH   6   7
ENDBRANCH   5   6
ENDBRANCH   4   5
ENDBRANCH   1   4
BRANCH   1  28
HETATM   28  C11 UNL     1       3.263 -13.190 -23.972  1.00  0.00     0.232 C 
BRANCH  28  29
HETATM   29  C12 UNL     1       4.681 -13.111 -23.528  1.00  0.00     0.032 C 
BRANCH  29  30
HETATM   30  C13 UNL     1       5.417 -14.413 -23.523  1.00  0.00     0.046 C 
BRANCH  30  31
HETATM   31  C14 UNL     1       6.899 -14.326 -23.470  1.00  0.00     0.055 C 
BRANCH  31  32
HETATM   32  N8  UNL     1       7.612 -15.392 -24.042  1.00  0.00    -0.402 N 
ATOM     33  H8  UNL     1       7.161 -16.014 -24.713  1.00  0.00     0.158 HD
BRANCH  32  34
HETATM   34  C15 UNL     1       8.963 -15.591 -23.676  1.00  0.00     0.118 C 
BRANCH  34  35
HETATM   35  C16 UNL     1       9.251 -17.073 -23.481  1.00  0.00     0.021 C 
BRANCH  35  36
HETATM   36  C17 UNL     1       7.990 -17.852 -23.212  1.00  0.00     0.021 C 
BRANCH  36  37
HETATM   37  C18 UNL     1       8.240 -18.907 -22.123  1.00  0.00     0.121 C 
BRANCH  37  38
HETATM   38  N9  UNL     1       7.937 -18.347 -20.843  1.00  0.00    -0.374 N 
ATOM     39  H9  UNL     1       8.376 -18.793 -20.037  1.00  0.00     0.161 HD
BRANCH  38  40
HETATM   40  C19 UNL     1       7.179 -17.351 -20.596  1.00  0.00     0.127 A 
HETATM   41  N10 UNL     1       5.848 -17.334 -20.698  1.00  0.00    -0.283 N 
HETATM   42  N11 UNL     1       5.103 -16.246 -20.415  1.00  0.00    -0.294 N 
ATOM     43  H10 UNL     1       5.373 -18.183 -21.004  1.00  0.00     0.189 HD
HETATM   44  C20 UNL     1       5.628 -15.092 -20.010  1.00  0.00     0.040 A 
HETATM   45  C30 UNL     1       3.667 -16.449 -20.602  1.00  0.00     0.149 C 
HETATM   46  C21 UNL     1       7.031 -15.045 -19.883  1.00  0.00     0.002 A 
HETATM   47  C27 UNL     1       4.860 -13.882 -19.688  1.00  0.00     0.060 C 
HETATM   48  C22 UNL     1       7.606 -13.861 -19.464  1.00  0.00     0.014 A 
HETATM   49  C26 UNL     1       7.771 -16.161 -20.175  1.00  0.00     0.021 A 
HETATM   50  C23 UNL     1       8.995 -13.816 -19.337  1.00  0.00     0.001 A 
HETATM   51  C24 UNL     1       9.743 -14.942 -19.630  1.00  0.00     0.001 A 
HETATM   52  C25 UNL     1       9.153 -16.119 -20.049  1.00  0.00     0.016 A 
HETATM   53  C28 UNL     1       3.393 -14.179 -19.650  1.00  0.00     0.008 C 
HETATM   54  C29 UNL     1       2.977 -15.111 -20.751  1.00  0.00     0.022 C 
ENDBRANCH  38  40
ENDBRANCH  37  38
ENDBRANCH  36  37
ENDBRANCH  35  36
ENDBRANCH  34  35
ENDBRANCH  32  34
ENDBRANCH  31  32
ENDBRANCH  30  31
ENDBRANCH  29  30
ENDBRANCH  28  29
ENDBRANCH   1  28
TORSDOF 20
ENDMDL
