MODEL 1
REMARK VINA RESULT: -6.293096750      0.000      0.000
REMARK  8 active torsions:
REMARK  status: ('A' for Active; 'I' for Inactive)
REMARK    1  A    between atoms: C2_2  and  N1_3 
REMARK    2  A    between atoms: N1_3  and  C3_4 
REMARK    3  A    between atoms: N1_3  and  C5_6 
REMARK    4  A    between atoms: C5_6  and  O1_7 
REMARK    5  A    between atoms: C5_6  and  C6_9 
REMARK    6  A    between atoms: C7_10  and  N2_11 
REMARK       I    between atoms: N2_11  and  C8_13 
REMARK    7  A    between atoms: C8_13  and  C9_15 
REMARK    8  A    between atoms: C9_15  and  N3_16 
ROOT
HETATM    1  C6  UNL     1      30.848  96.394  27.025  1.00  0.00     0.056 A 
HETATM    2  C7  UNL     1      31.856  97.195  27.485  1.00  0.00     0.092 A 
HETATM    3  S1  UNL     1      31.297  98.794  27.037  1.00  0.00    -0.075 SA
HETATM    4  C15 UNL     1      29.842  98.378  26.295  1.00  0.00    -0.008 A 
HETATM    5  C16 UNL     1      29.786  97.029  26.399  1.00  0.00    -0.028 A 
HETATM    6  C17 UNL     1      28.446  96.451  25.948  1.00  0.00     0.041 C 
HETATM    7  C18 UNL     1      27.375  97.455  26.303  1.00  0.00     0.005 C 
HETATM    8  C19 UNL     1      27.553  98.631  25.367  1.00  0.00     0.005 C 
HETATM    9  C20 UNL     1      28.870  99.300  25.629  1.00  0.00     0.047 C 
ENDROOT
BRANCH   2  10
HETATM   10  N2  UNL     1      33.169  96.971  27.991  1.00  0.00    -0.319 N 
HETATM   11  C8  UNL     1      33.612  97.060  29.285  1.00  0.00     0.251 C 
HETATM   12  O2  UNL     1      32.942  97.342  30.342  1.00  0.00    -0.271 OA
ATOM     13  H2  UNL     1      33.871  96.710  27.299  1.00  0.00     0.169 HD
BRANCH  11  14
HETATM   14  C9  UNL     1      35.064  96.819  29.655  1.00  0.00     0.375 C 
BRANCH  14  15
HETATM   15  N3  UNL     1      35.692  95.785  28.901  1.00  0.00     0.099 N 
HETATM   16  C10 UNL     1      36.778  96.424  28.158  1.00  0.00     0.275 C 
HETATM   17  C11 UNL     1      37.755  95.458  27.603  1.00  0.00     0.057 C 
HETATM   18  C12 UNL     1      39.033  95.394  28.450  1.00  0.00     0.234 C 
HETATM   19  N4  UNL     1      38.699  94.470  29.534  1.00  0.00    -0.073 N 
HETATM   20  C13 UNL     1      37.636  95.120  30.295  1.00  0.00     0.262 C 
ATOM     21  H42 UNL     1      38.456  93.533  29.212  1.00  0.00     0.277 HD
ATOM     22  H41 UNL     1      39.501  94.200  30.103  1.00  0.00     0.277 HD
HETATM   23  C14 UNL     1      36.272  94.759  29.783  1.00  0.00     0.300 C 
ENDBRANCH  14  15
ENDBRANCH  11  14
ENDBRANCH   2  10
BRANCH   1  24
HETATM   24  C5  UNL     1      30.731  94.971  27.470  1.00  0.00     0.151 C 
BRANCH  24  25
HETATM   25  N1  UNL     1      29.783  94.350  28.233  1.00  0.00    -0.362 N 
BRANCH  25  26
HETATM   26  C2  UNL     1      29.414  94.954  29.534  1.00  0.00     0.120 C 
HETATM   27  C1  UNL     1      28.005  95.454  29.522  1.00  0.00     0.026 C 
ENDBRANCH  25  26
BRANCH  25  28
HETATM   28  C3  UNL     1      29.268  93.017  28.073  1.00  0.00     0.120 C 
HETATM   29  C4  UNL     1      28.392  92.949  26.798  1.00  0.00     0.026 C 
ENDBRANCH  25  28
ENDBRANCH  24  25
BRANCH  24  30
HETATM   30  O1  UNL     1      31.688  94.168  27.056  1.00  0.00    -0.345 OA
ATOM     31  H1  UNL     1      32.547  94.572  27.047  1.00  0.00     0.219 HD
ENDBRANCH  24  30
ENDBRANCH   1  24
TORSDOF 8
ENDMDL
MODEL 2
REMARK VINA RESULT: -6.239792468      0.778      1.166
REMARK  8 active torsions:
REMARK  status: ('A' for Active; 'I' for Inactive)
REMARK    1  A    between atoms: C2_2  and  N1_3 
REMARK    2  A    between atoms: N1_3  and  C3_4 
REMARK    3  A    between atoms: N1_3  and  C5_6 
REMARK    4  A    between atoms: C5_6  and  O1_7 
REMARK    5  A    between atoms: C5_6  and  C6_9 
REMARK    6  A    between atoms: C7_10  and  N2_11 
REMARK       I    between atoms: N2_11  and  C8_13 
REMARK    7  A    between atoms: C8_13  and  C9_15 
REMARK    8  A    between atoms: C9_15  and  N3_16 
ROOT
HETATM    1  C6  UNL     1      30.852  96.289  27.030  1.00  0.00     0.056 A 
HETATM    2  C7  UNL     1      31.840  97.088  27.533  1.00  0.00     0.092 A 
HETATM    3  S1  UNL     1      31.256  98.694  27.145  1.00  0.00    -0.075 SA
HETATM    4  C15 UNL     1      29.816  98.283  26.372  1.00  0.00    -0.008 A 
HETATM    5  C16 UNL     1      29.784  96.930  26.421  1.00  0.00    -0.028 A 
HETATM    6  C17 UNL     1      28.459  96.347  25.933  1.00  0.00     0.041 C 
HETATM    7  C18 UNL     1      27.366  97.316  26.318  1.00  0.00     0.005 C 
HETATM    8  C19 UNL     1      27.531  98.533  25.433  1.00  0.00     0.005 C 
HETATM    9  C20 UNL     1      28.833  99.214  25.735  1.00  0.00     0.047 C 
ENDROOT
BRANCH   2  10
HETATM   10  N2  UNL     1      33.152  96.867  28.041  1.00  0.00    -0.319 N 
HETATM   11  C8  UNL     1      33.607  97.017  29.326  1.00  0.00     0.251 C 
HETATM   12  O2  UNL     1      32.949  97.370  30.370  1.00  0.00    -0.271 OA
ATOM     13  H2  UNL     1      33.845  96.555  27.360  1.00  0.00     0.169 HD
BRANCH  11  14
HETATM   14  C9  UNL     1      35.056  96.770  29.700  1.00  0.00     0.375 C 
BRANCH  14  15
HETATM   15  N3  UNL     1      35.691  95.755  28.924  1.00  0.00     0.099 N 
HETATM   16  C10 UNL     1      36.761  96.420  28.181  1.00  0.00     0.275 C 
HETATM   17  C11 UNL     1      37.746  95.474  27.603  1.00  0.00     0.057 C 
HETATM   18  C12 UNL     1      39.033  95.415  28.437  1.00  0.00     0.234 C 
HETATM   19  N4  UNL     1      38.720  94.471  29.511  1.00  0.00    -0.073 N 
HETATM   20  C13 UNL     1      37.656  95.095  30.291  1.00  0.00     0.262 C 
ATOM     21  H42 UNL     1      38.487  93.535  29.177  1.00  0.00     0.277 HD
ATOM     22  H41 UNL     1      39.531  94.203  30.068  1.00  0.00     0.277 HD
HETATM   23  C14 UNL     1      36.292  94.724  29.786  1.00  0.00     0.300 C 
ENDBRANCH  14  15
ENDBRANCH  11  14
ENDBRANCH   2  10
BRANCH   1  24
HETATM   24  C5  UNL     1      30.756  94.847  27.415  1.00  0.00     0.151 C 
BRANCH  24  25
HETATM   25  N1  UNL     1      30.394  94.260  28.594  1.00  0.00    -0.362 N 
BRANCH  25  26
HETATM   26  C2  UNL     1      28.984  93.842  28.773  1.00  0.00     0.120 C 
HETATM   27  C1  UNL     1      28.159  94.945  29.354  1.00  0.00     0.026 C 
ENDBRANCH  25  26
BRANCH  25  28
HETATM   28  C3  UNL     1      31.143  94.226  29.821  1.00  0.00     0.120 C 
HETATM   29  C4  UNL     1      32.496  93.514  29.582  1.00  0.00     0.026 C 
ENDBRANCH  25  28
ENDBRANCH  24  25
BRANCH  24  30
HETATM   30  O1  UNL     1      31.058  93.987  26.466  1.00  0.00    -0.345 OA
ATOM     31  H1  UNL     1      31.249  94.393  25.629  1.00  0.00     0.219 HD
ENDBRANCH  24  30
ENDBRANCH   1  24
TORSDOF 8
ENDMDL
MODEL 3
REMARK VINA RESULT: -6.066524025      2.054      3.593
REMARK  8 active torsions:
REMARK  status: ('A' for Active; 'I' for Inactive)
REMARK    1  A    between atoms: C2_2  and  N1_3 
REMARK    2  A    between atoms: N1_3  and  C3_4 
REMARK    3  A    between atoms: N1_3  and  C5_6 
REMARK    4  A    between atoms: C5_6  and  O1_7 
REMARK    5  A    between atoms: C5_6  and  C6_9 
REMARK    6  A    between atoms: C7_10  and  N2_11 
REMARK       I    between atoms: N2_11  and  C8_13 
REMARK    7  A    between atoms: C8_13  and  C9_15 
REMARK    8  A    between atoms: C9_15  and  N3_16 
ROOT
HETATM    1  C6  UNL     1      30.604  95.538  27.757  1.00  0.00     0.056 A 
HETATM    2  C7  UNL     1      31.374  94.439  27.495  1.00  0.00     0.092 A 
HETATM    3  S1  UNL     1      30.229  93.353  26.734  1.00  0.00    -0.075 SA
HETATM    4  C15 UNL     1      28.852  94.322  26.790  1.00  0.00    -0.008 A 
HETATM    5  C16 UNL     1      29.272  95.468  27.378  1.00  0.00    -0.028 A 
HETATM    6  C17 UNL     1      28.214  96.570  27.362  1.00  0.00     0.041 C 
HETATM    7  C18 UNL     1      27.419  96.418  26.087  1.00  0.00     0.005 C 
HETATM    8  C19 UNL     1      26.583  95.166  26.241  1.00  0.00     0.005 C 
HETATM    9  C20 UNL     1      27.473  93.962  26.335  1.00  0.00     0.047 C 
ENDROOT
BRANCH   2  10
HETATM   10  N2  UNL     1      32.681  94.013  27.870  1.00  0.00    -0.319 N 
HETATM   11  C8  UNL     1      33.251  94.004  29.117  1.00  0.00     0.251 C 
HETATM   12  O2  UNL     1      32.731  94.353  30.236  1.00  0.00    -0.271 OA
ATOM     13  H2  UNL     1      33.270  93.671  27.111  1.00  0.00     0.169 HD
BRANCH  11  14
HETATM   14  C9  UNL     1      34.680  93.546  29.343  1.00  0.00     0.375 C 
BRANCH  14  15
HETATM   15  N3  UNL     1      35.657  94.340  28.674  1.00  0.00     0.099 N 
HETATM   16  C10 UNL     1      36.112  95.332  29.648  1.00  0.00     0.275 C 
HETATM   17  C11 UNL     1      37.371  96.007  29.250  1.00  0.00     0.057 C 
HETATM   18  C12 UNL     1      38.582  95.438  30.001  1.00  0.00     0.234 C 
HETATM   19  N4  UNL     1      38.951  94.247  29.235  1.00  0.00    -0.073 N 
HETATM   20  C13 UNL     1      37.821  93.331  29.358  1.00  0.00     0.262 C 
ATOM     21  H42 UNL     1      39.212  94.447  28.269  1.00  0.00     0.277 HD
ATOM     22  H41 UNL     1      39.841  93.838  29.520  1.00  0.00     0.277 HD
HETATM   23  C14 UNL     1      36.814  93.527  28.262  1.00  0.00     0.300 C 
ENDBRANCH  14  15
ENDBRANCH  11  14
ENDBRANCH   2  10
BRANCH   1  24
HETATM   24  C5  UNL     1      31.229  96.850  28.111  1.00  0.00     0.151 C 
BRANCH  24  25
HETATM   25  N1  UNL     1      31.572  97.915  27.326  1.00  0.00    -0.362 N 
BRANCH  25  26
HETATM   26  C2  UNL     1      30.748  99.143  27.400  1.00  0.00     0.120 C 
HETATM   27  C1  UNL     1      30.328  99.600  26.040  1.00  0.00     0.026 C 
ENDBRANCH  25  26
BRANCH  25  28
HETATM   28  C3  UNL     1      32.485  97.925  26.216  1.00  0.00     0.120 C 
HETATM   29  C4  UNL     1      33.866  97.396  26.675  1.00  0.00     0.026 C 
ENDBRANCH  25  28
ENDBRANCH  24  25
BRANCH  24  30
HETATM   30  O1  UNL     1      31.486  97.028  29.388  1.00  0.00    -0.345 OA
ATOM     31  H1  UNL     1      31.545  97.942  29.641  1.00  0.00     0.219 HD
ENDBRANCH  24  30
ENDBRANCH   1  24
TORSDOF 8
ENDMDL
MODEL 4
REMARK VINA RESULT: -6.024857153      2.712      4.528
REMARK  8 active torsions:
REMARK  status: ('A' for Active; 'I' for Inactive)
REMARK    1  A    between atoms: C2_2  and  N1_3 
REMARK    2  A    between atoms: N1_3  and  C3_4 
REMARK    3  A    between atoms: N1_3  and  C5_6 
REMARK    4  A    between atoms: C5_6  and  O1_7 
REMARK    5  A    between atoms: C5_6  and  C6_9 
REMARK    6  A    between atoms: C7_10  and  N2_11 
REMARK       I    between atoms: N2_11  and  C8_13 
REMARK    7  A    between atoms: C8_13  and  C9_15 
REMARK    8  A    between atoms: C9_15  and  N3_16 
ROOT
HETATM    1  C6  UNL     1      31.476  96.902  27.109  1.00  0.00     0.056 A 
HETATM    2  C7  UNL     1      31.068  95.620  26.867  1.00  0.00     0.092 A 
HETATM    3  S1  UNL     1      29.409  95.845  26.351  1.00  0.00    -0.075 SA
HETATM    4  C15 UNL     1      29.310  97.524  26.470  1.00  0.00    -0.008 A 
HETATM    5  C16 UNL     1      30.540  97.902  26.893  1.00  0.00    -0.028 A 
HETATM    6  C17 UNL     1      30.730  99.418  26.892  1.00  0.00     0.041 C 
HETATM    7  C18 UNL     1      29.933  99.976  25.737  1.00  0.00     0.005 C 
HETATM    8  C19 UNL     1      28.472  99.832  26.106  1.00  0.00     0.005 C 
HETATM    9  C20 UNL     1      28.110  98.380  26.214  1.00  0.00     0.047 C 
ENDROOT
BRANCH   2  10
HETATM   10  N2  UNL     1      31.606  94.326  27.128  1.00  0.00    -0.319 N 
HETATM   11  C8  UNL     1      31.331  93.483  28.174  1.00  0.00     0.251 C 
HETATM   12  O2  UNL     1      30.509  93.654  29.144  1.00  0.00    -0.271 OA
ATOM     13  H2  UNL     1      32.284  93.983  26.449  1.00  0.00     0.169 HD
BRANCH  11  14
HETATM   14  C9  UNL     1      32.021  92.140  28.325  1.00  0.00     0.375 C 
BRANCH  14  15
HETATM   15  N3  UNL     1      33.353  92.112  27.818  1.00  0.00     0.099 N 
HETATM   16  C10 UNL     1      34.205  92.648  28.879  1.00  0.00     0.275 C 
HETATM   17  C11 UNL     1      35.646  92.365  28.671  1.00  0.00     0.057 C 
HETATM   18  C12 UNL     1      36.128  91.203  29.549  1.00  0.00     0.234 C 
HETATM   19  N4  UNL     1      35.759  90.006  28.793  1.00  0.00    -0.073 N 
HETATM   20  C13 UNL     1      34.300  90.007  28.734  1.00  0.00     0.262 C 
ATOM     21  H42 UNL     1      36.204  89.949  27.876  1.00  0.00     0.277 HD
ATOM     22  H41 UNL     1      36.152  89.145  29.173  1.00  0.00     0.277 HD
HETATM   23  C14 UNL     1      33.783  90.734  27.527  1.00  0.00     0.300 C 
ENDBRANCH  14  15
ENDBRANCH  11  14
ENDBRANCH   2  10
BRANCH   1  24
HETATM   24  C5  UNL     1      32.925  97.234  27.260  1.00  0.00     0.151 C 
BRANCH  24  25
HETATM   25  N1  UNL     1      33.773  97.069  28.319  1.00  0.00    -0.362 N 
BRANCH  25  26
HETATM   26  C2  UNL     1      35.068  96.387  28.089  1.00  0.00     0.120 C 
HETATM   27  C1  UNL     1      36.202  97.154  28.691  1.00  0.00     0.026 C 
ENDBRANCH  25  26
BRANCH  25  28
HETATM   28  C3  UNL     1      33.471  97.231  29.715  1.00  0.00     0.120 C 
HETATM   29  C4  UNL     1      33.061  95.865  30.318  1.00  0.00     0.026 C 
ENDBRANCH  25  28
ENDBRANCH  24  25
BRANCH  24  30
HETATM   30  O1  UNL     1      33.498  97.764  26.200  1.00  0.00    -0.345 OA
ATOM     31  H1  UNL     1      33.140  98.608  25.955  1.00  0.00     0.219 HD
ENDBRANCH  24  30
ENDBRANCH   1  24
TORSDOF 8
ENDMDL
MODEL 5
REMARK VINA RESULT: -5.994687834      1.954      3.695
REMARK  8 active torsions:
REMARK  status: ('A' for Active; 'I' for Inactive)
REMARK    1  A    between atoms: C2_2  and  N1_3 
REMARK    2  A    between atoms: N1_3  and  C3_4 
REMARK    3  A    between atoms: N1_3  and  C5_6 
REMARK    4  A    between atoms: C5_6  and  O1_7 
REMARK    5  A    between atoms: C5_6  and  C6_9 
REMARK    6  A    between atoms: C7_10  and  N2_11 
REMARK       I    between atoms: N2_11  and  C8_13 
REMARK    7  A    between atoms: C8_13  and  C9_15 
REMARK    8  A    between atoms: C9_15  and  N3_16 
ROOT
HETATM    1  C6  UNL     1      29.662  95.603  27.645  1.00  0.00     0.056 A 
HETATM    2  C7  UNL     1      30.867  94.961  27.588  1.00  0.00     0.092 A 
HETATM    3  S1  UNL     1      30.404  93.338  27.116  1.00  0.00    -0.075 SA
HETATM    4  C15 UNL     1      28.735  93.545  27.022  1.00  0.00    -0.008 A 
HETATM    5  C16 UNL     1      28.540  94.847  27.341  1.00  0.00    -0.028 A 
HETATM    6  C17 UNL     1      27.096  95.302  27.137  1.00  0.00     0.041 C 
HETATM    7  C18 UNL     1      26.543  94.543  25.954  1.00  0.00     0.005 C 
HETATM    8  C19 UNL     1      26.372  93.107  26.398  1.00  0.00     0.005 C 
HETATM    9  C20 UNL     1      27.710  92.502  26.707  1.00  0.00     0.047 C 
ENDROOT
BRANCH   2  10
HETATM   10  N2  UNL     1      32.196  95.277  27.992  1.00  0.00    -0.319 N 
HETATM   11  C8  UNL     1      32.613  95.924  29.127  1.00  0.00     0.251 C 
HETATM   12  O2  UNL     1      31.903  96.372  30.097  1.00  0.00    -0.271 OA
ATOM     13  H2  UNL     1      32.935  94.984  27.353  1.00  0.00     0.169 HD
BRANCH  11  14
HETATM   14  C9  UNL     1      34.078  96.215  29.394  1.00  0.00     0.375 C 
BRANCH  14  15
HETATM   15  N3  UNL     1      34.977  95.440  28.604  1.00  0.00     0.099 N 
HETATM   16  C10 UNL     1      36.043  96.351  28.187  1.00  0.00     0.275 C 
HETATM   17  C11 UNL     1      37.240  95.650  27.665  1.00  0.00     0.057 C 
HETATM   18  C12 UNL     1      38.366  95.598  28.707  1.00  0.00     0.234 C 
HETATM   19  N4  UNL     1      38.027  94.447  29.544  1.00  0.00    -0.073 N 
HETATM   20  C13 UNL     1      36.767  94.789  30.197  1.00  0.00     0.262 C 
ATOM     21  H42 UNL     1      37.996  93.565  29.032  1.00  0.00     0.277 HD
ATOM     22  H41 UNL     1      38.767  94.184  30.195  1.00  0.00     0.277 HD
HETATM   23  C14 UNL     1      35.577  94.352  29.394  1.00  0.00     0.300 C 
ENDBRANCH  14  15
ENDBRANCH  11  14
ENDBRANCH   2  10
BRANCH   1  24
HETATM   24  C5  UNL     1      29.586  97.096  27.692  1.00  0.00     0.151 C 
BRANCH  24  25
HETATM   25  N1  UNL     1      29.631  98.024  26.690  1.00  0.00    -0.362 N 
BRANCH  25  26
HETATM   26  C2  UNL     1      30.798  98.934  26.621  1.00  0.00     0.120 C 
HETATM   27  C1  UNL     1      32.025  98.213  26.165  1.00  0.00     0.026 C 
ENDBRANCH  25  26
BRANCH  25  28
HETATM   28  C3  UNL     1      28.557  98.431  25.825  1.00  0.00     0.120 C 
HETATM   29  C4  UNL     1      28.297  99.947  26.001  1.00  0.00     0.026 C 
ENDBRANCH  25  28
ENDBRANCH  24  25
BRANCH  24  30
HETATM   30  O1  UNL     1      29.439  97.618  28.891  1.00  0.00    -0.345 OA
ATOM     31  H1  UNL     1      30.222  97.568  29.427  1.00  0.00     0.219 HD
ENDBRANCH  24  30
ENDBRANCH   1  24
TORSDOF 8
ENDMDL
