MODEL 1
REMARK VINA RESULT: -6.740626760      0.000      0.000
REMARK  6 active torsions:
REMARK  status: ('A' for Active; 'I' for Inactive)
REMARK    1  A    between atoms: C7_7  and  C8_8 
REMARK    2  A    between atoms: C8_8  and  N1_9 
REMARK    3  A    between atoms: C8_8  and  C19_27 
REMARK    4  A    between atoms: N1_9  and  S1_11 
REMARK    5  A    between atoms: S1_11  and  C9_14 
REMARK    6  A    between atoms: C12_17  and  N2_18 
ROOT
HETATM    1  S1  UNL     1      35.574  96.494  28.391  1.00  0.00     0.261 S 
HETATM    2  O1  UNL     1      36.303  97.678  28.977  1.00  0.00    -0.200 OA
HETATM    3  O2  UNL     1      36.316  96.022  27.142  1.00  0.00    -0.200 OA
ENDROOT
BRANCH   1   4
HETATM    4  N1  UNL     1      35.456  95.197  29.467  1.00  0.00    -0.300 N 
ATOM      5  H1  UNL     1      34.978  95.265  30.364  1.00  0.00     0.173 HD
BRANCH   4   6
HETATM    6  C8  UNL     1      36.101  93.963  28.999  1.00  0.00     0.198 C 
BRANCH   6   7
HETATM    7  C7  UNL     1      37.166  93.493  29.911  1.00  0.00     0.023 C 
HETATM    8  C2  UNL     1      37.723  94.530  30.857  1.00  0.00    -0.012 C 
HETATM    9  C1  UNL     1      38.305  93.752  32.051  1.00  0.00     0.010 C 
HETATM   10  C3  UNL     1      38.800  95.364  30.295  1.00  0.00     0.005 C 
HETATM   11  C4  UNL     1      39.192  95.136  28.877  1.00  0.00     0.000 C 
HETATM   12  C5  UNL     1      39.172  93.707  28.428  1.00  0.00     0.000 C 
HETATM   13  C6  UNL     1      38.339  92.814  29.289  1.00  0.00     0.007 C 
ENDBRANCH   6   7
BRANCH   6  14
HETATM   14  C19 UNL     1      34.967  92.999  28.869  1.00  0.00     0.197 C 
HETATM   15  O3  UNL     1      35.002  91.906  29.473  1.00  0.00    -0.646 OA
HETATM   16  O4  UNL     1      33.851  93.248  28.103  1.00  0.00    -0.646 OA
ENDBRANCH   6  14
ENDBRANCH   4   6
ENDBRANCH   1   4
BRANCH   1  17
HETATM   17  C9  UNL     1      34.010  97.018  27.851  1.00  0.00     0.095 A 
HETATM   18  C10 UNL     1      33.780  97.396  26.552  1.00  0.00     0.030 A 
HETATM   19  C11 UNL     1      32.500  97.806  26.184  1.00  0.00     0.050 A 
HETATM   20  C12 UNL     1      31.473  97.837  27.103  1.00  0.00     0.102 A 
HETATM   21  N3  UNL     1      31.741  97.461  28.362  1.00  0.00    -0.351 N 
HETATM   22  C18 UNL     1      32.965  97.061  28.745  1.00  0.00     0.115 A 
ATOM     23  H3  UNL     1      30.990  97.479  29.052  1.00  0.00     0.166 HD
BRANCH  20  24
HETATM   24  N2  UNL     1      30.175  98.261  26.704  1.00  0.00    -0.367 N 
HETATM   25  C13 UNL     1      29.045  97.391  26.963  1.00  0.00     0.124 C 
HETATM   26  C14 UNL     1      27.998  97.461  25.877  1.00  0.00     0.020 C 
HETATM   27  C15 UNL     1      27.596  98.882  25.564  1.00  0.00     0.003 C 
HETATM   28  C16 UNL     1      28.515  99.894  26.174  1.00  0.00     0.020 C 
HETATM   29  C17 UNL     1      29.978  99.525  26.058  1.00  0.00     0.124 C 
ENDBRANCH  20  24
ENDBRANCH   1  17
TORSDOF 6
ENDMDL
MODEL 2
REMARK VINA RESULT: -6.734219110      0.973      1.306
REMARK  6 active torsions:
REMARK  status: ('A' for Active; 'I' for Inactive)
REMARK    1  A    between atoms: C7_7  and  C8_8 
REMARK    2  A    between atoms: C8_8  and  N1_9 
REMARK    3  A    between atoms: C8_8  and  C19_27 
REMARK    4  A    between atoms: N1_9  and  S1_11 
REMARK    5  A    between atoms: S1_11  and  C9_14 
REMARK    6  A    between atoms: C12_17  and  N2_18 
ROOT
HETATM    1  S1  UNL     1      35.565  96.443  28.435  1.00  0.00     0.261 S 
HETATM    2  O1  UNL     1      36.274  97.602  29.090  1.00  0.00    -0.200 OA
HETATM    3  O2  UNL     1      36.337  96.031  27.183  1.00  0.00    -0.200 OA
ENDROOT
BRANCH   1   4
HETATM    4  N1  UNL     1      35.429  95.097  29.449  1.00  0.00    -0.300 N 
ATOM      5  H1  UNL     1      35.403  95.171  30.465  1.00  0.00     0.173 HD
BRANCH   4   6
HETATM    6  C8  UNL     1      35.352  93.813  28.741  1.00  0.00     0.198 C 
BRANCH   6   7
HETATM    7  C7  UNL     1      36.330  92.824  29.243  1.00  0.00     0.023 C 
HETATM    8  C2  UNL     1      37.707  93.362  29.550  1.00  0.00    -0.012 C 
HETATM    9  C1  UNL     1      38.324  92.396  30.578  1.00  0.00     0.010 C 
HETATM   10  C3  UNL     1      38.617  93.431  28.394  1.00  0.00     0.005 C 
HETATM   11  C4  UNL     1      38.091  93.013  27.065  1.00  0.00     0.000 C 
HETATM   12  C5  UNL     1      37.148  91.848  27.086  1.00  0.00     0.000 C 
HETATM   13  C6  UNL     1      36.531  91.594  28.423  1.00  0.00     0.007 C 
ENDBRANCH   6   7
BRANCH   6  14
HETATM   14  C19 UNL     1      33.932  93.389  28.932  1.00  0.00     0.197 C 
HETATM   15  O3  UNL     1      33.568  92.889  30.017  1.00  0.00    -0.646 OA
HETATM   16  O4  UNL     1      32.970  93.520  27.957  1.00  0.00    -0.646 OA
ENDBRANCH   6  14
ENDBRANCH   4   6
ENDBRANCH   1   4
BRANCH   1  17
HETATM   17  C9  UNL     1      34.010  96.984  27.884  1.00  0.00     0.095 A 
HETATM   18  C10 UNL     1      33.806  97.411  26.597  1.00  0.00     0.030 A 
HETATM   19  C11 UNL     1      32.532  97.833  26.218  1.00  0.00     0.050 A 
HETATM   20  C12 UNL     1      31.487  97.825  27.116  1.00  0.00     0.102 A 
HETATM   21  N3  UNL     1      31.729  97.400  28.365  1.00  0.00    -0.351 N 
HETATM   22  C18 UNL     1      32.947  96.989  28.757  1.00  0.00     0.115 A 
ATOM     23  H3  UNL     1      30.965  97.389  29.039  1.00  0.00     0.166 HD
BRANCH  20  24
HETATM   24  N2  UNL     1      30.196  98.261  26.707  1.00  0.00    -0.367 N 
HETATM   25  C13 UNL     1      29.049  97.428  27.009  1.00  0.00     0.124 C 
HETATM   26  C14 UNL     1      27.996  97.476  25.927  1.00  0.00     0.020 C 
HETATM   27  C15 UNL     1      27.624  98.892  25.557  1.00  0.00     0.003 C 
HETATM   28  C16 UNL     1      28.569  99.908  26.118  1.00  0.00     0.020 C 
HETATM   29  C17 UNL     1      30.023  99.501  26.010  1.00  0.00     0.124 C 
ENDBRANCH  20  24
ENDBRANCH   1  17
TORSDOF 6
ENDMDL
MODEL 3
REMARK VINA RESULT: -6.543539721      0.522      1.092
REMARK  6 active torsions:
REMARK  status: ('A' for Active; 'I' for Inactive)
REMARK    1  A    between atoms: C7_7  and  C8_8 
REMARK    2  A    between atoms: C8_8  and  N1_9 
REMARK    3  A    between atoms: C8_8  and  C19_27 
REMARK    4  A    between atoms: N1_9  and  S1_11 
REMARK    5  A    between atoms: S1_11  and  C9_14 
REMARK    6  A    between atoms: C12_17  and  N2_18 
ROOT
HETATM    1  S1  UNL     1      35.574  96.464  28.395  1.00  0.00     0.261 S 
HETATM    2  O1  UNL     1      36.322  97.650  28.950  1.00  0.00    -0.200 OA
HETATM    3  O2  UNL     1      36.256  96.004  27.108  1.00  0.00    -0.200 OA
ENDROOT
BRANCH   1   4
HETATM    4  N1  UNL     1      35.520  95.160  29.469  1.00  0.00    -0.300 N 
ATOM      5  H1  UNL     1      35.069  95.214  30.382  1.00  0.00     0.173 HD
BRANCH   4   6
HETATM    6  C8  UNL     1      36.176  93.943  28.976  1.00  0.00     0.198 C 
BRANCH   6   7
HETATM    7  C7  UNL     1      37.266  93.482  29.861  1.00  0.00     0.023 C 
HETATM    8  C2  UNL     1      37.824  94.518  30.808  1.00  0.00    -0.012 C 
HETATM    9  C1  UNL     1      38.443  93.738  31.982  1.00  0.00     0.010 C 
HETATM   10  C3  UNL     1      38.875  95.377  30.235  1.00  0.00     0.005 C 
HETATM   11  C4  UNL     1      39.244  95.172  28.807  1.00  0.00     0.000 C 
HETATM   12  C5  UNL     1      39.240  93.747  28.342  1.00  0.00     0.000 C 
HETATM   13  C6  UNL     1      38.439  92.831  29.209  1.00  0.00     0.007 C 
ENDBRANCH   6   7
BRANCH   6  14
HETATM   14  C19 UNL     1      35.057  92.961  28.856  1.00  0.00     0.197 C 
HETATM   15  O3  UNL     1      34.050  93.239  28.171  1.00  0.00    -0.646 OA
HETATM   16  O4  UNL     1      35.068  91.729  29.471  1.00  0.00    -0.646 OA
ENDBRANCH   6  14
ENDBRANCH   4   6
ENDBRANCH   1   4
BRANCH   1  17
HETATM   17  C9  UNL     1      33.981  96.978  27.937  1.00  0.00     0.095 A 
HETATM   18  C10 UNL     1      32.910  96.866  28.787  1.00  0.00     0.030 A 
HETATM   19  C11 UNL     1      31.657  97.298  28.356  1.00  0.00     0.050 A 
HETATM   20  C12 UNL     1      31.484  97.831  27.098  1.00  0.00     0.102 A 
HETATM   21  N3  UNL     1      32.556  97.922  26.297  1.00  0.00    -0.351 N 
HETATM   22  C18 UNL     1      33.776  97.513  26.686  1.00  0.00     0.115 A 
ATOM     23  H3  UNL     1      32.443  98.314  25.363  1.00  0.00     0.166 HD
BRANCH  20  24
HETATM   24  N2  UNL     1      30.195  98.264  26.680  1.00  0.00    -0.367 N 
HETATM   25  C13 UNL     1      29.045  97.441  26.995  1.00  0.00     0.124 C 
HETATM   26  C14 UNL     1      27.994  97.474  25.911  1.00  0.00     0.020 C 
HETATM   27  C15 UNL     1      27.627  98.885  25.515  1.00  0.00     0.003 C 
HETATM   28  C16 UNL     1      28.575  99.907  26.060  1.00  0.00     0.020 C 
HETATM   29  C17 UNL     1      30.027  99.493  25.960  1.00  0.00     0.124 C 
ENDBRANCH  20  24
ENDBRANCH   1  17
TORSDOF 6
ENDMDL
MODEL 4
REMARK VINA RESULT: -6.522839385      1.644      2.802
REMARK  6 active torsions:
REMARK  status: ('A' for Active; 'I' for Inactive)
REMARK    1  A    between atoms: C7_7  and  C8_8 
REMARK    2  A    between atoms: C8_8  and  N1_9 
REMARK    3  A    between atoms: C8_8  and  C19_27 
REMARK    4  A    between atoms: N1_9  and  S1_11 
REMARK    5  A    between atoms: S1_11  and  C9_14 
REMARK    6  A    between atoms: C12_17  and  N2_18 
ROOT
HETATM    1  S1  UNL     1      35.641  96.566  28.692  1.00  0.00     0.261 S 
HETATM    2  O1  UNL     1      35.464  96.045  30.096  1.00  0.00    -0.200 OA
HETATM    3  O2  UNL     1      36.491  97.834  28.736  1.00  0.00    -0.200 OA
ENDROOT
BRANCH   1   4
HETATM    4  N1  UNL     1      36.391  95.452  27.666  1.00  0.00    -0.300 N 
ATOM      5  H1  UNL     1      36.174  95.382  26.673  1.00  0.00     0.173 HD
BRANCH   4   6
HETATM    6  C8  UNL     1      37.382  94.594  28.328  1.00  0.00     0.198 C 
BRANCH   6   7
HETATM    7  C7  UNL     1      37.365  93.205  27.822  1.00  0.00     0.023 C 
HETATM    8  C2  UNL     1      36.100  92.426  28.093  1.00  0.00    -0.012 C 
HETATM    9  C1  UNL     1      36.038  91.324  27.020  1.00  0.00     0.010 C 
HETATM   10  C3  UNL     1      36.046  91.772  29.412  1.00  0.00     0.005 C 
HETATM   11  C4  UNL     1      37.195  91.973  30.339  1.00  0.00     0.000 C 
HETATM   12  C5  UNL     1      38.544  92.020  29.687  1.00  0.00     0.000 C 
HETATM   13  C6  UNL     1      38.498  92.324  28.225  1.00  0.00     0.007 C 
ENDBRANCH   6   7
BRANCH   6  14
HETATM   14  C19 UNL     1      38.678  95.296  28.082  1.00  0.00     0.197 C 
HETATM   15  O3  UNL     1      39.014  95.602  26.918  1.00  0.00    -0.646 OA
HETATM   16  O4  UNL     1      39.551  95.640  29.089  1.00  0.00    -0.646 OA
ENDBRANCH   6  14
ENDBRANCH   4   6
ENDBRANCH   1   4
BRANCH   1  17
HETATM   17  C9  UNL     1      34.090  97.050  28.080  1.00  0.00     0.095 A 
HETATM   18  C10 UNL     1      33.912  97.431  26.775  1.00  0.00     0.030 A 
HETATM   19  C11 UNL     1      32.639  97.807  26.348  1.00  0.00     0.050 A 
HETATM   20  C12 UNL     1      31.569  97.802  27.216  1.00  0.00     0.102 A 
HETATM   21  N3  UNL     1      31.787  97.424  28.484  1.00  0.00    -0.351 N 
HETATM   22  C18 UNL     1      33.002  97.056  28.923  1.00  0.00     0.115 A 
ATOM     23  H3  UNL     1      31.004  97.416  29.137  1.00  0.00     0.166 HD
BRANCH  20  24
HETATM   24  N2  UNL     1      30.280  98.192  26.758  1.00  0.00    -0.367 N 
HETATM   25  C13 UNL     1      29.146  97.339  27.052  1.00  0.00     0.124 C 
HETATM   26  C14 UNL     1      28.125  97.327  25.940  1.00  0.00     0.020 C 
HETATM   27  C15 UNL     1      27.728  98.722  25.516  1.00  0.00     0.003 C 
HETATM   28  C16 UNL     1      28.630  99.778  26.073  1.00  0.00     0.020 C 
HETATM   29  C17 UNL     1      30.096  99.406  26.019  1.00  0.00     0.124 C 
ENDBRANCH  20  24
ENDBRANCH   1  17
TORSDOF 6
ENDMDL
MODEL 5
REMARK VINA RESULT: -6.465585287      2.108      3.260
REMARK  6 active torsions:
REMARK  status: ('A' for Active; 'I' for Inactive)
REMARK    1  A    between atoms: C7_7  and  C8_8 
REMARK    2  A    between atoms: C8_8  and  N1_9 
REMARK    3  A    between atoms: C8_8  and  C19_27 
REMARK    4  A    between atoms: N1_9  and  S1_11 
REMARK    5  A    between atoms: S1_11  and  C9_14 
REMARK    6  A    between atoms: C12_17  and  N2_18 
ROOT
HETATM    1  S1  UNL     1      35.593  96.296  28.452  1.00  0.00     0.261 S 
HETATM    2  O1  UNL     1      36.262  97.382  29.257  1.00  0.00    -0.200 OA
HETATM    3  O2  UNL     1      36.372  96.085  27.156  1.00  0.00    -0.200 OA
ENDROOT
BRANCH   1   4
HETATM    4  N1  UNL     1      35.513  94.822  29.276  1.00  0.00    -0.300 N 
ATOM      5  H1  UNL     1      35.160  93.967  28.847  1.00  0.00     0.173 HD
BRANCH   4   6
HETATM    6  C8  UNL     1      35.994  94.878  30.662  1.00  0.00     0.198 C 
BRANCH   6   7
HETATM    7  C7  UNL     1      35.276  93.945  31.555  1.00  0.00     0.023 C 
HETATM    8  C2  UNL     1      33.798  93.788  31.288  1.00  0.00    -0.012 C 
HETATM    9  C1  UNL     1      33.403  92.412  31.854  1.00  0.00     0.010 C 
HETATM   10  C3  UNL     1      32.943  94.801  31.929  1.00  0.00     0.005 C 
HETATM   11  C4  UNL     1      33.605  95.873  32.723  1.00  0.00     0.000 C 
HETATM   12  C5  UNL     1      34.807  95.442  33.507  1.00  0.00     0.000 C 
HETATM   13  C6  UNL     1      35.418  94.168  33.023  1.00  0.00     0.007 C 
ENDBRANCH   6   7
BRANCH   6  14
HETATM   14  C19 UNL     1      37.453  94.576  30.542  1.00  0.00     0.197 C 
HETATM   15  O3  UNL     1      37.830  93.495  30.042  1.00  0.00    -0.646 OA
HETATM   16  O4  UNL     1      38.438  95.443  30.958  1.00  0.00    -0.646 OA
ENDBRANCH   6  14
ENDBRANCH   4   6
ENDBRANCH   1   4
BRANCH   1  17
HETATM   17  C9  UNL     1      34.016  96.847  27.980  1.00  0.00     0.095 A 
HETATM   18  C10 UNL     1      32.924  96.707  28.798  1.00  0.00     0.030 A 
HETATM   19  C11 UNL     1      31.686  97.172  28.358  1.00  0.00     0.050 A 
HETATM   20  C12 UNL     1      31.549  97.765  27.121  1.00  0.00     0.102 A 
HETATM   21  N3  UNL     1      32.642  97.881  26.352  1.00  0.00    -0.351 N 
HETATM   22  C18 UNL     1      33.848  97.441  26.750  1.00  0.00     0.115 A 
ATOM     23  H3  UNL     1      32.555  98.317  25.434  1.00  0.00     0.166 HD
BRANCH  20  24
HETATM   24  N2  UNL     1      30.275  98.230  26.692  1.00  0.00    -0.367 N 
HETATM   25  C13 UNL     1      29.101  97.438  27.001  1.00  0.00     0.124 C 
HETATM   26  C14 UNL     1      28.059  97.496  25.910  1.00  0.00     0.020 C 
HETATM   27  C15 UNL     1      27.732  98.914  25.507  1.00  0.00     0.003 C 
HETATM   28  C16 UNL     1      28.703  99.913  26.056  1.00  0.00     0.020 C 
HETATM   29  C17 UNL     1      30.145  99.460  25.968  1.00  0.00     0.124 C 
ENDBRANCH  20  24
ENDBRANCH   1  17
TORSDOF 6
ENDMDL
