MODEL 1
REMARK VINA RESULT: -6.584259287      0.000      0.000
REMARK  7 active torsions:
REMARK  status: ('A' for Active; 'I' for Inactive)
REMARK    1  A    between atoms: N1_4  and  C4_5 
REMARK    2  A    between atoms: C7_8  and  C8_9 
REMARK    3  A    between atoms: C8_9  and  C9_10 
REMARK    4  A    between atoms: C9_10  and  N2_11 
REMARK    5  A    between atoms: C12_14  and  C13_15 
REMARK    6  A    between atoms: C13_15  and  C14_16 
REMARK    7  A    between atoms: C19_21  and  O1_22 
ROOT
HETATM    1  C4  UNL     1      37.504  95.890  28.267  1.00  0.00     0.096 C 
HETATM    2  C5  UNL     1      36.180  96.223  27.575  1.00  0.00     0.026 C 
HETATM    3  C6  UNL     1      35.438  97.296  28.350  1.00  0.00     0.009 C 
HETATM    4  C7  UNL     1      35.114  96.888  29.753  1.00  0.00     0.016 C 
HETATM    5  C19 UNL     1      35.882  95.623  30.147  1.00  0.00     0.124 C 
HETATM    6  C20 UNL     1      37.341  95.750  29.734  1.00  0.00     0.057 C 
ENDROOT
BRANCH   4   7
HETATM    7  C8  UNL     1      33.626  96.535  29.831  1.00  0.00     0.037 C 
BRANCH   7   8
HETATM    8  C9  UNL     1      33.343  95.148  29.333  1.00  0.00     0.273 C 
BRANCH   8   9
HETATM    9  N2  UNL     1      32.180  95.178  28.452  1.00  0.00     0.088 N 
HETATM   10  C10 UNL     1      30.963  95.210  29.254  1.00  0.00     0.272 C 
HETATM   11  C11 UNL     1      30.037  96.349  28.911  1.00  0.00     0.035 C 
HETATM   12  C12 UNL     1      29.742  96.230  27.439  1.00  0.00    -0.011 C 
HETATM   13  C17 UNL     1      31.028  96.279  26.652  1.00  0.00     0.035 C 
HETATM   14  C18 UNL     1      32.266  96.285  27.521  1.00  0.00     0.272 C 
BRANCH  12  15
HETATM   15  C13 UNL     1      28.619  97.016  26.939  1.00  0.00     0.008 C 
BRANCH  15  16
HETATM   16  C14 UNL     1      28.795  98.200  26.090  1.00  0.00    -0.022 C 
HETATM   17  C15 UNL     1      27.555  98.623  25.300  1.00  0.00     0.009 C 
HETATM   18  C16 UNL     1      29.433  99.401  26.697  1.00  0.00     0.009 C 
ENDBRANCH  15  16
ENDBRANCH  12  15
ENDBRANCH   8   9
ENDBRANCH   7   8
ENDBRANCH   4   7
BRANCH   5  19
HETATM   19  O1  UNL     1      35.838  95.529  31.530  1.00  0.00    -0.395 OA
ATOM     20  H1  UNL     1      36.618  95.063  31.806  1.00  0.00     0.210 HD
ENDBRANCH   5  19
BRANCH   1  21
HETATM   21  N1  UNL     1      37.993  94.698  27.645  1.00  0.00    -0.304 N 
HETATM   22  C3  UNL     1      37.361  93.537  27.721  1.00  0.00     0.108 A 
HETATM   23  C2  UNL     1      37.876  92.398  27.090  1.00  0.00     0.022 A 
HETATM   24  C1  UNL     1      37.190  91.088  27.173  1.00  0.00     0.056 C 
HETATM   25  C22 UNL     1      39.045  92.476  26.383  1.00  0.00     0.256 A 
HETATM   26  N3  UNL     1      39.680  93.668  26.313  1.00  0.00    -0.275 N 
HETATM   27  O3  UNL     1      39.508  91.447  25.813  1.00  0.00    -0.267 OA
HETATM   28  C21 UNL     1      39.150  94.733  26.934  1.00  0.00     0.329 A 
ATOM     29  H3  UNL     1      40.553  93.756  25.793  1.00  0.00     0.173 HD
HETATM   30  O2  UNL     1      39.737  95.853  26.876  1.00  0.00    -0.246 OA
ENDBRANCH   1  21
TORSDOF 7
ENDMDL
MODEL 2
REMARK VINA RESULT: -6.582259129      3.453      8.989
REMARK  7 active torsions:
REMARK  status: ('A' for Active; 'I' for Inactive)
REMARK    1  A    between atoms: N1_4  and  C4_5 
REMARK    2  A    between atoms: C7_8  and  C8_9 
REMARK    3  A    between atoms: C8_9  and  C9_10 
REMARK    4  A    between atoms: C9_10  and  N2_11 
REMARK    5  A    between atoms: C12_14  and  C13_15 
REMARK    6  A    between atoms: C13_15  and  C14_16 
REMARK    7  A    between atoms: C19_21  and  O1_22 
ROOT
HETATM    1  C4  UNL     1      31.516  97.549  28.035  1.00  0.00     0.096 C 
HETATM    2  C5  UNL     1      32.102  96.488  28.970  1.00  0.00     0.026 C 
HETATM    3  C6  UNL     1      33.491  96.898  29.422  1.00  0.00     0.009 C 
HETATM    4  C7  UNL     1      34.452  97.068  28.286  1.00  0.00     0.016 C 
HETATM    5  C19 UNL     1      33.715  97.091  26.944  1.00  0.00     0.124 C 
HETATM    6  C20 UNL     1      32.504  98.010  27.031  1.00  0.00     0.057 C 
ENDROOT
BRANCH   4   7
HETATM    7  C8  UNL     1      35.386  95.856  28.248  1.00  0.00     0.037 C 
BRANCH   7   8
HETATM    8  C9  UNL     1      36.108  95.652  29.547  1.00  0.00     0.273 C 
BRANCH   8   9
HETATM    9  N2  UNL     1      37.414  95.055  29.286  1.00  0.00     0.088 N 
HETATM   10  C10 UNL     1      37.572  94.836  27.854  1.00  0.00     0.272 C 
HETATM   11  C11 UNL     1      38.822  95.452  27.278  1.00  0.00     0.035 C 
HETATM   12  C12 UNL     1      39.976  94.893  28.067  1.00  0.00    -0.011 C 
HETATM   13  C17 UNL     1      39.801  95.213  29.531  1.00  0.00     0.035 C 
HETATM   14  C18 UNL     1      38.474  95.867  29.850  1.00  0.00     0.272 C 
BRANCH  12  15
HETATM   15  C13 UNL     1      41.304  95.083  27.494  1.00  0.00     0.008 C 
BRANCH  15  16
HETATM   16  C14 UNL     1      41.736  96.351  26.897  1.00  0.00    -0.022 C 
HETATM   17  C15 UNL     1      42.905  97.039  27.606  1.00  0.00     0.009 C 
HETATM   18  C16 UNL     1      41.956  96.386  25.424  1.00  0.00     0.009 C 
ENDBRANCH  15  16
ENDBRANCH  12  15
ENDBRANCH   8   9
ENDBRANCH   7   8
ENDBRANCH   4   7
BRANCH   5  19
HETATM   19  O1  UNL     1      34.586  97.624  26.006  1.00  0.00    -0.395 OA
ATOM     20  H1  UNL     1      34.175  98.402  25.648  1.00  0.00     0.210 HD
ENDBRANCH   5  19
BRANCH   1  21
HETATM   21  N1  UNL     1      30.352  96.963  27.444  1.00  0.00    -0.304 N 
HETATM   22  C3  UNL     1      30.254  95.669  27.182  1.00  0.00     0.108 A 
HETATM   23  C2  UNL     1      29.091  95.140  26.607  1.00  0.00     0.022 A 
HETATM   24  C1  UNL     1      28.967  93.697  26.297  1.00  0.00     0.056 C 
HETATM   25  C22 UNL     1      28.040  95.963  26.309  1.00  0.00     0.256 A 
HETATM   26  N3  UNL     1      28.153  97.283  26.581  1.00  0.00    -0.275 N 
HETATM   27  O3  UNL     1      26.991  95.484  25.791  1.00  0.00    -0.267 OA
HETATM   28  C21 UNL     1      29.286  97.746  27.132  1.00  0.00     0.329 A 
ATOM     29  H3  UNL     1      27.385  97.920  26.370  1.00  0.00     0.173 HD
HETATM   30  O2  UNL     1      29.404  98.979  27.389  1.00  0.00    -0.246 OA
ENDBRANCH   1  21
TORSDOF 7
ENDMDL
MODEL 3
REMARK VINA RESULT: -6.522904109      3.359      8.874
REMARK  7 active torsions:
REMARK  status: ('A' for Active; 'I' for Inactive)
REMARK    1  A    between atoms: N1_4  and  C4_5 
REMARK    2  A    between atoms: C7_8  and  C8_9 
REMARK    3  A    between atoms: C8_9  and  C9_10 
REMARK    4  A    between atoms: C9_10  and  N2_11 
REMARK    5  A    between atoms: C12_14  and  C13_15 
REMARK    6  A    between atoms: C13_15  and  C14_16 
REMARK    7  A    between atoms: C19_21  and  O1_22 
ROOT
HETATM    1  C4  UNL     1      31.285  97.508  27.822  1.00  0.00     0.096 C 
HETATM    2  C5  UNL     1      31.882  96.592  28.893  1.00  0.00     0.026 C 
HETATM    3  C6  UNL     1      33.219  97.136  29.361  1.00  0.00     0.009 C 
HETATM    4  C7  UNL     1      34.226  97.244  28.259  1.00  0.00     0.016 C 
HETATM    5  C19 UNL     1      33.561  97.077  26.890  1.00  0.00     0.124 C 
HETATM    6  C20 UNL     1      32.296  97.920  26.819  1.00  0.00     0.057 C 
ENDROOT
BRANCH   4   7
HETATM    7  C8  UNL     1      35.231  96.098  28.396  1.00  0.00     0.037 C 
BRANCH   7   8
HETATM    8  C9  UNL     1      36.170  96.298  29.550  1.00  0.00     0.273 C 
BRANCH   8   9
HETATM    9  N2  UNL     1      37.539  96.053  29.107  1.00  0.00     0.088 N 
HETATM   10  C10 UNL     1      38.146  95.029  29.947  1.00  0.00     0.272 C 
HETATM   11  C11 UNL     1      38.722  93.869  29.174  1.00  0.00     0.035 C 
HETATM   12  C12 UNL     1      39.705  94.456  28.195  1.00  0.00    -0.011 C 
HETATM   13  C17 UNL     1      39.009  95.452  27.302  1.00  0.00     0.035 C 
HETATM   14  C18 UNL     1      37.573  95.716  27.698  1.00  0.00     0.272 C 
BRANCH  12  15
HETATM   15  C13 UNL     1      40.627  93.518  27.563  1.00  0.00     0.008 C 
BRANCH  15  16
HETATM   16  C14 UNL     1      40.501  93.106  26.161  1.00  0.00    -0.022 C 
HETATM   17  C15 UNL     1      41.826  92.848  25.439  1.00  0.00     0.009 C 
HETATM   18  C16 UNL     1      39.538  92.018  25.840  1.00  0.00     0.009 C 
ENDBRANCH  15  16
ENDBRANCH  12  15
ENDBRANCH   8   9
ENDBRANCH   7   8
ENDBRANCH   4   7
BRANCH   5  19
HETATM   19  O1  UNL     1      34.448  97.560  25.939  1.00  0.00    -0.395 OA
ATOM     20  H1  UNL     1      33.952  98.112  25.345  1.00  0.00     0.210 HD
ENDBRANCH   5  19
BRANCH   1  21
HETATM   21  N1  UNL     1      30.190  96.789  27.246  1.00  0.00    -0.304 N 
HETATM   22  C3  UNL     1      30.182  95.471  27.120  1.00  0.00     0.108 A 
HETATM   23  C2  UNL     1      29.085  94.811  26.555  1.00  0.00     0.022 A 
HETATM   24  C1  UNL     1      29.063  93.338  26.396  1.00  0.00     0.056 C 
HETATM   25  C22 UNL     1      28.002  95.528  26.123  1.00  0.00     0.256 A 
HETATM   26  N3  UNL     1      28.022  96.873  26.257  1.00  0.00    -0.275 N 
HETATM   27  O3  UNL     1      27.012  94.930  25.614  1.00  0.00    -0.267 OA
HETATM   28  C21 UNL     1      29.096  97.464  26.805  1.00  0.00     0.329 A 
ATOM     29  H3  UNL     1      27.229  97.434  25.945  1.00  0.00     0.173 HD
HETATM   30  O2  UNL     1      29.126  98.722  26.933  1.00  0.00    -0.246 OA
ENDBRANCH   1  21
TORSDOF 7
ENDMDL
MODEL 4
REMARK VINA RESULT: -6.472251722      0.983      1.487
REMARK  7 active torsions:
REMARK  status: ('A' for Active; 'I' for Inactive)
REMARK    1  A    between atoms: N1_4  and  C4_5 
REMARK    2  A    between atoms: C7_8  and  C8_9 
REMARK    3  A    between atoms: C8_9  and  C9_10 
REMARK    4  A    between atoms: C9_10  and  N2_11 
REMARK    5  A    between atoms: C12_14  and  C13_15 
REMARK    6  A    between atoms: C13_15  and  C14_16 
REMARK    7  A    between atoms: C19_21  and  O1_22 
ROOT
HETATM    1  C4  UNL     1      38.319  95.729  28.136  1.00  0.00     0.096 C 
HETATM    2  C5  UNL     1      36.912  96.021  27.607  1.00  0.00     0.026 C 
HETATM    3  C6  UNL     1      36.166  96.922  28.574  1.00  0.00     0.009 C 
HETATM    4  C7  UNL     1      36.012  96.321  29.936  1.00  0.00     0.016 C 
HETATM    5  C19 UNL     1      36.913  95.093  30.098  1.00  0.00     0.124 C 
HETATM    6  C20 UNL     1      38.311  95.401  29.581  1.00  0.00     0.057 C 
ENDROOT
BRANCH   4   7
HETATM    7  C8  UNL     1      34.572  95.827  30.095  1.00  0.00     0.037 C 
BRANCH   7   8
HETATM    8  C9  UNL     1      33.947  95.458  28.782  1.00  0.00     0.273 C 
BRANCH   8   9
HETATM    9  N2  UNL     1      32.708  96.210  28.608  1.00  0.00     0.088 N 
HETATM   10  C10 UNL     1      32.871  97.173  27.526  1.00  0.00     0.272 C 
HETATM   11  C11 UNL     1      31.816  97.068  26.453  1.00  0.00     0.035 C 
HETATM   12  C12 UNL     1      30.487  97.214  27.146  1.00  0.00    -0.011 C 
HETATM   13  C17 UNL     1      30.339  96.148  28.203  1.00  0.00     0.035 C 
HETATM   14  C18 UNL     1      31.587  95.315  28.399  1.00  0.00     0.272 C 
BRANCH  12  15
HETATM   15  C13 UNL     1      29.336  97.473  26.289  1.00  0.00     0.008 C 
BRANCH  15  16
HETATM   16  C14 UNL     1      28.715  98.797  26.173  1.00  0.00    -0.022 C 
HETATM   17  C15 UNL     1      29.658  99.920  25.737  1.00  0.00     0.009 C 
HETATM   18  C16 UNL     1      27.435  98.900  25.420  1.00  0.00     0.009 C 
ENDBRANCH  15  16
ENDBRANCH  12  15
ENDBRANCH   8   9
ENDBRANCH   7   8
ENDBRANCH   4   7
BRANCH   5  19
HETATM   19  O1  UNL     1      37.010  94.831  31.457  1.00  0.00    -0.395 OA
ATOM     20  H1  UNL     1      36.242  94.327  31.703  1.00  0.00     0.210 HD
ENDBRANCH   5  19
BRANCH   1  21
HETATM   21  N1  UNL     1      38.839  94.670  27.327  1.00  0.00    -0.304 N 
HETATM   22  C3  UNL     1      38.306  93.458  27.301  1.00  0.00     0.108 A 
HETATM   23  C2  UNL     1      38.847  92.454  26.488  1.00  0.00     0.022 A 
HETATM   24  C1  UNL     1      38.272  91.090  26.454  1.00  0.00     0.056 C 
HETATM   25  C22 UNL     1      39.939  92.719  25.708  1.00  0.00     0.256 A 
HETATM   26  N3  UNL     1      40.474  93.961  25.743  1.00  0.00    -0.275 N 
HETATM   27  O3  UNL     1      40.426  91.812  24.974  1.00  0.00    -0.267 OA
HETATM   28  C21 UNL     1      39.923  94.892  26.538  1.00  0.00     0.329 A 
ATOM     29  H3  UNL     1      41.288  94.187  25.172  1.00  0.00     0.173 HD
HETATM   30  O2  UNL     1      40.416  96.056  26.580  1.00  0.00    -0.246 OA
ENDBRANCH   1  21
TORSDOF 7
ENDMDL
MODEL 5
REMARK VINA RESULT: -6.464894039      1.445      1.993
REMARK  7 active torsions:
REMARK  status: ('A' for Active; 'I' for Inactive)
REMARK    1  A    between atoms: N1_4  and  C4_5 
REMARK    2  A    between atoms: C7_8  and  C8_9 
REMARK    3  A    between atoms: C8_9  and  C9_10 
REMARK    4  A    between atoms: C9_10  and  N2_11 
REMARK    5  A    between atoms: C12_14  and  C13_15 
REMARK    6  A    between atoms: C13_15  and  C14_16 
REMARK    7  A    between atoms: C19_21  and  O1_22 
ROOT
HETATM    1  C4  UNL     1      37.286  95.949  28.252  1.00  0.00     0.096 C 
HETATM    2  C5  UNL     1      35.976  96.255  27.521  1.00  0.00     0.026 C 
HETATM    3  C6  UNL     1      35.208  97.340  28.253  1.00  0.00     0.009 C 
HETATM    4  C7  UNL     1      34.854  96.962  29.658  1.00  0.00     0.016 C 
HETATM    5  C19 UNL     1      35.622  95.713  30.099  1.00  0.00     0.124 C 
HETATM    6  C20 UNL     1      37.090  95.841  29.718  1.00  0.00     0.057 C 
ENDROOT
BRANCH   4   7
HETATM    7  C8  UNL     1      33.368  96.599  29.709  1.00  0.00     0.037 C 
BRANCH   7   8
HETATM    8  C9  UNL     1      32.587  97.235  28.596  1.00  0.00     0.273 C 
BRANCH   8   9
HETATM    9  N2  UNL     1      31.356  96.483  28.378  1.00  0.00     0.088 N 
HETATM   10  C10 UNL     1      30.326  97.375  27.860  1.00  0.00     0.272 C 
HETATM   11  C11 UNL     1      29.696  96.898  26.576  1.00  0.00     0.035 C 
HETATM   12  C12 UNL     1      29.164  95.516  26.850  1.00  0.00    -0.011 C 
HETATM   13  C17 UNL     1      30.283  94.616  27.309  1.00  0.00     0.035 C 
HETATM   14  C18 UNL     1      31.594  95.342  27.517  1.00  0.00     0.272 C 
BRANCH  12  15
HETATM   15  C13 UNL     1      28.229  94.977  25.868  1.00  0.00     0.008 C 
BRANCH  15  16
HETATM   16  C14 UNL     1      26.903  94.466  26.232  1.00  0.00    -0.022 C 
HETATM   17  C15 UNL     1      26.011  95.454  26.986  1.00  0.00     0.009 C 
HETATM   18  C16 UNL     1      26.108  93.782  25.175  1.00  0.00     0.009 C 
ENDBRANCH  15  16
ENDBRANCH  12  15
ENDBRANCH   8   9
ENDBRANCH   7   8
ENDBRANCH   4   7
BRANCH   5  19
HETATM   19  O1  UNL     1      35.546  95.651  31.483  1.00  0.00    -0.395 OA
ATOM     20  H1  UNL     1      34.775  96.140  31.745  1.00  0.00     0.210 HD
ENDBRANCH   5  19
BRANCH   1  21
HETATM   21  N1  UNL     1      37.798  94.747  27.669  1.00  0.00    -0.304 N 
HETATM   22  C3  UNL     1      37.159  93.588  27.733  1.00  0.00     0.108 A 
HETATM   23  C2  UNL     1      37.698  92.439  27.141  1.00  0.00     0.022 A 
HETATM   24  C1  UNL     1      37.004  91.133  27.212  1.00  0.00     0.056 C 
HETATM   25  C22 UNL     1      38.899  92.504  26.488  1.00  0.00     0.256 A 
HETATM   26  N3  UNL     1      39.541  93.693  26.430  1.00  0.00    -0.275 N 
HETATM   27  O3  UNL     1      39.383  91.466  25.954  1.00  0.00    -0.267 OA
HETATM   28  C21 UNL     1      38.987  94.769  27.011  1.00  0.00     0.329 A 
ATOM     29  H3  UNL     1      40.437  93.771  25.949  1.00  0.00     0.173 HD
HETATM   30  O2  UNL     1      39.579  95.885  26.965  1.00  0.00    -0.246 OA
ENDBRANCH   1  21
TORSDOF 7
ENDMDL
