MODEL 1
REMARK VINA RESULT: -6.777292311      0.000      0.000
REMARK  5 active torsions:
REMARK  status: ('A' for Active; 'I' for Inactive)
REMARK    1  A    between atoms: N1_1  and  C1_4 
REMARK    2  A    between atoms: C2_7  and  O1_8 
REMARK    3  A    between atoms: C3_10  and  C4_11 
REMARK    4  A    between atoms: C9_16  and  N3_17 
REMARK    5  A    between atoms: C15_23  and  C16_24 
ROOT
HETATM    1  C4  UNL     1      12.386  34.659  16.605  1.00  0.00    -0.015 C 
HETATM    2  C5  UNL     1      12.731  33.269  16.157  1.00  0.00     0.039 C 
HETATM    3  C6  UNL     1      13.296  33.243  14.760  1.00  0.00     0.004 C 
HETATM    4  C7  UNL     1      13.424  34.482  13.988  1.00  0.00     0.003 C 
HETATM    5  C8  UNL     1      12.915  35.768  14.522  1.00  0.00     0.040 C 
HETATM    6  C9  UNL     1      11.820  35.502  15.515  1.00  0.00     0.254 C 
ENDROOT
BRANCH   1   7
HETATM    7  C3  UNL     1      13.118  35.215  17.723  1.00  0.00     0.105 A 
HETATM    8  C2  UNL     1      13.313  34.694  19.012  1.00  0.00     0.183 A 
HETATM    9  N2  UNL     1      14.169  35.424  19.724  1.00  0.00    -0.169 N 
HETATM   10  C1  UNL     1      14.557  36.447  18.912  1.00  0.00     0.678 A 
ATOM     11  H2  UNL     1      14.474  35.252  20.682  1.00  0.00     0.186 HD
HETATM   12  N4  UNL     1      13.937  36.314  17.755  1.00  0.00    -0.188 N 
ATOM     13  H4  UNL     1      14.055  36.956  16.972  1.00  0.00     0.184 HD
BRANCH   8  14
HETATM   14  O1  UNL     1      12.701  33.562  19.529  1.00  0.00    -0.344 OA
ATOM     15  H1  UNL     1      13.126  32.712  19.525  1.00  0.00     0.219 HD
ENDBRANCH   8  14
BRANCH  10  16
HETATM   16  N1  UNL     1      15.449  37.347  19.295  1.00  0.00    -0.234 N 
ATOM     17  H12 UNL     1      15.530  37.848  20.179  1.00  0.00     0.174 HD
ATOM     18  H11 UNL     1      16.184  37.680  18.670  1.00  0.00     0.174 HD
ENDBRANCH  10  16
ENDBRANCH   1   7
BRANCH   6  19
HETATM   19  N3  UNL     1      10.780  34.681  14.881  1.00  0.00     0.098 N 
HETATM   20  C10 UNL     1      10.202  35.200  13.685  1.00  0.00     0.284 C 
HETATM   21  C11 UNL     1       8.827  34.888  14.256  1.00  0.00     0.013 C 
HETATM   22  C12 UNL     1       7.910  36.059  14.167  1.00  0.00     0.013 C 
HETATM   23  C17 UNL     1       8.232  33.596  13.802  1.00  0.00     0.024 C 
HETATM   24  C18 UNL     1       9.534  34.773  15.590  1.00  0.00     0.284 C 
HETATM   25  C13 UNL     1       7.210  36.122  12.838  1.00  0.00     0.002 C 
HETATM   26  C14 UNL     1       6.660  34.814  12.373  1.00  0.00     0.011 C 
HETATM   27  C15 UNL     1       7.725  33.736  12.387  1.00  0.00     0.048 C 
BRANCH  27  28
HETATM   28  C16 UNL     1       7.133  32.480  11.876  1.00  0.00     0.235 C 
HETATM   29  O2  UNL     1       6.658  31.728  12.717  1.00  0.00    -0.306 OA
ENDBRANCH  27  28
ENDBRANCH   6  19
TORSDOF 5
ENDMDL
MODEL 2
REMARK VINA RESULT: -6.592418901      1.229      1.446
REMARK  5 active torsions:
REMARK  status: ('A' for Active; 'I' for Inactive)
REMARK    1  A    between atoms: N1_1  and  C1_4 
REMARK    2  A    between atoms: C2_7  and  O1_8 
REMARK    3  A    between atoms: C3_10  and  C4_11 
REMARK    4  A    between atoms: C9_16  and  N3_17 
REMARK    5  A    between atoms: C15_23  and  C16_24 
ROOT
HETATM    1  C4  UNL     1      12.681  34.717  17.061  1.00  0.00    -0.015 C 
HETATM    2  C5  UNL     1      13.005  33.327  16.596  1.00  0.00     0.039 C 
HETATM    3  C6  UNL     1      13.552  33.309  15.191  1.00  0.00     0.004 C 
HETATM    4  C7  UNL     1      13.685  34.554  14.430  1.00  0.00     0.003 C 
HETATM    5  C8  UNL     1      13.198  35.839  14.982  1.00  0.00     0.040 C 
HETATM    6  C9  UNL     1      12.111  35.577  15.986  1.00  0.00     0.254 C 
ENDROOT
BRANCH   1   7
HETATM    7  C3  UNL     1      13.433  35.253  18.175  1.00  0.00     0.105 A 
HETATM    8  C2  UNL     1      13.834  36.574  18.431  1.00  0.00     0.183 A 
HETATM    9  N2  UNL     1      14.386  36.707  19.635  1.00  0.00    -0.169 N 
HETATM   10  C1  UNL     1      14.358  35.468  20.200  1.00  0.00     0.678 A 
ATOM     11  H2  UNL     1      14.754  37.563  20.050  1.00  0.00     0.186 HD
HETATM   12  N4  UNL     1      13.804  34.634  19.341  1.00  0.00    -0.188 N 
ATOM     13  H4  UNL     1      13.667  33.640  19.524  1.00  0.00     0.184 HD
BRANCH   8  14
HETATM   14  O1  UNL     1      13.701  37.644  17.558  1.00  0.00    -0.344 OA
ATOM     15  H1  UNL     1      14.091  37.640  16.692  1.00  0.00     0.219 HD
ENDBRANCH   8  14
BRANCH  10  16
HETATM   16  N1  UNL     1      14.794  35.248  21.431  1.00  0.00    -0.234 N 
ATOM     17  H12 UNL     1      14.306  34.845  22.231  1.00  0.00     0.174 HD
ATOM     18  H11 UNL     1      15.731  35.517  21.729  1.00  0.00     0.174 HD
ENDBRANCH  10  16
ENDBRANCH   1   7
BRANCH   6  19
HETATM   19  N3  UNL     1      11.055  34.773  15.357  1.00  0.00     0.098 N 
HETATM   20  C10 UNL     1      10.507  35.283  14.144  1.00  0.00     0.284 C 
HETATM   21  C11 UNL     1       9.116  35.025  14.703  1.00  0.00     0.013 C 
HETATM   22  C12 UNL     1       8.237  36.221  14.578  1.00  0.00     0.013 C 
HETATM   23  C17 UNL     1       8.488  33.742  14.270  1.00  0.00     0.024 C 
HETATM   24  C18 UNL     1       9.804  34.918  16.048  1.00  0.00     0.284 C 
HETATM   25  C13 UNL     1       7.555  36.275  13.238  1.00  0.00     0.002 C 
HETATM   26  C14 UNL     1       6.970  34.975  12.796  1.00  0.00     0.011 C 
HETATM   27  C15 UNL     1       8.002  33.866  12.847  1.00  0.00     0.048 C 
BRANCH  27  28
HETATM   28  C16 UNL     1       7.378  32.616  12.356  1.00  0.00     0.235 C 
HETATM   29  O2  UNL     1       6.485  32.152  13.052  1.00  0.00    -0.306 OA
ENDBRANCH  27  28
ENDBRANCH   6  19
TORSDOF 5
ENDMDL
MODEL 3
REMARK VINA RESULT: -6.515472931      4.436      7.122
REMARK  5 active torsions:
REMARK  status: ('A' for Active; 'I' for Inactive)
REMARK    1  A    between atoms: N1_1  and  C1_4 
REMARK    2  A    between atoms: C2_7  and  O1_8 
REMARK    3  A    between atoms: C3_10  and  C4_11 
REMARK    4  A    between atoms: C9_16  and  N3_17 
REMARK    5  A    between atoms: C15_23  and  C16_24 
ROOT
HETATM    1  C4  UNL     1      12.954  37.448  11.527  1.00  0.00    -0.015 C 
HETATM    2  C5  UNL     1      14.397  37.200  11.856  1.00  0.00     0.039 C 
HETATM    3  C6  UNL     1      14.815  35.784  11.553  1.00  0.00     0.004 C 
HETATM    4  C7  UNL     1      13.845  34.819  11.031  1.00  0.00     0.003 C 
HETATM    5  C8  UNL     1      12.416  35.181  10.881  1.00  0.00     0.040 C 
HETATM    6  C9  UNL     1      12.074  36.287  11.838  1.00  0.00     0.254 C 
ENDROOT
BRANCH   1   7
HETATM    7  C3  UNL     1      12.648  38.403  10.483  1.00  0.00     0.105 A 
HETATM    8  C2  UNL     1      12.953  38.359   9.113  1.00  0.00     0.183 A 
HETATM    9  N2  UNL     1      12.378  39.352   8.438  1.00  0.00    -0.169 N 
HETATM   10  C1  UNL     1      11.678  40.074   9.356  1.00  0.00     0.678 A 
ATOM     11  H2  UNL     1      12.447  39.534   7.437  1.00  0.00     0.186 HD
HETATM   12  N4  UNL     1      11.846  39.513  10.539  1.00  0.00    -0.188 N 
ATOM     13  H4  UNL     1      11.425  39.865  11.399  1.00  0.00     0.184 HD
BRANCH   8  14
HETATM   14  O1  UNL     1      13.762  37.417   8.494  1.00  0.00    -0.344 OA
ATOM     15  H1  UNL     1      13.992  36.596   8.912  1.00  0.00     0.219 HD
ENDBRANCH   8  14
BRANCH  10  16
HETATM   16  N1  UNL     1      10.943  41.121   9.014  1.00  0.00    -0.234 N 
ATOM     17  H12 UNL     1      10.024  41.408   9.351  1.00  0.00     0.174 HD
ATOM     18  H11 UNL     1      11.239  41.776   8.291  1.00  0.00     0.174 HD
ENDBRANCH  10  16
ENDBRANCH   1   7
BRANCH   6  19
HETATM   19  N3  UNL     1      12.432  35.876  13.202  1.00  0.00     0.098 N 
HETATM   20  C10 UNL     1      11.760  34.728  13.716  1.00  0.00     0.284 C 
HETATM   21  C11 UNL     1      11.483  35.504  14.994  1.00  0.00     0.013 C 
HETATM   22  C12 UNL     1      10.046  35.436  15.385  1.00  0.00     0.013 C 
HETATM   23  C17 UNL     1      12.444  35.253  16.108  1.00  0.00     0.024 C 
HETATM   24  C18 UNL     1      11.831  36.736  14.184  1.00  0.00     0.284 C 
HETATM   25  C13 UNL     1       9.749  34.213  16.208  1.00  0.00     0.002 C 
HETATM   26  C14 UNL     1      10.743  33.947  17.290  1.00  0.00     0.011 C 
HETATM   27  C15 UNL     1      12.155  33.913  16.740  1.00  0.00     0.048 C 
BRANCH  27  28
HETATM   28  C16 UNL     1      13.086  33.602  17.847  1.00  0.00     0.235 C 
HETATM   29  O2  UNL     1      12.598  33.575  18.969  1.00  0.00    -0.306 OA
ENDBRANCH  27  28
ENDBRANCH   6  19
TORSDOF 5
ENDMDL
MODEL 4
REMARK VINA RESULT: -6.482922678      4.346      6.125
REMARK  5 active torsions:
REMARK  status: ('A' for Active; 'I' for Inactive)
REMARK    1  A    between atoms: N1_1  and  C1_4 
REMARK    2  A    between atoms: C2_7  and  O1_8 
REMARK    3  A    between atoms: C3_10  and  C4_11 
REMARK    4  A    between atoms: C9_16  and  N3_17 
REMARK    5  A    between atoms: C15_23  and  C16_24 
ROOT
HETATM    1  C4  UNL     1      12.948  35.400  14.669  1.00  0.00    -0.015 C 
HETATM    2  C5  UNL     1      11.987  36.549  14.582  1.00  0.00     0.039 C 
HETATM    3  C6  UNL     1      10.811  36.243  13.689  1.00  0.00     0.004 C 
HETATM    4  C7  UNL     1      10.719  34.954  12.999  1.00  0.00     0.003 C 
HETATM    5  C8  UNL     1      11.819  33.965  13.082  1.00  0.00     0.040 C 
HETATM    6  C9  UNL     1      13.111  34.673  13.378  1.00  0.00     0.254 C 
ENDROOT
BRANCH   1   7
HETATM    7  C3  UNL     1      13.129  34.760  15.954  1.00  0.00     0.105 A 
HETATM    8  C2  UNL     1      14.313  34.456  16.644  1.00  0.00     0.183 A 
HETATM    9  N2  UNL     1      14.076  33.998  17.871  1.00  0.00    -0.169 N 
HETATM   10  C1  UNL     1      12.721  33.993  18.015  1.00  0.00     0.678 A 
ATOM     11  H2  UNL     1      14.768  33.711  18.564  1.00  0.00     0.186 HD
HETATM   12  N4  UNL     1      12.184  34.435  16.894  1.00  0.00    -0.188 N 
ATOM     13  H4  UNL     1      11.180  34.527  16.744  1.00  0.00     0.184 HD
BRANCH   8  14
HETATM   14  O1  UNL     1      15.599  34.590  16.142  1.00  0.00    -0.344 OA
ATOM     15  H1  UNL     1      15.837  35.289  15.545  1.00  0.00     0.219 HD
ENDBRANCH   8  14
BRANCH  10  16
HETATM   16  N1  UNL     1      12.137  33.631  19.147  1.00  0.00    -0.234 N 
ATOM     17  H12 UNL     1      12.027  32.703  19.555  1.00  0.00     0.174 HD
ATOM     18  H11 UNL     1      11.669  34.305  19.753  1.00  0.00     0.174 HD
ENDBRANCH  10  16
ENDBRANCH   1   7
BRANCH   6  19
HETATM   19  N3  UNL     1      13.336  35.714  12.367  1.00  0.00     0.098 N 
HETATM   20  C10 UNL     1      13.405  35.276  11.011  1.00  0.00     0.284 C 
HETATM   21  C11 UNL     1      14.665  36.111  10.841  1.00  0.00     0.013 C 
HETATM   22  C12 UNL     1      15.774  35.323  10.233  1.00  0.00     0.013 C 
HETATM   23  C17 UNL     1      14.453  37.459  10.236  1.00  0.00     0.024 C 
HETATM   24  C18 UNL     1      14.706  36.145  12.354  1.00  0.00     0.284 C 
HETATM   25  C13 UNL     1      15.710  35.336   8.730  1.00  0.00     0.002 C 
HETATM   26  C14 UNL     1      15.453  36.683   8.140  1.00  0.00     0.011 C 
HETATM   27  C15 UNL     1      14.222  37.322   8.751  1.00  0.00     0.048 C 
BRANCH  27  28
HETATM   28  C16 UNL     1      13.994  38.630   8.095  1.00  0.00     0.235 C 
HETATM   29  O2  UNL     1      14.860  39.477   8.270  1.00  0.00    -0.306 OA
ENDBRANCH  27  28
ENDBRANCH   6  19
TORSDOF 5
ENDMDL
MODEL 5
REMARK VINA RESULT: -6.426639192      2.581      7.499
REMARK  5 active torsions:
REMARK  status: ('A' for Active; 'I' for Inactive)
REMARK    1  A    between atoms: N1_1  and  C1_4 
REMARK    2  A    between atoms: C2_7  and  O1_8 
REMARK    3  A    between atoms: C3_10  and  C4_11 
REMARK    4  A    between atoms: C9_16  and  N3_17 
REMARK    5  A    between atoms: C15_23  and  C16_24 
ROOT
HETATM    1  C4  UNL     1      11.140  34.730  13.585  1.00  0.00    -0.015 C 
HETATM    2  C5  UNL     1      11.341  36.187  13.286  1.00  0.00     0.039 C 
HETATM    3  C6  UNL     1      12.713  36.471  12.729  1.00  0.00     0.004 C 
HETATM    4  C7  UNL     1      13.686  35.389  12.565  1.00  0.00     0.003 C 
HETATM    5  C8  UNL     1      13.382  34.015  13.030  1.00  0.00     0.040 C 
HETATM    6  C9  UNL     1      12.360  34.070  14.129  1.00  0.00     0.254 C 
ENDROOT
BRANCH   1   7
HETATM    7  C3  UNL     1      10.134  34.014  12.831  1.00  0.00     0.105 A 
HETATM    8  C2  UNL     1       8.961  33.385  13.276  1.00  0.00     0.183 A 
HETATM    9  N2  UNL     1       8.206  32.955  12.267  1.00  0.00    -0.169 N 
HETATM   10  C1  UNL     1       8.873  33.296  11.129  1.00  0.00     0.678 A 
ATOM     11  H2  UNL     1       7.311  32.470  12.332  1.00  0.00     0.186 HD
HETATM   12  N4  UNL     1       9.990  33.908  11.471  1.00  0.00    -0.188 N 
ATOM     13  H4  UNL     1      10.671  34.263  10.800  1.00  0.00     0.184 HD
BRANCH   8  14
HETATM   14  O1  UNL     1       8.594  33.201  14.601  1.00  0.00    -0.344 OA
ATOM     15  H1  UNL     1       9.222  32.951  15.269  1.00  0.00     0.219 HD
ENDBRANCH   8  14
BRANCH  10  16
HETATM   16  N1  UNL     1       8.376  33.053   9.925  1.00  0.00    -0.234 N 
ATOM     17  H12 UNL     1       7.436  32.766   9.655  1.00  0.00     0.174 HD
ATOM     18  H11 UNL     1       8.951  33.101   9.084  1.00  0.00     0.174 HD
ENDBRANCH  10  16
ENDBRANCH   1   7
BRANCH   6  19
HETATM   19  N3  UNL     1      12.843  34.955  15.197  1.00  0.00     0.098 N 
HETATM   20  C10 UNL     1      13.704  34.364  16.169  1.00  0.00     0.284 C 
HETATM   21  C11 UNL     1      12.859  35.008  17.258  1.00  0.00     0.013 C 
HETATM   22  C12 UNL     1      12.453  34.024  18.300  1.00  0.00     0.013 C 
HETATM   23  C17 UNL     1      13.391  36.297  17.792  1.00  0.00     0.024 C 
HETATM   24  C18 UNL     1      11.820  35.205  16.174  1.00  0.00     0.284 C 
HETATM   25  C13 UNL     1      13.500  33.878  19.369  1.00  0.00     0.002 C 
HETATM   26  C14 UNL     1      14.057  35.173  19.862  1.00  0.00     0.011 C 
HETATM   27  C15 UNL     1      14.555  36.027  18.714  1.00  0.00     0.048 C 
BRANCH  27  28
HETATM   28  C16 UNL     1      15.134  37.272  19.267  1.00  0.00     0.235 C 
HETATM   29  O2  UNL     1      16.355  37.350  19.250  1.00  0.00    -0.306 OA
ENDBRANCH  27  28
ENDBRANCH   6  19
TORSDOF 5
ENDMDL
