MODEL 1
REMARK VINA RESULT: -6.442383230      0.000      0.000
REMARK  1 active torsions:
REMARK  status: ('A' for Active; 'I' for Inactive)
REMARK    1  A    between atoms: C9_11  and  N1_12 
ROOT
HETATM    1  C1  UNL     1      65.250  63.625-124.729  1.00  0.00     0.045 C 
HETATM    2  C2  UNL     1      65.635  62.314-124.026  1.00  0.00     0.186 C 
HETATM    3  O1  UNL     1      65.639  61.340-124.937  1.00  0.00    -0.234 OA
HETATM    4  O2  UNL     1      65.903  60.129-124.664  1.00  0.00    -0.241 OA
HETATM    5  C3  UNL     1      65.419  59.146-125.511  1.00  0.00     0.210 C 
HETATM    6  C4  UNL     1      64.182  58.397-124.921  1.00  0.00     0.029 C 
HETATM    7  C5  UNL     1      63.640  59.434-124.032  1.00  0.00     0.002 C 
HETATM    8  C6  UNL     1      62.495  59.457-123.178  1.00  0.00     0.000 C 
HETATM    9  C7  UNL     1      62.695  60.732-122.322  1.00  0.00     0.002 C 
HETATM   10  C8  UNL     1      63.315  61.893-123.016  1.00  0.00     0.035 C 
HETATM   11  C9  UNL     1      64.762  62.155-122.806  1.00  0.00     0.215 C 
ENDROOT
BRANCH  11  12
HETATM   12  N1  UNL     1      64.997  63.431-122.078  1.00  0.00    -0.072 N 
ATOM     13  H13 UNL     1      64.628  63.457-121.127  1.00  0.00     0.274 HD
ATOM     14  H12 UNL     1      65.967  63.602-121.812  1.00  0.00     0.274 HD
ATOM     15  H11 UNL     1      64.597  64.123-122.713  1.00  0.00     0.274 HD
ENDBRANCH  11  12
TORSDOF 1
ENDMDL
MODEL 2
REMARK VINA RESULT: -6.397296743      3.097      4.735
REMARK  1 active torsions:
REMARK  status: ('A' for Active; 'I' for Inactive)
REMARK    1  A    between atoms: C9_11  and  N1_12 
ROOT
HETATM    1  C1  UNL     1      65.454  55.630-124.874  1.00  0.00     0.045 C 
HETATM    2  C2  UNL     1      64.828  56.847-125.570  1.00  0.00     0.186 C 
HETATM    3  O1  UNL     1      65.541  57.926-125.243  1.00  0.00    -0.234 OA
HETATM    4  O2  UNL     1      65.265  59.096-125.648  1.00  0.00    -0.241 OA
HETATM    5  C3  UNL     1      65.718  60.172-124.903  1.00  0.00     0.210 C 
HETATM    6  C4  UNL     1      64.589  60.834-124.050  1.00  0.00     0.029 C 
HETATM    7  C5  UNL     1      63.682  59.692-123.875  1.00  0.00     0.002 C 
HETATM    8  C6  UNL     1      62.440  59.556-123.181  1.00  0.00     0.000 C 
HETATM    9  C7  UNL     1      61.895  58.188-123.659  1.00  0.00     0.002 C 
HETATM   10  C8  UNL     1      62.910  57.125-123.888  1.00  0.00     0.035 C 
HETATM   11  C9  UNL     1      63.347  56.850-125.281  1.00  0.00     0.215 C 
ENDROOT
BRANCH  11  12
HETATM   12  N1  UNL     1      62.931  55.496-125.737  1.00  0.00    -0.072 N 
ATOM     13  H13 UNL     1      61.936  55.396-125.936  1.00  0.00     0.274 HD
ATOM     14  H12 UNL     1      63.245  55.243-126.674  1.00  0.00     0.274 HD
ATOM     15  H11 UNL     1      63.282  54.896-124.990  1.00  0.00     0.274 HD
ENDBRANCH  11  12
TORSDOF 1
ENDMDL
MODEL 3
REMARK VINA RESULT: -5.666557757      1.816      3.032
REMARK  1 active torsions:
REMARK  status: ('A' for Active; 'I' for Inactive)
REMARK    1  A    between atoms: C9_11  and  N1_12 
ROOT
HETATM    1  C1  UNL     1      66.083  63.302-122.302  1.00  0.00     0.045 C 
HETATM    2  C2  UNL     1      64.878  62.966-123.192  1.00  0.00     0.186 C 
HETATM    3  O1  UNL     1      64.012  62.252-122.470  1.00  0.00    -0.234 OA
HETATM    4  O2  UNL     1      62.918  61.806-122.930  1.00  0.00    -0.241 OA
HETATM    5  C3  UNL     1      62.344  60.710-122.310  1.00  0.00     0.210 C 
HETATM    6  C4  UNL     1      62.544  59.387-123.115  1.00  0.00     0.029 C 
HETATM    7  C5  UNL     1      63.779  59.703-123.846  1.00  0.00     0.002 C 
HETATM    8  C6  UNL     1      64.564  58.945-124.768  1.00  0.00     0.000 C 
HETATM    9  C7  UNL     1      65.540  59.986-125.368  1.00  0.00     0.002 C 
HETATM   10  C8  UNL     1      66.027  61.038-124.436  1.00  0.00     0.035 C 
HETATM   11  C9  UNL     1      65.390  62.379-124.484  1.00  0.00     0.215 C 
ENDROOT
BRANCH  11  12
HETATM   12  N1  UNL     1      66.335  63.427-124.957  1.00  0.00    -0.072 N 
ATOM     13  H13 UNL     1      66.379  64.262-124.373  1.00  0.00     0.274 HD
ATOM     14  H12 UNL     1      67.323  63.189-124.865  1.00  0.00     0.274 HD
ATOM     15  H11 UNL     1      66.021  63.589-125.915  1.00  0.00     0.274 HD
ENDBRANCH  11  12
TORSDOF 1
ENDMDL
MODEL 4
REMARK VINA RESULT: -5.489613574      1.335      1.666
REMARK  1 active torsions:
REMARK  status: ('A' for Active; 'I' for Inactive)
REMARK    1  A    between atoms: C9_11  and  N1_12 
ROOT
HETATM    1  C1  UNL     1      64.505  62.389-124.751  1.00  0.00     0.045 C 
HETATM    2  C2  UNL     1      65.033  61.072-124.164  1.00  0.00     0.186 C 
HETATM    3  O1  UNL     1      65.351  60.263-125.176  1.00  0.00    -0.234 OA
HETATM    4  O2  UNL     1      65.803  59.088-125.017  1.00  0.00    -0.241 OA
HETATM    5  C3  UNL     1      65.640  58.178-126.047  1.00  0.00     0.210 C 
HETATM    6  C4  UNL     1      64.501  57.147-125.768  1.00  0.00     0.029 C 
HETATM    7  C5  UNL     1      63.651  57.928-124.858  1.00  0.00     0.002 C 
HETATM    8  C6  UNL     1      62.416  57.624-124.208  1.00  0.00     0.000 C 
HETATM    9  C7  UNL     1      62.246  58.768-123.179  1.00  0.00     0.002 C 
HETATM   10  C8  UNL     1      62.720  60.110-123.610  1.00  0.00     0.035 C 
HETATM   11  C9  UNL     1      64.046  60.581-123.134  1.00  0.00     0.215 C 
ENDROOT
BRANCH  11  12
HETATM   12  N1  UNL     1      63.927  61.752-122.223  1.00  0.00    -0.072 N 
ATOM     13  H13 UNL     1      64.764  62.331-122.155  1.00  0.00     0.274 HD
ATOM     14  H12 UNL     1      63.317  62.497-122.559  1.00  0.00     0.274 HD
ATOM     15  H11 UNL     1      63.633  61.318-121.347  1.00  0.00     0.274 HD
ENDBRANCH  11  12
TORSDOF 1
ENDMDL
MODEL 5
REMARK VINA RESULT: -5.473026465      4.966      6.124
REMARK  1 active torsions:
REMARK  status: ('A' for Active; 'I' for Inactive)
REMARK    1  A    between atoms: C9_11  and  N1_12 
ROOT
HETATM    1  C1  UNL     1      68.941  64.101-122.496  1.00  0.00     0.045 C 
HETATM    2  C2  UNL     1      68.258  64.363-121.145  1.00  0.00     0.186 C 
HETATM    3  O1  UNL     1      69.109  64.025-120.175  1.00  0.00    -0.234 OA
HETATM    4  O2  UNL     1      68.832  64.111-118.940  1.00  0.00    -0.241 OA
HETATM    5  C3  UNL     1      69.535  63.312-118.054  1.00  0.00     0.210 C 
HETATM    6  C4  UNL     1      68.703  62.087-117.556  1.00  0.00     0.029 C 
HETATM    7  C5  UNL     1      67.782  61.911-118.687  1.00  0.00     0.002 C 
HETATM    8  C6  UNL     1      66.743  60.963-118.934  1.00  0.00     0.000 C 
HETATM    9  C7  UNL     1      65.994  61.542-120.159  1.00  0.00     0.002 C 
HETATM   10  C8  UNL     1      66.838  62.226-121.176  1.00  0.00     0.035 C 
HETATM   11  C9  UNL     1      66.898  63.710-121.167  1.00  0.00     0.215 C 
ENDROOT
BRANCH  11  12
HETATM   12  N1  UNL     1      66.281  64.300-122.386  1.00  0.00    -0.072 N 
ATOM     13  H13 UNL     1      65.271  64.175-122.459  1.00  0.00     0.274 HD
ATOM     14  H12 UNL     1      66.257  65.319-122.405  1.00  0.00     0.274 HD
ATOM     15  H11 UNL     1      66.822  63.869-123.135  1.00  0.00     0.274 HD
ENDBRANCH  11  12
TORSDOF 1
ENDMDL
