MODEL 1
REMARK VINA RESULT: -6.127402491      0.000      0.000
REMARK  2 active torsions:
REMARK  status: ('A' for Active; 'I' for Inactive)
REMARK    1  A    between atoms: N1_1  and  O1_4 
REMARK    2  A    between atoms: O1_4  and  C1_5 
ROOT
HETATM    1  C1  UNL     1      65.014  60.407-125.045  1.00  0.00     0.156 C 
HETATM    2  C2  UNL     1      64.194  61.193-124.042  1.00  0.00     0.035 C 
HETATM    3  C3  UNL     1      63.213  60.245-123.435  1.00  0.00     0.007 C 
HETATM    4  C4  UNL     1      63.599  58.850-123.838  1.00  0.00    -0.008 C 
HETATM    5  C5  UNL     1      62.450  58.130-124.511  1.00  0.00     0.005 C 
HETATM    6  C6  UNL     1      62.939  56.751-124.877  1.00  0.00     0.000 C 
HETATM    7  C7  UNL     1      64.148  56.764-125.751  1.00  0.00     0.000 C 
HETATM    8  C8  UNL     1      64.745  58.129-125.954  1.00  0.00     0.007 C 
HETATM    9  C9  UNL     1      64.810  58.954-124.714  1.00  0.00     0.021 C 
ENDROOT
BRANCH   1  10
HETATM   10  O1  UNL     1      66.358  60.749-124.891  1.00  0.00    -0.281 OA
BRANCH  10  11
HETATM   11  N1  UNL     1      66.583  62.064-125.046  1.00  0.00    -0.311 N 
ATOM     12  H12 UNL     1      67.138  62.443-125.814  1.00  0.00     0.184 HD
ATOM     13  H11 UNL     1      66.142  62.629-124.320  1.00  0.00     0.184 HD
ENDBRANCH  10  11
ENDBRANCH   1  10
TORSDOF 2
ENDMDL
MODEL 2
REMARK VINA RESULT: -6.014068009      2.308      3.084
REMARK  2 active torsions:
REMARK  status: ('A' for Active; 'I' for Inactive)
REMARK    1  A    between atoms: N1_1  and  O1_4 
REMARK    2  A    between atoms: O1_4  and  C1_5 
ROOT
HETATM    1  C1  UNL     1      63.391  59.041-123.635  1.00  0.00     0.156 C 
HETATM    2  C2  UNL     1      64.516  59.835-124.267  1.00  0.00     0.035 C 
HETATM    3  C3  UNL     1      65.143  58.963-125.306  1.00  0.00     0.007 C 
HETATM    4  C4  UNL     1      64.255  57.770-125.513  1.00  0.00    -0.008 C 
HETATM    5  C5  UNL     1      65.013  56.474-125.318  1.00  0.00     0.005 C 
HETATM    6  C6  UNL     1      64.037  55.346-125.542  1.00  0.00     0.000 C 
HETATM    7  C7  UNL     1      62.845  55.408-124.648  1.00  0.00     0.000 C 
HETATM    8  C8  UNL     1      62.758  56.664-123.825  1.00  0.00     0.007 C 
HETATM    9  C9  UNL     1      63.092  57.906-124.577  1.00  0.00     0.021 C 
ENDROOT
BRANCH   1  10
HETATM   10  O1  UNL     1      62.275  59.868-123.511  1.00  0.00    -0.281 OA
BRANCH  10  11
HETATM   11  N1  UNL     1      62.127  60.362-122.271  1.00  0.00    -0.311 N 
ATOM     12  H12 UNL     1      62.883  60.830-121.770  1.00  0.00     0.184 HD
ATOM     13  H11 UNL     1      61.190  60.218-121.896  1.00  0.00     0.184 HD
ENDBRANCH  10  11
ENDBRANCH   1  10
TORSDOF 2
ENDMDL
MODEL 3
REMARK VINA RESULT: -5.948299890      2.314      3.321
REMARK  2 active torsions:
REMARK  status: ('A' for Active; 'I' for Inactive)
REMARK    1  A    between atoms: N1_1  and  O1_4 
REMARK    2  A    between atoms: O1_4  and  C1_5 
ROOT
HETATM    1  C1  UNL     1      66.911  62.733-124.033  1.00  0.00     0.156 C 
HETATM    2  C2  UNL     1      66.449  63.733-122.993  1.00  0.00     0.035 C 
HETATM    3  C3  UNL     1      65.234  63.160-122.339  1.00  0.00     0.007 C 
HETATM    4  C4  UNL     1      65.111  61.723-122.758  1.00  0.00    -0.008 C 
HETATM    5  C5  UNL     1      63.758  61.440-123.375  1.00  0.00     0.005 C 
HETATM    6  C6  UNL     1      63.739  59.983-123.763  1.00  0.00     0.000 C 
HETATM    7  C7  UNL     1      64.841  59.603-124.693  1.00  0.00     0.000 C 
HETATM    8  C8  UNL     1      65.852  60.691-124.926  1.00  0.00     0.007 C 
HETATM    9  C9  UNL     1      66.246  61.428-123.691  1.00  0.00     0.021 C 
ENDROOT
BRANCH   1  10
HETATM   10  O1  UNL     1      68.297  62.602-123.943  1.00  0.00    -0.281 OA
BRANCH  10  11
HETATM   11  N1  UNL     1      68.824  63.308-122.929  1.00  0.00    -0.311 N 
ATOM     12  H12 UNL     1      68.346  64.103-122.504  1.00  0.00     0.184 HD
ATOM     13  H11 UNL     1      69.738  62.962-122.639  1.00  0.00     0.184 HD
ENDBRANCH  10  11
ENDBRANCH   1  10
TORSDOF 2
ENDMDL
MODEL 4
REMARK VINA RESULT: -5.929474936      0.967      1.050
REMARK  2 active torsions:
REMARK  status: ('A' for Active; 'I' for Inactive)
REMARK    1  A    between atoms: N1_1  and  O1_4 
REMARK    2  A    between atoms: O1_4  and  C1_5 
ROOT
HETATM    1  C1  UNL     1      65.047  61.135-125.063  1.00  0.00     0.156 C 
HETATM    2  C2  UNL     1      64.320  62.144-124.196  1.00  0.00     0.035 C 
HETATM    3  C3  UNL     1      63.364  61.381-123.339  1.00  0.00     0.007 C 
HETATM    4  C4  UNL     1      63.688  59.919-123.463  1.00  0.00    -0.008 C 
HETATM    5  C5  UNL     1      62.478  59.117-123.891  1.00  0.00     0.005 C 
HETATM    6  C6  UNL     1      62.908  57.675-123.990  1.00  0.00     0.000 C 
HETATM    7  C7  UNL     1      64.049  57.461-124.925  1.00  0.00     0.000 C 
HETATM    8  C8  UNL     1      64.661  58.729-125.451  1.00  0.00     0.007 C 
HETATM    9  C9  UNL     1      64.834  59.792-124.420  1.00  0.00     0.021 C 
ENDROOT
BRANCH   1  10
HETATM   10  O1  UNL     1      66.406  61.452-125.074  1.00  0.00    -0.281 OA
BRANCH  10  11
HETATM   11  N1  UNL     1      66.945  61.482-123.845  1.00  0.00    -0.311 N 
ATOM     12  H12 UNL     1      66.494  61.946-123.055  1.00  0.00     0.184 HD
ATOM     13  H11 UNL     1      67.840  60.996-123.793  1.00  0.00     0.184 HD
ENDBRANCH  10  11
ENDBRANCH   1  10
TORSDOF 2
ENDMDL
MODEL 5
REMARK VINA RESULT: -5.891323597      2.425      3.660
REMARK  2 active torsions:
REMARK  status: ('A' for Active; 'I' for Inactive)
REMARK    1  A    between atoms: N1_1  and  O1_4 
REMARK    2  A    between atoms: O1_4  and  C1_5 
ROOT
HETATM    1  C1  UNL     1      66.630  62.782-124.644  1.00  0.00     0.156 C 
HETATM    2  C2  UNL     1      66.267  64.239-124.443  1.00  0.00     0.035 C 
HETATM    3  C3  UNL     1      64.917  64.274-123.805  1.00  0.00     0.007 C 
HETATM    4  C4  UNL     1      64.573  62.881-123.362  1.00  0.00    -0.008 C 
HETATM    5  C5  UNL     1      63.250  62.426-123.940  1.00  0.00     0.005 C 
HETATM    6  C6  UNL     1      63.002  61.024-123.441  1.00  0.00     0.000 C 
HETATM    7  C7  UNL     1      64.093  60.070-123.789  1.00  0.00     0.000 C 
HETATM    8  C8  UNL     1      65.301  60.716-124.410  1.00  0.00     0.007 C 
HETATM    9  C9  UNL     1      65.712  61.990-123.753  1.00  0.00     0.021 C 
ENDROOT
BRANCH   1  10
HETATM   10  O1  UNL     1      67.956  62.593-124.256  1.00  0.00    -0.281 OA
BRANCH  10  11
HETATM   11  N1  UNL     1      68.127  62.674-122.926  1.00  0.00    -0.311 N 
ATOM     12  H12 UNL     1      68.839  62.139-122.427  1.00  0.00     0.184 HD
ATOM     13  H11 UNL     1      67.475  63.320-122.482  1.00  0.00     0.184 HD
ENDBRANCH  10  11
ENDBRANCH   1  10
TORSDOF 2
ENDMDL
