MODEL 1
REMARK VINA RESULT: -5.732837754      0.000      0.000
REMARK  2 active torsions:
REMARK  status: ('A' for Active; 'I' for Inactive)
REMARK    1  A    between atoms: C2_4  and  O1_5 
REMARK    2  A    between atoms: C2_4  and  N2_7 
ROOT
HETATM    1  N2  UNL     1      65.998  63.256-123.849  1.00  0.00    -0.338 N 
HETATM    2  C3  UNL     1      65.817  62.719-122.524  1.00  0.00     0.090 C 
HETATM    3  C4  UNL     1      64.665  61.741-122.455  1.00  0.00     0.025 C 
HETATM    4  C5  UNL     1      64.318  61.192-123.825  1.00  0.00     0.004 C 
HETATM    5  C6  UNL     1      65.614  60.934-124.541  1.00  0.00     0.025 C 
HETATM    6  C7  UNL     1      66.625  62.016-124.232  1.00  0.00     0.090 C 
HETATM    7  C8  UNL     1      67.093  61.907-122.775  1.00  0.00     0.050 C 
ENDROOT
BRANCH   1   8
HETATM    8  C2  UNL     1      65.689  64.474-124.486  1.00  0.00     0.215 C 
HETATM    9  N1  UNL     1      64.969  65.387-123.937  1.00  0.00    -0.361 N 
HETATM   10  C1  UNL     1      64.653  66.626-124.578  1.00  0.00     0.150 C 
ATOM     11  H1  UNL     1      64.605  65.219-122.999  1.00  0.00     0.162 HD
BRANCH   8  12
HETATM   12  O1  UNL     1      66.174  64.737-125.781  1.00  0.00    -0.333 OA
ATOM     13  H1  UNL     1      66.036  64.063-126.436  1.00  0.00     0.220 HD
ENDBRANCH   8  12
ENDBRANCH   1   8
TORSDOF 2
ENDMDL
MODEL 2
REMARK VINA RESULT: -5.697828772      0.460      1.712
REMARK  2 active torsions:
REMARK  status: ('A' for Active; 'I' for Inactive)
REMARK    1  A    between atoms: C2_4  and  O1_5 
REMARK    2  A    between atoms: C2_4  and  N2_7 
ROOT
HETATM    1  N2  UNL     1      65.701  62.995-124.352  1.00  0.00    -0.338 N 
HETATM    2  C3  UNL     1      66.802  62.104-124.090  1.00  0.00     0.090 C 
HETATM    3  C4  UNL     1      67.044  61.912-122.609  1.00  0.00     0.025 C 
HETATM    4  C5  UNL     1      65.816  62.271-121.794  1.00  0.00     0.004 C 
HETATM    5  C6  UNL     1      64.620  61.747-122.538  1.00  0.00     0.025 C 
HETATM    6  C7  UNL     1      64.795  61.921-124.031  1.00  0.00     0.090 C 
HETATM    7  C8  UNL     1      65.879  60.971-124.555  1.00  0.00     0.050 C 
ENDROOT
BRANCH   1   8
HETATM    8  C2  UNL     1      65.576  64.341-124.752  1.00  0.00     0.215 C 
HETATM    9  N1  UNL     1      64.884  65.203-124.095  1.00  0.00    -0.361 N 
HETATM   10  C1  UNL     1      64.754  66.571-124.495  1.00  0.00     0.150 C 
ATOM     11  H1  UNL     1      64.406  64.898-123.247  1.00  0.00     0.162 HD
BRANCH   8  12
HETATM   12  O1  UNL     1      66.221  64.795-125.917  1.00  0.00    -0.333 OA
ATOM     13  H1  UNL     1      66.819  65.527-125.820  1.00  0.00     0.220 HD
ENDBRANCH   8  12
ENDBRANCH   1   8
TORSDOF 2
ENDMDL
MODEL 3
REMARK VINA RESULT: -5.671531296      4.841      6.176
REMARK  2 active torsions:
REMARK  status: ('A' for Active; 'I' for Inactive)
REMARK    1  A    between atoms: C2_4  and  O1_5 
REMARK    2  A    between atoms: C2_4  and  N2_7 
ROOT
HETATM    1  N2  UNL     1      63.698  58.064-124.821  1.00  0.00    -0.338 N 
HETATM    2  C3  UNL     1      65.038  57.881-125.316  1.00  0.00     0.090 C 
HETATM    3  C4  UNL     1      65.649  56.579-124.849  1.00  0.00     0.025 C 
HETATM    4  C5  UNL     1      64.585  55.587-124.421  1.00  0.00     0.004 C 
HETATM    5  C6  UNL     1      63.456  55.694-125.407  1.00  0.00     0.025 C 
HETATM    6  C7  UNL     1      63.235  57.133-125.820  1.00  0.00     0.090 C 
HETATM    7  C8  UNL     1      64.401  57.623-126.687  1.00  0.00     0.050 C 
ENDROOT
BRANCH   1   8
HETATM    8  C2  UNL     1      63.104  58.828-123.797  1.00  0.00     0.215 C 
HETATM    9  N1  UNL     1      63.486  60.021-123.505  1.00  0.00    -0.361 N 
HETATM   10  C1  UNL     1      62.887  60.803-122.467  1.00  0.00     0.150 C 
ATOM     11  H1  UNL     1      64.253  60.430-124.039  1.00  0.00     0.162 HD
BRANCH   8  12
HETATM   12  O1  UNL     1      62.045  58.294-123.040  1.00  0.00    -0.333 OA
ATOM     13  H1  UNL     1      61.900  57.357-123.104  1.00  0.00     0.220 HD
ENDBRANCH   8  12
ENDBRANCH   1   8
TORSDOF 2
ENDMDL
MODEL 4
REMARK VINA RESULT: -5.529109527      2.495      3.884
REMARK  2 active torsions:
REMARK  status: ('A' for Active; 'I' for Inactive)
REMARK    1  A    between atoms: C2_4  and  O1_5 
REMARK    2  A    between atoms: C2_4  and  N2_7 
ROOT
HETATM    1  N2  UNL     1      65.570  62.081-122.722  1.00  0.00    -0.338 N 
HETATM    2  C3  UNL     1      65.787  61.847-124.127  1.00  0.00     0.090 C 
HETATM    3  C4  UNL     1      65.049  60.624-124.624  1.00  0.00     0.025 C 
HETATM    4  C5  UNL     1      63.904  60.252-123.701  1.00  0.00     0.004 C 
HETATM    5  C6  UNL     1      63.244  61.532-123.273  1.00  0.00     0.025 C 
HETATM    6  C7  UNL     1      64.272  62.618-123.043  1.00  0.00     0.090 C 
HETATM    7  C8  UNL     1      64.886  63.062-124.377  1.00  0.00     0.050 C 
ENDROOT
BRANCH   1   8
HETATM    8  C2  UNL     1      66.317  61.871-121.545  1.00  0.00     0.215 C 
HETATM    9  N1  UNL     1      65.777  61.796-120.380  1.00  0.00    -0.361 N 
HETATM   10  C1  UNL     1      66.529  61.582-119.182  1.00  0.00     0.150 C 
ATOM     11  H1  UNL     1      64.764  61.893-120.306  1.00  0.00     0.162 HD
BRANCH   8  12
HETATM   12  O1  UNL     1      67.715  61.734-121.610  1.00  0.00    -0.333 OA
ATOM     13  H1  UNL     1      68.053  60.983-122.085  1.00  0.00     0.220 HD
ENDBRANCH   8  12
ENDBRANCH   1   8
TORSDOF 2
ENDMDL
MODEL 5
REMARK VINA RESULT: -5.410303488      2.707      4.434
REMARK  2 active torsions:
REMARK  status: ('A' for Active; 'I' for Inactive)
REMARK    1  A    between atoms: C2_4  and  O1_5 
REMARK    2  A    between atoms: C2_4  and  N2_7 
ROOT
HETATM    1  N2  UNL     1      64.570  61.046-124.195  1.00  0.00    -0.338 N 
HETATM    2  C3  UNL     1      63.310  61.094-123.498  1.00  0.00     0.090 C 
HETATM    3  C4  UNL     1      63.486  61.160-121.998  1.00  0.00     0.025 C 
HETATM    4  C5  UNL     1      64.869  61.657-121.622  1.00  0.00     0.004 C 
HETATM    5  C6  UNL     1      65.215  62.769-122.571  1.00  0.00     0.025 C 
HETATM    6  C7  UNL     1      64.715  62.462-123.966  1.00  0.00     0.090 C 
HETATM    7  C8  UNL     1      63.183  62.534-124.010  1.00  0.00     0.050 C 
ENDROOT
BRANCH   1   8
HETATM    8  C2  UNL     1      65.328  60.039-124.826  1.00  0.00     0.215 C 
HETATM    9  N1  UNL     1      64.881  58.850-125.027  1.00  0.00    -0.361 N 
HETATM   10  C1  UNL     1      65.645  57.825-125.667  1.00  0.00     0.150 C 
ATOM     11  H1  UNL     1      63.935  58.628-124.714  1.00  0.00     0.162 HD
BRANCH   8  12
HETATM   12  O1  UNL     1      66.636  60.312-125.267  1.00  0.00    -0.333 OA
ATOM     13  H1  UNL     1      67.319  59.716-124.983  1.00  0.00     0.220 HD
ENDBRANCH   8  12
ENDBRANCH   1   8
TORSDOF 2
ENDMDL
