MODEL 1
REMARK VINA RESULT: -6.009817497      0.000      0.000
REMARK  1 active torsions:
REMARK  status: ('A' for Active; 'I' for Inactive)
REMARK    1  A    between atoms: C9_12  and  N2_13 
ROOT
HETATM    1  N1  UNL     1      62.659  55.056-125.470  1.00  0.00    -0.404 N 
ATOM      2  H11 UNL     1      62.920  54.489-126.277  1.00  0.00     0.155 HD
ATOM      3  H12 UNL     1      61.693  55.211-125.180  1.00  0.00     0.155 HD
HETATM    4  C1  UNL     1      63.651  55.583-124.815  1.00  0.00     0.010 C 
HETATM    5  C2  UNL     1      63.269  56.412-123.636  1.00  0.00     0.054 C 
HETATM    6  C3  UNL     1      62.227  57.439-123.969  1.00  0.00     0.006 C 
HETATM    7  C4  UNL     1      62.677  58.844-123.767  1.00  0.00     0.000 C 
HETATM    8  C5  UNL     1      64.039  59.152-124.277  1.00  0.00     0.000 C 
HETATM    9  C6  UNL     1      64.326  58.556-125.640  1.00  0.00     0.000 C 
HETATM   10  C7  UNL     1      65.599  57.787-125.565  1.00  0.00     0.002 C 
HETATM   11  C8  UNL     1      65.568  56.432-126.157  1.00  0.00     0.039 C 
HETATM   12  C9  UNL     1      65.038  55.361-125.231  1.00  0.00     0.228 C 
ENDROOT
BRANCH  12  13
HETATM   13  N2  UNL     1      65.874  55.110-124.105  1.00  0.00    -0.070 N 
ATOM     14  H23 UNL     1      66.043  55.958-123.566  1.00  0.00     0.275 HD
ATOM     15  H22 UNL     1      65.390  54.566-123.390  1.00  0.00     0.275 HD
ATOM     16  H21 UNL     1      66.746  54.664-124.389  1.00  0.00     0.275 HD
ENDBRANCH  12  13
TORSDOF 1
ENDMDL
MODEL 2
REMARK VINA RESULT: -5.619434645      5.675      7.182
REMARK  1 active torsions:
REMARK  status: ('A' for Active; 'I' for Inactive)
REMARK    1  A    between atoms: C9_12  and  N2_13 
ROOT
HETATM    1  N1  UNL     1      66.001  65.190-123.144  1.00  0.00    -0.404 N 
ATOM      2  H11 UNL     1      66.538  65.714-122.452  1.00  0.00     0.155 HD
ATOM      3  H12 UNL     1      65.219  65.586-123.665  1.00  0.00     0.155 HD
HETATM    4  C1  UNL     1      66.379  63.960-123.326  1.00  0.00     0.010 C 
HETATM    5  C2  UNL     1      65.593  63.195-124.336  1.00  0.00     0.054 C 
HETATM    6  C3  UNL     1      64.114  63.282-124.102  1.00  0.00     0.006 C 
HETATM    7  C4  UNL     1      63.467  61.971-123.823  1.00  0.00     0.000 C 
HETATM    8  C5  UNL     1      64.196  61.094-122.870  1.00  0.00     0.000 C 
HETATM    9  C6  UNL     1      64.742  61.831-121.663  1.00  0.00     0.000 C 
HETATM   10  C7  UNL     1      66.191  61.519-121.531  1.00  0.00     0.002 C 
HETATM   11  C8  UNL     1      67.082  62.680-121.310  1.00  0.00     0.039 C 
HETATM   12  C9  UNL     1      67.502  63.390-122.577  1.00  0.00     0.228 C 
ENDROOT
BRANCH  12  13
HETATM   13  N2  UNL     1      68.337  62.608-123.425  1.00  0.00    -0.070 N 
ATOM     14  H23 UNL     1      67.890  62.418-124.321  1.00  0.00     0.275 HD
ATOM     15  H22 UNL     1      69.138  63.142-123.762  1.00  0.00     0.275 HD
ATOM     16  H21 UNL     1      68.627  61.748-122.959  1.00  0.00     0.275 HD
ENDBRANCH  12  13
TORSDOF 1
ENDMDL
MODEL 3
REMARK VINA RESULT: -5.611963019      5.219      6.670
REMARK  1 active torsions:
REMARK  status: ('A' for Active; 'I' for Inactive)
REMARK    1  A    between atoms: C9_12  and  N2_13 
ROOT
HETATM    1  N1  UNL     1      66.023  62.204-120.635  1.00  0.00    -0.404 N 
ATOM      2  H11 UNL     1      66.956  62.354-120.249  1.00  0.00     0.155 HD
ATOM      3  H12 UNL     1      65.320  61.613-120.191  1.00  0.00     0.155 HD
HETATM    4  C1  UNL     1      65.777  62.822-121.751  1.00  0.00     0.010 C 
HETATM    5  C2  UNL     1      64.415  62.602-122.316  1.00  0.00     0.054 C 
HETATM    6  C3  UNL     1      64.059  61.147-122.408  1.00  0.00     0.006 C 
HETATM    7  C4  UNL     1      63.807  60.672-123.796  1.00  0.00     0.000 C 
HETATM    8  C5  UNL     1      64.789  61.137-124.812  1.00  0.00     0.000 C 
HETATM    9  C6  UNL     1      66.228  61.071-124.341  1.00  0.00     0.000 C 
HETATM   10  C7  UNL     1      66.860  62.401-124.556  1.00  0.00     0.002 C 
HETATM   11  C8  UNL     1      67.628  62.941-123.413  1.00  0.00     0.039 C 
HETATM   12  C9  UNL     1      66.787  63.671-122.389  1.00  0.00     0.228 C 
ENDROOT
BRANCH  12  13
HETATM   13  N2  UNL     1      66.207  64.877-122.876  1.00  0.00    -0.070 N 
ATOM     14  H23 UNL     1      65.457  64.691-123.541  1.00  0.00     0.275 HD
ATOM     15  H22 UNL     1      65.661  65.350-122.156  1.00  0.00     0.275 HD
ATOM     16  H21 UNL     1      66.918  65.490-123.273  1.00  0.00     0.275 HD
ENDBRANCH  12  13
TORSDOF 1
ENDMDL
MODEL 4
REMARK VINA RESULT: -5.585404088      5.050      6.727
REMARK  1 active torsions:
REMARK  status: ('A' for Active; 'I' for Inactive)
REMARK    1  A    between atoms: C9_12  and  N2_13 
ROOT
HETATM    1  N1  UNL     1      67.031  62.379-125.300  1.00  0.00    -0.404 N 
ATOM      2  H11 UNL     1      67.307  63.166-125.887  1.00  0.00     0.155 HD
ATOM      3  H12 UNL     1      67.199  61.405-125.551  1.00  0.00     0.155 HD
HETATM    4  C1  UNL     1      66.438  62.695-124.187  1.00  0.00     0.010 C 
HETATM    5  C2  UNL     1      66.034  61.544-123.329  1.00  0.00     0.054 C 
HETATM    6  C3  UNL     1      65.257  60.508-124.086  1.00  0.00     0.006 C 
HETATM    7  C4  UNL     1      63.872  60.302-123.580  1.00  0.00     0.000 C 
HETATM    8  C5  UNL     1      63.117  61.546-123.276  1.00  0.00     0.000 C 
HETATM    9  C6  UNL     1      63.283  62.629-124.323  1.00  0.00     0.000 C 
HETATM   10  C7  UNL     1      63.699  63.886-123.644  1.00  0.00     0.002 C 
HETATM   11  C8  UNL     1      64.839  64.602-124.258  1.00  0.00     0.039 C 
HETATM   12  C9  UNL     1      66.197  64.095-123.826  1.00  0.00     0.228 C 
ENDROOT
BRANCH  12  13
HETATM   13  N2  UNL     1      66.484  64.324-122.450  1.00  0.00    -0.070 N 
ATOM     14  H23 UNL     1      65.639  64.302-121.880  1.00  0.00     0.275 HD
ATOM     15  H22 UNL     1      66.974  63.533-122.031  1.00  0.00     0.275 HD
ATOM     16  H21 UNL     1      67.000  65.195-122.325  1.00  0.00     0.275 HD
ENDBRANCH  12  13
TORSDOF 1
ENDMDL
MODEL 5
REMARK VINA RESULT: -5.537567695      5.324      6.950
REMARK  1 active torsions:
REMARK  status: ('A' for Active; 'I' for Inactive)
REMARK    1  A    between atoms: C9_12  and  N2_13 
ROOT
HETATM    1  N1  UNL     1      67.682  61.919-123.763  1.00  0.00    -0.404 N 
ATOM      2  H11 UNL     1      68.406  62.469-124.225  1.00  0.00     0.155 HD
ATOM      3  H12 UNL     1      67.649  60.900-123.787  1.00  0.00     0.155 HD
HETATM    4  C1  UNL     1      66.781  62.607-123.128  1.00  0.00     0.010 C 
HETATM    5  C2  UNL     1      65.722  61.803-122.453  1.00  0.00     0.054 C 
HETATM    6  C3  UNL     1      65.093  60.796-123.370  1.00  0.00     0.006 C 
HETATM    7  C4  UNL     1      63.635  61.004-123.588  1.00  0.00     0.000 C 
HETATM    8  C5  UNL     1      63.226  62.411-123.836  1.00  0.00     0.000 C 
HETATM    9  C6  UNL     1      64.147  63.154-124.782  1.00  0.00     0.000 C 
HETATM   10  C7  UNL     1      64.569  64.426-124.136  1.00  0.00     0.002 C 
HETATM   11  C8  UNL     1      66.017  64.726-124.189  1.00  0.00     0.039 C 
HETATM   12  C9  UNL     1      66.828  64.071-123.093  1.00  0.00     0.228 C 
ENDROOT
BRANCH  12  13
HETATM   13  N2  UNL     1      66.532  64.561-121.789  1.00  0.00    -0.070 N 
ATOM     14  H23 UNL     1      67.051  64.056-121.071  1.00  0.00     0.275 HD
ATOM     15  H22 UNL     1      66.923  65.491-121.638  1.00  0.00     0.275 HD
ATOM     16  H21 UNL     1      65.528  64.542-121.611  1.00  0.00     0.275 HD
ENDBRANCH  12  13
TORSDOF 1
ENDMDL
