MODEL 1
REMARK VINA RESULT: -6.667362194      0.000      0.000
REMARK  1 active torsions:
REMARK  status: ('A' for Active; 'I' for Inactive)
REMARK    1  A    between atoms: N1_1  and  C1_5 
ROOT
HETATM    1  C1  UNL     1      63.123  55.717-125.115  1.00  0.00     0.183 C 
HETATM    2  C2  UNL     1      64.455  55.348-125.480  1.00  0.00     0.033 C 
HETATM    3  C3  UNL     1      65.724  55.932-125.172  1.00  0.00     0.002 C 
HETATM    4  C4  UNL     1      66.160  57.273-125.806  1.00  0.00     0.000 C 
HETATM    5  C5  UNL     1      65.233  58.219-125.242  1.00  0.00     0.000 C 
HETATM    6  C6  UNL     1      65.157  59.653-125.149  1.00  0.00     0.000 C 
HETATM    7  C7  UNL     1      63.764  59.881-124.521  1.00  0.00     0.000 C 
HETATM    8  C8  UNL     1      63.244  58.863-123.586  1.00  0.00     0.000 C 
HETATM    9  C9  UNL     1      62.302  57.819-124.084  1.00  0.00     0.002 C 
HETATM   10  C10 UNL     1      62.708  56.352-123.838  1.00  0.00     0.033 C 
ENDROOT
BRANCH   1  11
HETATM   11  N1  UNL     1      62.262  54.500-125.223  1.00  0.00    -0.075 N 
ATOM     12  H13 UNL     1      62.515  53.777-124.549  1.00  0.00     0.274 HD
ATOM     13  H12 UNL     1      61.308  54.660-124.901  1.00  0.00     0.274 HD
ATOM     14  H11 UNL     1      62.303  54.171-126.188  1.00  0.00     0.274 HD
ENDBRANCH   1  11
TORSDOF 1
ENDMDL
MODEL 2
REMARK VINA RESULT: -6.592840467      2.308      3.935
REMARK  1 active torsions:
REMARK  status: ('A' for Active; 'I' for Inactive)
REMARK    1  A    between atoms: N1_1  and  C1_5 
ROOT
HETATM    1  C1  UNL     1      62.962  59.824-122.955  1.00  0.00     0.183 C 
HETATM    2  C2  UNL     1      63.798  60.890-123.412  1.00  0.00     0.033 C 
HETATM    3  C3  UNL     1      64.498  61.092-124.643  1.00  0.00     0.002 C 
HETATM    4  C4  UNL     1      65.750  60.258-124.995  1.00  0.00     0.000 C 
HETATM    5  C5  UNL     1      65.225  58.925-125.146  1.00  0.00     0.000 C 
HETATM    6  C6  UNL     1      65.706  57.688-125.701  1.00  0.00     0.000 C 
HETATM    7  C7  UNL     1      64.586  56.690-125.331  1.00  0.00     0.000 C 
HETATM    8  C8  UNL     1      63.200  57.193-125.251  1.00  0.00     0.000 C 
HETATM    9  C9  UNL     1      62.627  57.564-123.925  1.00  0.00     0.002 C 
HETATM   10  C10 UNL     1      62.062  58.993-123.796  1.00  0.00     0.033 C 
ENDROOT
BRANCH   1  11
HETATM   11  N1  UNL     1      62.076  60.362-121.879  1.00  0.00    -0.075 N 
ATOM     12  H13 UNL     1      62.558  60.465-120.985  1.00  0.00     0.274 HD
ATOM     13  H12 UNL     1      61.837  61.344-122.018  1.00  0.00     0.274 HD
ATOM     14  H11 UNL     1      61.255  59.761-121.818  1.00  0.00     0.274 HD
ENDBRANCH   1  11
TORSDOF 1
ENDMDL
MODEL 3
REMARK VINA RESULT: -6.457292623      3.220      5.412
REMARK  1 active torsions:
REMARK  status: ('A' for Active; 'I' for Inactive)
REMARK    1  A    between atoms: N1_1  and  C1_5 
ROOT
HETATM    1  C1  UNL     1      64.932  61.684-124.514  1.00  0.00     0.183 C 
HETATM    2  C2  UNL     1      64.300  62.112-123.305  1.00  0.00     0.033 C 
HETATM    3  C3  UNL     1      63.752  61.379-122.205  1.00  0.00     0.002 C 
HETATM    4  C4  UNL     1      62.433  60.588-122.351  1.00  0.00     0.000 C 
HETATM    5  C5  UNL     1      62.777  59.546-123.283  1.00  0.00     0.000 C 
HETATM    6  C6  UNL     1      62.179  58.307-123.706  1.00  0.00     0.000 C 
HETATM    7  C7  UNL     1      63.108  57.855-124.855  1.00  0.00     0.000 C 
HETATM    8  C8  UNL     1      64.538  58.216-124.781  1.00  0.00     0.000 C 
HETATM    9  C9  UNL     1      65.033  59.416-125.516  1.00  0.00     0.002 C 
HETATM   10  C10 UNL     1      65.779  60.475-124.680  1.00  0.00     0.033 C 
ENDROOT
BRANCH   1  11
HETATM   11  N1  UNL     1      65.782  62.808-125.011  1.00  0.00    -0.075 N 
ATOM     12  H13 UNL     1      66.158  63.383-124.257  1.00  0.00     0.274 HD
ATOM     13  H12 UNL     1      66.672  62.490-125.396  1.00  0.00     0.274 HD
ATOM     14  H11 UNL     1      65.232  63.345-125.681  1.00  0.00     0.274 HD
ENDBRANCH   1  11
TORSDOF 1
ENDMDL
MODEL 4
REMARK VINA RESULT: -6.427840218      2.179      3.825
REMARK  1 active torsions:
REMARK  status: ('A' for Active; 'I' for Inactive)
REMARK    1  A    between atoms: N1_1  and  C1_5 
ROOT
HETATM    1  C1  UNL     1      65.270  58.396-125.089  1.00  0.00     0.183 C 
HETATM    2  C2  UNL     1      64.124  57.543-125.125  1.00  0.00     0.033 C 
HETATM    3  C3  UNL     1      62.728  57.816-124.972  1.00  0.00     0.002 C 
HETATM    4  C4  UNL     1      62.132  58.186-123.595  1.00  0.00     0.000 C 
HETATM    5  C5  UNL     1      62.736  59.462-123.309  1.00  0.00     0.000 C 
HETATM    6  C6  UNL     1      62.495  60.525-122.371  1.00  0.00     0.000 C 
HETATM    7  C7  UNL     1      63.686  61.477-122.620  1.00  0.00     0.000 C 
HETATM    8  C8  UNL     1      64.244  61.555-123.984  1.00  0.00     0.000 C 
HETATM    9  C9  UNL     1      65.453  60.752-124.332  1.00  0.00     0.002 C 
HETATM   10  C10 UNL     1      65.327  59.809-125.545  1.00  0.00     0.033 C 
ENDROOT
BRANCH   1  11
HETATM   11  N1  UNL     1      66.372  57.718-125.838  1.00  0.00    -0.075 N 
ATOM     12  H13 UNL     1      67.135  57.417-125.231  1.00  0.00     0.274 HD
ATOM     13  H12 UNL     1      66.105  56.798-126.188  1.00  0.00     0.274 HD
ATOM     14  H11 UNL     1      66.682  58.348-126.579  1.00  0.00     0.274 HD
ENDBRANCH   1  11
TORSDOF 1
ENDMDL
MODEL 5
REMARK VINA RESULT: -6.003536274      1.150      3.079
REMARK  1 active torsions:
REMARK  status: ('A' for Active; 'I' for Inactive)
REMARK    1  A    between atoms: N1_1  and  C1_5 
ROOT
HETATM    1  C1  UNL     1      64.038  56.547-124.803  1.00  0.00     0.183 C 
HETATM    2  C2  UNL     1      62.751  56.803-124.237  1.00  0.00     0.033 C 
HETATM    3  C3  UNL     1      61.965  57.995-124.159  1.00  0.00     0.002 C 
HETATM    4  C4  UNL     1      62.363  59.154-123.218  1.00  0.00     0.000 C 
HETATM    5  C5  UNL     1      63.598  59.629-123.786  1.00  0.00     0.000 C 
HETATM    6  C6  UNL     1      64.415  60.803-123.633  1.00  0.00     0.000 C 
HETATM    7  C7  UNL     1      65.656  60.470-124.490  1.00  0.00     0.000 C 
HETATM    8  C8  UNL     1      65.474  59.616-125.681  1.00  0.00     0.000 C 
HETATM    9  C9  UNL     1      65.757  58.154-125.590  1.00  0.00     0.002 C 
HETATM   10  C10 UNL     1      64.615  57.205-126.004  1.00  0.00     0.033 C 
ENDROOT
BRANCH   1  11
HETATM   11  N1  UNL     1      64.128  55.085-125.100  1.00  0.00    -0.075 N 
ATOM     12  H13 UNL     1      64.575  54.891-125.997  1.00  0.00     0.274 HD
ATOM     13  H12 UNL     1      64.800  54.601-124.506  1.00  0.00     0.274 HD
ATOM     14  H11 UNL     1      63.189  54.693-125.034  1.00  0.00     0.274 HD
ENDBRANCH   1  11
TORSDOF 1
ENDMDL
