MODEL 1
REMARK VINA RESULT: -8.813204005      0.000      0.000
REMARK  9 active torsions:
REMARK  status: ('A' for Active; 'I' for Inactive)
REMARK    1  A    between atoms: C4_4  and  N1_5 
REMARK    2  A    between atoms: N1_5  and  C5_7 
REMARK    3  A    between atoms: C6_10  and  N3_11 
REMARK    4  A    between atoms: N3_11  and  C7_13 
REMARK    5  A    between atoms: C7_13  and  C8_14 
REMARK    6  A    between atoms: C7_13  and  C13_23 
REMARK    7  A    between atoms: C8_14  and  C9_15 
REMARK    8  A    between atoms: C9_15  and  C10_16 
REMARK    9  A    between atoms: C10_16  and  C12_19 
ROOT
HETATM    1  N3  UNL     1     -29.302  11.947 -91.479  1.00  0.00    -0.366 N 
ATOM      2  H3  UNL     1     -29.838  11.166 -91.855  1.00  0.00     0.161 HD
ENDROOT
BRANCH   1   3
HETATM    3  C6  UNL     1     -29.230  12.989 -92.222  1.00  0.00     0.118 A 
HETATM    4  N2  UNL     1     -28.468  12.979 -93.358  1.00  0.00    -0.177 N 
HETATM    5  C5  UNL     1     -28.360  14.037 -94.168  1.00  0.00     0.685 A 
ATOM      6  H2  UNL     1     -27.960  12.127 -93.597  1.00  0.00     0.186 HD
HETATM    7  N5  UNL     1     -29.008  15.180 -93.895  1.00  0.00    -0.202 N 
HETATM    8  C19 UNL     1     -29.776  15.265 -92.798  1.00  0.00     0.110 A 
ATOM      9  H5  UNL     1     -28.918  15.982 -94.520  1.00  0.00     0.183 HD
HETATM   10  C18 UNL     1     -29.894  14.160 -91.944  1.00  0.00     0.066 A 
BRANCH   5  11
HETATM   11  N1  UNL     1     -27.555  13.962 -95.328  1.00  0.00    -0.175 N 
ATOM     12  H1  UNL     1     -27.887  13.418 -96.125  1.00  0.00     0.186 HD
BRANCH  11  13
HETATM   13  C4  UNL     1     -26.406  14.566 -95.412  1.00  0.00     0.137 A 
HETATM   14  C3  UNL     1     -25.703  15.242 -94.436  1.00  0.00     0.076 A 
HETATM   15  C2  UNL     1     -24.521  15.728 -94.974  1.00  0.00     0.025 A 
HETATM   16  C1  UNL     1     -23.455  16.514 -94.296  1.00  0.00     0.070 C 
HETATM   17  N7  UNL     1     -24.548  15.324 -96.275  1.00  0.00    -0.304 N 
HETATM   18  N6  UNL     1     -25.650  14.647 -96.520  1.00  0.00    -0.285 N 
ATOM     19  H7  UNL     1     -23.819  15.518 -96.960  1.00  0.00     0.186 HD
ATOM     20  H6  UNL     1     -25.895  14.243 -97.424  1.00  0.00     0.188 HD
ENDBRANCH  11  13
ENDBRANCH   5  11
ENDBRANCH   1   3
BRANCH   1  21
HETATM   21  C7  UNL     1     -28.729  11.747 -90.199  1.00  0.00     0.133 C 
BRANCH  21  22
HETATM   22  C8  UNL     1     -29.526  10.689 -89.445  1.00  0.00     0.035 C 
BRANCH  22  23
HETATM   23  C9  UNL     1     -30.787  11.302 -88.880  1.00  0.00     0.055 C 
BRANCH  23  24
HETATM   24  C10 UNL     1     -31.098  10.679 -87.520  1.00  0.00     0.196 C 
HETATM   25  C11 UNL     1     -31.170  11.726 -86.442  1.00  0.00     0.061 C 
HETATM   26  F1  UNL     1     -30.113   9.740 -87.284  1.00  0.00    -0.234 F 
BRANCH  24  27
HETATM   27  C12 UNL     1     -32.416   9.937 -87.648  1.00  0.00     0.422 C 
HETATM   28  F2  UNL     1     -33.486  10.814 -87.525  1.00  0.00    -0.168 F 
HETATM   29  F3  UNL     1     -32.453   8.996 -86.642  1.00  0.00    -0.168 F 
HETATM   30  F4  UNL     1     -32.467   9.341 -88.892  1.00  0.00    -0.168 F 
ENDBRANCH  24  27
ENDBRANCH  23  24
ENDBRANCH  22  23
ENDBRANCH  21  22
BRANCH  21  31
HETATM   31  C13 UNL     1     -27.372  11.119 -90.438  1.00  0.00     0.032 A 
HETATM   32  C14 UNL     1     -27.171   9.781 -90.142  1.00  0.00     0.027 A 
HETATM   33  C15 UNL     1     -25.930   9.261 -90.375  1.00  0.00     0.003 A 
HETATM   34  C16 UNL     1     -24.940  10.066 -90.885  1.00  0.00     0.017 A 
HETATM   35  C17 UNL     1     -25.166  11.406 -91.174  1.00  0.00     0.088 A 
HETATM   36  N4  UNL     1     -26.402  11.876 -90.929  1.00  0.00    -0.367 N 
ATOM     37  H4  UNL     1     -26.601  12.856 -91.129  1.00  0.00     0.165 HD
ENDBRANCH  21  31
ENDBRANCH   1  21
TORSDOF 9
ENDMDL
MODEL 2
REMARK VINA RESULT: -8.763352339      2.290      4.491
REMARK  9 active torsions:
REMARK  status: ('A' for Active; 'I' for Inactive)
REMARK    1  A    between atoms: C4_4  and  N1_5 
REMARK    2  A    between atoms: N1_5  and  C5_7 
REMARK    3  A    between atoms: C6_10  and  N3_11 
REMARK    4  A    between atoms: N3_11  and  C7_13 
REMARK    5  A    between atoms: C7_13  and  C8_14 
REMARK    6  A    between atoms: C7_13  and  C13_23 
REMARK    7  A    between atoms: C8_14  and  C9_15 
REMARK    8  A    between atoms: C9_15  and  C10_16 
REMARK    9  A    between atoms: C10_16  and  C12_19 
ROOT
HETATM    1  N3  UNL     1     -28.905  12.640 -90.699  1.00  0.00    -0.366 N 
ATOM      2  H3  UNL     1     -28.118  13.000 -90.159  1.00  0.00     0.161 HD
ENDROOT
BRANCH   1   3
HETATM    3  C6  UNL     1     -29.080  13.167 -91.854  1.00  0.00     0.118 A 
HETATM    4  N2  UNL     1     -28.118  13.055 -92.820  1.00  0.00    -0.177 N 
HETATM    5  C5  UNL     1     -28.251  13.585 -94.041  1.00  0.00     0.685 A 
ATOM      6  H2  UNL     1     -27.262  12.546 -92.599  1.00  0.00     0.186 HD
HETATM    7  N5  UNL     1     -29.358  14.265 -94.378  1.00  0.00    -0.202 N 
HETATM    8  C19 UNL     1     -30.345  14.416 -93.482  1.00  0.00     0.110 A 
ATOM      9  H5  UNL     1     -29.448  14.666 -95.312  1.00  0.00     0.183 HD
HETATM   10  C18 UNL     1     -30.213  13.864 -92.201  1.00  0.00     0.066 A 
BRANCH   5  11
HETATM   11  N1  UNL     1     -27.219  13.434 -94.995  1.00  0.00    -0.175 N 
ATOM     12  H1  UNL     1     -27.149  12.556 -95.511  1.00  0.00     0.186 HD
BRANCH  11  13
HETATM   13  C4  UNL     1     -26.356  14.377 -95.236  1.00  0.00     0.137 A 
HETATM   14  C3  UNL     1     -25.908  15.382 -94.403  1.00  0.00     0.076 A 
HETATM   15  C2  UNL     1     -24.986  16.165 -95.082  1.00  0.00     0.025 A 
HETATM   16  C1  UNL     1     -24.246  17.355 -94.584  1.00  0.00     0.070 C 
HETATM   17  N7  UNL     1     -24.906  15.600 -96.318  1.00  0.00    -0.304 N 
HETATM   18  N6  UNL     1     -25.707  14.559 -96.398  1.00  0.00    -0.285 N 
ATOM     19  H7  UNL     1     -24.309  15.936 -97.074  1.00  0.00     0.186 HD
ATOM     20  H6  UNL     1     -25.820  13.973 -97.226  1.00  0.00     0.188 HD
ENDBRANCH  11  13
ENDBRANCH   5  11
ENDBRANCH   1   3
BRANCH   1  21
HETATM   21  C7  UNL     1     -29.668  11.621 -90.079  1.00  0.00     0.133 C 
BRANCH  21  22
HETATM   22  C8  UNL     1     -28.759  10.454 -89.716  1.00  0.00     0.035 C 
BRANCH  22  23
HETATM   23  C9  UNL     1     -27.627  10.355 -90.714  1.00  0.00     0.055 C 
BRANCH  23  24
HETATM   24  C10 UNL     1     -26.499   9.505 -90.130  1.00  0.00     0.196 C 
HETATM   25  C11 UNL     1     -26.109   8.396 -91.069  1.00  0.00     0.061 C 
HETATM   26  F1  UNL     1     -26.950   9.037 -88.912  1.00  0.00    -0.234 F 
BRANCH  24  27
HETATM   27  C12 UNL     1     -25.324  10.428 -89.859  1.00  0.00     0.422 C 
HETATM   28  F2  UNL     1     -24.413  10.381 -90.906  1.00  0.00    -0.168 F 
HETATM   29  F3  UNL     1     -24.731  10.000 -88.691  1.00  0.00    -0.168 F 
HETATM   30  F4  UNL     1     -25.798  11.719 -89.736  1.00  0.00    -0.168 F 
ENDBRANCH  24  27
ENDBRANCH  23  24
ENDBRANCH  22  23
ENDBRANCH  21  22
BRANCH  21  31
HETATM   31  C13 UNL     1     -30.129  12.187 -88.753  1.00  0.00     0.032 A 
HETATM   32  C14 UNL     1     -30.400  11.333 -87.697  1.00  0.00     0.027 A 
HETATM   33  C15 UNL     1     -30.812  11.891 -86.520  1.00  0.00     0.003 A 
HETATM   34  C16 UNL     1     -30.943  13.255 -86.424  1.00  0.00     0.017 A 
HETATM   35  C17 UNL     1     -30.665  14.092 -87.498  1.00  0.00     0.088 A 
HETATM   36  N4  UNL     1     -30.262  13.500 -88.636  1.00  0.00    -0.367 N 
ATOM     37  H4  UNL     1     -30.051  14.086 -89.445  1.00  0.00     0.165 HD
ENDBRANCH  21  31
ENDBRANCH   1  21
TORSDOF 9
ENDMDL
MODEL 3
REMARK VINA RESULT: -8.736002181      0.948      1.342
REMARK  9 active torsions:
REMARK  status: ('A' for Active; 'I' for Inactive)
REMARK    1  A    between atoms: C4_4  and  N1_5 
REMARK    2  A    between atoms: N1_5  and  C5_7 
REMARK    3  A    between atoms: C6_10  and  N3_11 
REMARK    4  A    between atoms: N3_11  and  C7_13 
REMARK    5  A    between atoms: C7_13  and  C8_14 
REMARK    6  A    between atoms: C7_13  and  C13_23 
REMARK    7  A    between atoms: C8_14  and  C9_15 
REMARK    8  A    between atoms: C9_15  and  C10_16 
REMARK    9  A    between atoms: C10_16  and  C12_19 
ROOT
HETATM    1  N3  UNL     1     -29.292  12.569 -91.199  1.00  0.00    -0.366 N 
ATOM      2  H3  UNL     1     -30.032  11.874 -91.103  1.00  0.00     0.161 HD
ENDROOT
BRANCH   1   3
HETATM    3  C6  UNL     1     -29.281  13.228 -92.299  1.00  0.00     0.118 A 
HETATM    4  N2  UNL     1     -28.250  13.079 -93.185  1.00  0.00    -0.177 N 
HETATM    5  C5  UNL     1     -28.191  13.741 -94.346  1.00  0.00     0.685 A 
ATOM      6  H2  UNL     1     -27.495  12.435 -92.951  1.00  0.00     0.186 HD
HETATM    7  N5  UNL     1     -29.160  14.600 -94.698  1.00  0.00    -0.202 N 
HETATM    8  C19 UNL     1     -30.203  14.798 -93.878  1.00  0.00     0.110 A 
ATOM      9  H5  UNL     1     -29.104  15.100 -95.585  1.00  0.00     0.183 HD
HETATM   10  C18 UNL     1     -30.273  14.108 -92.661  1.00  0.00     0.066 A 
BRANCH   5  11
HETATM   11  N1  UNL     1     -27.097  13.542 -95.219  1.00  0.00    -0.175 N 
ATOM     12  H1  UNL     1     -27.012  12.651 -95.709  1.00  0.00     0.186 HD
BRANCH  11  13
HETATM   13  C4  UNL     1     -26.195  14.459 -95.419  1.00  0.00     0.137 A 
HETATM   14  C3  UNL     1     -25.749  15.443 -94.562  1.00  0.00     0.076 A 
HETATM   15  C2  UNL     1     -24.777  16.201 -95.198  1.00  0.00     0.025 A 
HETATM   16  C1  UNL     1     -24.019  17.363 -94.662  1.00  0.00     0.070 C 
HETATM   17  N7  UNL     1     -24.666  15.641 -96.434  1.00  0.00    -0.304 N 
HETATM   18  N6  UNL     1     -25.496  14.627 -96.554  1.00  0.00    -0.285 N 
ATOM     19  H7  UNL     1     -24.030  15.963 -97.164  1.00  0.00     0.186 HD
ATOM     20  H6  UNL     1     -25.594  14.051 -97.390  1.00  0.00     0.188 HD
ENDBRANCH  11  13
ENDBRANCH   5  11
ENDBRANCH   1   3
BRANCH   1  21
HETATM   21  C7  UNL     1     -28.405  12.688 -90.102  1.00  0.00     0.133 C 
BRANCH  21  22
HETATM   22  C8  UNL     1     -29.174  12.478 -88.802  1.00  0.00     0.035 C 
BRANCH  22  23
HETATM   23  C9  UNL     1     -30.617  12.148 -89.107  1.00  0.00     0.055 C 
BRANCH  23  24
HETATM   24  C10 UNL     1     -31.329  11.719 -87.824  1.00  0.00     0.196 C 
HETATM   25  C11 UNL     1     -32.737  12.248 -87.778  1.00  0.00     0.061 C 
HETATM   26  F1  UNL     1     -30.555  12.173 -86.775  1.00  0.00    -0.234 F 
BRANCH  24  27
HETATM   27  C12 UNL     1     -31.316  10.201 -87.780  1.00  0.00     0.422 C 
HETATM   28  F2  UNL     1     -30.051   9.732 -87.451  1.00  0.00    -0.168 F 
HETATM   29  F3  UNL     1     -31.680   9.754 -89.032  1.00  0.00    -0.168 F 
HETATM   30  F4  UNL     1     -32.213   9.781 -86.818  1.00  0.00    -0.168 F 
ENDBRANCH  24  27
ENDBRANCH  23  24
ENDBRANCH  22  23
ENDBRANCH  21  22
BRANCH  21  31
HETATM   31  C13 UNL     1     -27.461  11.508 -90.193  1.00  0.00     0.032 A 
HETATM   32  C14 UNL     1     -27.897  10.247 -89.823  1.00  0.00     0.027 A 
HETATM   33  C15 UNL     1     -27.007   9.215 -89.923  1.00  0.00     0.003 A 
HETATM   34  C16 UNL     1     -25.733   9.457 -90.378  1.00  0.00     0.017 A 
HETATM   35  C17 UNL     1     -25.320  10.732 -90.744  1.00  0.00     0.088 A 
HETATM   36  N4  UNL     1     -26.228  11.718 -90.628  1.00  0.00    -0.367 N 
ATOM     37  H4  UNL     1     -25.955  12.666 -90.887  1.00  0.00     0.165 HD
ENDBRANCH  21  31
ENDBRANCH   1  21
TORSDOF 9
ENDMDL
MODEL 4
REMARK VINA RESULT: -8.586694865      1.655      2.158
REMARK  9 active torsions:
REMARK  status: ('A' for Active; 'I' for Inactive)
REMARK    1  A    between atoms: C4_4  and  N1_5 
REMARK    2  A    between atoms: N1_5  and  C5_7 
REMARK    3  A    between atoms: C6_10  and  N3_11 
REMARK    4  A    between atoms: N3_11  and  C7_13 
REMARK    5  A    between atoms: C7_13  and  C8_14 
REMARK    6  A    between atoms: C7_13  and  C13_23 
REMARK    7  A    between atoms: C8_14  and  C9_15 
REMARK    8  A    between atoms: C9_15  and  C10_16 
REMARK    9  A    between atoms: C10_16  and  C12_19 
ROOT
HETATM    1  N3  UNL     1     -29.242  12.395 -91.443  1.00  0.00    -0.366 N 
ATOM      2  H3  UNL     1     -29.907  11.623 -91.463  1.00  0.00     0.161 HD
ENDROOT
BRANCH   1   3
HETATM    3  C6  UNL     1     -29.211  13.136 -92.489  1.00  0.00     0.118 A 
HETATM    4  N2  UNL     1     -28.181  13.031 -93.382  1.00  0.00    -0.177 N 
HETATM    5  C5  UNL     1     -28.101  13.779 -94.489  1.00  0.00     0.685 A 
ATOM      6  H2  UNL     1     -27.442  12.352 -93.197  1.00  0.00     0.186 HD
HETATM    7  N5  UNL     1     -29.048  14.686 -94.774  1.00  0.00    -0.202 N 
HETATM    8  C19 UNL     1     -30.089  14.846 -93.943  1.00  0.00     0.110 A 
ATOM      9  H5  UNL     1     -28.977  15.252 -95.620  1.00  0.00     0.183 HD
HETATM   10  C18 UNL     1     -30.180  14.065 -92.783  1.00  0.00     0.066 A 
BRANCH   5  11
HETATM   11  N1  UNL     1     -27.010  13.621 -95.373  1.00  0.00    -0.175 N 
ATOM     12  H1  UNL     1     -26.946  12.770 -95.932  1.00  0.00     0.186 HD
BRANCH  11  13
HETATM   13  C4  UNL     1     -26.083  14.527 -95.497  1.00  0.00     0.137 A 
HETATM   14  C3  UNL     1     -25.643  15.454 -94.576  1.00  0.00     0.076 A 
HETATM   15  C2  UNL     1     -24.636  16.222 -95.142  1.00  0.00     0.025 A 
HETATM   16  C1  UNL     1     -23.870  17.337 -94.522  1.00  0.00     0.070 C 
HETATM   17  N7  UNL     1     -24.499  15.726 -96.402  1.00  0.00    -0.304 N 
HETATM   18  N6  UNL     1     -25.346  14.739 -96.600  1.00  0.00    -0.285 N 
ATOM     19  H7  UNL     1     -23.834  16.071 -97.095  1.00  0.00     0.186 HD
ATOM     20  H6  UNL     1     -25.431  14.210 -97.468  1.00  0.00     0.188 HD
ENDBRANCH  11  13
ENDBRANCH   5  11
ENDBRANCH   1   3
BRANCH   1  21
HETATM   21  C7  UNL     1     -28.467  12.516 -90.264  1.00  0.00     0.133 C 
BRANCH  21  22
HETATM   22  C8  UNL     1     -29.338  12.218 -89.050  1.00  0.00     0.035 C 
BRANCH  22  23
HETATM   23  C9  UNL     1     -29.855  13.510 -88.459  1.00  0.00     0.055 C 
BRANCH  23  24
HETATM   24  C10 UNL     1     -31.305  13.329 -88.013  1.00  0.00     0.196 C 
HETATM   25  C11 UNL     1     -31.906  12.081 -88.601  1.00  0.00     0.061 C 
HETATM   26  F1  UNL     1     -31.978  14.474 -88.393  1.00  0.00    -0.234 F 
BRANCH  24  27
HETATM   27  C12 UNL     1     -31.314  13.276 -86.496  1.00  0.00     0.422 C 
HETATM   28  F2  UNL     1     -30.741  12.094 -86.044  1.00  0.00    -0.168 F 
HETATM   29  F3  UNL     1     -32.630  13.352 -86.093  1.00  0.00    -0.168 F 
HETATM   30  F4  UNL     1     -30.581  14.341 -86.013  1.00  0.00    -0.168 F 
ENDBRANCH  24  27
ENDBRANCH  23  24
ENDBRANCH  22  23
ENDBRANCH  21  22
BRANCH  21  31
HETATM   31  C13 UNL     1     -27.456  11.390 -90.306  1.00  0.00     0.032 A 
HETATM   32  C14 UNL     1     -27.790  10.145 -89.804  1.00  0.00     0.027 A 
HETATM   33  C15 UNL     1     -26.844   9.162 -89.864  1.00  0.00     0.003 A 
HETATM   34  C16 UNL     1     -25.613   9.436 -90.411  1.00  0.00     0.017 A 
HETATM   35  C17 UNL     1     -25.301  10.694 -90.910  1.00  0.00     0.088 A 
HETATM   36  N4  UNL     1     -26.262  11.631 -90.829  1.00  0.00    -0.367 N 
ATOM     37  H4  UNL     1     -26.065  12.567 -91.185  1.00  0.00     0.165 HD
ENDBRANCH  21  31
ENDBRANCH   1  21
TORSDOF 9
ENDMDL
MODEL 5
REMARK VINA RESULT: -8.537690210      1.234      1.534
REMARK  9 active torsions:
REMARK  status: ('A' for Active; 'I' for Inactive)
REMARK    1  A    between atoms: C4_4  and  N1_5 
REMARK    2  A    between atoms: N1_5  and  C5_7 
REMARK    3  A    between atoms: C6_10  and  N3_11 
REMARK    4  A    between atoms: N3_11  and  C7_13 
REMARK    5  A    between atoms: C7_13  and  C8_14 
REMARK    6  A    between atoms: C7_13  and  C13_23 
REMARK    7  A    between atoms: C8_14  and  C9_15 
REMARK    8  A    between atoms: C9_15  and  C10_16 
REMARK    9  A    between atoms: C10_16  and  C12_19 
ROOT
HETATM    1  N3  UNL     1     -29.387  12.458 -91.299  1.00  0.00    -0.366 N 
ATOM      2  H3  UNL     1     -30.070  11.701 -91.325  1.00  0.00     0.161 HD
ENDROOT
BRANCH   1   3
HETATM    3  C6  UNL     1     -29.332  13.201 -92.342  1.00  0.00     0.118 A 
HETATM    4  N2  UNL     1     -28.322  13.045 -93.251  1.00  0.00    -0.177 N 
HETATM    5  C5  UNL     1     -28.218  13.792 -94.356  1.00  0.00     0.685 A 
ATOM      6  H2  UNL     1     -27.617  12.327 -93.078  1.00  0.00     0.186 HD
HETATM    7  N5  UNL     1     -29.120  14.748 -94.625  1.00  0.00    -0.202 N 
HETATM    8  C19 UNL     1     -30.139  14.960 -93.779  1.00  0.00     0.110 A 
ATOM      9  H5  UNL     1     -29.031  15.313 -95.470  1.00  0.00     0.183 HD
HETATM   10  C18 UNL     1     -30.255  14.181 -92.620  1.00  0.00     0.066 A 
BRANCH   5  11
HETATM   11  N1  UNL     1     -27.149  13.580 -95.256  1.00  0.00    -0.175 N 
ATOM     12  H1  UNL     1     -27.122  12.715 -95.796  1.00  0.00     0.186 HD
BRANCH  11  13
HETATM   13  C4  UNL     1     -26.198  14.454 -95.418  1.00  0.00     0.137 A 
HETATM   14  C3  UNL     1     -25.691  15.368 -94.518  1.00  0.00     0.076 A 
HETATM   15  C2  UNL     1     -24.682  16.100 -95.125  1.00  0.00     0.025 A 
HETATM   16  C1  UNL     1     -23.855  17.190 -94.539  1.00  0.00     0.070 C 
HETATM   17  N7  UNL     1     -24.611  15.598 -96.388  1.00  0.00    -0.304 N 
HETATM   18  N6  UNL     1     -25.498  14.639 -96.550  1.00  0.00    -0.285 N 
ATOM     19  H7  UNL     1     -23.963  15.919 -97.107  1.00  0.00     0.186 HD
ATOM     20  H6  UNL     1     -25.635  14.112 -97.413  1.00  0.00     0.188 HD
ENDBRANCH  11  13
ENDBRANCH   5  11
ENDBRANCH   1   3
BRANCH   1  21
HETATM   21  C7  UNL     1     -28.617  12.558 -90.114  1.00  0.00     0.133 C 
BRANCH  21  22
HETATM   22  C8  UNL     1     -29.472  12.159 -88.917  1.00  0.00     0.035 C 
BRANCH  22  23
HETATM   23  C9  UNL     1     -30.230  13.362 -88.403  1.00  0.00     0.055 C 
BRANCH  23  24
HETATM   24  C10 UNL     1     -30.942  13.003 -87.099  1.00  0.00     0.196 C 
HETATM   25  C11 UNL     1     -30.942  14.163 -86.141  1.00  0.00     0.061 C 
HETATM   26  F1  UNL     1     -30.294  11.894 -86.591  1.00  0.00    -0.234 F 
BRANCH  24  27
HETATM   27  C12 UNL     1     -32.358  12.586 -87.450  1.00  0.00     0.422 C 
HETATM   28  F2  UNL     1     -32.674  12.968 -88.748  1.00  0.00    -0.168 F 
HETATM   29  F3  UNL     1     -33.200  13.207 -86.552  1.00  0.00    -0.168 F 
HETATM   30  F4  UNL     1     -32.450  11.212 -87.353  1.00  0.00    -0.168 F 
ENDBRANCH  24  27
ENDBRANCH  23  24
ENDBRANCH  22  23
ENDBRANCH  21  22
BRANCH  21  31
HETATM   31  C13 UNL     1     -27.553  11.486 -90.210  1.00  0.00     0.032 A 
HETATM   32  C14 UNL     1     -27.869  10.173 -89.909  1.00  0.00     0.027 A 
HETATM   33  C15 UNL     1     -26.874   9.242 -90.011  1.00  0.00     0.003 A 
HETATM   34  C16 UNL     1     -25.616   9.632 -90.401  1.00  0.00     0.017 A 
HETATM   35  C17 UNL     1     -25.323  10.958 -90.699  1.00  0.00     0.088 A 
HETATM   36  N4  UNL     1     -26.332  11.839 -90.584  1.00  0.00    -0.367 N 
ATOM     37  H4  UNL     1     -26.150  12.821 -90.794  1.00  0.00     0.165 HD
ENDBRANCH  21  31
ENDBRANCH   1  21
TORSDOF 9
ENDMDL
