MODEL 1
REMARK VINA RESULT: -7.696201751      0.000      0.000
REMARK  9 active torsions:
REMARK  status: ('A' for Active; 'I' for Inactive)
REMARK    1  A    between atoms: C2_2  and  C3_4 
REMARK    2  A    between atoms: C3_4  and  N1_5 
REMARK    3  A    between atoms: N1_5  and  N2_7 
REMARK       I    between atoms: N2_7  and  C4_9 
REMARK       I    between atoms: C4_9  and  N4_13 
REMARK       I    between atoms: N4_13  and  C5_15 
REMARK    4  A    between atoms: C5_15  and  C6_17 
REMARK    5  A    between atoms: C6_17  and  O2_18 
REMARK    6  A    between atoms: O2_18  and  C7_19 
REMARK    7  A    between atoms: C12_24  and  C13_25 
REMARK    8  A    between atoms: C16_28  and  O3_29 
REMARK    9  A    between atoms: O3_29  and  C17_30 
ROOT
HETATM    1  C6  UNL     1     -32.932  12.737 -90.889  1.00  0.00     0.279 C 
ENDROOT
BRANCH   1   2
HETATM    2  C5  UNL     1     -31.952  13.440 -91.731  1.00  0.00     0.260 C 
HETATM    3  N4  UNL     1     -32.220  14.698 -92.345  1.00  0.00    -0.157 N 
HETATM    4  C4  UNL     1     -31.277  15.378 -93.159  1.00  0.00     0.693 C 
ATOM      5  H4  UNL     1     -33.131  15.128 -92.193  1.00  0.00     0.187 HD
HETATM    6  N2  UNL     1     -30.020  14.799 -93.378  1.00  0.00    -0.125 N 
HETATM    7  N3  UNL     1     -31.578  16.497 -93.675  1.00  0.00    -0.233 N 
ATOM      8  H2  UNL     1     -29.307  14.937 -92.662  1.00  0.00     0.206 HD
ATOM      9  H32 UNL     1     -30.901  16.986 -94.260  1.00  0.00     0.174 HD
ATOM     10  H31 UNL     1     -32.494  16.919 -93.516  1.00  0.00     0.174 HD
HETATM   11  O1  UNL     1     -30.807  12.938 -91.947  1.00  0.00    -0.270 OA
BRANCH   6  12
HETATM   12  N1  UNL     1     -29.665  14.044 -94.509  1.00  0.00    -0.250 N 
ATOM     13  H1  UNL     1     -30.366  13.676 -95.152  1.00  0.00     0.197 HD
BRANCH  12  14
HETATM   14  C3  UNL     1     -28.399  13.840 -94.690  1.00  0.00    -0.006 C 
BRANCH  14  15
HETATM   15  C2  UNL     1     -27.102  13.825 -94.562  1.00  0.00     0.071 C 
HETATM   16  C1  UNL     1     -26.499  13.158 -93.413  1.00  0.00     0.073 C 
HETATM   17 CL1  UNL     1     -26.110  14.586 -95.765  1.00  0.00    -0.079 Cl
ENDBRANCH  14  15
ENDBRANCH  12  14
ENDBRANCH   6  12
ENDBRANCH   1   2
BRANCH   1  18
HETATM   18  O2  UNL     1     -32.383  12.059 -89.796  1.00  0.00    -0.341 OA
BRANCH  18  19
HETATM   19  C7  UNL     1     -32.244  12.533 -88.511  1.00  0.00     0.080 A 
HETATM   20  C8  UNL     1     -33.289  13.041 -87.751  1.00  0.00     0.037 A 
HETATM   21  C9  UNL     1     -33.062  13.492 -86.476  1.00  0.00     0.003 A 
HETATM   22  C10 UNL     1     -31.800  13.450 -85.926  1.00  0.00     0.001 A 
HETATM   23  C11 UNL     1     -30.760  12.936 -86.703  1.00  0.00     0.015 A 
HETATM   24  C12 UNL     1     -30.964  12.480 -87.982  1.00  0.00     0.007 A 
BRANCH  24  25
HETATM   25  C13 UNL     1     -29.849  11.943 -88.759  1.00  0.00    -0.023 A 
HETATM   26  C14 UNL     1     -29.772  10.605 -89.081  1.00  0.00     0.015 A 
HETATM   27  C15 UNL     1     -28.710  10.078 -89.831  1.00  0.00     0.038 A 
HETATM   28  C16 UNL     1     -27.688  10.873 -90.283  1.00  0.00     0.074 A 
HETATM   29  C18 UNL     1     -27.787  12.235 -89.941  1.00  0.00     0.038 A 
HETATM   30  C19 UNL     1     -28.827  12.751 -89.207  1.00  0.00     0.015 A 
BRANCH  28  31
HETATM   31  O3  UNL     1     -26.621  10.427 -91.019  1.00  0.00    -0.290 OA
BRANCH  31  32
HETATM   32  C17 UNL     1     -25.698   9.492 -90.549  1.00  0.00     0.505 C 
HETATM   33  F1  UNL     1     -25.709   9.383 -89.184  1.00  0.00    -0.184 F 
HETATM   34  F2  UNL     1     -26.074   8.241 -91.067  1.00  0.00    -0.184 F 
ENDBRANCH  31  32
ENDBRANCH  28  31
ENDBRANCH  24  25
ENDBRANCH  18  19
ENDBRANCH   1  18
TORSDOF 9
ENDMDL
MODEL 2
REMARK VINA RESULT: -7.659251094      0.744      1.199
REMARK  9 active torsions:
REMARK  status: ('A' for Active; 'I' for Inactive)
REMARK    1  A    between atoms: C2_2  and  C3_4 
REMARK    2  A    between atoms: C3_4  and  N1_5 
REMARK    3  A    between atoms: N1_5  and  N2_7 
REMARK       I    between atoms: N2_7  and  C4_9 
REMARK       I    between atoms: C4_9  and  N4_13 
REMARK       I    between atoms: N4_13  and  C5_15 
REMARK    4  A    between atoms: C5_15  and  C6_17 
REMARK    5  A    between atoms: C6_17  and  O2_18 
REMARK    6  A    between atoms: O2_18  and  C7_19 
REMARK    7  A    between atoms: C12_24  and  C13_25 
REMARK    8  A    between atoms: C16_28  and  O3_29 
REMARK    9  A    between atoms: O3_29  and  C17_30 
ROOT
HETATM    1  C6  UNL     1     -32.692  13.151 -91.107  1.00  0.00     0.279 C 
ENDROOT
BRANCH   1   2
HETATM    2  C5  UNL     1     -31.685  13.868 -91.904  1.00  0.00     0.260 C 
HETATM    3  N4  UNL     1     -31.939  15.128 -92.519  1.00  0.00    -0.157 N 
HETATM    4  C4  UNL     1     -30.970  15.823 -93.290  1.00  0.00     0.693 C 
ATOM      5  H4  UNL     1     -32.859  15.550 -92.401  1.00  0.00     0.187 HD
HETATM    6  N2  UNL     1     -29.699  15.256 -93.461  1.00  0.00    -0.125 N 
HETATM    7  N3  UNL     1     -31.259  16.943 -93.810  1.00  0.00    -0.233 N 
ATOM      8  H2  UNL     1     -29.018  15.394 -92.715  1.00  0.00     0.206 HD
ATOM      9  H32 UNL     1     -30.563  17.441 -94.363  1.00  0.00     0.174 HD
ATOM     10  H31 UNL     1     -32.184  17.355 -93.685  1.00  0.00     0.174 HD
HETATM   11  O1  UNL     1     -30.528  13.378 -92.076  1.00  0.00    -0.270 OA
BRANCH   6  12
HETATM   12  N1  UNL     1     -29.292  14.512 -94.582  1.00  0.00    -0.250 N 
ATOM     13  H1  UNL     1     -29.960  14.178 -95.277  1.00  0.00     0.197 HD
BRANCH  12  14
HETATM   14  C3  UNL     1     -28.024  14.273 -94.683  1.00  0.00    -0.006 C 
BRANCH  14  15
HETATM   15  C2  UNL     1     -26.745  14.173 -94.449  1.00  0.00     0.071 C 
HETATM   16  C1  UNL     1     -25.810  15.016 -95.185  1.00  0.00     0.073 C 
HETATM   17 CL1  UNL     1     -26.174  13.047 -93.258  1.00  0.00    -0.079 Cl
ENDBRANCH  14  15
ENDBRANCH  12  14
ENDBRANCH   6  12
ENDBRANCH   1   2
BRANCH   1  18
HETATM   18  O2  UNL     1     -32.169  12.353 -90.086  1.00  0.00    -0.341 OA
BRANCH  18  19
HETATM   19  C7  UNL     1     -32.104  12.659 -88.745  1.00  0.00     0.080 A 
HETATM   20  C8  UNL     1     -33.173  13.146 -88.005  1.00  0.00     0.037 A 
HETATM   21  C9  UNL     1     -33.021  13.424 -86.671  1.00  0.00     0.003 A 
HETATM   22  C10 UNL     1     -31.812  13.227 -86.041  1.00  0.00     0.001 A 
HETATM   23  C11 UNL     1     -30.748  12.736 -86.799  1.00  0.00     0.015 A 
HETATM   24  C12 UNL     1     -30.877  12.451 -88.136  1.00  0.00     0.007 A 
BRANCH  24  25
HETATM   25  C13 UNL     1     -29.738  11.931 -88.891  1.00  0.00    -0.023 A 
HETATM   26  C14 UNL     1     -28.688  12.743 -89.263  1.00  0.00     0.015 A 
HETATM   27  C15 UNL     1     -27.587  12.255 -89.983  1.00  0.00     0.038 A 
HETATM   28  C16 UNL     1     -27.502  10.939 -90.356  1.00  0.00     0.074 A 
HETATM   29  C18 UNL     1     -28.585  10.130 -89.967  1.00  0.00     0.038 A 
HETATM   30  C19 UNL     1     -29.663  10.607 -89.262  1.00  0.00     0.015 A 
BRANCH  28  31
HETATM   31  O3  UNL     1     -26.457  10.395 -91.059  1.00  0.00    -0.290 OA
BRANCH  31  32
HETATM   32  C17 UNL     1     -25.635   9.385 -90.559  1.00  0.00     0.505 C 
HETATM   33  F1  UNL     1     -25.705   9.277 -89.196  1.00  0.00    -0.184 F 
HETATM   34  F2  UNL     1     -26.099   8.170 -91.094  1.00  0.00    -0.184 F 
ENDBRANCH  31  32
ENDBRANCH  28  31
ENDBRANCH  24  25
ENDBRANCH  18  19
ENDBRANCH   1  18
TORSDOF 9
ENDMDL
MODEL 3
REMARK VINA RESULT: -7.645244349      1.447      2.059
REMARK  9 active torsions:
REMARK  status: ('A' for Active; 'I' for Inactive)
REMARK    1  A    between atoms: C2_2  and  C3_4 
REMARK    2  A    between atoms: C3_4  and  N1_5 
REMARK    3  A    between atoms: N1_5  and  N2_7 
REMARK       I    between atoms: N2_7  and  C4_9 
REMARK       I    between atoms: C4_9  and  N4_13 
REMARK       I    between atoms: N4_13  and  C5_15 
REMARK    4  A    between atoms: C5_15  and  C6_17 
REMARK    5  A    between atoms: C6_17  and  O2_18 
REMARK    6  A    between atoms: O2_18  and  C7_19 
REMARK    7  A    between atoms: C12_24  and  C13_25 
REMARK    8  A    between atoms: C16_28  and  O3_29 
REMARK    9  A    between atoms: O3_29  and  C17_30 
ROOT
HETATM    1  C6  UNL     1     -31.426  14.685 -90.976  1.00  0.00     0.279 C 
ENDROOT
BRANCH   1   2
HETATM    2  C5  UNL     1     -30.467  14.610 -92.088  1.00  0.00     0.260 C 
HETATM    3  N4  UNL     1     -30.606  13.693 -93.170  1.00  0.00    -0.157 N 
HETATM    4  C4  UNL     1     -29.682  13.617 -94.245  1.00  0.00     0.693 C 
ATOM      5  H4  UNL     1     -31.406  13.061 -93.171  1.00  0.00     0.187 HD
HETATM    6  N2  UNL     1     -28.577  14.479 -94.258  1.00  0.00    -0.125 N 
HETATM    7  N3  UNL     1     -29.866  12.779 -95.178  1.00  0.00    -0.233 N 
ATOM      8  H2  UNL     1     -28.721  15.423 -94.617  1.00  0.00     0.206 HD
ATOM      9  H32 UNL     1     -29.202  12.724 -95.951  1.00  0.00     0.174 HD
ATOM     10  H31 UNL     1     -30.670  12.151 -95.169  1.00  0.00     0.174 HD
HETATM   11  O1  UNL     1     -29.457  15.378 -92.125  1.00  0.00    -0.270 OA
BRANCH   6  12
HETATM   12  N1  UNL     1     -27.286  14.144 -93.815  1.00  0.00    -0.250 N 
ATOM     13  H1  UNL     1     -27.133  13.452 -93.081  1.00  0.00     0.197 HD
BRANCH  12  14
HETATM   14  C3  UNL     1     -26.303  14.760 -94.390  1.00  0.00    -0.006 C 
BRANCH  14  15
HETATM   15  C2  UNL     1     -25.117  15.145 -94.770  1.00  0.00     0.071 C 
HETATM   16  C1  UNL     1     -24.944  15.749 -96.087  1.00  0.00     0.073 C 
HETATM   17 CL1  UNL     1     -23.765  14.947 -93.702  1.00  0.00    -0.079 Cl
ENDBRANCH  14  15
ENDBRANCH  12  14
ENDBRANCH   6  12
ENDBRANCH   1   2
BRANCH   1  18
HETATM   18  O2  UNL     1     -31.570  13.500 -90.249  1.00  0.00    -0.341 OA
BRANCH  18  19
HETATM   19  C7  UNL     1     -31.705  13.376 -88.884  1.00  0.00     0.080 A 
HETATM   20  C8  UNL     1     -32.757  13.913 -88.154  1.00  0.00     0.037 A 
HETATM   21  C9  UNL     1     -32.816  13.740 -86.795  1.00  0.00     0.003 A 
HETATM   22  C10 UNL     1     -31.838  13.034 -86.130  1.00  0.00     0.001 A 
HETATM   23  C11 UNL     1     -30.788  12.499 -86.878  1.00  0.00     0.015 A 
HETATM   24  C12 UNL     1     -30.709  12.660 -88.240  1.00  0.00     0.007 A 
BRANCH  24  25
HETATM   25  C13 UNL     1     -29.595  12.078 -88.987  1.00  0.00    -0.023 A 
HETATM   26  C14 UNL     1     -28.476  12.817 -89.306  1.00  0.00     0.015 A 
HETATM   27  C15 UNL     1     -27.398  12.268 -90.017  1.00  0.00     0.038 A 
HETATM   28  C16 UNL     1     -27.406  10.962 -90.433  1.00  0.00     0.074 A 
HETATM   29  C18 UNL     1     -28.558  10.228 -90.098  1.00  0.00     0.038 A 
HETATM   30  C19 UNL     1     -29.614  10.765 -89.401  1.00  0.00     0.015 A 
BRANCH  28  31
HETATM   31  O3  UNL     1     -26.389  10.361 -91.131  1.00  0.00    -0.290 OA
BRANCH  31  32
HETATM   32  C17 UNL     1     -25.616   9.319 -90.620  1.00  0.00     0.505 C 
HETATM   33  F1  UNL     1     -25.705   9.217 -89.258  1.00  0.00    -0.184 F 
HETATM   34  F2  UNL     1     -26.123   8.124 -91.159  1.00  0.00    -0.184 F 
ENDBRANCH  31  32
ENDBRANCH  28  31
ENDBRANCH  24  25
ENDBRANCH  18  19
ENDBRANCH   1  18
TORSDOF 9
ENDMDL
MODEL 4
REMARK VINA RESULT: -7.461536207      1.108      1.483
REMARK  9 active torsions:
REMARK  status: ('A' for Active; 'I' for Inactive)
REMARK    1  A    between atoms: C2_2  and  C3_4 
REMARK    2  A    between atoms: C3_4  and  N1_5 
REMARK    3  A    between atoms: N1_5  and  N2_7 
REMARK       I    between atoms: N2_7  and  C4_9 
REMARK       I    between atoms: C4_9  and  N4_13 
REMARK       I    between atoms: N4_13  and  C5_15 
REMARK    4  A    between atoms: C5_15  and  C6_17 
REMARK    5  A    between atoms: C6_17  and  O2_18 
REMARK    6  A    between atoms: O2_18  and  C7_19 
REMARK    7  A    between atoms: C12_24  and  C13_25 
REMARK    8  A    between atoms: C16_28  and  O3_29 
REMARK    9  A    between atoms: O3_29  and  C17_30 
ROOT
HETATM    1  C6  UNL     1     -32.748  14.251 -90.712  1.00  0.00     0.279 C 
ENDROOT
BRANCH   1   2
HETATM    2  C5  UNL     1     -31.791  14.480 -91.806  1.00  0.00     0.260 C 
HETATM    3  N4  UNL     1     -31.185  13.419 -92.538  1.00  0.00    -0.157 N 
HETATM    4  C4  UNL     1     -30.261  13.635 -93.594  1.00  0.00     0.693 C 
ATOM      5  H4  UNL     1     -31.426  12.459 -92.292  1.00  0.00     0.187 HD
HETATM    6  N2  UNL     1     -29.920  14.949 -93.945  1.00  0.00    -0.125 N 
HETATM    7  N3  UNL     1     -29.758  12.645 -94.207  1.00  0.00    -0.233 N 
ATOM      8  H2  UNL     1     -30.553  15.448 -94.568  1.00  0.00     0.206 HD
ATOM      9  H32 UNL     1     -29.095  12.801 -94.966  1.00  0.00     0.174 HD
ATOM     10  H31 UNL     1     -30.007  11.689 -93.952  1.00  0.00     0.174 HD
HETATM   11  O1  UNL     1     -31.464  15.658 -92.143  1.00  0.00    -0.270 OA
BRANCH   6  12
HETATM   12  N1  UNL     1     -28.773  15.630 -93.502  1.00  0.00    -0.250 N 
ATOM     13  H1  UNL     1     -28.830  16.413 -92.851  1.00  0.00     0.197 HD
BRANCH  12  14
HETATM   14  C3  UNL     1     -27.640  15.209 -93.967  1.00  0.00    -0.006 C 
BRANCH  14  15
HETATM   15  C2  UNL     1     -26.614  14.472 -94.290  1.00  0.00     0.071 C 
HETATM   16  C1  UNL     1     -26.285  13.303 -93.483  1.00  0.00     0.073 C 
HETATM   17 CL1  UNL     1     -25.664  14.884 -95.683  1.00  0.00    -0.079 Cl
ENDBRANCH  14  15
ENDBRANCH  12  14
ENDBRANCH   6  12
ENDBRANCH   1   2
BRANCH   1  18
HETATM   18  O2  UNL     1     -32.333  13.317 -89.759  1.00  0.00    -0.341 OA
BRANCH  18  19
HETATM   19  C7  UNL     1     -32.282  13.492 -88.394  1.00  0.00     0.080 A 
HETATM   20  C8  UNL     1     -33.265  14.136 -87.655  1.00  0.00     0.037 A 
HETATM   21  C9  UNL     1     -33.137  14.265 -86.296  1.00  0.00     0.003 A 
HETATM   22  C10 UNL     1     -32.035  13.761 -85.640  1.00  0.00     0.001 A 
HETATM   23  C11 UNL     1     -31.057  13.115 -86.397  1.00  0.00     0.015 A 
HETATM   24  C12 UNL     1     -31.165  12.974 -87.758  1.00  0.00     0.007 A 
BRANCH  24  25
HETATM   25  C13 UNL     1     -30.120  12.285 -88.512  1.00  0.00    -0.023 A 
HETATM   26  C14 UNL     1     -30.128  10.915 -88.670  1.00  0.00     0.015 A 
HETATM   27  C15 UNL     1     -29.135  10.242 -89.396  1.00  0.00     0.038 A 
HETATM   28  C16 UNL     1     -28.099  10.917 -89.988  1.00  0.00     0.074 A 
HETATM   29  C18 UNL     1     -28.110  12.314 -89.814  1.00  0.00     0.038 A 
HETATM   30  C19 UNL     1     -29.083  12.973 -89.103  1.00  0.00     0.015 A 
BRANCH  28  31
HETATM   31  O3  UNL     1     -27.095  10.325 -90.712  1.00  0.00    -0.290 OA
BRANCH  31  32
HETATM   32  C17 UNL     1     -26.284   9.306 -90.212  1.00  0.00     0.505 C 
HETATM   33  F1  UNL     1     -25.725   8.545 -91.203  1.00  0.00    -0.184 F 
HETATM   34  F2  UNL     1     -25.229   9.920 -89.516  1.00  0.00    -0.184 F 
ENDBRANCH  31  32
ENDBRANCH  28  31
ENDBRANCH  24  25
ENDBRANCH  18  19
ENDBRANCH   1  18
TORSDOF 9
ENDMDL
MODEL 5
REMARK VINA RESULT: -7.382768912      2.342      3.172
REMARK  9 active torsions:
REMARK  status: ('A' for Active; 'I' for Inactive)
REMARK    1  A    between atoms: C2_2  and  C3_4 
REMARK    2  A    between atoms: C3_4  and  N1_5 
REMARK    3  A    between atoms: N1_5  and  N2_7 
REMARK       I    between atoms: N2_7  and  C4_9 
REMARK       I    between atoms: C4_9  and  N4_13 
REMARK       I    between atoms: N4_13  and  C5_15 
REMARK    4  A    between atoms: C5_15  and  C6_17 
REMARK    5  A    between atoms: C6_17  and  O2_18 
REMARK    6  A    between atoms: O2_18  and  C7_19 
REMARK    7  A    between atoms: C12_24  and  C13_25 
REMARK    8  A    between atoms: C16_28  and  O3_29 
REMARK    9  A    between atoms: O3_29  and  C17_30 
ROOT
HETATM    1  C6  UNL     1     -30.710  14.606 -93.109  1.00  0.00     0.279 C 
ENDROOT
BRANCH   1   2
HETATM    2  C5  UNL     1     -29.476  14.230 -93.816  1.00  0.00     0.260 C 
HETATM    3  N4  UNL     1     -28.304  13.779 -93.142  1.00  0.00    -0.157 N 
HETATM    4  C4  UNL     1     -27.112  13.415 -93.820  1.00  0.00     0.693 C 
ATOM      5  H4  UNL     1     -28.324  13.715 -92.124  1.00  0.00     0.187 HD
HETATM    6  N2  UNL     1     -27.069  13.497 -95.218  1.00  0.00    -0.125 N 
HETATM    7  N3  UNL     1     -26.104  13.020 -93.159  1.00  0.00    -0.233 N 
ATOM      8  H2  UNL     1     -27.456  12.716 -95.748  1.00  0.00     0.206 HD
ATOM      9  H32 UNL     1     -25.247  12.759 -93.647  1.00  0.00     0.174 HD
ATOM     10  H31 UNL     1     -26.134  12.960 -92.141  1.00  0.00     0.174 HD
HETATM   11  O1  UNL     1     -29.409  14.295 -95.081  1.00  0.00    -0.270 OA
BRANCH   6  12
HETATM   12  N1  UNL     1     -26.535  14.573 -95.948  1.00  0.00    -0.250 N 
ATOM     13  H1  UNL     1     -26.951  14.888 -96.824  1.00  0.00     0.197 HD
BRANCH  12  14
HETATM   14  C3  UNL     1     -25.486  15.144 -95.446  1.00  0.00    -0.006 C 
BRANCH  14  15
HETATM   15  C2  UNL     1     -24.346  15.757 -95.292  1.00  0.00     0.071 C 
HETATM   16  C1  UNL     1     -23.441  15.338 -94.227  1.00  0.00     0.073 C 
HETATM   17 CL1  UNL     1     -23.915  17.052 -96.364  1.00  0.00    -0.079 Cl
ENDBRANCH  14  15
ENDBRANCH  12  14
ENDBRANCH   6  12
ENDBRANCH   1   2
BRANCH   1  18
HETATM   18  O2  UNL     1     -30.821  14.092 -91.814  1.00  0.00    -0.341 OA
BRANCH  18  19
HETATM   19  C7  UNL     1     -30.910  14.811 -90.643  1.00  0.00     0.080 A 
HETATM   20  C8  UNL     1     -31.577  16.023 -90.522  1.00  0.00     0.037 A 
HETATM   21  C9  UNL     1     -31.619  16.672 -89.315  1.00  0.00     0.003 A 
HETATM   22  C10 UNL     1     -31.004  16.138 -88.204  1.00  0.00     0.001 A 
HETATM   23  C11 UNL     1     -30.340  14.919 -88.342  1.00  0.00     0.015 A 
HETATM   24  C12 UNL     1     -30.284  14.252 -89.540  1.00  0.00     0.007 A 
BRANCH  24  25
HETATM   25  C13 UNL     1     -29.583  12.973 -89.639  1.00  0.00    -0.023 A 
HETATM   26  C14 UNL     1     -30.226  11.777 -89.404  1.00  0.00     0.015 A 
HETATM   27  C15 UNL     1     -29.566  10.543 -89.502  1.00  0.00     0.038 A 
HETATM   28  C16 UNL     1     -28.239  10.466 -89.837  1.00  0.00     0.074 A 
HETATM   29  C18 UNL     1     -27.602  11.698 -90.072  1.00  0.00     0.038 A 
HETATM   30  C19 UNL     1     -28.249  12.907 -89.977  1.00  0.00     0.015 A 
BRANCH  28  31
HETATM   31  O3  UNL     1     -27.531   9.296 -89.951  1.00  0.00    -0.290 OA
BRANCH  31  32
HETATM   32  C17 UNL     1     -26.159   9.247 -90.198  1.00  0.00     0.505 C 
HETATM   33  F1  UNL     1     -25.428   9.019 -89.063  1.00  0.00    -0.184 F 
HETATM   34  F2  UNL     1     -25.932   8.162 -91.062  1.00  0.00    -0.184 F 
ENDBRANCH  31  32
ENDBRANCH  28  31
ENDBRANCH  24  25
ENDBRANCH  18  19
ENDBRANCH   1  18
TORSDOF 9
ENDMDL
