MODEL 1
REMARK VINA RESULT: -7.553000027      0.000      0.000
REMARK  10 active torsions:
REMARK  status: ('A' for Active; 'I' for Inactive)
REMARK    1  A    between atoms: O1_1  and  C1_3 
REMARK    2  A    between atoms: C1_3  and  C2_4 
REMARK    3  A    between atoms: C1_3  and  C16_33 
REMARK    4  A    between atoms: C2_4  and  N1_5 
REMARK    5  A    between atoms: C6_9  and  N2_10 
REMARK    6  A    between atoms: N2_10  and  C7_11 
REMARK    7  A    between atoms: C7_11  and  C8_12 
REMARK    8  A    between atoms: C8_12  and  N3_13 
REMARK    9  A    between atoms: N3_13  and  C9_15 
REMARK   10  A    between atoms: C10_18  and  C11_19 
ROOT
HETATM    1  N1  UNL     1      15.550 -27.417 -59.096  1.00  0.00    -0.340 N 
HETATM    2  C3  UNL     1      14.850 -26.574 -59.954  1.00  0.00     0.094 A 
HETATM    3  C4  UNL     1      13.710 -27.177 -60.369  1.00  0.00     0.037 A 
HETATM    4  C5  UNL     1      13.684 -28.425 -59.769  1.00  0.00     0.068 A 
HETATM    5  C6  UNL     1      12.723 -29.413 -59.807  1.00  0.00     0.193 A 
HETATM    6  N6  UNL     1      12.898 -30.536 -59.085  1.00  0.00    -0.327 N 
ATOM      7  H6  UNL     1      12.204 -31.284 -59.099  1.00  0.00     0.169 HD
HETATM    8  C14 UNL     1      14.013 -30.643 -58.348  1.00  0.00     0.184 A 
HETATM    9  N7  UNL     1      14.969 -29.658 -58.307  1.00  0.00    -0.338 N 
ATOM     10  H7  UNL     1      15.803 -29.784 -57.735  1.00  0.00     0.168 HD
HETATM   11  C15 UNL     1      14.808 -28.534 -59.016  1.00  0.00     0.123 A 
ENDROOT
BRANCH   5  12
HETATM   12  N2  UNL     1      11.725 -29.248 -60.478  1.00  0.00    -0.401 NA
BRANCH  12  13
HETATM   13  C7  UNL     1      10.525 -28.902 -60.973  1.00  0.00     0.177 C 
BRANCH  13  14
HETATM   14  C8  UNL     1       9.934 -27.603 -60.403  1.00  0.00     0.197 C 
BRANCH  14  15
HETATM   15  N3  UNL     1       9.057 -27.957 -59.321  1.00  0.00    -0.220 N 
ATOM     16  H3  UNL     1       8.186 -28.454 -59.505  1.00  0.00     0.178 HD
BRANCH  15  17
HETATM   17  C9  UNL     1       9.384 -27.637 -58.102  1.00  0.00     0.678 A 
HETATM   18  N4  UNL     1      10.691 -27.328 -57.873  1.00  0.00    -0.187 N 
HETATM   19  C10 UNL     1      11.135 -27.005 -56.689  1.00  0.00     0.133 A 
ATOM     20  H4  UNL     1      11.345 -27.349 -58.656  1.00  0.00     0.184 HD
HETATM   21  C12 UNL     1      10.263 -26.969 -55.634  1.00  0.00     0.052 A 
HETATM   22  C13 UNL     1       8.935 -27.274 -55.842  1.00  0.00     0.108 A 
HETATM   23  N5  UNL     1       8.519 -27.610 -57.085  1.00  0.00    -0.202 N 
ATOM     24  H5  UNL     1       7.539 -27.844 -57.246  1.00  0.00     0.183 HD
BRANCH  19  25
HETATM   25  C11 UNL     1      12.552 -26.620 -56.407  1.00  0.00     0.433 C 
HETATM   26  F1  UNL     1      13.335 -27.714 -56.261  1.00  0.00    -0.165 F 
HETATM   27  F2  UNL     1      13.091 -25.807 -57.355  1.00  0.00    -0.165 F 
HETATM   28  F3  UNL     1      12.572 -25.920 -55.176  1.00  0.00    -0.165 F 
ENDBRANCH  19  25
ENDBRANCH  15  17
ENDBRANCH  14  15
ENDBRANCH  13  14
ENDBRANCH  12  13
ENDBRANCH   5  12
BRANCH   1  29
HETATM   29  C2  UNL     1      16.727 -26.933 -58.455  1.00  0.00     0.166 C 
BRANCH  29  30
HETATM   30  C1  UNL     1      16.514 -25.743 -57.639  1.00  0.00     0.169 C 
BRANCH  30  31
HETATM   31  O1  UNL     1      17.378 -24.720 -57.900  1.00  0.00    -0.389 OA
ATOM     32  H1  UNL     1      17.180 -23.913 -57.440  1.00  0.00     0.210 HD
ENDBRANCH  30  31
BRANCH  30  33
HETATM   33  C16 UNL     1      16.308 -25.988 -56.197  1.00  0.00    -0.028 A 
HETATM   34  C17 UNL     1      16.378 -27.227 -55.640  1.00  0.00     0.010 A 
HETATM   35  C18 UNL     1      16.053 -27.392 -54.289  1.00  0.00     0.001 A 
HETATM   36  C19 UNL     1      15.663 -26.326 -53.532  1.00  0.00     0.000 A 
HETATM   37  C20 UNL     1      15.589 -25.084 -54.069  1.00  0.00     0.001 A 
HETATM   38  C21 UNL     1      15.917 -24.923 -55.416  1.00  0.00     0.010 A 
ENDBRANCH  30  33
ENDBRANCH  29  30
ENDBRANCH   1  29
TORSDOF 10
ENDMDL
MODEL 2
REMARK VINA RESULT: -7.551056318      1.018      1.335
REMARK  10 active torsions:
REMARK  status: ('A' for Active; 'I' for Inactive)
REMARK    1  A    between atoms: O1_1  and  C1_3 
REMARK    2  A    between atoms: C1_3  and  C2_4 
REMARK    3  A    between atoms: C1_3  and  C16_33 
REMARK    4  A    between atoms: C2_4  and  N1_5 
REMARK    5  A    between atoms: C6_9  and  N2_10 
REMARK    6  A    between atoms: N2_10  and  C7_11 
REMARK    7  A    between atoms: C7_11  and  C8_12 
REMARK    8  A    between atoms: C8_12  and  N3_13 
REMARK    9  A    between atoms: N3_13  and  C9_15 
REMARK   10  A    between atoms: C10_18  and  C11_19 
ROOT
HETATM    1  N1  UNL     1      15.773 -27.699 -58.697  1.00  0.00    -0.340 N 
HETATM    2  C3  UNL     1      14.942 -26.673 -59.134  1.00  0.00     0.094 A 
HETATM    3  C4  UNL     1      13.729 -27.172 -59.476  1.00  0.00     0.037 A 
HETATM    4  C5  UNL     1      13.789 -28.537 -59.256  1.00  0.00     0.068 A 
HETATM    5  C6  UNL     1      12.816 -29.506 -59.385  1.00  0.00     0.193 A 
HETATM    6  N6  UNL     1      13.100 -30.780 -59.053  1.00  0.00    -0.327 N 
ATOM      7  H6  UNL     1      12.398 -31.515 -59.143  1.00  0.00     0.169 HD
HETATM    8  C14 UNL     1      14.332 -31.052 -58.602  1.00  0.00     0.184 A 
HETATM    9  N7  UNL     1      15.301 -30.089 -58.470  1.00  0.00    -0.338 N 
ATOM     10  H7  UNL     1      16.227 -30.343 -58.127  1.00  0.00     0.168 HD
HETATM   11  C15 UNL     1      15.034 -28.817 -58.792  1.00  0.00     0.123 A 
ENDROOT
BRANCH   5  12
HETATM   12  N2  UNL     1      11.711 -29.192 -59.779  1.00  0.00    -0.401 NA
BRANCH  12  13
HETATM   13  C7  UNL     1      10.622 -28.870 -60.497  1.00  0.00     0.177 C 
BRANCH  13  14
HETATM   14  C8  UNL     1       9.808 -27.687 -59.953  1.00  0.00     0.197 C 
BRANCH  14  15
HETATM   15  N3  UNL     1       9.141 -28.125 -58.757  1.00  0.00    -0.220 N 
ATOM     16  H3  UNL     1       8.457 -28.881 -58.796  1.00  0.00     0.178 HD
BRANCH  15  17
HETATM   17  C9  UNL     1       9.417 -27.549 -57.623  1.00  0.00     0.678 A 
HETATM   18  N4  UNL     1      10.697 -27.121 -57.442  1.00  0.00    -0.187 N 
HETATM   19  C10 UNL     1      11.091 -26.542 -56.341  1.00  0.00     0.133 A 
ATOM     20  H4  UNL     1      11.372 -27.258 -58.195  1.00  0.00     0.184 HD
HETATM   21  C12 UNL     1      10.192 -26.349 -55.327  1.00  0.00     0.052 A 
HETATM   22  C13 UNL     1       8.889 -26.770 -55.488  1.00  0.00     0.108 A 
HETATM   23  N5  UNL     1       8.526 -27.373 -56.644  1.00  0.00    -0.202 N 
ATOM     24  H5  UNL     1       7.565 -27.693 -56.769  1.00  0.00     0.183 HD
BRANCH  19  25
HETATM   25  C11 UNL     1      12.476 -26.023 -56.121  1.00  0.00     0.433 C 
HETATM   26  F1  UNL     1      13.377 -27.032 -56.089  1.00  0.00    -0.165 F 
HETATM   27  F2  UNL     1      12.864 -25.107 -57.050  1.00  0.00    -0.165 F 
HETATM   28  F3  UNL     1      12.505 -25.391 -54.854  1.00  0.00    -0.165 F 
ENDBRANCH  19  25
ENDBRANCH  15  17
ENDBRANCH  14  15
ENDBRANCH  13  14
ENDBRANCH  12  13
ENDBRANCH   5  12
BRANCH   1  29
HETATM   29  C2  UNL     1      17.062 -27.377 -58.183  1.00  0.00     0.166 C 
BRANCH  29  30
HETATM   30  C1  UNL     1      17.235 -27.690 -56.768  1.00  0.00     0.169 C 
BRANCH  30  31
HETATM   31  O1  UNL     1      17.010 -28.997 -56.450  1.00  0.00    -0.389 OA
ATOM     32  H1  UNL     1      17.696 -29.592 -56.730  1.00  0.00     0.210 HD
ENDBRANCH  30  31
BRANCH  30  33
HETATM   33  C16 UNL     1      16.614 -26.738 -55.825  1.00  0.00    -0.028 A 
HETATM   34  C17 UNL     1      16.558 -25.399 -56.056  1.00  0.00     0.010 A 
HETATM   35  C18 UNL     1      16.061 -24.550 -55.060  1.00  0.00     0.001 A 
HETATM   36  C19 UNL     1      15.641 -25.053 -53.864  1.00  0.00     0.000 A 
HETATM   37  C20 UNL     1      15.688 -26.385 -53.616  1.00  0.00     0.001 A 
HETATM   38  C21 UNL     1      16.181 -27.228 -54.613  1.00  0.00     0.010 A 
ENDBRANCH  30  33
ENDBRANCH  29  30
ENDBRANCH   1  29
TORSDOF 10
ENDMDL
MODEL 3
REMARK VINA RESULT: -7.349866815      2.052      4.331
REMARK  10 active torsions:
REMARK  status: ('A' for Active; 'I' for Inactive)
REMARK    1  A    between atoms: O1_1  and  C1_3 
REMARK    2  A    between atoms: C1_3  and  C2_4 
REMARK    3  A    between atoms: C1_3  and  C16_33 
REMARK    4  A    between atoms: C2_4  and  N1_5 
REMARK    5  A    between atoms: C6_9  and  N2_10 
REMARK    6  A    between atoms: N2_10  and  C7_11 
REMARK    7  A    between atoms: C7_11  and  C8_12 
REMARK    8  A    between atoms: C8_12  and  N3_13 
REMARK    9  A    between atoms: N3_13  and  C9_15 
REMARK   10  A    between atoms: C10_18  and  C11_19 
ROOT
HETATM    1  N1  UNL     1      12.490 -26.074 -56.591  1.00  0.00    -0.340 N 
HETATM    2  C3  UNL     1      12.780 -25.927 -57.944  1.00  0.00     0.094 A 
HETATM    3  C4  UNL     1      11.783 -26.459 -58.692  1.00  0.00     0.037 A 
HETATM    4  C5  UNL     1      10.846 -26.956 -57.803  1.00  0.00     0.068 A 
HETATM    5  C6  UNL     1       9.619 -27.543 -58.034  1.00  0.00     0.193 A 
HETATM    6  N6  UNL     1       8.848 -27.900 -56.990  1.00  0.00    -0.327 N 
ATOM      7  H6  UNL     1       7.938 -28.340 -57.135  1.00  0.00     0.169 HD
HETATM    8  C14 UNL     1       9.311 -27.662 -55.755  1.00  0.00     0.184 A 
HETATM    9  N7  UNL     1      10.530 -27.075 -55.523  1.00  0.00    -0.338 N 
ATOM     10  H7  UNL     1      10.844 -26.916 -54.566  1.00  0.00     0.168 HD
HETATM   11  C15 UNL     1      11.308 -26.710 -56.550  1.00  0.00     0.123 A 
ENDROOT
BRANCH   5  12
HETATM   12  N2  UNL     1       9.247 -27.714 -59.177  1.00  0.00    -0.401 NA
BRANCH  12  13
HETATM   13  C7  UNL     1       8.874 -28.204 -60.371  1.00  0.00     0.177 C 
BRANCH  13  14
HETATM   14  C8  UNL     1      10.029 -28.600 -61.303  1.00  0.00     0.197 C 
BRANCH  14  15
HETATM   15  N3  UNL     1      10.726 -29.701 -60.696  1.00  0.00    -0.220 N 
ATOM     16  H3  UNL     1      10.209 -30.508 -60.346  1.00  0.00     0.178 HD
BRANCH  15  17
HETATM   17  C9  UNL     1      12.023 -29.660 -60.596  1.00  0.00     0.678 A 
HETATM   18  N4  UNL     1      12.545 -29.583 -59.341  1.00  0.00    -0.187 N 
HETATM   19  C10 UNL     1      13.830 -29.524 -59.121  1.00  0.00     0.133 A 
ATOM     20  H4  UNL     1      11.908 -29.573 -58.544  1.00  0.00     0.184 HD
HETATM   21  C12 UNL     1      14.692 -29.544 -60.184  1.00  0.00     0.052 A 
HETATM   22  C13 UNL     1      14.188 -29.625 -61.464  1.00  0.00     0.108 A 
HETATM   23  N5  UNL     1      12.848 -29.678 -61.646  1.00  0.00    -0.202 N 
ATOM     24  H5  UNL     1      12.466 -29.732 -62.591  1.00  0.00     0.183 HD
BRANCH  19  25
HETATM   25  C11 UNL     1      14.441 -29.480 -57.757  1.00  0.00     0.433 C 
HETATM   26  F1  UNL     1      13.522 -29.153 -56.820  1.00  0.00    -0.165 F 
HETATM   27  F2  UNL     1      15.051 -30.642 -57.399  1.00  0.00    -0.165 F 
HETATM   28  F3  UNL     1      15.423 -28.459 -57.757  1.00  0.00    -0.165 F 
ENDBRANCH  19  25
ENDBRANCH  15  17
ENDBRANCH  14  15
ENDBRANCH  13  14
ENDBRANCH  12  13
ENDBRANCH   5  12
BRANCH   1  29
HETATM   29  C2  UNL     1      13.357 -25.483 -55.628  1.00  0.00     0.166 C 
BRANCH  29  30
HETATM   30  C1  UNL     1      14.658 -26.134 -55.517  1.00  0.00     0.169 C 
BRANCH  30  31
HETATM   31  O1  UNL     1      14.849 -26.813 -54.350  1.00  0.00    -0.389 OA
ATOM     32  H1  UNL     1      14.265 -27.552 -54.226  1.00  0.00     0.210 HD
ENDBRANCH  30  31
BRANCH  30  33
HETATM   33  C16 UNL     1      15.818 -25.313 -55.919  1.00  0.00    -0.028 A 
HETATM   34  C17 UNL     1      15.692 -24.068 -56.452  1.00  0.00     0.010 A 
HETATM   35  C18 UNL     1      16.833 -23.403 -56.918  1.00  0.00     0.001 A 
HETATM   36  C19 UNL     1      18.060 -23.993 -56.846  1.00  0.00     0.000 A 
HETATM   37  C20 UNL     1      18.204 -25.232 -56.316  1.00  0.00     0.001 A 
HETATM   38  C21 UNL     1      17.066 -25.891 -55.850  1.00  0.00     0.010 A 
ENDBRANCH  30  33
ENDBRANCH  29  30
ENDBRANCH   1  29
TORSDOF 10
ENDMDL
MODEL 4
REMARK VINA RESULT: -7.310132011      1.214      2.139
REMARK  10 active torsions:
REMARK  status: ('A' for Active; 'I' for Inactive)
REMARK    1  A    between atoms: O1_1  and  C1_3 
REMARK    2  A    between atoms: C1_3  and  C2_4 
REMARK    3  A    between atoms: C1_3  and  C16_33 
REMARK    4  A    between atoms: C2_4  and  N1_5 
REMARK    5  A    between atoms: C6_9  and  N2_10 
REMARK    6  A    between atoms: N2_10  and  C7_11 
REMARK    7  A    between atoms: C7_11  and  C8_12 
REMARK    8  A    between atoms: C8_12  and  N3_13 
REMARK    9  A    between atoms: N3_13  and  C9_15 
REMARK   10  A    between atoms: C10_18  and  C11_19 
ROOT
HETATM    1  N1  UNL     1      15.657 -28.971 -57.594  1.00  0.00    -0.340 N 
HETATM    2  C3  UNL     1      14.530 -29.772 -57.438  1.00  0.00     0.094 A 
HETATM    3  C4  UNL     1      13.617 -29.482 -58.397  1.00  0.00     0.037 A 
HETATM    4  C5  UNL     1      14.169 -28.477 -59.173  1.00  0.00     0.068 A 
HETATM    5  C6  UNL     1      13.686 -27.860 -60.309  1.00  0.00     0.193 A 
HETATM    6  N6  UNL     1      14.440 -26.934 -60.932  1.00  0.00    -0.327 N 
ATOM      7  H6  UNL     1      14.105 -26.461 -61.771  1.00  0.00     0.169 HD
HETATM    8  C14 UNL     1      15.645 -26.653 -60.415  1.00  0.00     0.184 A 
HETATM    9  N7  UNL     1      16.128 -27.268 -59.287  1.00  0.00    -0.338 N 
ATOM     10  H7  UNL     1      17.049 -27.020 -58.927  1.00  0.00     0.168 HD
HETATM   11  C15 UNL     1      15.392 -28.193 -58.658  1.00  0.00     0.123 A 
ENDROOT
BRANCH   5  12
HETATM   12  N2  UNL     1      12.595 -28.174 -60.739  1.00  0.00    -0.401 NA
BRANCH  12  13
HETATM   13  C7  UNL     1      11.316 -28.225 -61.148  1.00  0.00     0.177 C 
BRANCH  13  14
HETATM   14  C8  UNL     1      10.367 -27.241 -60.447  1.00  0.00     0.197 C 
BRANCH  14  15
HETATM   15  N3  UNL     1       9.628 -27.974 -59.455  1.00  0.00    -0.220 N 
ATOM     16  H3  UNL     1       8.999 -28.727 -59.734  1.00  0.00     0.178 HD
BRANCH  15  17
HETATM   17  C9  UNL     1       9.768 -27.668 -58.198  1.00  0.00     0.678 A 
HETATM   18  N4  UNL     1      11.010 -27.290 -57.788  1.00  0.00    -0.187 N 
HETATM   19  C10 UNL     1      11.270 -26.973 -56.548  1.00  0.00     0.133 A 
ATOM     20  H4  UNL     1      11.764 -27.252 -58.474  1.00  0.00     0.184 HD
HETATM   21  C12 UNL     1      10.263 -27.015 -55.622  1.00  0.00     0.052 A 
HETATM   22  C13 UNL     1       8.996 -27.390 -56.014  1.00  0.00     0.108 A 
HETATM   23  N5  UNL     1       8.773 -27.717 -57.308  1.00  0.00    -0.202 N 
ATOM     24  H5  UNL     1       7.840 -28.003 -57.606  1.00  0.00     0.183 HD
BRANCH  19  25
HETATM   25  C11 UNL     1      12.610 -26.514 -56.069  1.00  0.00     0.433 C 
HETATM   26  F1  UNL     1      13.271 -27.512 -55.439  1.00  0.00    -0.165 F 
HETATM   27  F2  UNL     1      13.396 -26.012 -57.059  1.00  0.00    -0.165 F 
HETATM   28  F3  UNL     1      12.399 -25.484 -55.120  1.00  0.00    -0.165 F 
ENDBRANCH  19  25
ENDBRANCH  15  17
ENDBRANCH  14  15
ENDBRANCH  13  14
ENDBRANCH  12  13
ENDBRANCH   5  12
BRANCH   1  29
HETATM   29  C2  UNL     1      16.787 -29.192 -56.756  1.00  0.00     0.166 C 
BRANCH  29  30
HETATM   30  C1  UNL     1      17.506 -27.975 -56.394  1.00  0.00     0.169 C 
BRANCH  30  31
HETATM   31  O1  UNL     1      18.773 -28.187 -55.935  1.00  0.00    -0.389 OA
ATOM     32  H1  UNL     1      19.205 -27.408 -55.603  1.00  0.00     0.210 HD
ENDBRANCH  30  31
BRANCH  30  33
HETATM   33  C16 UNL     1      16.743 -26.999 -55.591  1.00  0.00    -0.028 A 
HETATM   34  C17 UNL     1      16.570 -25.704 -55.970  1.00  0.00     0.010 A 
HETATM   35  C18 UNL     1      15.937 -24.812 -55.097  1.00  0.00     0.001 A 
HETATM   36  C19 UNL     1      15.499 -25.228 -53.874  1.00  0.00     0.000 A 
HETATM   37  C20 UNL     1      15.660 -26.514 -53.480  1.00  0.00     0.001 A 
HETATM   38  C21 UNL     1      16.290 -27.402 -54.354  1.00  0.00     0.010 A 
ENDBRANCH  30  33
ENDBRANCH  29  30
ENDBRANCH   1  29
TORSDOF 10
ENDMDL
MODEL 5
REMARK VINA RESULT: -7.188059377      2.502      4.125
REMARK  10 active torsions:
REMARK  status: ('A' for Active; 'I' for Inactive)
REMARK    1  A    between atoms: O1_1  and  C1_3 
REMARK    2  A    between atoms: C1_3  and  C2_4 
REMARK    3  A    between atoms: C1_3  and  C16_33 
REMARK    4  A    between atoms: C2_4  and  N1_5 
REMARK    5  A    between atoms: C6_9  and  N2_10 
REMARK    6  A    between atoms: N2_10  and  C7_11 
REMARK    7  A    between atoms: C7_11  and  C8_12 
REMARK    8  A    between atoms: C8_12  and  N3_13 
REMARK    9  A    between atoms: N3_13  and  C9_15 
REMARK   10  A    between atoms: C10_18  and  C11_19 
ROOT
HETATM    1  N1  UNL     1      15.229 -25.889 -56.793  1.00  0.00    -0.340 N 
HETATM    2  C3  UNL     1      14.223 -24.940 -56.643  1.00  0.00     0.094 A 
HETATM    3  C4  UNL     1      13.068 -25.543 -56.270  1.00  0.00     0.037 A 
HETATM    4  C5  UNL     1      13.342 -26.897 -56.184  1.00  0.00     0.068 A 
HETATM    5  C6  UNL     1      12.538 -27.947 -55.791  1.00  0.00     0.193 A 
HETATM    6  N6  UNL     1      13.052 -29.190 -55.734  1.00  0.00    -0.327 N 
ATOM      7  H6  UNL     1      12.477 -29.984 -55.450  1.00  0.00     0.169 HD
HETATM    8  C14 UNL     1      14.341 -29.354 -56.063  1.00  0.00     0.184 A 
HETATM    9  N7  UNL     1      15.143 -28.310 -56.452  1.00  0.00    -0.338 N 
ATOM     10  H7  UNL     1      16.118 -28.482 -56.698  1.00  0.00     0.168 HD
HETATM   11  C15 UNL     1      14.649 -27.067 -56.510  1.00  0.00     0.123 A 
ENDROOT
BRANCH   5  12
HETATM   12  N2  UNL     1      11.383 -27.731 -55.485  1.00  0.00    -0.401 NA
BRANCH  12  13
HETATM   13  C7  UNL     1      10.045 -27.698 -55.373  1.00  0.00     0.177 C 
BRANCH  13  14
HETATM   14  C8  UNL     1       9.318 -26.901 -56.467  1.00  0.00     0.197 C 
BRANCH  14  15
HETATM   15  N3  UNL     1       8.838 -27.837 -57.447  1.00  0.00    -0.220 N 
ATOM     16  H3  UNL     1       8.081 -28.480 -57.218  1.00  0.00     0.178 HD
BRANCH  15  17
HETATM   17  C9  UNL     1       9.380 -27.856 -58.631  1.00  0.00     0.678 A 
HETATM   18  N4  UNL     1      10.734 -27.727 -58.694  1.00  0.00    -0.187 N 
HETATM   19  C10 UNL     1      11.383 -27.721 -59.826  1.00  0.00     0.133 A 
ATOM     20  H4  UNL     1      11.260 -27.633 -57.825  1.00  0.00     0.184 HD
HETATM   21  C12 UNL     1      10.687 -27.852 -60.997  1.00  0.00     0.052 A 
HETATM   22  C13 UNL     1       9.315 -27.989 -60.959  1.00  0.00     0.108 A 
HETATM   23  N5  UNL     1       8.683 -27.983 -59.762  1.00  0.00    -0.202 N 
ATOM     24  H5  UNL     1       7.667 -28.077 -59.725  1.00  0.00     0.183 HD
BRANCH  19  25
HETATM   25  C11 UNL     1      12.871 -27.622 -59.933  1.00  0.00     0.433 C 
HETATM   26  F1  UNL     1      13.284 -27.823 -61.205  1.00  0.00    -0.165 F 
HETATM   27  F2  UNL     1      13.369 -26.438 -59.483  1.00  0.00    -0.165 F 
HETATM   28  F3  UNL     1      13.430 -28.654 -59.141  1.00  0.00    -0.165 F 
ENDBRANCH  19  25
ENDBRANCH  15  17
ENDBRANCH  14  15
ENDBRANCH  13  14
ENDBRANCH  12  13
ENDBRANCH   5  12
BRANCH   1  29
HETATM   29  C2  UNL     1      16.556 -25.454 -57.074  1.00  0.00     0.166 C 
BRANCH  29  30
HETATM   30  C1  UNL     1      16.638 -24.404 -58.084  1.00  0.00     0.169 C 
BRANCH  30  31
HETATM   31  O1  UNL     1      16.337 -24.816 -59.349  1.00  0.00    -0.389 OA
ATOM     32  H1  UNL     1      16.632 -25.696 -59.556  1.00  0.00     0.210 HD
ENDBRANCH  30  31
BRANCH  30  33
HETATM   33  C16 UNL     1      17.837 -23.544 -58.013  1.00  0.00    -0.028 A 
HETATM   34  C17 UNL     1      18.715 -23.585 -56.975  1.00  0.00     0.010 A 
HETATM   35  C18 UNL     1      19.760 -22.655 -56.924  1.00  0.00     0.001 A 
HETATM   36  C19 UNL     1      19.900 -21.711 -57.898  1.00  0.00     0.000 A 
HETATM   37  C20 UNL     1      19.036 -21.657 -58.941  1.00  0.00     0.001 A 
HETATM   38  C21 UNL     1      17.997 -22.588 -58.991  1.00  0.00     0.010 A 
ENDBRANCH  30  33
ENDBRANCH  29  30
ENDBRANCH   1  29
TORSDOF 10
ENDMDL
