MODEL 1
REMARK VINA RESULT: -7.552703365      0.000      0.000
REMARK  10 active torsions:
REMARK  status: ('A' for Active; 'I' for Inactive)
REMARK    1  A    between atoms: C2_2  and  N1_3 
REMARK    2  A    between atoms: N1_3  and  C3_5 
REMARK    3  A    between atoms: C4_8  and  C5_9 
REMARK    4  A    between atoms: C9_13  and  C10_14 
REMARK    5  A    between atoms: C12_21  and  N4_22 
REMARK    6  A    between atoms: N4_22  and  C13_24 
REMARK    7  A    between atoms: C15_26  and  N5_27 
REMARK    8  A    between atoms: N5_27  and  C16_29 
REMARK    9  A    between atoms: C16_29  and  C17_30 
REMARK   10  A    between atoms: C17_30  and  N6_31 
ROOT
HETATM    1  C3  UNL     1       9.844 -27.309 -56.351  1.00  0.00     0.694 A 
HETATM    2  N2  UNL     1      11.001 -27.224 -55.633  1.00  0.00    -0.175 N 
ATOM      3  H2  UNL     1      10.947 -27.188 -54.615  1.00  0.00     0.186 HD
HETATM    4  C4  UNL     1      12.219 -27.186 -56.222  1.00  0.00     0.146 A 
HETATM    5  N3  UNL     1      12.215 -27.238 -57.549  1.00  0.00    -0.174 N 
ATOM      6  H3  UNL     1      13.117 -27.208 -58.023  1.00  0.00     0.186 HD
HETATM    7  C12 UNL     1      11.109 -27.325 -58.321  1.00  0.00     0.700 A 
HETATM    8  N9  UNL     1       9.900 -27.366 -57.705  1.00  0.00    -0.022 N 
ATOM      9  H9  UNL     1       9.043 -27.437 -58.254  1.00  0.00     0.203 HD
ENDROOT
BRANCH   7  10
HETATM   10  N4  UNL     1      11.212 -27.422 -59.581  1.00  0.00    -0.176 N 
ATOM     11  H4  UNL     1      10.471 -26.984 -60.128  1.00  0.00     0.186 HD
BRANCH  10  12
HETATM   12  C13 UNL     1      12.218 -28.055 -60.305  1.00  0.00     0.125 A 
HETATM   13  C14 UNL     1      13.471 -27.492 -60.597  1.00  0.00     0.097 A 
HETATM   14  C15 UNL     1      14.428 -28.141 -61.315  1.00  0.00     0.109 A 
HETATM   15  N7  UNL     1      14.072 -29.403 -61.734  1.00  0.00    -0.338 N 
HETATM   16  C20 UNL     1      12.885 -29.938 -61.459  1.00  0.00     0.183 A 
ATOM     17  H7  UNL     1      14.743 -29.948 -62.275  1.00  0.00     0.168 HD
HETATM   18  N8  UNL     1      11.916 -29.320 -60.749  1.00  0.00    -0.338 N 
ATOM     19  H8  UNL     1      11.019 -29.764 -60.555  1.00  0.00     0.168 HD
BRANCH  14  20
HETATM   20  N5  UNL     1      15.519 -27.637 -61.676  1.00  0.00    -0.351 N 
ATOM     21  H5  UNL     1      15.537 -27.354 -62.655  1.00  0.00     0.166 HD
BRANCH  20  22
HETATM   22  C16 UNL     1      16.704 -27.391 -60.999  1.00  0.00     0.106 C 
BRANCH  22  23
HETATM   23  C17 UNL     1      16.712 -26.065 -60.236  1.00  0.00     0.101 C 
BRANCH  23  24
HETATM   24  N6  UNL     1      16.563 -26.220 -58.843  1.00  0.00    -0.397 N 
HETATM   25  C18 UNL     1      15.562 -25.470 -58.169  1.00  0.00     0.148 C 
HETATM   26  C19 UNL     1      16.868 -27.503 -58.311  1.00  0.00     0.148 C 
ENDBRANCH  23  24
ENDBRANCH  22  23
ENDBRANCH  20  22
ENDBRANCH  14  20
ENDBRANCH  10  12
ENDBRANCH   7  10
BRANCH   4  27
HETATM   27  C5  UNL     1      13.443 -26.998 -55.478  1.00  0.00     0.010 A 
HETATM   28  C6  UNL     1      13.773 -25.813 -54.825  1.00  0.00     0.015 A 
HETATM   29  C7  UNL     1      14.966 -25.599 -54.171  1.00  0.00     0.002 A 
HETATM   30  C8  UNL     1      15.917 -26.633 -54.161  1.00  0.00     0.016 A 
HETATM   31  C9  UNL     1      15.630 -27.811 -54.806  1.00  0.00     0.048 A 
HETATM   32  C11 UNL     1      14.437 -28.001 -55.443  1.00  0.00     0.031 A 
BRANCH  31  33
HETATM   33  C10 UNL     1      16.681 -28.881 -54.789  1.00  0.00     0.417 C 
HETATM   34  F1  UNL     1      16.760 -29.435 -53.535  1.00  0.00    -0.166 F 
HETATM   35  F2  UNL     1      16.464 -29.811 -55.745  1.00  0.00    -0.166 F 
HETATM   36  F3  UNL     1      17.895 -28.191 -54.987  1.00  0.00    -0.166 F 
ENDBRANCH  31  33
ENDBRANCH   4  27
BRANCH   1  37
HETATM   37  N1  UNL     1       8.686 -27.242 -55.825  1.00  0.00    -0.226 N 
ATOM     38  H1  UNL     1       7.894 -27.794 -56.155  1.00  0.00     0.177 HD
BRANCH  37  39
HETATM   39  C2  UNL     1       8.588 -26.293 -54.695  1.00  0.00     0.133 C 
HETATM   40  C1  UNL     1       8.609 -24.876 -55.104  1.00  0.00     0.027 C 
ENDBRANCH  37  39
ENDBRANCH   1  37
TORSDOF 10
ENDMDL
MODEL 2
REMARK VINA RESULT: -7.493767276      2.385      3.352
REMARK  10 active torsions:
REMARK  status: ('A' for Active; 'I' for Inactive)
REMARK    1  A    between atoms: C2_2  and  N1_3 
REMARK    2  A    between atoms: N1_3  and  C3_5 
REMARK    3  A    between atoms: C4_8  and  C5_9 
REMARK    4  A    between atoms: C9_13  and  C10_14 
REMARK    5  A    between atoms: C12_21  and  N4_22 
REMARK    6  A    between atoms: N4_22  and  C13_24 
REMARK    7  A    between atoms: C15_26  and  N5_27 
REMARK    8  A    between atoms: N5_27  and  C16_29 
REMARK    9  A    between atoms: C16_29  and  C17_30 
REMARK   10  A    between atoms: C17_30  and  N6_31 
ROOT
HETATM    1  C3  UNL     1      10.553 -27.015 -55.760  1.00  0.00     0.694 A 
HETATM    2  N2  UNL     1      11.748 -26.584 -55.261  1.00  0.00    -0.175 N 
ATOM      3  H2  UNL     1      11.836 -26.435 -54.256  1.00  0.00     0.186 HD
HETATM    4  C4  UNL     1      12.821 -26.346 -56.052  1.00  0.00     0.146 A 
HETATM    5  N3  UNL     1      12.635 -26.561 -57.349  1.00  0.00    -0.174 N 
ATOM      6  H3  UNL     1      13.423 -26.388 -57.971  1.00  0.00     0.186 HD
HETATM    7  C12 UNL     1      11.482 -26.989 -57.909  1.00  0.00     0.700 A 
HETATM    8  N9  UNL     1      10.422 -27.224 -57.094  1.00  0.00    -0.022 N 
ATOM      9  H9  UNL     1       9.537 -27.554 -57.480  1.00  0.00     0.203 HD
ENDROOT
BRANCH   7  10
HETATM   10  N4  UNL     1      11.419 -27.215 -59.155  1.00  0.00    -0.176 N 
ATOM     11  H4  UNL     1      10.713 -26.692 -59.673  1.00  0.00     0.186 HD
BRANCH  10  12
HETATM   12  C13 UNL     1      12.201 -28.093 -59.900  1.00  0.00     0.125 A 
HETATM   13  C14 UNL     1      13.348 -27.729 -60.624  1.00  0.00     0.097 A 
HETATM   14  C15 UNL     1      14.084 -28.617 -61.346  1.00  0.00     0.109 A 
HETATM   15  N7  UNL     1      13.615 -29.911 -61.311  1.00  0.00    -0.338 N 
HETATM   16  C20 UNL     1      12.528 -30.258 -60.627  1.00  0.00     0.183 A 
ATOM     17  H7  UNL     1      14.120 -30.631 -61.829  1.00  0.00     0.168 HD
HETATM   18  N8  UNL     1      11.779 -29.401 -59.900  1.00  0.00    -0.338 N 
ATOM     19  H8  UNL     1      10.953 -29.706 -59.385  1.00  0.00     0.168 HD
BRANCH  14  20
HETATM   20  N5  UNL     1      15.055 -28.314 -62.080  1.00  0.00    -0.351 N 
ATOM     21  H5  UNL     1      14.846 -27.584 -62.760  1.00  0.00     0.166 HD
BRANCH  20  22
HETATM   22  C16 UNL     1      16.360 -28.782 -62.144  1.00  0.00     0.106 C 
BRANCH  22  23
HETATM   23  C17 UNL     1      16.657 -29.604 -63.399  1.00  0.00     0.101 C 
BRANCH  23  24
HETATM   24  N6  UNL     1      16.536 -30.994 -63.200  1.00  0.00    -0.397 N 
HETATM   25  C18 UNL     1      16.870 -31.540 -61.931  1.00  0.00     0.148 C 
HETATM   26  C19 UNL     1      15.508 -31.653 -63.929  1.00  0.00     0.148 C 
ENDBRANCH  23  24
ENDBRANCH  22  23
ENDBRANCH  20  22
ENDBRANCH  14  20
ENDBRANCH  10  12
ENDBRANCH   7  10
BRANCH   4  27
HETATM   27  C5  UNL     1      14.058 -25.797 -55.548  1.00  0.00     0.010 A 
HETATM   28  C6  UNL     1      14.384 -25.748 -54.195  1.00  0.00     0.015 A 
HETATM   29  C7  UNL     1      15.530 -25.166 -53.698  1.00  0.00     0.002 A 
HETATM   30  C8  UNL     1      16.428 -24.579 -54.605  1.00  0.00     0.016 A 
HETATM   31  C9  UNL     1      16.132 -24.599 -55.946  1.00  0.00     0.048 A 
HETATM   32  C11 UNL     1      14.992 -25.187 -56.415  1.00  0.00     0.031 A 
BRANCH  31  33
HETATM   33  C10 UNL     1      17.107 -23.943 -56.878  1.00  0.00     0.417 C 
HETATM   34  F1  UNL     1      16.724 -22.646 -57.114  1.00  0.00    -0.166 F 
HETATM   35  F2  UNL     1      18.375 -24.025 -56.417  1.00  0.00    -0.166 F 
HETATM   36  F3  UNL     1      16.944 -24.624 -58.102  1.00  0.00    -0.166 F 
ENDBRANCH  31  33
ENDBRANCH   4  27
BRANCH   1  37
HETATM   37  N1  UNL     1       9.504 -27.146 -55.052  1.00  0.00    -0.226 N 
ATOM     38  H1  UNL     1       9.406 -27.861 -54.331  1.00  0.00     0.177 HD
BRANCH  37  39
HETATM   39  C2  UNL     1       8.437 -26.169 -55.364  1.00  0.00     0.133 C 
HETATM   40  C1  UNL     1       8.762 -24.786 -54.968  1.00  0.00     0.027 C 
ENDBRANCH  37  39
ENDBRANCH   1  37
TORSDOF 10
ENDMDL
MODEL 3
REMARK VINA RESULT: -7.480954714      2.394      3.014
REMARK  10 active torsions:
REMARK  status: ('A' for Active; 'I' for Inactive)
REMARK    1  A    between atoms: C2_2  and  N1_3 
REMARK    2  A    between atoms: N1_3  and  C3_5 
REMARK    3  A    between atoms: C4_8  and  C5_9 
REMARK    4  A    between atoms: C9_13  and  C10_14 
REMARK    5  A    between atoms: C12_21  and  N4_22 
REMARK    6  A    between atoms: N4_22  and  C13_24 
REMARK    7  A    between atoms: C15_26  and  N5_27 
REMARK    8  A    between atoms: N5_27  and  C16_29 
REMARK    9  A    between atoms: C16_29  and  C17_30 
REMARK   10  A    between atoms: C17_30  and  N6_31 
ROOT
HETATM    1  C3  UNL     1      10.578 -26.991 -55.756  1.00  0.00     0.694 A 
HETATM    2  N2  UNL     1      11.777 -26.560 -55.267  1.00  0.00    -0.175 N 
ATOM      3  H2  UNL     1      11.868 -26.394 -54.265  1.00  0.00     0.186 HD
HETATM    4  C4  UNL     1      12.850 -26.343 -56.064  1.00  0.00     0.146 A 
HETATM    5  N3  UNL     1      12.659 -26.579 -57.357  1.00  0.00    -0.174 N 
ATOM      6  H3  UNL     1      13.448 -26.422 -57.984  1.00  0.00     0.186 HD
HETATM    7  C12 UNL     1      11.502 -27.009 -57.907  1.00  0.00     0.700 A 
HETATM    8  N9  UNL     1      10.443 -27.222 -57.086  1.00  0.00    -0.022 N 
ATOM      9  H9  UNL     1       9.555 -27.552 -57.465  1.00  0.00     0.203 HD
ENDROOT
BRANCH   7  10
HETATM   10  N4  UNL     1      11.435 -27.256 -59.149  1.00  0.00    -0.176 N 
ATOM     11  H4  UNL     1      10.712 -26.759 -59.669  1.00  0.00     0.186 HD
BRANCH  10  12
HETATM   12  C13 UNL     1      12.234 -28.125 -59.886  1.00  0.00     0.125 A 
HETATM   13  C14 UNL     1      13.370 -27.743 -60.619  1.00  0.00     0.097 A 
HETATM   14  C15 UNL     1      14.123 -28.623 -61.334  1.00  0.00     0.109 A 
HETATM   15  N7  UNL     1      13.684 -29.927 -61.282  1.00  0.00    -0.338 N 
HETATM   16  C20 UNL     1      12.608 -30.290 -60.589  1.00  0.00     0.183 A 
ATOM     17  H7  UNL     1      14.203 -30.641 -61.793  1.00  0.00     0.168 HD
HETATM   18  N8  UNL     1      11.842 -29.442 -59.870  1.00  0.00    -0.338 N 
ATOM     19  H8  UNL     1      11.025 -29.759 -59.348  1.00  0.00     0.168 HD
BRANCH  14  20
HETATM   20  N5  UNL     1      15.084 -28.307 -62.076  1.00  0.00    -0.351 N 
ATOM     21  H5  UNL     1      15.178 -27.303 -62.223  1.00  0.00     0.166 HD
BRANCH  20  22
HETATM   22  C16 UNL     1      16.045 -29.063 -62.734  1.00  0.00     0.106 C 
BRANCH  22  23
HETATM   23  C17 UNL     1      17.474 -28.777 -62.271  1.00  0.00     0.101 C 
BRANCH  23  24
HETATM   24  N6  UNL     1      18.082 -27.708 -62.958  1.00  0.00    -0.397 N 
HETATM   25  C18 UNL     1      17.882 -27.587 -64.361  1.00  0.00     0.148 C 
HETATM   26  C19 UNL     1      18.251 -26.498 -62.230  1.00  0.00     0.148 C 
ENDBRANCH  23  24
ENDBRANCH  22  23
ENDBRANCH  20  22
ENDBRANCH  14  20
ENDBRANCH  10  12
ENDBRANCH   7  10
BRANCH   4  27
HETATM   27  C5  UNL     1      14.092 -25.794 -55.572  1.00  0.00     0.010 A 
HETATM   28  C6  UNL     1      14.442 -25.767 -54.224  1.00  0.00     0.015 A 
HETATM   29  C7  UNL     1      15.592 -25.185 -53.737  1.00  0.00     0.002 A 
HETATM   30  C8  UNL     1      16.469 -24.575 -54.649  1.00  0.00     0.016 A 
HETATM   31  C9  UNL     1      16.149 -24.572 -55.985  1.00  0.00     0.048 A 
HETATM   32  C11 UNL     1      15.005 -25.160 -56.444  1.00  0.00     0.031 A 
BRANCH  31  33
HETATM   33  C10 UNL     1      17.102 -23.891 -56.921  1.00  0.00     0.417 C 
HETATM   34  F1  UNL     1      18.313 -23.708 -56.300  1.00  0.00    -0.166 F 
HETATM   35  F2  UNL     1      17.223 -24.561 -58.088  1.00  0.00    -0.166 F 
HETATM   36  F3  UNL     1      16.561 -22.601 -57.105  1.00  0.00    -0.166 F 
ENDBRANCH  31  33
ENDBRANCH   4  27
BRANCH   1  37
HETATM   37  N1  UNL     1       9.529 -27.102 -55.044  1.00  0.00    -0.226 N 
ATOM     38  H1  UNL     1       9.424 -27.810 -54.317  1.00  0.00     0.177 HD
BRANCH  37  39
HETATM   39  C2  UNL     1       8.474 -26.115 -55.362  1.00  0.00     0.133 C 
HETATM   40  C1  UNL     1       8.807 -24.736 -54.958  1.00  0.00     0.027 C 
ENDBRANCH  37  39
ENDBRANCH   1  37
TORSDOF 10
ENDMDL
MODEL 4
REMARK VINA RESULT: -7.465452359      2.210      2.608
REMARK  10 active torsions:
REMARK  status: ('A' for Active; 'I' for Inactive)
REMARK    1  A    between atoms: C2_2  and  N1_3 
REMARK    2  A    between atoms: N1_3  and  C3_5 
REMARK    3  A    between atoms: C4_8  and  C5_9 
REMARK    4  A    between atoms: C9_13  and  C10_14 
REMARK    5  A    between atoms: C12_21  and  N4_22 
REMARK    6  A    between atoms: N4_22  and  C13_24 
REMARK    7  A    between atoms: C15_26  and  N5_27 
REMARK    8  A    between atoms: N5_27  and  C16_29 
REMARK    9  A    between atoms: C16_29  and  C17_30 
REMARK   10  A    between atoms: C17_30  and  N6_31 
ROOT
HETATM    1  C3  UNL     1      10.320 -27.031 -55.857  1.00  0.00     0.694 A 
HETATM    2  N2  UNL     1      11.529 -26.627 -55.371  1.00  0.00    -0.175 N 
ATOM      3  H2  UNL     1      11.642 -26.516 -54.363  1.00  0.00     0.186 HD
HETATM    4  C4  UNL     1      12.585 -26.367 -56.177  1.00  0.00     0.146 A 
HETATM    5  N3  UNL     1      12.367 -26.531 -57.476  1.00  0.00    -0.174 N 
ATOM      6  H3  UNL     1      13.143 -26.341 -58.110  1.00  0.00     0.186 HD
HETATM    7  C12 UNL     1      11.199 -26.931 -58.025  1.00  0.00     0.700 A 
HETATM    8  N9  UNL     1      10.156 -27.189 -57.194  1.00  0.00    -0.022 N 
ATOM      9  H9  UNL     1       9.260 -27.498 -57.571  1.00  0.00     0.203 HD
ENDROOT
BRANCH   7  10
HETATM   10  N4  UNL     1      11.105 -27.110 -59.277  1.00  0.00    -0.176 N 
ATOM     11  H4  UNL     1      10.361 -26.598 -59.750  1.00  0.00     0.186 HD
BRANCH  10  12
HETATM   12  C13 UNL     1      11.900 -27.922 -60.080  1.00  0.00     0.125 A 
HETATM   13  C14 UNL     1      13.193 -27.596 -60.519  1.00  0.00     0.097 A 
HETATM   14  C15 UNL     1      13.938 -28.416 -61.311  1.00  0.00     0.109 A 
HETATM   15  N7  UNL     1      13.322 -29.600 -61.649  1.00  0.00    -0.338 N 
HETATM   16  C20 UNL     1      12.096 -29.910 -61.235  1.00  0.00     0.183 A 
ATOM     17  H7  UNL     1      13.824 -30.264 -62.239  1.00  0.00     0.168 HD
HETATM   18  N8  UNL     1      11.334 -29.120 -60.449  1.00  0.00    -0.338 N 
ATOM     19  H8  UNL     1      10.399 -29.394 -60.148  1.00  0.00     0.168 HD
BRANCH  14  20
HETATM   20  N5  UNL     1      15.054 -28.120 -61.801  1.00  0.00    -0.351 N 
ATOM     21  H5  UNL     1      15.029 -27.934 -62.803  1.00  0.00     0.166 HD
BRANCH  20  22
HETATM   22  C16 UNL     1      16.317 -27.996 -61.240  1.00  0.00     0.106 C 
BRANCH  22  23
HETATM   23  C17 UNL     1      16.719 -29.184 -60.363  1.00  0.00     0.101 C 
BRANCH  23  24
HETATM   24  N6  UNL     1      16.509 -28.960 -58.988  1.00  0.00    -0.397 N 
HETATM   25  C18 UNL     1      16.561 -27.630 -58.490  1.00  0.00     0.148 C 
HETATM   26  C19 UNL     1      15.626 -29.857 -58.326  1.00  0.00     0.148 C 
ENDBRANCH  23  24
ENDBRANCH  22  23
ENDBRANCH  20  22
ENDBRANCH  14  20
ENDBRANCH  10  12
ENDBRANCH   7  10
BRANCH   4  27
HETATM   27  C5  UNL     1      13.838 -25.845 -55.682  1.00  0.00     0.010 A 
HETATM   28  C6  UNL     1      14.248 -25.954 -54.355  1.00  0.00     0.015 A 
HETATM   29  C7  UNL     1      15.408 -25.402 -53.858  1.00  0.00     0.002 A 
HETATM   30  C8  UNL     1      16.232 -24.678 -54.735  1.00  0.00     0.016 A 
HETATM   31  C9  UNL     1      15.853 -24.540 -56.048  1.00  0.00     0.048 A 
HETATM   32  C11 UNL     1      14.701 -25.102 -56.519  1.00  0.00     0.031 A 
BRANCH  31  33
HETATM   33  C10 UNL     1      16.751 -23.742 -56.946  1.00  0.00     0.417 C 
HETATM   34  F1  UNL     1      18.016 -23.696 -56.416  1.00  0.00    -0.166 F 
HETATM   35  F2  UNL     1      16.744 -24.216 -58.211  1.00  0.00    -0.166 F 
HETATM   36  F3  UNL     1      16.251 -22.425 -56.871  1.00  0.00    -0.166 F 
ENDBRANCH  31  33
ENDBRANCH   4  27
BRANCH   1  37
HETATM   37  N1  UNL     1       9.286 -27.180 -55.129  1.00  0.00    -0.226 N 
ATOM     38  H1  UNL     1       9.197 -27.926 -54.440  1.00  0.00     0.177 HD
BRANCH  37  39
HETATM   39  C2  UNL     1       8.225 -26.178 -55.372  1.00  0.00     0.133 C 
HETATM   40  C1  UNL     1       8.608 -24.804 -54.996  1.00  0.00     0.027 C 
ENDBRANCH  37  39
ENDBRANCH   1  37
TORSDOF 10
ENDMDL
MODEL 5
REMARK VINA RESULT: -7.334422031      0.833      1.061
REMARK  10 active torsions:
REMARK  status: ('A' for Active; 'I' for Inactive)
REMARK    1  A    between atoms: C2_2  and  N1_3 
REMARK    2  A    between atoms: N1_3  and  C3_5 
REMARK    3  A    between atoms: C4_8  and  C5_9 
REMARK    4  A    between atoms: C9_13  and  C10_14 
REMARK    5  A    between atoms: C12_21  and  N4_22 
REMARK    6  A    between atoms: N4_22  and  C13_24 
REMARK    7  A    between atoms: C15_26  and  N5_27 
REMARK    8  A    between atoms: N5_27  and  C16_29 
REMARK    9  A    between atoms: C16_29  and  C17_30 
REMARK   10  A    between atoms: C17_30  and  N6_31 
ROOT
HETATM    1  C3  UNL     1       9.871 -27.310 -56.310  1.00  0.00     0.694 A 
HETATM    2  N2  UNL     1      11.031 -27.243 -55.594  1.00  0.00    -0.175 N 
ATOM      3  H2  UNL     1      10.980 -27.240 -54.575  1.00  0.00     0.186 HD
HETATM    4  C4  UNL     1      12.246 -27.180 -56.186  1.00  0.00     0.146 A 
HETATM    5  N3  UNL     1      12.237 -27.188 -57.514  1.00  0.00    -0.174 N 
ATOM      6  H3  UNL     1      13.138 -27.138 -57.990  1.00  0.00     0.186 HD
HETATM    7  C12 UNL     1      11.129 -27.255 -58.284  1.00  0.00     0.700 A 
HETATM    8  N9  UNL     1       9.923 -27.322 -57.666  1.00  0.00    -0.022 N 
ATOM      9  H9  UNL     1       9.064 -27.380 -58.214  1.00  0.00     0.203 HD
ENDROOT
BRANCH   7  10
HETATM   10  N4  UNL     1      11.228 -27.310 -59.547  1.00  0.00    -0.176 N 
ATOM     11  H4  UNL     1      10.552 -26.759 -60.076  1.00  0.00     0.186 HD
BRANCH  10  12
HETATM   12  C13 UNL     1      12.150 -28.034 -60.296  1.00  0.00     0.125 A 
HETATM   13  C14 UNL     1      13.418 -27.565 -60.677  1.00  0.00     0.097 A 
HETATM   14  C15 UNL     1      14.292 -28.303 -61.417  1.00  0.00     0.109 A 
HETATM   15  N7  UNL     1      13.834 -29.554 -61.764  1.00  0.00    -0.338 N 
HETATM   16  C20 UNL     1      12.632 -29.999 -61.405  1.00  0.00     0.183 A 
ATOM     17  H7  UNL     1      14.438 -30.162 -62.317  1.00  0.00     0.168 HD
HETATM   18  N8  UNL     1      11.745 -29.293 -60.672  1.00  0.00    -0.338 N 
ATOM     19  H8  UNL     1      10.833 -29.670 -60.413  1.00  0.00     0.168 HD
BRANCH  14  20
HETATM   20  N5  UNL     1      15.390 -27.885 -61.856  1.00  0.00    -0.351 N 
ATOM     21  H5  UNL     1      15.353 -27.565 -62.823  1.00  0.00     0.166 HD
BRANCH  20  22
HETATM   22  C16 UNL     1      16.646 -27.775 -61.277  1.00  0.00     0.106 C 
BRANCH  22  23
HETATM   23  C17 UNL     1      17.155 -29.078 -60.659  1.00  0.00     0.101 C 
BRANCH  23  24
HETATM   24  N6  UNL     1      16.877 -29.190 -59.282  1.00  0.00    -0.397 N 
HETATM   25  C18 UNL     1      16.787 -28.007 -58.498  1.00  0.00     0.148 C 
HETATM   26  C19 UNL     1      16.058 -30.283 -58.885  1.00  0.00     0.148 C 
ENDBRANCH  23  24
ENDBRANCH  22  23
ENDBRANCH  20  22
ENDBRANCH  14  20
ENDBRANCH  10  12
ENDBRANCH   7  10
BRANCH   4  27
HETATM   27  C5  UNL     1      13.472 -27.010 -55.441  1.00  0.00     0.010 A 
HETATM   28  C6  UNL     1      13.816 -25.831 -54.782  1.00  0.00     0.015 A 
HETATM   29  C7  UNL     1      15.012 -25.635 -54.126  1.00  0.00     0.002 A 
HETATM   30  C8  UNL     1      15.950 -26.680 -54.121  1.00  0.00     0.016 A 
HETATM   31  C9  UNL     1      15.649 -27.852 -54.771  1.00  0.00     0.048 A 
HETATM   32  C11 UNL     1      14.454 -28.025 -55.410  1.00  0.00     0.031 A 
BRANCH  31  33
HETATM   33  C10 UNL     1      16.686 -28.935 -54.759  1.00  0.00     0.417 C 
HETATM   34  F1  UNL     1      16.842 -29.415 -53.482  1.00  0.00    -0.166 F 
HETATM   35  F2  UNL     1      16.398 -29.916 -55.642  1.00  0.00    -0.166 F 
HETATM   36  F3  UNL     1      17.893 -28.276 -55.075  1.00  0.00    -0.166 F 
ENDBRANCH  31  33
ENDBRANCH   4  27
BRANCH   1  37
HETATM   37  N1  UNL     1       8.715 -27.266 -55.779  1.00  0.00    -0.226 N 
ATOM     38  H1  UNL     1       7.937 -27.846 -56.095  1.00  0.00     0.177 HD
BRANCH  37  39
HETATM   39  C2  UNL     1       8.598 -26.301 -54.664  1.00  0.00     0.133 C 
HETATM   40  C1  UNL     1       8.668 -24.890 -55.089  1.00  0.00     0.027 C 
ENDBRANCH  37  39
ENDBRANCH   1  37
TORSDOF 10
ENDMDL
