MODEL 1
REMARK VINA RESULT: -8.504407580      0.000      0.000
REMARK  9 active torsions:
REMARK  status: ('A' for Active; 'I' for Inactive)
REMARK    1  A    between atoms: C2_3  and  N2_4 
REMARK    2  A    between atoms: N2_4  and  C3_6 
REMARK    3  A    between atoms: C4_9  and  N4_10 
REMARK    4  A    between atoms: N4_10  and  C5_12 
REMARK    5  A    between atoms: C5_12  and  C6_13 
REMARK    6  A    between atoms: C6_13  and  C7_14 
REMARK    7  A    between atoms: C12_23  and  N7_24 
REMARK    8  A    between atoms: N7_24  and  C13_26 
REMARK    9  A    between atoms: C13_26  and  C14_27 
ROOT
HETATM    1  C3  UNL     1      11.712 -26.546 -58.441  1.00  0.00     0.726 A 
HETATM    2  N3  UNL     1      11.276 -26.980 -59.636  1.00  0.00    -0.021 N 
ATOM      3  H3  UNL     1      11.848 -26.786 -60.458  1.00  0.00     0.203 HD
HETATM    4  C4  UNL     1      10.136 -27.650 -59.804  1.00  0.00     0.707 A 
HETATM    5  N6  UNL     1       9.378 -27.908 -58.726  1.00  0.00    -0.022 N 
ATOM      6  H6  UNL     1       8.502 -28.419 -58.834  1.00  0.00     0.203 HD
HETATM    7  C12 UNL     1       9.765 -27.498 -57.510  1.00  0.00     0.707 A 
HETATM    8  N8  UNL     1      10.940 -26.815 -57.378  1.00  0.00    -0.021 N 
ATOM      9  H8  UNL     1      11.236 -26.503 -56.453  1.00  0.00     0.203 HD
ENDROOT
BRANCH   1  10
HETATM   10  N2  UNL     1      12.891 -25.856 -58.331  1.00  0.00    -0.021 N 
ATOM     11  H2  UNL     1      13.185 -25.435 -59.212  1.00  0.00     0.203 HD
BRANCH  10  12
HETATM   12  C2  UNL     1      13.685 -25.627 -57.397  1.00  0.00     0.699 A 
HETATM   13  N1  UNL     1      14.977 -25.313 -57.448  1.00  0.00    -0.185 N 
HETATM   14  C1  UNL     1      15.785 -25.160 -58.609  1.00  0.00     0.175 C 
HETATM   15  C20 UNL     1      15.462 -25.146 -56.180  1.00  0.00     0.078 A 
HETATM   16  C15 UNL     1      14.414 -25.370 -55.325  1.00  0.00     0.076 A 
HETATM   17  C19 UNL     1      16.705 -24.823 -55.679  1.00  0.00     0.032 A 
HETATM   18  N9  UNL     1      13.338 -25.662 -56.090  1.00  0.00    -0.189 N 
HETATM   19  C16 UNL     1      14.601 -25.272 -53.963  1.00  0.00     0.032 A 
ATOM     20  H9  UNL     1      12.406 -25.876 -55.736  1.00  0.00     0.184 HD
HETATM   21  C17 UNL     1      15.845 -24.950 -53.474  1.00  0.00     0.002 A 
HETATM   22  C18 UNL     1      16.883 -24.728 -54.324  1.00  0.00     0.002 A 
ENDBRANCH  10  12
ENDBRANCH   1  10
BRANCH   4  23
HETATM   23  N4  UNL     1       9.790 -28.031 -60.983  1.00  0.00    -0.225 N 
ATOM     24  H4  UNL     1       8.882 -27.754 -61.358  1.00  0.00     0.177 HD
BRANCH  23  25
HETATM   25  C5  UNL     1      10.676 -28.848 -61.782  1.00  0.00     0.142 C 
BRANCH  25  26
HETATM   26  C6  UNL     1      11.131 -30.031 -60.954  1.00  0.00     0.058 C 
BRANCH  26  27
HETATM   27  C7  UNL     1      12.617 -30.034 -60.796  1.00  0.00    -0.054 A 
HETATM   28  C8  UNL     1      13.101 -30.359 -59.549  1.00  0.00     0.024 A 
HETATM   29  C9  UNL     1      14.463 -30.386 -59.316  1.00  0.00     0.088 A 
HETATM   30  N5  UNL     1      15.273 -30.086 -60.348  1.00  0.00    -0.375 N 
HETATM   31  C10 UNL     1      14.827 -29.766 -61.574  1.00  0.00     0.088 A 
ATOM     32  H5  UNL     1      16.282 -30.101 -60.190  1.00  0.00     0.164 HD
HETATM   33  C11 UNL     1      13.475 -29.734 -61.825  1.00  0.00     0.024 A 
ENDBRANCH  26  27
ENDBRANCH  25  26
ENDBRANCH  23  25
ENDBRANCH   4  23
BRANCH   7  34
HETATM   34  N7  UNL     1       9.019 -27.761 -56.502  1.00  0.00    -0.216 N 
ATOM     35  H7  UNL     1       8.113 -28.208 -56.642  1.00  0.00     0.178 HD
BRANCH  34  36
HETATM   36  C13 UNL     1       9.457 -27.428 -55.175  1.00  0.00     0.255 C 
BRANCH  36  37
HETATM   37  C14 UNL     1       8.717 -26.158 -54.768  1.00  0.00     0.403 C 
HETATM   38  F1  UNL     1       8.682 -26.134 -53.383  1.00  0.00    -0.169 F 
HETATM   39  F2  UNL     1       9.385 -25.028 -55.183  1.00  0.00    -0.169 F 
HETATM   40  F3  UNL     1       7.412 -26.193 -55.214  1.00  0.00    -0.169 F 
ENDBRANCH  36  37
ENDBRANCH  34  36
ENDBRANCH   7  34
TORSDOF 9
ENDMDL
MODEL 2
REMARK VINA RESULT: -8.444025559      1.720      2.434
REMARK  9 active torsions:
REMARK  status: ('A' for Active; 'I' for Inactive)
REMARK    1  A    between atoms: C2_3  and  N2_4 
REMARK    2  A    between atoms: N2_4  and  C3_6 
REMARK    3  A    between atoms: C4_9  and  N4_10 
REMARK    4  A    between atoms: N4_10  and  C5_12 
REMARK    5  A    between atoms: C5_12  and  C6_13 
REMARK    6  A    between atoms: C6_13  and  C7_14 
REMARK    7  A    between atoms: C12_23  and  N7_24 
REMARK    8  A    between atoms: N7_24  and  C13_26 
REMARK    9  A    between atoms: C13_26  and  C14_27 
ROOT
HETATM    1  C3  UNL     1      12.897 -27.206 -57.562  1.00  0.00     0.726 A 
HETATM    2  N3  UNL     1      12.244 -27.300 -58.732  1.00  0.00    -0.021 N 
ATOM      3  H3  UNL     1      12.792 -27.306 -59.592  1.00  0.00     0.203 HD
HETATM    4  C4  UNL     1      10.917 -27.386 -58.829  1.00  0.00     0.707 A 
HETATM    5  N6  UNL     1      10.189 -27.378 -57.700  1.00  0.00    -0.022 N 
ATOM      6  H6  UNL     1       9.173 -27.442 -57.753  1.00  0.00     0.203 HD
HETATM    7  C12 UNL     1      10.790 -27.286 -56.505  1.00  0.00     0.707 A 
HETATM    8  N8  UNL     1      12.152 -27.201 -56.447  1.00  0.00    -0.021 N 
ATOM      9  H8  UNL     1      12.610 -27.131 -55.538  1.00  0.00     0.203 HD
ENDROOT
BRANCH   1  10
HETATM   10  N2  UNL     1      14.264 -27.115 -57.525  1.00  0.00    -0.021 N 
ATOM     11  H2  UNL     1      14.706 -27.961 -57.165  1.00  0.00     0.203 HD
BRANCH  10  12
HETATM   12  C2  UNL     1      15.090 -26.232 -57.831  1.00  0.00     0.699 A 
HETATM   13  N1  UNL     1      15.673 -25.994 -59.003  1.00  0.00    -0.185 N 
HETATM   14  C1  UNL     1      15.491 -26.708 -60.220  1.00  0.00     0.175 C 
HETATM   15  C20 UNL     1      16.515 -24.923 -58.890  1.00  0.00     0.078 A 
HETATM   16  C15 UNL     1      16.437 -24.495 -57.590  1.00  0.00     0.076 A 
HETATM   17  C19 UNL     1      17.344 -24.273 -59.782  1.00  0.00     0.032 A 
HETATM   18  N9  UNL     1      15.559 -25.309 -56.961  1.00  0.00    -0.189 N 
HETATM   19  C16 UNL     1      17.184 -23.414 -57.172  1.00  0.00     0.032 A 
ATOM     20  H9  UNL     1      15.292 -25.238 -55.980  1.00  0.00     0.184 HD
HETATM   21  C17 UNL     1      18.006 -22.776 -58.069  1.00  0.00     0.002 A 
HETATM   22  C18 UNL     1      18.083 -23.202 -59.358  1.00  0.00     0.002 A 
ENDBRANCH  10  12
ENDBRANCH   1  10
BRANCH   4  23
HETATM   23  N4  UNL     1      10.368 -27.473 -59.989  1.00  0.00    -0.225 N 
ATOM     24  H4  UNL     1       9.464 -27.031 -60.155  1.00  0.00     0.177 HD
BRANCH  23  25
HETATM   25  C5  UNL     1      11.022 -28.192 -61.060  1.00  0.00     0.142 C 
BRANCH  25  26
HETATM   26  C6  UNL     1      11.137 -29.651 -60.672  1.00  0.00     0.058 C 
BRANCH  26  27
HETATM   27  C7  UNL     1      12.567 -30.086 -60.641  1.00  0.00    -0.054 A 
HETATM   28  C8  UNL     1      13.330 -29.763 -61.740  1.00  0.00     0.024 A 
HETATM   29  C9  UNL     1      14.662 -30.127 -61.794  1.00  0.00     0.088 A 
HETATM   30  N5  UNL     1      15.163 -30.798 -60.740  1.00  0.00    -0.375 N 
HETATM   31  C10 UNL     1      14.440 -31.124 -59.655  1.00  0.00     0.088 A 
ATOM     32  H5  UNL     1      16.146 -31.073 -60.765  1.00  0.00     0.164 HD
HETATM   33  C11 UNL     1      13.113 -30.770 -59.584  1.00  0.00     0.024 A 
ENDBRANCH  26  27
ENDBRANCH  25  26
ENDBRANCH  23  25
ENDBRANCH   4  23
BRANCH   7  34
HETATM   34  N7  UNL     1      10.066 -27.282 -55.448  1.00  0.00    -0.216 N 
ATOM     35  H7  UNL     1      10.321 -27.869 -54.654  1.00  0.00     0.178 HD
BRANCH  34  36
HETATM   36  C13 UNL     1       8.896 -26.452 -55.380  1.00  0.00     0.255 C 
BRANCH  36  37
HETATM   37  C14 UNL     1       9.287 -25.193 -54.613  1.00  0.00     0.403 C 
HETATM   38  F1  UNL     1       9.018 -25.430 -53.276  1.00  0.00    -0.169 F 
HETATM   39  F2  UNL     1      10.634 -24.932 -54.723  1.00  0.00    -0.169 F 
HETATM   40  F3  UNL     1       8.509 -24.123 -55.008  1.00  0.00    -0.169 F 
ENDBRANCH  36  37
ENDBRANCH  34  36
ENDBRANCH   7  34
TORSDOF 9
ENDMDL
MODEL 3
REMARK VINA RESULT: -8.417346816      1.457      2.598
REMARK  9 active torsions:
REMARK  status: ('A' for Active; 'I' for Inactive)
REMARK    1  A    between atoms: C2_3  and  N2_4 
REMARK    2  A    between atoms: N2_4  and  C3_6 
REMARK    3  A    between atoms: C4_9  and  N4_10 
REMARK    4  A    between atoms: N4_10  and  C5_12 
REMARK    5  A    between atoms: C5_12  and  C6_13 
REMARK    6  A    between atoms: C6_13  and  C7_14 
REMARK    7  A    between atoms: C12_23  and  N7_24 
REMARK    8  A    between atoms: N7_24  and  C13_26 
REMARK    9  A    between atoms: C13_26  and  C14_27 
ROOT
HETATM    1  C3  UNL     1      12.931 -27.167 -57.448  1.00  0.00     0.726 A 
HETATM    2  N3  UNL     1      12.303 -27.231 -58.633  1.00  0.00    -0.021 N 
ATOM      3  H3  UNL     1      12.869 -27.203 -59.482  1.00  0.00     0.203 HD
HETATM    4  C4  UNL     1      10.979 -27.330 -58.761  1.00  0.00     0.707 A 
HETATM    5  N6  UNL     1      10.229 -27.367 -57.648  1.00  0.00    -0.022 N 
ATOM      6  H6  UNL     1       9.215 -27.442 -57.723  1.00  0.00     0.203 HD
HETATM    7  C12 UNL     1      10.804 -27.307 -56.438  1.00  0.00     0.707 A 
HETATM    8  N8  UNL     1      12.163 -27.206 -56.349  1.00  0.00    -0.021 N 
ATOM      9  H8  UNL     1      12.602 -27.160 -55.430  1.00  0.00     0.203 HD
ENDROOT
BRANCH   1  10
HETATM   10  N2  UNL     1      14.295 -27.060 -57.380  1.00  0.00    -0.021 N 
ATOM     11  H2  UNL     1      14.741 -27.912 -57.040  1.00  0.00     0.203 HD
BRANCH  10  12
HETATM   12  C2  UNL     1      15.116 -26.157 -57.640  1.00  0.00     0.699 A 
HETATM   13  N1  UNL     1      15.652 -25.248 -56.831  1.00  0.00    -0.185 N 
HETATM   14  C1  UNL     1      15.413 -25.080 -55.438  1.00  0.00     0.175 C 
HETATM   15  C20 UNL     1      16.508 -24.449 -57.538  1.00  0.00     0.078 A 
HETATM   16  C15 UNL     1      16.486 -24.897 -58.833  1.00  0.00     0.076 A 
HETATM   17  C19 UNL     1      17.304 -23.377 -57.191  1.00  0.00     0.032 A 
HETATM   18  N9  UNL     1      15.630 -25.942 -58.873  1.00  0.00    -0.189 N 
HETATM   19  C16 UNL     1      17.261 -24.278 -59.791  1.00  0.00     0.032 A 
ATOM     20  H9  UNL     1      15.404 -26.486 -59.705  1.00  0.00     0.184 HD
HETATM   21  C17 UNL     1      18.050 -23.211 -59.434  1.00  0.00     0.002 A 
HETATM   22  C18 UNL     1      18.071 -22.768 -58.148  1.00  0.00     0.002 A 
ENDBRANCH  10  12
ENDBRANCH   1  10
BRANCH   4  23
HETATM   23  N4  UNL     1      10.455 -27.387 -59.934  1.00  0.00    -0.225 N 
ATOM     24  H4  UNL     1       9.556 -26.937 -60.109  1.00  0.00     0.177 HD
BRANCH  23  25
HETATM   25  C5  UNL     1      11.130 -28.082 -61.008  1.00  0.00     0.142 C 
BRANCH  25  26
HETATM   26  C6  UNL     1      11.151 -29.563 -60.696  1.00  0.00     0.058 C 
BRANCH  26  27
HETATM   27  C7  UNL     1      12.551 -30.085 -60.668  1.00  0.00    -0.054 A 
HETATM   28  C8  UNL     1      13.319 -29.843 -61.785  1.00  0.00     0.024 A 
HETATM   29  C9  UNL     1      14.625 -30.291 -61.842  1.00  0.00     0.088 A 
HETATM   30  N5  UNL     1      15.097 -30.959 -60.773  1.00  0.00    -0.375 N 
HETATM   31  C10 UNL     1      14.369 -31.208 -59.671  1.00  0.00     0.088 A 
ATOM     32  H5  UNL     1      16.060 -31.296 -60.801  1.00  0.00     0.164 HD
HETATM   33  C11 UNL     1      13.067 -30.770 -59.596  1.00  0.00     0.024 A 
ENDBRANCH  26  27
ENDBRANCH  25  26
ENDBRANCH  23  25
ENDBRANCH   4  23
BRANCH   7  34
HETATM   34  N7  UNL     1      10.059 -27.345 -55.397  1.00  0.00    -0.216 N 
ATOM     35  H7  UNL     1      10.304 -27.957 -54.618  1.00  0.00     0.178 HD
BRANCH  34  36
HETATM   36  C13 UNL     1       8.880 -26.527 -55.324  1.00  0.00     0.255 C 
BRANCH  36  37
HETATM   37  C14 UNL     1       9.276 -25.237 -54.615  1.00  0.00     0.403 C 
HETATM   38  F1  UNL     1       9.028 -25.421 -53.265  1.00  0.00    -0.169 F 
HETATM   39  F2  UNL     1      10.621 -24.974 -54.755  1.00  0.00    -0.169 F 
HETATM   40  F3  UNL     1       8.487 -24.188 -55.040  1.00  0.00    -0.169 F 
ENDBRANCH  36  37
ENDBRANCH  34  36
ENDBRANCH   7  34
TORSDOF 9
ENDMDL
MODEL 4
REMARK VINA RESULT: -8.396954444      3.075      5.945
REMARK  9 active torsions:
REMARK  status: ('A' for Active; 'I' for Inactive)
REMARK    1  A    between atoms: C2_3  and  N2_4 
REMARK    2  A    between atoms: N2_4  and  C3_6 
REMARK    3  A    between atoms: C4_9  and  N4_10 
REMARK    4  A    between atoms: N4_10  and  C5_12 
REMARK    5  A    between atoms: C5_12  and  C6_13 
REMARK    6  A    between atoms: C6_13  and  C7_14 
REMARK    7  A    between atoms: C12_23  and  N7_24 
REMARK    8  A    between atoms: N7_24  and  C13_26 
REMARK    9  A    between atoms: C13_26  and  C14_27 
ROOT
HETATM    1  C3  UNL     1      14.763 -27.520 -59.591  1.00  0.00     0.726 A 
HETATM    2  N3  UNL     1      14.443 -27.802 -58.317  1.00  0.00    -0.021 N 
ATOM      3  H3  UNL     1      15.140 -27.625 -57.593  1.00  0.00     0.203 HD
HETATM    4  C4  UNL     1      13.262 -28.301 -57.948  1.00  0.00     0.707 A 
HETATM    5  N6  UNL     1      12.341 -28.536 -58.897  1.00  0.00    -0.022 N 
ATOM      6  H6  UNL     1      11.432 -28.918 -58.636  1.00  0.00     0.203 HD
HETATM    7  C12 UNL     1      12.608 -28.273 -60.184  1.00  0.00     0.707 A 
HETATM    8  N8  UNL     1      13.829 -27.762 -60.522  1.00  0.00    -0.021 N 
ATOM      9  H8  UNL     1      14.034 -27.562 -61.501  1.00  0.00     0.203 HD
ENDROOT
BRANCH   1  10
HETATM   10  N2  UNL     1      15.996 -27.014 -59.910  1.00  0.00    -0.021 N 
ATOM     11  H2  UNL     1      16.620 -27.717 -60.306  1.00  0.00     0.203 HD
BRANCH  10  12
HETATM   12  C2  UNL     1      16.528 -25.889 -59.827  1.00  0.00     0.699 A 
HETATM   13  N1  UNL     1      16.969 -25.243 -58.751  1.00  0.00    -0.185 N 
HETATM   14  C1  UNL     1      16.939 -25.690 -57.400  1.00  0.00     0.175 C 
HETATM   15  C20 UNL     1      17.481 -24.030 -59.119  1.00  0.00     0.078 A 
HETATM   16  C15 UNL     1      17.344 -23.940 -60.480  1.00  0.00     0.076 A 
HETATM   17  C19 UNL     1      18.055 -22.993 -58.413  1.00  0.00     0.032 A 
HETATM   18  N9  UNL     1      16.759 -25.087 -60.892  1.00  0.00    -0.189 N 
HETATM   19  C16 UNL     1      17.778 -22.813 -61.145  1.00  0.00     0.032 A 
ATOM     20  H9  UNL     1      16.527 -25.315 -61.858  1.00  0.00     0.184 HD
HETATM   21  C17 UNL     1      18.347 -21.786 -60.432  1.00  0.00     0.002 A 
HETATM   22  C18 UNL     1      18.483 -21.877 -59.081  1.00  0.00     0.002 A 
ENDBRANCH  10  12
ENDBRANCH   1  10
BRANCH   4  23
HETATM   23  N4  UNL     1      13.034 -28.543 -56.706  1.00  0.00    -0.225 N 
ATOM     24  H4  UNL     1      12.938 -29.507 -56.388  1.00  0.00     0.177 HD
BRANCH  23  25
HETATM   25  C5  UNL     1      12.911 -27.459 -55.756  1.00  0.00     0.142 C 
BRANCH  25  26
HETATM   26  C6  UNL     1      12.148 -26.323 -56.403  1.00  0.00     0.058 C 
BRANCH  26  27
HETATM   27  C7  UNL     1      10.714 -26.333 -55.982  1.00  0.00    -0.054 A 
HETATM   28  C8  UNL     1       9.897 -27.247 -56.608  1.00  0.00     0.024 A 
HETATM   29  C9  UNL     1       8.557 -27.323 -56.279  1.00  0.00     0.088 A 
HETATM   30  N5  UNL     1       8.103 -26.478 -55.335  1.00  0.00    -0.375 N 
HETATM   31  C10 UNL     1       8.879 -25.578 -54.708  1.00  0.00     0.088 A 
ATOM     32  H5  UNL     1       7.115 -26.523 -55.081  1.00  0.00     0.164 HD
HETATM   33  C11 UNL     1      10.215 -25.487 -55.023  1.00  0.00     0.024 A 
ENDBRANCH  26  27
ENDBRANCH  25  26
ENDBRANCH  23  25
ENDBRANCH   4  23
BRANCH   7  34
HETATM   34  N7  UNL     1      11.707 -28.510 -61.063  1.00  0.00    -0.216 N 
ATOM     35  H7  UNL     1      11.820 -28.160 -62.015  1.00  0.00     0.178 HD
BRANCH  34  36
HETATM   36  C13 UNL     1      10.538 -29.266 -60.711  1.00  0.00     0.255 C 
BRANCH  36  37
HETATM   37  C14 UNL     1       9.353 -28.309 -60.774  1.00  0.00     0.403 C 
HETATM   38  F1  UNL     1       8.431 -28.858 -61.650  1.00  0.00    -0.169 F 
HETATM   39  F2  UNL     1       8.735 -28.186 -59.550  1.00  0.00    -0.169 F 
HETATM   40  F3  UNL     1       9.740 -27.090 -61.293  1.00  0.00    -0.169 F 
ENDBRANCH  36  37
ENDBRANCH  34  36
ENDBRANCH   7  34
TORSDOF 9
ENDMDL
MODEL 5
REMARK VINA RESULT: -8.322016854      1.367      2.003
REMARK  9 active torsions:
REMARK  status: ('A' for Active; 'I' for Inactive)
REMARK    1  A    between atoms: C2_3  and  N2_4 
REMARK    2  A    between atoms: N2_4  and  C3_6 
REMARK    3  A    between atoms: C4_9  and  N4_10 
REMARK    4  A    between atoms: N4_10  and  C5_12 
REMARK    5  A    between atoms: C5_12  and  C6_13 
REMARK    6  A    between atoms: C6_13  and  C7_14 
REMARK    7  A    between atoms: C12_23  and  N7_24 
REMARK    8  A    between atoms: N7_24  and  C13_26 
REMARK    9  A    between atoms: C13_26  and  C14_27 
ROOT
HETATM    1  C3  UNL     1      12.109 -26.443 -58.289  1.00  0.00     0.726 A 
HETATM    2  N3  UNL     1      11.655 -26.814 -59.498  1.00  0.00    -0.021 N 
ATOM      3  H3  UNL     1      12.232 -26.611 -60.314  1.00  0.00     0.203 HD
HETATM    4  C4  UNL     1      10.489 -27.434 -59.687  1.00  0.00     0.707 A 
HETATM    5  N6  UNL     1       9.725 -27.703 -58.617  1.00  0.00    -0.022 N 
ATOM      6  H6  UNL     1       8.830 -28.177 -58.740  1.00  0.00     0.203 HD
HETATM    7  C12 UNL     1      10.130 -27.355 -57.387  1.00  0.00     0.707 A 
HETATM    8  N8  UNL     1      11.330 -26.722 -57.234  1.00  0.00    -0.021 N 
ATOM      9  H8  UNL     1      11.640 -26.457 -56.299  1.00  0.00     0.203 HD
ENDROOT
BRANCH   1  10
HETATM   10  N2  UNL     1      13.313 -25.802 -58.157  1.00  0.00    -0.021 N 
ATOM     11  H2  UNL     1      13.268 -24.819 -58.423  1.00  0.00     0.203 HD
BRANCH  10  12
HETATM   12  C2  UNL     1      14.452 -26.149 -57.785  1.00  0.00     0.699 A 
HETATM   13  N1  UNL     1      15.356 -25.465 -57.090  1.00  0.00    -0.185 N 
HETATM   14  C1  UNL     1      15.240 -24.138 -56.589  1.00  0.00     0.175 C 
HETATM   15  C20 UNL     1      16.472 -26.233 -56.904  1.00  0.00     0.078 A 
HETATM   16  C15 UNL     1      16.230 -27.436 -57.515  1.00  0.00     0.076 A 
HETATM   17  C19 UNL     1      17.675 -26.013 -56.266  1.00  0.00     0.032 A 
HETATM   18  N9  UNL     1      14.989 -27.363 -58.047  1.00  0.00    -0.189 N 
HETATM   19  C16 UNL     1      17.189 -28.427 -57.493  1.00  0.00     0.032 A 
ATOM     20  H9  UNL     1      14.528 -28.109 -58.567  1.00  0.00     0.184 HD
HETATM   21  C17 UNL     1      18.383 -28.196 -56.855  1.00  0.00     0.002 A 
HETATM   22  C18 UNL     1      18.622 -27.002 -56.249  1.00  0.00     0.002 A 
ENDBRANCH  10  12
ENDBRANCH   1  10
BRANCH   4  23
HETATM   23  N4  UNL     1      10.126 -27.757 -60.878  1.00  0.00    -0.225 N 
ATOM     24  H4  UNL     1       9.266 -27.371 -61.267  1.00  0.00     0.177 HD
BRANCH  23  25
HETATM   25  C5  UNL     1      10.929 -28.661 -61.672  1.00  0.00     0.142 C 
BRANCH  25  26
HETATM   26  C6  UNL     1      11.213 -29.906 -60.859  1.00  0.00     0.058 C 
BRANCH  26  27
HETATM   27  C7  UNL     1      12.681 -30.082 -60.643  1.00  0.00    -0.054 A 
HETATM   28  C8  UNL     1      13.504 -29.695 -61.677  1.00  0.00     0.024 A 
HETATM   29  C9  UNL     1      14.875 -29.822 -61.560  1.00  0.00     0.088 A 
HETATM   30  N5  UNL     1      15.354 -30.332 -60.410  1.00  0.00    -0.375 N 
HETATM   31  C10 UNL     1      14.573 -30.717 -59.387  1.00  0.00     0.088 A 
ATOM     32  H5  UNL     1      16.364 -30.432 -60.310  1.00  0.00     0.164 HD
HETATM   33  C11 UNL     1      13.206 -30.597 -59.484  1.00  0.00     0.024 A 
ENDBRANCH  26  27
ENDBRANCH  25  26
ENDBRANCH  23  25
ENDBRANCH   4  23
BRANCH   7  34
HETATM   34  N7  UNL     1       9.376 -27.628 -56.387  1.00  0.00    -0.216 N 
ATOM     35  H7  UNL     1       8.517 -28.159 -56.527  1.00  0.00     0.178 HD
BRANCH  34  36
HETATM   36  C13 UNL     1       9.741 -27.186 -55.070  1.00  0.00     0.255 C 
BRANCH  36  37
HETATM   37  C14 UNL     1       8.826 -26.016 -54.724  1.00  0.00     0.403 C 
HETATM   38  F1  UNL     1       8.841 -25.881 -53.345  1.00  0.00    -0.169 F 
HETATM   39  F2  UNL     1       9.290 -24.835 -55.258  1.00  0.00    -0.169 F 
HETATM   40  F3  UNL     1       7.527 -26.289 -55.098  1.00  0.00    -0.169 F 
ENDBRANCH  36  37
ENDBRANCH  34  36
ENDBRANCH   7  34
TORSDOF 9
ENDMDL
