MODEL 1
REMARK VINA RESULT: -7.335585007      0.000      0.000
REMARK  12 active torsions:
REMARK  status: ('A' for Active; 'I' for Inactive)
REMARK    1  A    between atoms: C2_2  and  N1_3 
REMARK       I    between atoms: N1_3  and  C3_5 
REMARK       I    between atoms: C3_5  and  N2_7 
REMARK    2  A    between atoms: N2_7  and  C4_9 
REMARK    3  A    between atoms: C4_9  and  C5_10 
REMARK    4  A    between atoms: C4_9  and  C13_26 
REMARK    5  A    between atoms: C5_10  and  C6_11 
REMARK    6  A    between atoms: C6_11  and  N3_12 
REMARK    7  A    between atoms: N3_12  and  C7_14 
REMARK    8  A    between atoms: C7_14  and  C10_21 
REMARK       I    between atoms: N4_15  and  C8_17 
REMARK    9  A    between atoms: C8_17  and  O3_19 
REMARK   10  A    between atoms: C10_21  and  O5_23 
REMARK   11  A    between atoms: O5_23  and  C11_24 
REMARK   12  A    between atoms: C16_29  and  C17_30 
ROOT
HETATM    1  C4  UNL     1      14.305 -27.684 -55.997  1.00  0.00     0.121 C 
ENDROOT
BRANCH   1   2
HETATM    2  N2  UNL     1      15.008 -26.918 -57.045  1.00  0.00    -0.334 N 
HETATM    3  C3  UNL     1      16.157 -26.138 -56.761  1.00  0.00     0.316 C 
HETATM    4  N1  UNL     1      16.814 -25.475 -57.807  1.00  0.00    -0.343 N 
HETATM    5  O1  UNL     1      16.570 -26.063 -55.599  1.00  0.00    -0.247 OA
ATOM      6  H1  UNL     1      16.472 -25.530 -58.766  1.00  0.00     0.164 HD
ATOM      7  H2  UNL     1      14.655 -26.951 -58.001  1.00  0.00     0.165 HD
BRANCH   4   8
HETATM    8  C2  UNL     1      18.019 -24.695 -57.464  1.00  0.00     0.120 C 
HETATM    9  C1  UNL     1      17.760 -23.220 -57.424  1.00  0.00     0.026 C 
ENDBRANCH   4   8
ENDBRANCH   1   2
BRANCH   1  10
HETATM   10  C5  UNL     1      14.308 -29.064 -56.574  1.00  0.00     0.050 C 
BRANCH  10  11
HETATM   11  C6  UNL     1      14.634 -29.264 -58.013  1.00  0.00     0.123 C 
BRANCH  11  12
HETATM   12  N3  UNL     1      13.323 -29.537 -58.629  1.00  0.00    -0.371 N 
ATOM     13  H3  UNL     1      12.869 -30.413 -58.370  1.00  0.00     0.161 HD
BRANCH  12  14
HETATM   14  C7  UNL     1      12.634 -28.708 -59.541  1.00  0.00     0.182 C 
HETATM   15  N4  UNL     1      11.440 -29.140 -59.851  1.00  0.00    -0.284 N 
HETATM   16  C8  UNL     1      10.573 -28.495 -60.722  1.00  0.00     0.365 C 
ATOM     17  H4  UNL     1      11.124 -30.010 -59.423  1.00  0.00     0.172 HD
HETATM   18  O2  UNL     1      10.724 -28.547 -61.969  1.00  0.00    -0.238 OA
BRANCH  16  19
HETATM   19  O3  UNL     1       9.465 -27.745 -60.271  1.00  0.00    -0.309 OA
HETATM   20  C9  UNL     1       9.111 -27.784 -58.887  1.00  0.00     0.215 C 
ENDBRANCH  16  19
BRANCH  14  21
HETATM   21  C10 UNL     1      13.228 -27.506 -60.035  1.00  0.00     0.327 C 
HETATM   22  O4  UNL     1      13.196 -26.448 -59.383  1.00  0.00    -0.256 OA
BRANCH  21  23
HETATM   23  O5  UNL     1      13.855 -27.493 -61.263  1.00  0.00    -0.316 OA
BRANCH  23  24
HETATM   24  C11 UNL     1      15.063 -28.203 -61.445  1.00  0.00     0.175 C 
HETATM   25  C12 UNL     1      14.971 -29.435 -62.261  1.00  0.00     0.034 C 
ENDBRANCH  23  24
ENDBRANCH  21  23
ENDBRANCH  14  21
ENDBRANCH  12  14
ENDBRANCH  11  12
ENDBRANCH  10  11
ENDBRANCH   1  10
BRANCH   1  26
HETATM   26  C13 UNL     1      12.975 -27.150 -55.745  1.00  0.00    -0.035 A 
HETATM   27  C14 UNL     1      12.709 -25.786 -55.557  1.00  0.00     0.010 A 
HETATM   28  C15 UNL     1      11.415 -25.367 -55.333  1.00  0.00     0.017 A 
HETATM   29  C16 UNL     1      10.348 -26.257 -55.288  1.00  0.00     0.047 A 
HETATM   30  C18 UNL     1      10.635 -27.595 -55.476  1.00  0.00     0.017 A 
HETATM   31  C19 UNL     1      11.918 -28.025 -55.698  1.00  0.00     0.010 A 
BRANCH  29  32
HETATM   32  C17 UNL     1       8.936 -25.790 -55.050  1.00  0.00     0.417 C 
HETATM   33  F1  UNL     1       8.556 -26.178 -53.772  1.00  0.00    -0.166 F 
HETATM   34  F2  UNL     1       8.839 -24.408 -55.223  1.00  0.00    -0.166 F 
HETATM   35  F3  UNL     1       8.113 -26.384 -55.982  1.00  0.00    -0.166 F 
ENDBRANCH  29  32
ENDBRANCH   1  26
TORSDOF 12
ENDMDL
MODEL 2
REMARK VINA RESULT: -7.281886288      4.287      6.704
REMARK  12 active torsions:
REMARK  status: ('A' for Active; 'I' for Inactive)
REMARK    1  A    between atoms: C2_2  and  N1_3 
REMARK       I    between atoms: N1_3  and  C3_5 
REMARK       I    between atoms: C3_5  and  N2_7 
REMARK    2  A    between atoms: N2_7  and  C4_9 
REMARK    3  A    between atoms: C4_9  and  C5_10 
REMARK    4  A    between atoms: C4_9  and  C13_26 
REMARK    5  A    between atoms: C5_10  and  C6_11 
REMARK    6  A    between atoms: C6_11  and  N3_12 
REMARK    7  A    between atoms: N3_12  and  C7_14 
REMARK    8  A    between atoms: C7_14  and  C10_21 
REMARK       I    between atoms: N4_15  and  C8_17 
REMARK    9  A    between atoms: C8_17  and  O3_19 
REMARK   10  A    between atoms: C10_21  and  O5_23 
REMARK   11  A    between atoms: O5_23  and  C11_24 
REMARK   12  A    between atoms: C16_29  and  C17_30 
ROOT
HETATM    1  C4  UNL     1      15.104 -25.779 -57.779  1.00  0.00     0.121 C 
ENDROOT
BRANCH   1   2
HETATM    2  N2  UNL     1      14.530 -26.143 -59.089  1.00  0.00    -0.334 N 
HETATM    3  C3  UNL     1      14.234 -27.486 -59.432  1.00  0.00     0.316 C 
HETATM    4  N1  UNL     1      13.639 -27.766 -60.670  1.00  0.00    -0.343 N 
HETATM    5  O1  UNL     1      14.493 -28.390 -58.630  1.00  0.00    -0.247 OA
ATOM      6  H1  UNL     1      13.429 -27.023 -61.337  1.00  0.00     0.164 HD
ATOM      7  H2  UNL     1      14.341 -25.406 -59.768  1.00  0.00     0.165 HD
BRANCH   4   8
HETATM    8  C2  UNL     1      13.329 -29.177 -60.970  1.00  0.00     0.120 C 
HETATM    9  C1  UNL     1      14.235 -29.758 -62.011  1.00  0.00     0.026 C 
ENDBRANCH   4   8
ENDBRANCH   1   2
BRANCH   1  10
HETATM   10  C5  UNL     1      13.928 -25.163 -57.091  1.00  0.00     0.050 C 
BRANCH  10  11
HETATM   11  C6  UNL     1      13.365 -25.806 -55.871  1.00  0.00     0.123 C 
BRANCH  11  12
HETATM   12  N3  UNL     1      12.691 -27.006 -56.395  1.00  0.00    -0.371 N 
ATOM     13  H3  UNL     1      13.249 -27.858 -56.449  1.00  0.00     0.161 HD
BRANCH  12  14
HETATM   14  C7  UNL     1      11.350 -27.096 -56.829  1.00  0.00     0.182 C 
HETATM   15  N4  UNL     1      10.479 -27.138 -55.856  1.00  0.00    -0.284 N 
HETATM   16  C8  UNL     1       9.105 -27.222 -56.033  1.00  0.00     0.365 C 
ATOM     17  H4  UNL     1      10.834 -27.106 -54.900  1.00  0.00     0.172 HD
HETATM   18  O2  UNL     1       8.541 -28.300 -56.348  1.00  0.00    -0.238 OA
BRANCH  16  19
HETATM   19  O3  UNL     1       8.251 -26.110 -55.867  1.00  0.00    -0.309 OA
HETATM   20  C9  UNL     1       8.692 -24.999 -55.085  1.00  0.00     0.215 C 
ENDBRANCH  16  19
BRANCH  14  21
HETATM   21  C10 UNL     1      11.028 -27.118 -58.222  1.00  0.00     0.327 C 
HETATM   22  O4  UNL     1      11.288 -26.156 -58.965  1.00  0.00    -0.256 OA
BRANCH  21  23
HETATM   23  O5  UNL     1      10.412 -28.220 -58.777  1.00  0.00    -0.316 OA
BRANCH  23  24
HETATM   24  C11 UNL     1       9.415 -28.046 -59.763  1.00  0.00     0.175 C 
HETATM   25  C12 UNL     1       9.607 -28.812 -61.016  1.00  0.00     0.034 C 
ENDBRANCH  23  24
ENDBRANCH  21  23
ENDBRANCH  14  21
ENDBRANCH  12  14
ENDBRANCH  11  12
ENDBRANCH  10  11
ENDBRANCH   1  10
BRANCH   1  26
HETATM   26  C13 UNL     1      16.242 -24.883 -57.924  1.00  0.00    -0.035 A 
HETATM   27  C14 UNL     1      16.851 -24.594 -59.154  1.00  0.00     0.010 A 
HETATM   28  C15 UNL     1      17.919 -23.724 -59.200  1.00  0.00     0.017 A 
HETATM   29  C16 UNL     1      18.423 -23.112 -58.058  1.00  0.00     0.047 A 
HETATM   30  C18 UNL     1      17.806 -23.412 -56.859  1.00  0.00     0.017 A 
HETATM   31  C19 UNL     1      16.744 -24.276 -56.799  1.00  0.00     0.010 A 
BRANCH  29  32
HETATM   32  C17 UNL     1      19.586 -22.157 -58.117  1.00  0.00     0.417 C 
HETATM   33  F1  UNL     1      20.104 -22.019 -56.837  1.00  0.00    -0.166 F 
HETATM   34  F2  UNL     1      20.550 -22.611 -59.020  1.00  0.00    -0.166 F 
HETATM   35  F3  UNL     1      19.132 -20.938 -58.572  1.00  0.00    -0.166 F 
ENDBRANCH  29  32
ENDBRANCH   1  26
TORSDOF 12
ENDMDL
MODEL 3
REMARK VINA RESULT: -7.156771393      4.200      6.911
REMARK  12 active torsions:
REMARK  status: ('A' for Active; 'I' for Inactive)
REMARK    1  A    between atoms: C2_2  and  N1_3 
REMARK       I    between atoms: N1_3  and  C3_5 
REMARK       I    between atoms: C3_5  and  N2_7 
REMARK    2  A    between atoms: N2_7  and  C4_9 
REMARK    3  A    between atoms: C4_9  and  C5_10 
REMARK    4  A    between atoms: C4_9  and  C13_26 
REMARK    5  A    between atoms: C5_10  and  C6_11 
REMARK    6  A    between atoms: C6_11  and  N3_12 
REMARK    7  A    between atoms: N3_12  and  C7_14 
REMARK    8  A    between atoms: C7_14  and  C10_21 
REMARK       I    between atoms: N4_15  and  C8_17 
REMARK    9  A    between atoms: C8_17  and  O3_19 
REMARK   10  A    between atoms: C10_21  and  O5_23 
REMARK   11  A    between atoms: O5_23  and  C11_24 
REMARK   12  A    between atoms: C16_29  and  C17_30 
ROOT
HETATM    1  C4  UNL     1      15.190 -26.042 -57.123  1.00  0.00     0.121 C 
ENDROOT
BRANCH   1   2
HETATM    2  N2  UNL     1      14.598 -26.911 -58.158  1.00  0.00    -0.334 N 
HETATM    3  C3  UNL     1      14.623 -28.325 -58.055  1.00  0.00     0.316 C 
HETATM    4  N1  UNL     1      13.996 -29.098 -59.042  1.00  0.00    -0.343 N 
HETATM    5  O1  UNL     1      15.186 -28.855 -57.091  1.00  0.00    -0.247 OA
ATOM      6  H1  UNL     1      13.535 -28.664 -59.841  1.00  0.00     0.164 HD
ATOM      7  H2  UNL     1      14.157 -26.482 -58.971  1.00  0.00     0.165 HD
BRANCH   4   8
HETATM    8  C2  UNL     1      14.029 -30.564 -58.878  1.00  0.00     0.120 C 
HETATM    9  C1  UNL     1      14.121 -31.290 -60.185  1.00  0.00     0.026 C 
ENDBRANCH   4   8
ENDBRANCH   1   2
BRANCH   1  10
HETATM   10  C5  UNL     1      13.975 -25.410 -56.521  1.00  0.00     0.050 C 
BRANCH  10  11
HETATM   11  C6  UNL     1      13.065 -26.224 -55.669  1.00  0.00     0.123 C 
BRANCH  11  12
HETATM   12  N3  UNL     1      11.723 -25.881 -56.172  1.00  0.00    -0.371 N 
ATOM     13  H3  UNL     1      11.386 -24.940 -55.973  1.00  0.00     0.161 HD
BRANCH  12  14
HETATM   14  C7  UNL     1      10.859 -26.726 -56.903  1.00  0.00     0.182 C 
HETATM   15  N4  UNL     1      11.227 -26.917 -58.142  1.00  0.00    -0.284 N 
HETATM   16  C8  UNL     1      10.542 -27.710 -59.052  1.00  0.00     0.365 C 
ATOM     17  H4  UNL     1      12.076 -26.453 -58.462  1.00  0.00     0.172 HD
HETATM   18  O2  UNL     1       9.486 -27.318 -59.611  1.00  0.00    -0.238 OA
BRANCH  16  19
HETATM   19  O3  UNL     1      10.982 -29.001 -59.415  1.00  0.00    -0.309 OA
HETATM   20  C9  UNL     1      10.862 -29.425 -60.775  1.00  0.00     0.215 C 
ENDBRANCH  16  19
BRANCH  14  21
HETATM   21  C10 UNL     1       9.707 -27.307 -56.288  1.00  0.00     0.327 C 
HETATM   22  O4  UNL     1       9.773 -28.381 -55.665  1.00  0.00    -0.256 OA
BRANCH  21  23
HETATM   23  O5  UNL     1       8.480 -26.683 -56.376  1.00  0.00    -0.316 OA
BRANCH  23  24
HETATM   24  C11 UNL     1       7.969 -25.975 -55.265  1.00  0.00     0.175 C 
HETATM   25  C12 UNL     1       8.623 -24.680 -54.969  1.00  0.00     0.034 C 
ENDBRANCH  23  24
ENDBRANCH  21  23
ENDBRANCH  14  21
ENDBRANCH  12  14
ENDBRANCH  11  12
ENDBRANCH  10  11
ENDBRANCH   1  10
BRANCH   1  26
HETATM   26  C13 UNL     1      16.129 -25.090 -57.698  1.00  0.00    -0.035 A 
HETATM   27  C14 UNL     1      16.507 -25.090 -59.049  1.00  0.00     0.010 A 
HETATM   28  C15 UNL     1      17.396 -24.144 -59.510  1.00  0.00     0.017 A 
HETATM   29  C16 UNL     1      17.940 -23.173 -58.677  1.00  0.00     0.047 A 
HETATM   30  C18 UNL     1      17.552 -23.192 -57.351  1.00  0.00     0.017 A 
HETATM   31  C19 UNL     1      16.670 -24.129 -56.879  1.00  0.00     0.010 A 
BRANCH  29  32
HETATM   32  C17 UNL     1      18.905 -22.137 -59.190  1.00  0.00     0.417 C 
HETATM   33  F1  UNL     1      18.256 -21.373 -60.151  1.00  0.00    -0.166 F 
HETATM   34  F2  UNL     1      19.388 -21.352 -58.142  1.00  0.00    -0.166 F 
HETATM   35  F3  UNL     1      19.983 -22.783 -59.757  1.00  0.00    -0.166 F 
ENDBRANCH  29  32
ENDBRANCH   1  26
TORSDOF 12
ENDMDL
MODEL 4
REMARK VINA RESULT: -7.054718525      1.065      1.766
REMARK  12 active torsions:
REMARK  status: ('A' for Active; 'I' for Inactive)
REMARK    1  A    between atoms: C2_2  and  N1_3 
REMARK       I    between atoms: N1_3  and  C3_5 
REMARK       I    between atoms: C3_5  and  N2_7 
REMARK    2  A    between atoms: N2_7  and  C4_9 
REMARK    3  A    between atoms: C4_9  and  C5_10 
REMARK    4  A    between atoms: C4_9  and  C13_26 
REMARK    5  A    between atoms: C5_10  and  C6_11 
REMARK    6  A    between atoms: C6_11  and  N3_12 
REMARK    7  A    between atoms: N3_12  and  C7_14 
REMARK    8  A    between atoms: C7_14  and  C10_21 
REMARK       I    between atoms: N4_15  and  C8_17 
REMARK    9  A    between atoms: C8_17  and  O3_19 
REMARK   10  A    between atoms: C10_21  and  O5_23 
REMARK   11  A    between atoms: O5_23  and  C11_24 
REMARK   12  A    between atoms: C16_29  and  C17_30 
ROOT
HETATM    1  C4  UNL     1      14.301 -27.544 -55.859  1.00  0.00     0.121 C 
ENDROOT
BRANCH   1   2
HETATM    2  N2  UNL     1      15.026 -26.693 -56.823  1.00  0.00    -0.334 N 
HETATM    3  C3  UNL     1      16.025 -25.776 -56.411  1.00  0.00     0.316 C 
HETATM    4  N1  UNL     1      16.719 -25.034 -57.377  1.00  0.00    -0.343 N 
HETATM    5  O1  UNL     1      16.280 -25.653 -55.207  1.00  0.00    -0.247 OA
ATOM      6  H1  UNL     1      16.507 -25.129 -58.370  1.00  0.00     0.164 HD
ATOM      7  H2  UNL     1      14.801 -26.768 -57.814  1.00  0.00     0.165 HD
BRANCH   4   8
HETATM    8  C2  UNL     1      17.766 -24.110 -56.900  1.00  0.00     0.120 C 
HETATM    9  C1  UNL     1      18.021 -22.984 -57.854  1.00  0.00     0.026 C 
ENDBRANCH   4   8
ENDBRANCH   1   2
BRANCH   1  10
HETATM   10  C5  UNL     1      14.433 -28.896 -56.484  1.00  0.00     0.050 C 
BRANCH  10  11
HETATM   11  C6  UNL     1      14.738 -29.013 -57.936  1.00  0.00     0.123 C 
BRANCH  11  12
HETATM   12  N3  UNL     1      13.504 -29.585 -58.503  1.00  0.00    -0.371 N 
ATOM     13  H3  UNL     1      13.294 -30.553 -58.259  1.00  0.00     0.161 HD
BRANCH  12  14
HETATM   14  C7  UNL     1      12.583 -28.929 -59.348  1.00  0.00     0.182 C 
HETATM   15  N4  UNL     1      12.189 -27.766 -58.901  1.00  0.00    -0.284 N 
HETATM   16  C8  UNL     1      11.292 -26.934 -59.557  1.00  0.00     0.365 C 
ATOM     17  H4  UNL     1      12.566 -27.448 -58.008  1.00  0.00     0.172 HD
HETATM   18  O2  UNL     1      10.054 -27.158 -59.554  1.00  0.00    -0.238 OA
BRANCH  16  19
HETATM   19  O3  UNL     1      11.703 -25.783 -60.264  1.00  0.00    -0.309 OA
HETATM   20  C9  UNL     1      11.926 -25.870 -61.672  1.00  0.00     0.215 C 
ENDBRANCH  16  19
BRANCH  14  21
HETATM   21  C10 UNL     1      12.166 -29.520 -60.581  1.00  0.00     0.327 C 
HETATM   22  O4  UNL     1      11.179 -30.274 -60.641  1.00  0.00    -0.256 OA
BRANCH  21  23
HETATM   23  O5  UNL     1      12.860 -29.265 -61.745  1.00  0.00    -0.316 OA
BRANCH  23  24
HETATM   24  C11 UNL     1      14.110 -29.886 -61.970  1.00  0.00     0.175 C 
HETATM   25  C12 UNL     1      15.254 -28.971 -62.185  1.00  0.00     0.034 C 
ENDBRANCH  23  24
ENDBRANCH  21  23
ENDBRANCH  14  21
ENDBRANCH  12  14
ENDBRANCH  11  12
ENDBRANCH  10  11
ENDBRANCH   1  10
BRANCH   1  26
HETATM   26  C13 UNL     1      12.924 -27.103 -55.686  1.00  0.00    -0.035 A 
HETATM   27  C14 UNL     1      12.540 -25.755 -55.641  1.00  0.00     0.010 A 
HETATM   28  C15 UNL     1      11.211 -25.428 -55.485  1.00  0.00     0.017 A 
HETATM   29  C16 UNL     1      10.220 -26.397 -55.371  1.00  0.00     0.047 A 
HETATM   30  C18 UNL     1      10.623 -27.717 -55.419  1.00  0.00     0.017 A 
HETATM   31  C19 UNL     1      11.942 -28.056 -55.573  1.00  0.00     0.010 A 
BRANCH  29  32
HETATM   32  C17 UNL     1       8.768 -26.031 -55.208  1.00  0.00     0.417 C 
HETATM   33  F1  UNL     1       8.657 -24.649 -55.264  1.00  0.00    -0.166 F 
HETATM   34  F2  UNL     1       7.991 -26.654 -56.186  1.00  0.00    -0.166 F 
HETATM   35  F3  UNL     1       8.335 -26.486 -53.982  1.00  0.00    -0.166 F 
ENDBRANCH  29  32
ENDBRANCH   1  26
TORSDOF 12
ENDMDL
MODEL 5
REMARK VINA RESULT: -7.020892113      4.442      6.761
REMARK  12 active torsions:
REMARK  status: ('A' for Active; 'I' for Inactive)
REMARK    1  A    between atoms: C2_2  and  N1_3 
REMARK       I    between atoms: N1_3  and  C3_5 
REMARK       I    between atoms: C3_5  and  N2_7 
REMARK    2  A    between atoms: N2_7  and  C4_9 
REMARK    3  A    between atoms: C4_9  and  C5_10 
REMARK    4  A    between atoms: C4_9  and  C13_26 
REMARK    5  A    between atoms: C5_10  and  C6_11 
REMARK    6  A    between atoms: C6_11  and  N3_12 
REMARK    7  A    between atoms: N3_12  and  C7_14 
REMARK    8  A    between atoms: C7_14  and  C10_21 
REMARK       I    between atoms: N4_15  and  C8_17 
REMARK    9  A    between atoms: C8_17  and  O3_19 
REMARK   10  A    between atoms: C10_21  and  O5_23 
REMARK   11  A    between atoms: O5_23  and  C11_24 
REMARK   12  A    between atoms: C16_29  and  C17_30 
ROOT
HETATM    1  C4  UNL     1      15.517 -25.677 -57.677  1.00  0.00     0.121 C 
ENDROOT
BRANCH   1   2
HETATM    2  N2  UNL     1      15.232 -26.266 -59.000  1.00  0.00    -0.334 N 
HETATM    3  C3  UNL     1      14.909 -27.637 -59.157  1.00  0.00     0.316 C 
HETATM    4  N1  UNL     1      14.594 -28.129 -60.431  1.00  0.00    -0.343 N 
HETATM    5  O1  UNL     1      14.898 -28.378 -58.167  1.00  0.00    -0.247 OA
ATOM      6  H1  UNL     1      14.608 -27.522 -61.251  1.00  0.00     0.164 HD
ATOM      7  H2  UNL     1      15.268 -25.668 -59.825  1.00  0.00     0.165 HD
BRANCH   4   8
HETATM    8  C2  UNL     1      14.242 -29.558 -60.540  1.00  0.00     0.120 C 
HETATM    9  C1  UNL     1      13.087 -29.800 -61.462  1.00  0.00     0.026 C 
ENDBRANCH   4   8
ENDBRANCH   1   2
BRANCH   1  10
HETATM   10  C5  UNL     1      14.199 -25.065 -57.323  1.00  0.00     0.050 C 
BRANCH  10  11
HETATM   11  C6  UNL     1      13.524 -25.445 -56.052  1.00  0.00     0.123 C 
BRANCH  11  12
HETATM   12  N3  UNL     1      12.957 -26.773 -56.345  1.00  0.00    -0.371 N 
ATOM     13  H3  UNL     1      13.575 -27.573 -56.216  1.00  0.00     0.161 HD
BRANCH  12  14
HETATM   14  C7  UNL     1      11.644 -27.047 -56.787  1.00  0.00     0.182 C 
HETATM   15  N4  UNL     1      10.747 -27.008 -55.839  1.00  0.00    -0.284 N 
HETATM   16  C8  UNL     1       9.391 -27.238 -56.029  1.00  0.00     0.365 C 
ATOM     17  H4  UNL     1      11.064 -26.792 -54.894  1.00  0.00     0.172 HD
HETATM   18  O2  UNL     1       8.929 -28.398 -56.177  1.00  0.00    -0.238 OA
BRANCH  16  19
HETATM   19  O3  UNL     1       8.442 -26.193 -56.065  1.00  0.00    -0.309 OA
HETATM   20  C9  UNL     1       8.595 -25.080 -55.182  1.00  0.00     0.215 C 
ENDBRANCH  16  19
BRANCH  14  21
HETATM   21  C10 UNL     1      11.374 -27.320 -58.164  1.00  0.00     0.327 C 
HETATM   22  O4  UNL     1      11.356 -28.482 -58.606  1.00  0.00    -0.256 OA
BRANCH  21  23
HETATM   23  O5  UNL     1      11.128 -26.288 -59.044  1.00  0.00    -0.316 OA
BRANCH  23  24
HETATM   24  C11 UNL     1      11.616 -26.359 -60.368  1.00  0.00     0.175 C 
HETATM   25  C12 UNL     1      10.687 -26.933 -61.368  1.00  0.00     0.034 C 
ENDBRANCH  23  24
ENDBRANCH  21  23
ENDBRANCH  14  21
ENDBRANCH  12  14
ENDBRANCH  11  12
ENDBRANCH  10  11
ENDBRANCH   1  10
BRANCH   1  26
HETATM   26  C13 UNL     1      16.615 -24.724 -57.741  1.00  0.00    -0.035 A 
HETATM   27  C14 UNL     1      17.284 -24.232 -56.611  1.00  0.00     0.010 A 
HETATM   28  C15 UNL     1      18.321 -23.339 -56.765  1.00  0.00     0.017 A 
HETATM   29  C16 UNL     1      18.738 -22.900 -58.017  1.00  0.00     0.047 A 
HETATM   30  C18 UNL     1      18.065 -23.399 -59.115  1.00  0.00     0.017 A 
HETATM   31  C19 UNL     1      17.030 -24.288 -58.975  1.00  0.00     0.010 A 
BRANCH  29  32
HETATM   32  C17 UNL     1      19.878 -21.929 -58.178  1.00  0.00     0.417 C 
HETATM   33  F1  UNL     1      20.754 -22.437 -59.128  1.00  0.00    -0.166 F 
HETATM   34  F2  UNL     1      19.402 -20.666 -58.534  1.00  0.00    -0.166 F 
HETATM   35  F3  UNL     1      20.524 -21.804 -56.968  1.00  0.00    -0.166 F 
ENDBRANCH  29  32
ENDBRANCH   1  26
TORSDOF 12
ENDMDL
