MODEL 1
REMARK VINA RESULT: -7.859433563      0.000      0.000
REMARK  18 active torsions:
REMARK  status: ('A' for Active; 'I' for Inactive)
REMARK    1  A    between atoms: C2_2  and  N1_3 
REMARK    2  A    between atoms: N1_3  and  C3_5 
REMARK    3  A    between atoms: C4_6  and  C5_7 
REMARK    4  A    between atoms: C5_7  and  O1_8 
REMARK    5  A    between atoms: C5_7  and  N2_10 
REMARK    6  A    between atoms: N2_10  and  N3_12 
REMARK       I    between atoms: N3_12  and  C6_13 
REMARK    7  A    between atoms: C6_13  and  C7_15 
REMARK    8  A    between atoms: C7_15  and  O3_16 
REMARK    9  A    between atoms: C8_18  and  C9_19 
REMARK   10  A    between atoms: C9_19  and  O5_21 
REMARK   11  A    between atoms: C11_23  and  C12_24 
REMARK   12  A    between atoms: C12_24  and  O6_25 
REMARK   13  A    between atoms: C12_24  and  O7_27 
REMARK   14  A    between atoms: O7_27  and  C13_28 
REMARK   15  A    between atoms: C14_29  and  O8_30 
REMARK   16  A    between atoms: C15_32  and  O9_33 
REMARK   17  A    between atoms: C16_35  and  C17_36 
REMARK   18  A    between atoms: N4_39  and  O12_40 
ROOT
HETATM    1  C3  UNL     1     -16.510 -34.168   9.271  1.00  0.00     0.098 A 
HETATM    2  C4  UNL     1     -15.570 -34.964   9.786  1.00  0.00     0.065 A 
HETATM    3  C8  UNL     1     -14.687 -34.531  10.904  1.00  0.00     0.075 A 
HETATM    4  C11 UNL     1     -14.779 -33.284  11.415  1.00  0.00     0.094 A 
HETATM    5  C18 UNL     1     -15.841 -32.370  10.820  1.00  0.00     0.240 A 
HETATM    6  O13 UNL     1     -15.982 -31.182  11.262  1.00  0.00    -0.283 OA
HETATM    7  C19 UNL     1     -16.678 -32.822   9.781  1.00  0.00     0.249 A 
HETATM    8  O14 UNL     1     -17.580 -32.061   9.278  1.00  0.00    -0.282 OA
ENDROOT
BRANCH   4   9
HETATM    9  C12 UNL     1     -14.025 -32.684  12.456  1.00  0.00     0.201 C 
BRANCH   9  10
HETATM   10  O6  UNL     1     -12.783 -32.341  12.103  1.00  0.00    -0.340 OA
ATOM     11  H6  UNL     1     -12.428 -32.850  11.384  1.00  0.00     0.220 HD
ENDBRANCH   9  10
BRANCH   9  12
HETATM   12  O7  UNL     1     -14.202 -32.341  13.784  1.00  0.00    -0.265 OA
BRANCH  12  13
HETATM   13  C13 UNL     1     -14.534 -30.971  13.998  1.00  0.00     0.213 A 
HETATM   14  C14 UNL     1     -13.731 -29.889  14.115  1.00  0.00     0.156 A 
HETATM   15  C15 UNL     1     -14.566 -28.779  14.339  1.00  0.00     0.140 A 
HETATM   16  C16 UNL     1     -15.883 -29.236  14.348  1.00  0.00     0.177 A 
HETATM   17  N4  UNL     1     -15.797 -30.569  14.130  1.00  0.00    -0.189 N 
BRANCH  14  18
HETATM   18  O8  UNL     1     -12.364 -29.849  14.037  1.00  0.00    -0.354 OA
ATOM     19  H8  UNL     1     -11.778 -29.216  14.436  1.00  0.00     0.218 HD
ENDBRANCH  14  18
BRANCH  15  20
HETATM   20  O9  UNL     1     -14.069 -27.502  14.510  1.00  0.00    -0.356 OA
ATOM     21  H9  UNL     1     -14.590 -26.726  14.341  1.00  0.00     0.218 HD
ENDBRANCH  15  20
BRANCH  16  22
HETATM   22  C17 UNL     1     -17.089 -28.478  14.606  1.00  0.00     0.232 C 
HETATM   23  O10 UNL     1     -18.111 -28.982  15.057  1.00  0.00    -0.643 OA
HETATM   24  O11 UNL     1     -17.115 -27.088  14.333  1.00  0.00    -0.643 OA
ENDBRANCH  16  22
BRANCH  17  25
HETATM   25  O12 UNL     1     -16.941 -31.344  14.035  1.00  0.00    -0.280 OA
ATOM     26  H12 UNL     1     -17.340 -31.690  13.245  1.00  0.00     0.245 HD
ENDBRANCH  17  25
ENDBRANCH  12  13
ENDBRANCH   9  12
ENDBRANCH   4   9
BRANCH   3  27
HETATM   27  C9  UNL     1     -14.093 -35.501  11.856  1.00  0.00     0.295 C 
HETATM   28  O4  UNL     1     -14.497 -35.615  12.981  1.00  0.00    -0.259 OA
BRANCH  27  29
HETATM   29  O5  UNL     1     -13.035 -36.396  11.513  1.00  0.00    -0.322 OA
HETATM   30  C10 UNL     1     -12.889 -37.592  12.293  1.00  0.00     0.213 C 
ENDBRANCH  27  29
ENDBRANCH   3  27
BRANCH   2  31
HETATM   31  C5  UNL     1     -15.335 -36.260   9.212  1.00  0.00     0.179 C 
BRANCH  31  32
HETATM   32  O1  UNL     1     -16.434 -37.025   9.065  1.00  0.00    -0.344 OA
ATOM     33  H1  UNL     1     -16.270 -37.960   9.033  1.00  0.00     0.219 HD
ENDBRANCH  31  32
BRANCH  31  34
HETATM   34  N2  UNL     1     -14.219 -36.923   8.756  1.00  0.00    -0.209 N 
ATOM     35  H2  UNL     1     -13.511 -36.380   8.262  1.00  0.00     0.204 HD
BRANCH  34  36
HETATM   36  N3  UNL     1     -13.998 -38.261   8.922  1.00  0.00    -0.282 NA
HETATM   37  C6  UNL     1     -13.774 -39.565   9.076  1.00  0.00     0.335 C 
HETATM   38  O2  UNL     1     -12.902 -40.297   8.523  1.00  0.00    -0.253 OA
BRANCH  37  39
HETATM   39  C7  UNL     1     -14.698 -40.310  10.039  1.00  0.00     0.285 C 
BRANCH  39  40
HETATM   40  O3  UNL     1     -15.669 -39.474  10.531  1.00  0.00    -0.390 OA
ATOM     41  H3  UNL     1     -16.306 -39.958  11.043  1.00  0.00     0.210 HD
ENDBRANCH  39  40
ENDBRANCH  37  39
ENDBRANCH  34  36
ENDBRANCH  31  34
ENDBRANCH   2  31
BRANCH   1  42
HETATM   42  N1  UNL     1     -17.362 -34.487   8.173  1.00  0.00    -0.386 N 
ATOM     43  H1  UNL     1     -18.155 -35.115   8.298  1.00  0.00     0.159 HD
BRANCH  42  44
HETATM   44  C2  UNL     1     -17.079 -33.897   6.859  1.00  0.00     0.115 C 
HETATM   45  C1  UNL     1     -18.302 -33.166   6.409  1.00  0.00     0.026 C 
ENDBRANCH  42  44
ENDBRANCH   1  42
TORSDOF 18
ENDMDL
MODEL 2
REMARK VINA RESULT: -7.839543990      2.645      3.436
REMARK  18 active torsions:
REMARK  status: ('A' for Active; 'I' for Inactive)
REMARK    1  A    between atoms: C2_2  and  N1_3 
REMARK    2  A    between atoms: N1_3  and  C3_5 
REMARK    3  A    between atoms: C4_6  and  C5_7 
REMARK    4  A    between atoms: C5_7  and  O1_8 
REMARK    5  A    between atoms: C5_7  and  N2_10 
REMARK    6  A    between atoms: N2_10  and  N3_12 
REMARK       I    between atoms: N3_12  and  C6_13 
REMARK    7  A    between atoms: C6_13  and  C7_15 
REMARK    8  A    between atoms: C7_15  and  O3_16 
REMARK    9  A    between atoms: C8_18  and  C9_19 
REMARK   10  A    between atoms: C9_19  and  O5_21 
REMARK   11  A    between atoms: C11_23  and  C12_24 
REMARK   12  A    between atoms: C12_24  and  O6_25 
REMARK   13  A    between atoms: C12_24  and  O7_27 
REMARK   14  A    between atoms: O7_27  and  C13_28 
REMARK   15  A    between atoms: C14_29  and  O8_30 
REMARK   16  A    between atoms: C15_32  and  O9_33 
REMARK   17  A    between atoms: C16_35  and  C17_36 
REMARK   18  A    between atoms: N4_39  and  O12_40 
ROOT
HETATM    1  C3  UNL     1     -16.188 -35.258  10.389  1.00  0.00     0.098 A 
HETATM    2  C4  UNL     1     -15.721 -35.618  11.588  1.00  0.00     0.065 A 
HETATM    3  C8  UNL     1     -15.265 -34.621  12.594  1.00  0.00     0.075 A 
HETATM    4  C11 UNL     1     -15.268 -33.300  12.311  1.00  0.00     0.094 A 
HETATM    5  C18 UNL     1     -15.787 -32.889  10.940  1.00  0.00     0.240 A 
HETATM    6  O13 UNL     1     -15.821 -31.656  10.613  1.00  0.00    -0.283 OA
HETATM    7  C19 UNL     1     -16.236 -33.858  10.022  1.00  0.00     0.249 A 
HETATM    8  O14 UNL     1     -16.682 -33.519   8.866  1.00  0.00    -0.282 OA
ENDROOT
BRANCH   4   9
HETATM    9  C12 UNL     1     -14.862 -32.208  13.121  1.00  0.00     0.201 C 
BRANCH   9  10
HETATM   10  O6  UNL     1     -15.334 -32.249  14.370  1.00  0.00    -0.340 OA
ATOM     11  H6  UNL     1     -15.201 -33.081  14.809  1.00  0.00     0.220 HD
ENDBRANCH   9  10
BRANCH   9  12
HETATM   12  O7  UNL     1     -14.094 -31.066  12.992  1.00  0.00    -0.265 OA
BRANCH  12  13
HETATM   13  C13 UNL     1     -14.600 -29.935  13.696  1.00  0.00     0.213 A 
HETATM   14  C14 UNL     1     -13.949 -29.010  14.438  1.00  0.00     0.156 A 
HETATM   15  C15 UNL     1     -14.920 -28.120  14.930  1.00  0.00     0.140 A 
HETATM   16  C16 UNL     1     -16.161 -28.544  14.456  1.00  0.00     0.177 A 
HETATM   17  N4  UNL     1     -15.899 -29.643  13.711  1.00  0.00    -0.189 N 
BRANCH  14  18
HETATM   18  O8  UNL     1     -12.604 -28.930  14.684  1.00  0.00    -0.354 OA
ATOM     19  H8  UNL     1     -12.157 -28.347  15.288  1.00  0.00     0.218 HD
ENDBRANCH  14  18
BRANCH  15  20
HETATM   20  O9  UNL     1     -14.599 -27.046  15.738  1.00  0.00    -0.356 OA
ATOM     21  H9  UNL     1     -15.167 -26.291  15.831  1.00  0.00     0.218 HD
ENDBRANCH  15  20
BRANCH  16  22
HETATM   22  C17 UNL     1     -17.466 -27.987  14.746  1.00  0.00     0.232 C 
HETATM   23  O10 UNL     1     -18.447 -28.678  14.994  1.00  0.00    -0.643 OA
HETATM   24  O11 UNL     1     -17.642 -26.581  14.750  1.00  0.00    -0.643 OA
ENDBRANCH  16  22
BRANCH  17  25
HETATM   25  O12 UNL     1     -16.918 -30.304  13.046  1.00  0.00    -0.280 OA
ATOM     26  H12 UNL     1     -17.839 -30.072  13.025  1.00  0.00     0.245 HD
ENDBRANCH  17  25
ENDBRANCH  12  13
ENDBRANCH   9  12
ENDBRANCH   4   9
BRANCH   3  27
HETATM   27  C9  UNL     1     -15.315 -34.897  14.051  1.00  0.00     0.295 C 
HETATM   28  O4  UNL     1     -14.326 -35.146  14.684  1.00  0.00    -0.259 OA
BRANCH  27  29
HETATM   29  O5  UNL     1     -16.516 -34.851  14.821  1.00  0.00    -0.322 OA
HETATM   30  C10 UNL     1     -16.410 -35.039  16.240  1.00  0.00     0.213 C 
ENDBRANCH  27  29
ENDBRANCH   3  27
BRANCH   2  31
HETATM   31  C5  UNL     1     -15.577 -37.010  11.912  1.00  0.00     0.179 C 
BRANCH  31  32
HETATM   32  O1  UNL     1     -14.306 -37.445  12.003  1.00  0.00    -0.344 OA
ATOM     33  H1  UNL     1     -13.850 -37.189  12.797  1.00  0.00     0.219 HD
ENDBRANCH  31  32
BRANCH  31  34
HETATM   34  N2  UNL     1     -16.459 -38.036  12.167  1.00  0.00    -0.209 N 
ATOM     35  H2  UNL     1     -16.259 -38.949  11.760  1.00  0.00     0.204 HD
BRANCH  34  36
HETATM   36  N3  UNL     1     -17.584 -37.909  12.932  1.00  0.00    -0.282 NA
HETATM   37  C6  UNL     1     -18.676 -37.776  13.683  1.00  0.00     0.335 C 
HETATM   38  O2  UNL     1     -18.892 -36.983  14.646  1.00  0.00    -0.253 OA
BRANCH  37  39
HETATM   39  C7  UNL     1     -19.842 -38.715  13.370  1.00  0.00     0.285 C 
BRANCH  39  40
HETATM   40  O3  UNL     1     -20.768 -38.093  12.570  1.00  0.00    -0.390 OA
ATOM     41  H3  UNL     1     -21.638 -38.442  12.725  1.00  0.00     0.210 HD
ENDBRANCH  39  40
ENDBRANCH  37  39
ENDBRANCH  34  36
ENDBRANCH  31  34
ENDBRANCH   2  31
BRANCH   1  42
HETATM   42  N1  UNL     1     -16.598 -36.149   9.353  1.00  0.00    -0.386 N 
ATOM     43  H1  UNL     1     -17.546 -36.526   9.339  1.00  0.00     0.159 HD
BRANCH  42  44
HETATM   44  C2  UNL     1     -15.635 -36.514   8.308  1.00  0.00     0.115 C 
HETATM   45  C1  UNL     1     -15.404 -37.988   8.388  1.00  0.00     0.026 C 
ENDBRANCH  42  44
ENDBRANCH   1  42
TORSDOF 18
ENDMDL
MODEL 3
REMARK VINA RESULT: -7.674352456      3.541      8.506
REMARK  18 active torsions:
REMARK  status: ('A' for Active; 'I' for Inactive)
REMARK    1  A    between atoms: C2_2  and  N1_3 
REMARK    2  A    between atoms: N1_3  and  C3_5 
REMARK    3  A    between atoms: C4_6  and  C5_7 
REMARK    4  A    between atoms: C5_7  and  O1_8 
REMARK    5  A    between atoms: C5_7  and  N2_10 
REMARK    6  A    between atoms: N2_10  and  N3_12 
REMARK       I    between atoms: N3_12  and  C6_13 
REMARK    7  A    between atoms: C6_13  and  C7_15 
REMARK    8  A    between atoms: C7_15  and  O3_16 
REMARK    9  A    between atoms: C8_18  and  C9_19 
REMARK   10  A    between atoms: C9_19  and  O5_21 
REMARK   11  A    between atoms: C11_23  and  C12_24 
REMARK   12  A    between atoms: C12_24  and  O6_25 
REMARK   13  A    between atoms: C12_24  and  O7_27 
REMARK   14  A    between atoms: O7_27  and  C13_28 
REMARK   15  A    between atoms: C14_29  and  O8_30 
REMARK   16  A    between atoms: C15_32  and  O9_33 
REMARK   17  A    between atoms: C16_35  and  C17_36 
REMARK   18  A    between atoms: N4_39  and  O12_40 
ROOT
HETATM    1  C3  UNL     1     -15.763 -33.817  11.301  1.00  0.00     0.098 A 
HETATM    2  C4  UNL     1     -15.867 -33.489  12.591  1.00  0.00     0.065 A 
HETATM    3  C8  UNL     1     -15.932 -34.514  13.668  1.00  0.00     0.075 A 
HETATM    4  C11 UNL     1     -15.929 -35.832  13.371  1.00  0.00     0.094 A 
HETATM    5  C18 UNL     1     -15.824 -36.208  11.900  1.00  0.00     0.240 A 
HETATM    6  O13 UNL     1     -15.812 -37.435  11.553  1.00  0.00    -0.283 OA
HETATM    7  C19 UNL     1     -15.738 -35.211  10.908  1.00  0.00     0.249 A 
HETATM    8  O14 UNL     1     -15.643 -35.519   9.665  1.00  0.00    -0.282 OA
ENDROOT
BRANCH   4   9
HETATM    9  C12 UNL     1     -16.000 -36.948  14.244  1.00  0.00     0.201 C 
BRANCH   9  10
HETATM   10  O6  UNL     1     -14.855 -37.628  14.356  1.00  0.00    -0.340 OA
ATOM     11  H6  UNL     1     -14.425 -37.529  15.197  1.00  0.00     0.220 HD
ENDBRANCH   9  10
BRANCH   9  12
HETATM   12  O7  UNL     1     -16.944 -37.568  15.041  1.00  0.00    -0.265 OA
BRANCH  12  13
HETATM   13  C13 UNL     1     -18.009 -38.184  14.321  1.00  0.00     0.213 A 
HETATM   14  C14 UNL     1     -19.303 -37.810  14.194  1.00  0.00     0.156 A 
HETATM   15  C15 UNL     1     -19.934 -38.779  13.393  1.00  0.00     0.140 A 
HETATM   16  C16 UNL     1     -18.976 -39.732  13.049  1.00  0.00     0.177 A 
HETATM   17  N4  UNL     1     -17.832 -39.312  13.637  1.00  0.00    -0.189 N 
BRANCH  14  18
HETATM   18  O8  UNL     1     -19.912 -36.707  14.731  1.00  0.00    -0.354 OA
ATOM     19  H8  UNL     1     -20.728 -36.302  14.457  1.00  0.00     0.218 HD
ENDBRANCH  14  18
BRANCH  15  20
HETATM   20  O9  UNL     1     -21.273 -38.708  13.064  1.00  0.00    -0.356 OA
ATOM     21  H9  UNL     1     -21.631 -38.007  12.531  1.00  0.00     0.218 HD
ENDBRANCH  15  20
BRANCH  16  22
HETATM   22  C17 UNL     1     -19.163 -40.952  12.293  1.00  0.00     0.232 C 
HETATM   23  O10 UNL     1     -18.241 -41.707  12.005  1.00  0.00    -0.643 OA
HETATM   24  O11 UNL     1     -20.460 -41.312  11.852  1.00  0.00    -0.643 OA
ENDBRANCH  16  22
BRANCH  17  25
HETATM   25  O12 UNL     1     -16.651 -40.015  13.465  1.00  0.00    -0.280 OA
ATOM     26  H12 UNL     1     -16.539 -40.959  13.440  1.00  0.00     0.245 HD
ENDBRANCH  17  25
ENDBRANCH  12  13
ENDBRANCH   9  12
ENDBRANCH   4   9
BRANCH   3  27
HETATM   27  C9  UNL     1     -15.461 -34.234  15.047  1.00  0.00     0.295 C 
HETATM   28  O4  UNL     1     -14.382 -34.593  15.434  1.00  0.00    -0.259 OA
BRANCH  27  29
HETATM   29  O5  UNL     1     -16.218 -33.493  16.003  1.00  0.00    -0.322 OA
HETATM   30  C10 UNL     1     -16.625 -34.167  17.204  1.00  0.00     0.213 C 
ENDBRANCH  27  29
ENDBRANCH   3  27
BRANCH   2  31
HETATM   31  C5  UNL     1     -15.996 -32.109  12.972  1.00  0.00     0.179 C 
BRANCH  31  32
HETATM   32  O1  UNL     1     -15.061 -31.288  12.460  1.00  0.00    -0.344 OA
ATOM     33  H1  UNL     1     -14.558 -30.802  13.103  1.00  0.00     0.219 HD
ENDBRANCH  31  32
BRANCH  31  34
HETATM   34  N2  UNL     1     -16.883 -31.405  13.754  1.00  0.00    -0.209 N 
ATOM     35  H2  UNL     1     -17.614 -31.929  14.236  1.00  0.00     0.204 HD
BRANCH  34  36
HETATM   36  N3  UNL     1     -16.846 -30.051  13.928  1.00  0.00    -0.282 NA
HETATM   37  C6  UNL     1     -16.803 -28.729  14.088  1.00  0.00     0.335 C 
HETATM   38  O2  UNL     1     -16.186 -27.861  13.404  1.00  0.00    -0.253 OA
BRANCH  37  39
HETATM   39  C7  UNL     1     -17.587 -28.155  15.269  1.00  0.00     0.285 C 
BRANCH  39  40
HETATM   40  O3  UNL     1     -18.938 -28.188  15.021  1.00  0.00    -0.390 OA
ATOM     41  H3  UNL     1     -19.421 -27.773  15.725  1.00  0.00     0.210 HD
ENDBRANCH  39  40
ENDBRANCH  37  39
ENDBRANCH  34  36
ENDBRANCH  31  34
ENDBRANCH   2  31
BRANCH   1  42
HETATM   42  N1  UNL     1     -15.745 -32.901  10.207  1.00  0.00    -0.386 N 
ATOM     43  H1  UNL     1     -14.861 -32.609   9.791  1.00  0.00     0.159 HD
BRANCH  42  44
HETATM   44  C2  UNL     1     -17.018 -32.387   9.689  1.00  0.00     0.115 C 
HETATM   45  C1  UNL     1     -17.146 -32.820   8.265  1.00  0.00     0.026 C 
ENDBRANCH  42  44
ENDBRANCH   1  42
TORSDOF 18
ENDMDL
MODEL 4
REMARK VINA RESULT: -7.564193094      2.126      3.136
REMARK  18 active torsions:
REMARK  status: ('A' for Active; 'I' for Inactive)
REMARK    1  A    between atoms: C2_2  and  N1_3 
REMARK    2  A    between atoms: N1_3  and  C3_5 
REMARK    3  A    between atoms: C4_6  and  C5_7 
REMARK    4  A    between atoms: C5_7  and  O1_8 
REMARK    5  A    between atoms: C5_7  and  N2_10 
REMARK    6  A    between atoms: N2_10  and  N3_12 
REMARK       I    between atoms: N3_12  and  C6_13 
REMARK    7  A    between atoms: C6_13  and  C7_15 
REMARK    8  A    between atoms: C7_15  and  O3_16 
REMARK    9  A    between atoms: C8_18  and  C9_19 
REMARK   10  A    between atoms: C9_19  and  O5_21 
REMARK   11  A    between atoms: C11_23  and  C12_24 
REMARK   12  A    between atoms: C12_24  and  O6_25 
REMARK   13  A    between atoms: C12_24  and  O7_27 
REMARK   14  A    between atoms: O7_27  and  C13_28 
REMARK   15  A    between atoms: C14_29  and  O8_30 
REMARK   16  A    between atoms: C15_32  and  O9_33 
REMARK   17  A    between atoms: C16_35  and  C17_36 
REMARK   18  A    between atoms: N4_39  and  O12_40 
ROOT
HETATM    1  C3  UNL     1     -16.114 -35.234  10.374  1.00  0.00     0.098 A 
HETATM    2  C4  UNL     1     -15.667 -35.584  11.582  1.00  0.00     0.065 A 
HETATM    3  C8  UNL     1     -15.217 -34.580  12.585  1.00  0.00     0.075 A 
HETATM    4  C11 UNL     1     -15.207 -33.262  12.287  1.00  0.00     0.094 A 
HETATM    5  C18 UNL     1     -15.703 -32.862  10.905  1.00  0.00     0.240 A 
HETATM    6  O13 UNL     1     -15.723 -31.633  10.565  1.00  0.00    -0.283 OA
HETATM    7  C19 UNL     1     -16.147 -33.837   9.991  1.00  0.00     0.249 A 
HETATM    8  O14 UNL     1     -16.574 -33.507   8.826  1.00  0.00    -0.282 OA
ENDROOT
BRANCH   4   9
HETATM    9  C12 UNL     1     -14.803 -32.165  13.091  1.00  0.00     0.201 C 
BRANCH   9  10
HETATM   10  O6  UNL     1     -15.226 -32.230  14.357  1.00  0.00    -0.340 OA
ATOM     11  H6  UNL     1     -14.673 -31.769  14.976  1.00  0.00     0.220 HD
ENDBRANCH   9  10
BRANCH   9  12
HETATM   12  O7  UNL     1     -14.075 -30.999  12.944  1.00  0.00    -0.265 OA
BRANCH  12  13
HETATM   13  C13 UNL     1     -14.588 -29.889  13.677  1.00  0.00     0.213 A 
HETATM   14  C14 UNL     1     -13.947 -28.995  14.464  1.00  0.00     0.156 A 
HETATM   15  C15 UNL     1     -14.922 -28.116  14.967  1.00  0.00     0.140 A 
HETATM   16  C16 UNL     1     -16.156 -28.515  14.454  1.00  0.00     0.177 A 
HETATM   17  N4  UNL     1     -15.886 -29.589  13.676  1.00  0.00    -0.189 N 
BRANCH  14  18
HETATM   18  O8  UNL     1     -12.606 -28.933  14.738  1.00  0.00    -0.354 OA
ATOM     19  H8  UNL     1     -12.082 -28.156  14.900  1.00  0.00     0.218 HD
ENDBRANCH  14  18
BRANCH  15  20
HETATM   20  O9  UNL     1     -14.610 -27.073  15.817  1.00  0.00    -0.356 OA
ATOM     21  H9  UNL     1     -14.940 -27.025  16.707  1.00  0.00     0.218 HD
ENDBRANCH  15  20
BRANCH  16  22
HETATM   22  C17 UNL     1     -17.462 -27.960  14.738  1.00  0.00     0.232 C 
HETATM   23  O10 UNL     1     -18.444 -28.652  14.984  1.00  0.00    -0.643 OA
HETATM   24  O11 UNL     1     -17.641 -26.554  14.739  1.00  0.00    -0.643 OA
ENDBRANCH  16  22
BRANCH  17  25
HETATM   25  O12 UNL     1     -16.895 -30.220  12.970  1.00  0.00    -0.280 OA
ATOM     26  H12 UNL     1     -17.752 -29.872  12.750  1.00  0.00     0.245 HD
ENDBRANCH  17  25
ENDBRANCH  12  13
ENDBRANCH   9  12
ENDBRANCH   4   9
BRANCH   3  27
HETATM   27  C9  UNL     1     -15.290 -34.840  14.044  1.00  0.00     0.295 C 
HETATM   28  O4  UNL     1     -14.303 -34.985  14.712  1.00  0.00    -0.259 OA
BRANCH  27  29
HETATM   29  O5  UNL     1     -16.515 -34.900  14.773  1.00  0.00    -0.322 OA
HETATM   30  C10 UNL     1     -16.891 -36.160  15.349  1.00  0.00     0.213 C 
ENDBRANCH  27  29
ENDBRANCH   3  27
BRANCH   2  31
HETATM   31  C5  UNL     1     -15.538 -36.974  11.923  1.00  0.00     0.179 C 
BRANCH  31  32
HETATM   32  O1  UNL     1     -16.699 -37.652  11.997  1.00  0.00    -0.344 OA
ATOM     33  H1  UNL     1     -16.680 -38.522  11.616  1.00  0.00     0.219 HD
ENDBRANCH  31  32
BRANCH  31  34
HETATM   34  N2  UNL     1     -14.474 -37.804  12.194  1.00  0.00    -0.209 N 
ATOM     35  H2  UNL     1     -13.932 -38.157  11.405  1.00  0.00     0.204 HD
BRANCH  34  36
HETATM   36  N3  UNL     1     -14.097 -38.185  13.451  1.00  0.00    -0.282 NA
HETATM   37  C6  UNL     1     -13.739 -38.563  14.676  1.00  0.00     0.335 C 
HETATM   38  O2  UNL     1     -14.308 -39.379  15.459  1.00  0.00    -0.253 OA
BRANCH  37  39
HETATM   39  C7  UNL     1     -12.475 -37.923  15.250  1.00  0.00     0.285 C 
BRANCH  39  40
HETATM   40  O3  UNL     1     -12.052 -36.883  14.460  1.00  0.00    -0.390 OA
ATOM     41  H3  UNL     1     -11.311 -36.439  14.854  1.00  0.00     0.210 HD
ENDBRANCH  39  40
ENDBRANCH  37  39
ENDBRANCH  34  36
ENDBRANCH  31  34
ENDBRANCH   2  31
BRANCH   1  42
HETATM   42  N1  UNL     1     -16.517 -36.132   9.341  1.00  0.00    -0.386 N 
ATOM     43  H1  UNL     1     -17.468 -36.498   9.315  1.00  0.00     0.159 HD
BRANCH  42  44
HETATM   44  C2  UNL     1     -15.540 -36.522   8.318  1.00  0.00     0.115 C 
HETATM   45  C1  UNL     1     -15.392 -38.008   8.364  1.00  0.00     0.026 C 
ENDBRANCH  42  44
ENDBRANCH   1  42
TORSDOF 18
ENDMDL
MODEL 5
REMARK VINA RESULT: -7.528333464      1.595      2.189
REMARK  18 active torsions:
REMARK  status: ('A' for Active; 'I' for Inactive)
REMARK    1  A    between atoms: C2_2  and  N1_3 
REMARK    2  A    between atoms: N1_3  and  C3_5 
REMARK    3  A    between atoms: C4_6  and  C5_7 
REMARK    4  A    between atoms: C5_7  and  O1_8 
REMARK    5  A    between atoms: C5_7  and  N2_10 
REMARK    6  A    between atoms: N2_10  and  N3_12 
REMARK       I    between atoms: N3_12  and  C6_13 
REMARK    7  A    between atoms: C6_13  and  C7_15 
REMARK    8  A    between atoms: C7_15  and  O3_16 
REMARK    9  A    between atoms: C8_18  and  C9_19 
REMARK   10  A    between atoms: C9_19  and  O5_21 
REMARK   11  A    between atoms: C11_23  and  C12_24 
REMARK   12  A    between atoms: C12_24  and  O6_25 
REMARK   13  A    between atoms: C12_24  and  O7_27 
REMARK   14  A    between atoms: O7_27  and  C13_28 
REMARK   15  A    between atoms: C14_29  and  O8_30 
REMARK   16  A    between atoms: C15_32  and  O9_33 
REMARK   17  A    between atoms: C16_35  and  C17_36 
REMARK   18  A    between atoms: N4_39  and  O12_40 
ROOT
HETATM    1  C3  UNL     1     -16.542 -34.181   9.492  1.00  0.00     0.098 A 
HETATM    2  C4  UNL     1     -15.618 -34.869  10.166  1.00  0.00     0.065 A 
HETATM    3  C8  UNL     1     -14.787 -34.247  11.234  1.00  0.00     0.075 A 
HETATM    4  C11 UNL     1     -14.912 -32.936  11.533  1.00  0.00     0.094 A 
HETATM    5  C18 UNL     1     -15.956 -32.147  10.756  1.00  0.00     0.240 A 
HETATM    6  O13 UNL     1     -16.127 -30.906  10.995  1.00  0.00    -0.283 OA
HETATM    7  C19 UNL     1     -16.744 -32.773   9.771  1.00  0.00     0.249 A 
HETATM    8  O14 UNL     1     -17.632 -32.117   9.116  1.00  0.00    -0.282 OA
ENDROOT
BRANCH   4   9
HETATM    9  C12 UNL     1     -14.209 -32.165  12.494  1.00  0.00     0.201 C 
BRANCH   9  10
HETATM   10  O6  UNL     1     -13.153 -31.511  12.002  1.00  0.00    -0.340 OA
ATOM     11  H6  UNL     1     -13.348 -30.633  11.695  1.00  0.00     0.220 HD
ENDBRANCH   9  10
BRANCH   9  12
HETATM   12  O7  UNL     1     -14.295 -31.883  13.845  1.00  0.00    -0.265 OA
BRANCH  12  13
HETATM   13  C13 UNL     1     -14.693 -30.547  14.143  1.00  0.00     0.213 A 
HETATM   14  C14 UNL     1     -13.942 -29.460  14.435  1.00  0.00     0.156 A 
HETATM   15  C15 UNL     1     -14.832 -28.397  14.669  1.00  0.00     0.140 A 
HETATM   16  C16 UNL     1     -16.128 -28.885  14.504  1.00  0.00     0.177 A 
HETATM   17  N4  UNL     1     -15.975 -30.191  14.181  1.00  0.00    -0.189 N 
BRANCH  14  18
HETATM   18  O8  UNL     1     -12.576 -29.380  14.501  1.00  0.00    -0.354 OA
ATOM     19  H8  UNL     1     -11.947 -29.620  13.829  1.00  0.00     0.218 HD
ENDBRANCH  14  18
BRANCH  15  20
HETATM   20  O9  UNL     1     -14.398 -27.128  15.001  1.00  0.00    -0.356 OA
ATOM     21  H9  UNL     1     -14.048 -26.524  14.356  1.00  0.00     0.218 HD
ENDBRANCH  15  20
BRANCH  16  22
HETATM   22  C17 UNL     1     -17.378 -28.184  14.704  1.00  0.00     0.232 C 
HETATM   23  O10 UNL     1     -18.419 -28.750  15.016  1.00  0.00    -0.643 OA
HETATM   24  O11 UNL     1     -17.427 -26.778  14.535  1.00  0.00    -0.643 OA
ENDBRANCH  16  22
BRANCH  17  25
HETATM   25  O12 UNL     1     -17.077 -30.982  13.902  1.00  0.00    -0.280 OA
ATOM     26  H12 UNL     1     -17.085 -31.836  13.485  1.00  0.00     0.245 HD
ENDBRANCH  17  25
ENDBRANCH  12  13
ENDBRANCH   9  12
ENDBRANCH   4   9
BRANCH   3  27
HETATM   27  C9  UNL     1     -14.225 -35.042  12.353  1.00  0.00     0.295 C 
HETATM   28  O4  UNL     1     -13.275 -35.762  12.206  1.00  0.00    -0.259 OA
BRANCH  27  29
HETATM   29  O5  UNL     1     -14.729 -34.991  13.687  1.00  0.00    -0.322 OA
HETATM   30  C10 UNL     1     -13.854 -35.396  14.751  1.00  0.00     0.213 C 
ENDBRANCH  27  29
ENDBRANCH   3  27
BRANCH   2  31
HETATM   31  C5  UNL     1     -15.346 -36.236   9.818  1.00  0.00     0.179 C 
BRANCH  31  32
HETATM   32  O1  UNL     1     -14.767 -36.413   8.616  1.00  0.00    -0.344 OA
ATOM     33  H1  UNL     1     -14.023 -37.004   8.612  1.00  0.00     0.219 HD
ENDBRANCH  31  32
BRANCH  31  34
HETATM   34  N2  UNL     1     -15.538 -37.446  10.446  1.00  0.00    -0.209 N 
ATOM     35  H2  UNL     1     -15.097 -38.270  10.039  1.00  0.00     0.204 HD
BRANCH  34  36
HETATM   36  N3  UNL     1     -16.281 -37.613  11.580  1.00  0.00    -0.282 NA
HETATM   37  C6  UNL     1     -17.015 -37.770  12.681  1.00  0.00     0.335 C 
HETATM   38  O2  UNL     1     -18.214 -37.427  12.898  1.00  0.00    -0.253 OA
BRANCH  37  39
HETATM   39  C7  UNL     1     -16.331 -38.443  13.871  1.00  0.00     0.285 C 
BRANCH  39  40
HETATM   40  O3  UNL     1     -16.232 -37.577  14.932  1.00  0.00    -0.390 OA
ATOM     41  H3  UNL     1     -15.851 -38.009  15.687  1.00  0.00     0.210 HD
ENDBRANCH  39  40
ENDBRANCH  37  39
ENDBRANCH  34  36
ENDBRANCH  31  34
ENDBRANCH   2  31
BRANCH   1  42
HETATM   42  N1  UNL     1     -17.343 -34.686   8.425  1.00  0.00    -0.386 N 
ATOM     43  H1  UNL     1     -18.146 -35.284   8.619  1.00  0.00     0.159 HD
BRANCH  42  44
HETATM   44  C2  UNL     1     -16.995 -34.331   7.044  1.00  0.00     0.115 C 
HETATM   45  C1  UNL     1     -18.115 -33.519   6.480  1.00  0.00     0.026 C 
ENDBRANCH  42  44
ENDBRANCH   1  42
TORSDOF 18
ENDMDL
