MODEL 1
REMARK VINA RESULT: -8.078287703      0.000      0.000
REMARK  16 active torsions:
REMARK  status: ('A' for Active; 'I' for Inactive)
REMARK    1  A    between atoms: C2_2  and  O1_3 
REMARK    2  A    between atoms: C3_5  and  C4_6 
REMARK    3  A    between atoms: C4_6  and  O3_8 
REMARK    4  A    between atoms: O3_8  and  C5_9 
REMARK    5  A    between atoms: C6_11  and  O5_13 
REMARK    6  A    between atoms: C9_16  and  O6_17 
REMARK    7  A    between atoms: C9_16  and  C10_19 
REMARK    8  A    between atoms: C11_20  and  C12_21 
REMARK    9  A    between atoms: C12_21  and  O8_23 
REMARK   10  A    between atoms: O8_23  and  C13_24 
REMARK   11  A    between atoms: C16_30  and  O9_31 
REMARK   12  A    between atoms: C18_34  and  O10_35 
REMARK   13  A    between atoms: C18_34  and  C19_37 
REMARK   14  A    between atoms: C20_40  and  C21_41 
REMARK   15  A    between atoms: C21_41  and  C22_42 
REMARK   16  A    between atoms: C22_42  and  O13_43 
ROOT
HETATM    1  C12 UNL     1     -15.751 -33.935  15.178  1.00  0.00     0.284 C 
HETATM    2  O7  UNL     1     -15.883 -34.155  16.387  1.00  0.00    -0.260 OA
ENDROOT
BRANCH   1   3
HETATM    3  C11 UNL     1     -16.084 -32.612  14.657  1.00  0.00     0.081 C 
HETATM    4  C10 UNL     1     -15.139 -31.771  14.275  1.00  0.00     0.022 C 
BRANCH   4   5
HETATM    5  C9  UNL     1     -15.484 -30.440  13.750  1.00  0.00     0.131 C 
HETATM    6  C5  UNL     1     -14.464 -29.439  14.241  1.00  0.00     0.311 C 
HETATM    7  O4  UNL     1     -15.142 -28.485  14.986  1.00  0.00    -0.322 OA
HETATM    8  C6  UNL     1     -16.447 -28.441  14.511  1.00  0.00     0.164 C 
HETATM    9  C7  UNL     1     -17.365 -27.925  15.573  1.00  0.00     0.079 C 
HETATM   10  C8  UNL     1     -16.774 -29.914  14.290  1.00  0.00     0.115 C 
BRANCH   6  11
HETATM   11  O3  UNL     1     -13.765 -28.867  13.161  1.00  0.00    -0.283 OA
BRANCH  11  12
HETATM   12  C4  UNL     1     -12.362 -28.732  13.207  1.00  0.00     0.287 C 
HETATM   13  O2  UNL     1     -11.918 -28.317  14.303  1.00  0.00    -0.260 OA
BRANCH  12  14
HETATM   14  C3  UNL     1     -11.552 -29.064  12.049  1.00  0.00     0.113 C 
HETATM   15  C2  UNL     1     -11.263 -28.175  11.147  1.00  0.00     0.045 C 
HETATM   16  C1  UNL     1     -11.722 -26.787  11.223  1.00  0.00     0.076 C 
BRANCH  15  17
HETATM   17  O1  UNL     1     -10.473 -28.569  10.049  1.00  0.00    -0.365 OA
ATOM     18  H1  UNL     1     -10.846 -29.160   9.406  1.00  0.00     0.217 HD
ENDBRANCH  15  17
ENDBRANCH  12  14
ENDBRANCH  11  12
ENDBRANCH   6  11
BRANCH   8  19
HETATM   19  O5  UNL     1     -16.566 -27.782  13.303  1.00  0.00    -0.365 OA
ATOM     20  H5  UNL     1     -17.467 -27.680  13.018  1.00  0.00     0.213 HD
ENDBRANCH   8  19
BRANCH   5  21
HETATM   21  O6  UNL     1     -15.490 -30.411  12.354  1.00  0.00    -0.381 OA
ATOM     22  H6  UNL     1     -15.656 -31.290  12.038  1.00  0.00     0.211 HD
ENDBRANCH   5  21
ENDBRANCH   4   5
ENDBRANCH   1   3
BRANCH   1  23
HETATM   23  O8  UNL     1     -15.298 -34.931  14.345  1.00  0.00    -0.283 OA
BRANCH  23  24
HETATM   24  C13 UNL     1     -15.142 -34.732  12.949  1.00  0.00     0.340 C 
HETATM   25  N1  UNL     1     -13.810 -35.212  12.610  1.00  0.00    -0.043 N 
HETATM   26  C14 UNL     1     -13.842 -36.567  12.164  1.00  0.00     0.199 C 
ATOM     27  H12 UNL     1     -13.357 -34.604  11.927  1.00  0.00     0.280 HD
ATOM     28  H11 UNL     1     -13.160 -35.089  13.386  1.00  0.00     0.280 HD
HETATM   29  C15 UNL     1     -14.679 -37.384  13.121  1.00  0.00     0.066 C 
HETATM   30  C20 UNL     1     -14.505 -36.689  10.781  1.00  0.00     0.064 C 
HETATM   31  C16 UNL     1     -16.125 -36.967  12.931  1.00  0.00     0.132 C 
HETATM   32  C17 UNL     1     -16.114 -35.625  12.240  1.00  0.00     0.117 C 
HETATM   33  C18 UNL     1     -15.710 -35.842  10.765  1.00  0.00     0.161 C 
BRANCH  31  34
HETATM   34  O9  UNL     1     -16.753 -37.954  12.198  1.00  0.00    -0.395 OA
ATOM     35  H9  UNL     1     -16.863 -38.708  12.765  1.00  0.00     0.210 HD
ENDBRANCH  31  34
BRANCH  33  36
HETATM   36  O10 UNL     1     -16.817 -36.557  10.243  1.00  0.00    -0.378 OA
ATOM     37  H10 UNL     1     -16.409 -37.339   9.888  1.00  0.00     0.211 HD
ENDBRANCH  33  36
BRANCH  33  38
HETATM   38  C19 UNL     1     -15.654 -34.569  10.061  1.00  0.00     0.210 C 
HETATM   39  O11 UNL     1     -15.080 -33.521  10.487  1.00  0.00    -0.646 OA
HETATM   40  O12 UNL     1     -16.257 -34.377   8.797  1.00  0.00    -0.646 OA
ENDBRANCH  33  38
BRANCH  30  41
HETATM   41  C21 UNL     1     -13.441 -36.435   9.785  1.00  0.00     0.036 C 
BRANCH  41  42
HETATM   42  C22 UNL     1     -13.061 -37.567   8.894  1.00  0.00     0.164 C 
BRANCH  42  43
HETATM   43  O13 UNL     1     -14.155 -38.352   8.525  1.00  0.00    -0.401 OA
ATOM     44  H13 UNL     1     -13.908 -39.240   8.291  1.00  0.00     0.209 HD
ENDBRANCH  42  43
ENDBRANCH  41  42
ENDBRANCH  30  41
ENDBRANCH  23  24
ENDBRANCH   1  23
TORSDOF 16
ENDMDL
MODEL 2
REMARK VINA RESULT: -7.689397997      3.269      6.068
REMARK  16 active torsions:
REMARK  status: ('A' for Active; 'I' for Inactive)
REMARK    1  A    between atoms: C2_2  and  O1_3 
REMARK    2  A    between atoms: C3_5  and  C4_6 
REMARK    3  A    between atoms: C4_6  and  O3_8 
REMARK    4  A    between atoms: O3_8  and  C5_9 
REMARK    5  A    between atoms: C6_11  and  O5_13 
REMARK    6  A    between atoms: C9_16  and  O6_17 
REMARK    7  A    between atoms: C9_16  and  C10_19 
REMARK    8  A    between atoms: C11_20  and  C12_21 
REMARK    9  A    between atoms: C12_21  and  O8_23 
REMARK   10  A    between atoms: O8_23  and  C13_24 
REMARK   11  A    between atoms: C16_30  and  O9_31 
REMARK   12  A    between atoms: C18_34  and  O10_35 
REMARK   13  A    between atoms: C18_34  and  C19_37 
REMARK   14  A    between atoms: C20_40  and  C21_41 
REMARK   15  A    between atoms: C21_41  and  C22_42 
REMARK   16  A    between atoms: C22_42  and  O13_43 
ROOT
HETATM    1  C12 UNL     1     -14.549 -35.477  14.730  1.00  0.00     0.284 C 
HETATM    2  O7  UNL     1     -13.615 -36.146  14.274  1.00  0.00    -0.260 OA
ENDROOT
BRANCH   1   3
HETATM    3  C11 UNL     1     -14.705 -34.090  14.300  1.00  0.00     0.081 C 
HETATM    4  C10 UNL     1     -15.830 -33.668  13.749  1.00  0.00     0.022 C 
BRANCH   4   5
HETATM    5  C9  UNL     1     -15.979 -32.268  13.320  1.00  0.00     0.131 C 
HETATM    6  C5  UNL     1     -15.198 -32.060  12.043  1.00  0.00     0.311 C 
HETATM    7  O4  UNL     1     -14.241 -31.087  12.294  1.00  0.00    -0.322 OA
HETATM    8  C6  UNL     1     -14.728 -30.284  13.318  1.00  0.00     0.164 C 
HETATM    9  C7  UNL     1     -13.596 -29.624  14.039  1.00  0.00     0.079 C 
HETATM   10  C8  UNL     1     -15.357 -31.296  14.270  1.00  0.00     0.115 C 
BRANCH   6  11
HETATM   11  O3  UNL     1     -16.055 -31.698  10.987  1.00  0.00    -0.283 OA
BRANCH  11  12
HETATM   12  C4  UNL     1     -16.325 -32.606   9.941  1.00  0.00     0.287 C 
HETATM   13  O2  UNL     1     -15.789 -33.730  10.080  1.00  0.00    -0.260 OA
BRANCH  12  14
HETATM   14  C3  UNL     1     -17.163 -32.212   8.823  1.00  0.00     0.113 C 
HETATM   15  C2  UNL     1     -17.394 -33.019   7.832  1.00  0.00     0.045 C 
HETATM   16  C1  UNL     1     -16.838 -34.371   7.762  1.00  0.00     0.076 C 
BRANCH  15  17
HETATM   17  O1  UNL     1     -18.217 -32.568   6.781  1.00  0.00    -0.365 OA
ATOM     18  H1  UNL     1     -17.965 -31.784   6.308  1.00  0.00     0.217 HD
ENDBRANCH  15  17
ENDBRANCH  12  14
ENDBRANCH  11  12
ENDBRANCH   6  11
BRANCH   8  19
HETATM   19  O5  UNL     1     -15.712 -29.407  12.903  1.00  0.00    -0.365 OA
ATOM     20  H5  UNL     1     -15.366 -28.613  12.511  1.00  0.00     0.213 HD
ENDBRANCH   8  19
BRANCH   5  21
HETATM   21  O6  UNL     1     -17.312 -31.932  13.078  1.00  0.00    -0.381 OA
ATOM     22  H6  UNL     1     -17.479 -31.080  13.463  1.00  0.00     0.211 HD
ENDBRANCH   5  21
ENDBRANCH   4   5
ENDBRANCH   1   3
BRANCH   1  23
HETATM   23  O8  UNL     1     -15.422 -36.042  15.631  1.00  0.00    -0.283 OA
BRANCH  23  24
HETATM   24  C13 UNL     1     -16.417 -36.971  15.233  1.00  0.00     0.340 C 
HETATM   25  N1  UNL     1     -16.504 -37.962  16.295  1.00  0.00    -0.043 N 
HETATM   26  C14 UNL     1     -17.532 -37.636  17.230  1.00  0.00     0.199 C 
ATOM     27  H12 UNL     1     -16.626 -38.903  15.919  1.00  0.00     0.280 HD
ATOM     28  H11 UNL     1     -15.605 -38.094  16.759  1.00  0.00     0.280 HD
HETATM   29  C15 UNL     1     -17.409 -36.179  17.613  1.00  0.00     0.066 C 
HETATM   30  C20 UNL     1     -18.931 -37.814  16.614  1.00  0.00     0.064 C 
HETATM   31  C16 UNL     1     -17.820 -35.354  16.408  1.00  0.00     0.132 C 
HETATM   32  C17 UNL     1     -17.734 -36.258  15.201  1.00  0.00     0.117 C 
HETATM   33  C18 UNL     1     -18.916 -37.250  15.253  1.00  0.00     0.161 C 
BRANCH  31  34
HETATM   34  O9  UNL     1     -19.093 -34.876  16.643  1.00  0.00    -0.395 OA
ATOM     35  H9  UNL     1     -19.146 -34.003  16.270  1.00  0.00     0.210 HD
ENDBRANCH  31  34
BRANCH  33  36
HETATM   36  O10 UNL     1     -20.038 -36.407  15.049  1.00  0.00    -0.378 OA
ATOM     37  H10 UNL     1     -19.681 -35.716  14.503  1.00  0.00     0.211 HD
ENDBRANCH  33  36
BRANCH  33  38
HETATM   38  C19 UNL     1     -18.860 -38.166  14.123  1.00  0.00     0.210 C 
HETATM   39  O11 UNL     1     -18.253 -39.280  14.112  1.00  0.00    -0.646 OA
HETATM   40  O12 UNL     1     -19.497 -37.887  12.892  1.00  0.00    -0.646 OA
ENDBRANCH  33  38
BRANCH  30  41
HETATM   41  C21 UNL     1     -19.286 -39.239  16.792  1.00  0.00     0.036 C 
BRANCH  41  42
HETATM   42  C22 UNL     1     -20.629 -39.538  17.363  1.00  0.00     0.164 C 
BRANCH  42  43
HETATM   43  O13 UNL     1     -21.040 -38.587  18.300  1.00  0.00    -0.401 OA
ATOM     44  H13 UNL     1     -21.595 -38.955  18.977  1.00  0.00     0.209 HD
ENDBRANCH  42  43
ENDBRANCH  41  42
ENDBRANCH  30  41
ENDBRANCH  23  24
ENDBRANCH   1  23
TORSDOF 16
ENDMDL
MODEL 3
REMARK VINA RESULT: -7.612485641      2.706      8.668
REMARK  16 active torsions:
REMARK  status: ('A' for Active; 'I' for Inactive)
REMARK    1  A    between atoms: C2_2  and  O1_3 
REMARK    2  A    between atoms: C3_5  and  C4_6 
REMARK    3  A    between atoms: C4_6  and  O3_8 
REMARK    4  A    between atoms: O3_8  and  C5_9 
REMARK    5  A    between atoms: C6_11  and  O5_13 
REMARK    6  A    between atoms: C9_16  and  O6_17 
REMARK    7  A    between atoms: C9_16  and  C10_19 
REMARK    8  A    between atoms: C11_20  and  C12_21 
REMARK    9  A    between atoms: C12_21  and  O8_23 
REMARK   10  A    between atoms: O8_23  and  C13_24 
REMARK   11  A    between atoms: C16_30  and  O9_31 
REMARK   12  A    between atoms: C18_34  and  O10_35 
REMARK   13  A    between atoms: C18_34  and  C19_37 
REMARK   14  A    between atoms: C20_40  and  C21_41 
REMARK   15  A    between atoms: C21_41  and  C22_42 
REMARK   16  A    between atoms: C22_42  and  O13_43 
ROOT
HETATM    1  C12 UNL     1     -14.079 -28.742  14.086  1.00  0.00     0.284 C 
HETATM    2  O7  UNL     1     -14.560 -28.153  15.061  1.00  0.00    -0.260 OA
ENDROOT
BRANCH   1   3
HETATM    3  C11 UNL     1     -14.423 -30.144  13.863  1.00  0.00     0.081 C 
HETATM    4  C10 UNL     1     -13.682 -30.913  13.086  1.00  0.00     0.022 C 
BRANCH   4   5
HETATM    5  C9  UNL     1     -14.035 -32.325  12.867  1.00  0.00     0.131 C 
HETATM    6  C5  UNL     1     -15.295 -32.394  12.036  1.00  0.00     0.311 C 
HETATM    7  O4  UNL     1     -16.254 -33.058  12.787  1.00  0.00    -0.322 OA
HETATM    8  C6  UNL     1     -15.581 -33.898  13.666  1.00  0.00     0.164 C 
HETATM    9  C7  UNL     1     -16.435 -34.184  14.860  1.00  0.00     0.079 C 
HETATM   10  C8  UNL     1     -14.412 -33.036  14.127  1.00  0.00     0.115 C 
BRANCH   6  11
HETATM   11  O3  UNL     1     -15.047 -33.037  10.808  1.00  0.00    -0.283 OA
BRANCH  11  12
HETATM   12  C4  UNL     1     -16.105 -33.618  10.078  1.00  0.00     0.287 C 
HETATM   13  O2  UNL     1     -16.271 -34.841  10.293  1.00  0.00    -0.260 OA
BRANCH  12  14
HETATM   14  C3  UNL     1     -16.902 -32.814   9.169  1.00  0.00     0.113 C 
HETATM   15  C2  UNL     1     -17.235 -33.250   7.993  1.00  0.00     0.045 C 
HETATM   16  C1  UNL     1     -16.843 -34.569   7.494  1.00  0.00     0.076 C 
BRANCH  15  17
HETATM   17  O1  UNL     1     -18.009 -32.414   7.163  1.00  0.00    -0.365 OA
ATOM     18  H1  UNL     1     -17.847 -31.479   7.179  1.00  0.00     0.217 HD
ENDBRANCH  15  17
ENDBRANCH  12  14
ENDBRANCH  11  12
ENDBRANCH   6  11
BRANCH   8  19
HETATM   19  O5  UNL     1     -15.074 -35.031  13.058  1.00  0.00    -0.365 OA
ATOM     20  H5  UNL     1     -14.359 -35.428  13.542  1.00  0.00     0.213 HD
ENDBRANCH   8  19
BRANCH   5  21
HETATM   21  O6  UNL     1     -13.028 -33.021  12.196  1.00  0.00    -0.381 OA
ATOM     22  H6  UNL     1     -13.143 -33.949  12.365  1.00  0.00     0.211 HD
ENDBRANCH   5  21
ENDBRANCH   4   5
ENDBRANCH   1   3
BRANCH   1  23
HETATM   23  O8  UNL     1     -13.233 -28.075  13.231  1.00  0.00    -0.283 OA
BRANCH  23  24
HETATM   24  C13 UNL     1     -11.983 -27.561  13.659  1.00  0.00     0.340 C 
HETATM   25  N1  UNL     1     -11.104 -28.708  13.836  1.00  0.00    -0.043 N 
HETATM   26  C14 UNL     1     -10.324 -28.953  12.666  1.00  0.00     0.199 C 
ATOM     27  H12 UNL     1     -10.515 -28.603  14.662  1.00  0.00     0.280 HD
ATOM     28  H11 UNL     1     -11.625 -29.538  14.119  1.00  0.00     0.280 HD
HETATM   29  C15 UNL     1     -11.226 -28.917  11.453  1.00  0.00     0.066 C 
HETATM   30  C20 UNL     1      -9.261 -27.860  12.459  1.00  0.00     0.064 C 
HETATM   31  C16 UNL     1     -11.648 -27.475  11.242  1.00  0.00     0.132 C 
HETATM   32  C17 UNL     1     -11.406 -26.746  12.542  1.00  0.00     0.117 C 
HETATM   33  C18 UNL     1      -9.884 -26.549  12.713  1.00  0.00     0.161 C 
BRANCH  31  34
HETATM   34  O9  UNL     1     -10.911 -26.973  10.189  1.00  0.00    -0.395 OA
ATOM     35  H9  UNL     1     -10.304 -26.332  10.542  1.00  0.00     0.210 HD
ENDBRANCH  31  34
BRANCH  33  36
HETATM   36  O10 UNL     1      -9.571 -25.638  11.672  1.00  0.00    -0.378 OA
ATOM     37  H10 UNL     1      -8.624 -25.701  11.620  1.00  0.00     0.211 HD
ENDBRANCH  33  36
BRANCH  33  38
HETATM   38  C19 UNL     1      -9.597 -25.876  13.971  1.00  0.00     0.210 C 
HETATM   39  O11 UNL     1     -10.398 -25.779  14.950  1.00  0.00    -0.646 OA
HETATM   40  O12 UNL     1      -8.358 -25.245  14.224  1.00  0.00    -0.646 OA
ENDBRANCH  33  38
BRANCH  30  41
HETATM   41  C21 UNL     1      -8.089 -28.261  13.268  1.00  0.00     0.036 C 
BRANCH  41  42
HETATM   42  C22 UNL     1      -6.742 -27.982  12.695  1.00  0.00     0.164 C 
BRANCH  42  43
HETATM   43  O13 UNL     1      -6.644 -26.702  12.147  1.00  0.00    -0.401 OA
ATOM     44  H13 UNL     1      -6.684 -26.705  11.198  1.00  0.00     0.209 HD
ENDBRANCH  42  43
ENDBRANCH  41  42
ENDBRANCH  30  41
ENDBRANCH  23  24
ENDBRANCH   1  23
TORSDOF 16
ENDMDL
MODEL 4
REMARK VINA RESULT: -7.560869894      2.262      4.064
REMARK  16 active torsions:
REMARK  status: ('A' for Active; 'I' for Inactive)
REMARK    1  A    between atoms: C2_2  and  O1_3 
REMARK    2  A    between atoms: C3_5  and  C4_6 
REMARK    3  A    between atoms: C4_6  and  O3_8 
REMARK    4  A    between atoms: O3_8  and  C5_9 
REMARK    5  A    between atoms: C6_11  and  O5_13 
REMARK    6  A    between atoms: C9_16  and  O6_17 
REMARK    7  A    between atoms: C9_16  and  C10_19 
REMARK    8  A    between atoms: C11_20  and  C12_21 
REMARK    9  A    between atoms: C12_21  and  O8_23 
REMARK   10  A    between atoms: O8_23  and  C13_24 
REMARK   11  A    between atoms: C16_30  and  O9_31 
REMARK   12  A    between atoms: C18_34  and  O10_35 
REMARK   13  A    between atoms: C18_34  and  C19_37 
REMARK   14  A    between atoms: C20_40  and  C21_41 
REMARK   15  A    between atoms: C21_41  and  C22_42 
REMARK   16  A    between atoms: C22_42  and  O13_43 
ROOT
HETATM    1  C12 UNL     1     -14.875 -35.350  14.665  1.00  0.00     0.284 C 
HETATM    2  O7  UNL     1     -14.640 -35.519  15.867  1.00  0.00    -0.260 OA
ENDROOT
BRANCH   1   3
HETATM    3  C11 UNL     1     -14.966 -33.988  14.144  1.00  0.00     0.081 C 
HETATM    4  C10 UNL     1     -16.136 -33.402  13.966  1.00  0.00     0.022 C 
BRANCH   4   5
HETATM    5  C9  UNL     1     -16.219 -32.030  13.441  1.00  0.00     0.131 C 
HETATM    6  C5  UNL     1     -15.337 -31.917  12.220  1.00  0.00     0.311 C 
HETATM    7  O4  UNL     1     -14.380 -30.948  12.485  1.00  0.00    -0.322 OA
HETATM    8  C6  UNL     1     -14.925 -30.073  13.417  1.00  0.00     0.164 C 
HETATM    9  C7  UNL     1     -13.836 -29.391  14.182  1.00  0.00     0.079 C 
HETATM   10  C8  UNL     1     -15.649 -31.011  14.376  1.00  0.00     0.115 C 
BRANCH   6  11
HETATM   11  O3  UNL     1     -16.102 -31.606  11.079  1.00  0.00    -0.283 OA
BRANCH  11  12
HETATM   12  C4  UNL     1     -16.381 -32.595  10.113  1.00  0.00     0.287 C 
HETATM   13  O2  UNL     1     -15.988 -33.744  10.421  1.00  0.00    -0.260 OA
BRANCH  12  14
HETATM   14  C3  UNL     1     -17.072 -32.249   8.884  1.00  0.00     0.113 C 
HETATM   15  C2  UNL     1     -17.186 -33.098   7.909  1.00  0.00     0.045 C 
HETATM   16  C1  UNL     1     -16.636 -34.453   7.966  1.00  0.00     0.076 C 
BRANCH  15  17
HETATM   17  O1  UNL     1     -17.869 -32.692   6.745  1.00  0.00    -0.365 OA
ATOM     18  H1  UNL     1     -18.118 -33.352   6.108  1.00  0.00     0.217 HD
ENDBRANCH  15  17
ENDBRANCH  12  14
ENDBRANCH  11  12
ENDBRANCH   6  11
BRANCH   8  19
HETATM   19  O5  UNL     1     -15.853 -29.205  12.873  1.00  0.00    -0.365 OA
ATOM     20  H5  UNL     1     -16.483 -28.883  13.508  1.00  0.00     0.213 HD
ENDBRANCH   8  19
BRANCH   5  21
HETATM   21  O6  UNL     1     -17.521 -31.684  13.076  1.00  0.00    -0.381 OA
ATOM     22  H6  UNL     1     -18.064 -32.460  13.137  1.00  0.00     0.211 HD
ENDBRANCH   5  21
ENDBRANCH   4   5
ENDBRANCH   1   3
BRANCH   1  23
HETATM   23  O8  UNL     1     -15.048 -36.437  13.840  1.00  0.00    -0.283 OA
BRANCH  23  24
HETATM   24  C13 UNL     1     -14.371 -36.555  12.600  1.00  0.00     0.340 C 
HETATM   25  N1  UNL     1     -13.145 -37.294  12.867  1.00  0.00    -0.043 N 
HETATM   26  C14 UNL     1     -13.316 -38.691  12.627  1.00  0.00     0.199 C 
ATOM     27  H12 UNL     1     -12.358 -36.918  12.339  1.00  0.00     0.280 HD
ATOM     28  H11 UNL     1     -12.800 -37.117  13.811  1.00  0.00     0.280 HD
HETATM   29  C15 UNL     1     -14.595 -39.155  13.285  1.00  0.00     0.066 C 
HETATM   30  C20 UNL     1     -13.458 -38.990  11.124  1.00  0.00     0.064 C 
HETATM   31  C16 UNL     1     -15.752 -38.566  12.498  1.00  0.00     0.132 C 
HETATM   32  C17 UNL     1     -15.201 -37.412  11.694  1.00  0.00     0.117 C 
HETATM   33  C18 UNL     1     -14.361 -37.987  10.533  1.00  0.00     0.161 C 
BRANCH  31  34
HETATM   34  O9  UNL     1     -16.282 -39.572  11.716  1.00  0.00    -0.395 OA
ATOM     35  H9  UNL     1     -16.211 -39.299  10.809  1.00  0.00     0.210 HD
ENDBRANCH  31  34
BRANCH  33  36
HETATM   36  O10 UNL     1     -15.342 -38.614   9.723  1.00  0.00    -0.378 OA
ATOM     37  H10 UNL     1     -14.843 -39.290   9.279  1.00  0.00     0.211 HD
ENDBRANCH  33  36
BRANCH  33  38
HETATM   38  C19 UNL     1     -13.781 -36.910   9.744  1.00  0.00     0.210 C 
HETATM   39  O11 UNL     1     -13.456 -35.768  10.190  1.00  0.00    -0.646 OA
HETATM   40  O12 UNL     1     -13.520 -37.042   8.361  1.00  0.00    -0.646 OA
ENDBRANCH  33  38
BRANCH  30  41
HETATM   41  C21 UNL     1     -12.083 -39.114  10.592  1.00  0.00     0.036 C 
BRANCH  41  42
HETATM   42  C22 UNL     1     -11.860 -40.121   9.518  1.00  0.00     0.164 C 
BRANCH  42  43
HETATM   43  O13 UNL     1     -12.852 -40.092   8.536  1.00  0.00    -0.401 OA
ATOM     44  H13 UNL     1     -12.521 -39.826   7.687  1.00  0.00     0.209 HD
ENDBRANCH  42  43
ENDBRANCH  41  42
ENDBRANCH  30  41
ENDBRANCH  23  24
ENDBRANCH   1  23
TORSDOF 16
ENDMDL
MODEL 5
REMARK VINA RESULT: -7.547272995      1.369      1.654
REMARK  16 active torsions:
REMARK  status: ('A' for Active; 'I' for Inactive)
REMARK    1  A    between atoms: C2_2  and  O1_3 
REMARK    2  A    between atoms: C3_5  and  C4_6 
REMARK    3  A    between atoms: C4_6  and  O3_8 
REMARK    4  A    between atoms: O3_8  and  C5_9 
REMARK    5  A    between atoms: C6_11  and  O5_13 
REMARK    6  A    between atoms: C9_16  and  O6_17 
REMARK    7  A    between atoms: C9_16  and  C10_19 
REMARK    8  A    between atoms: C11_20  and  C12_21 
REMARK    9  A    between atoms: C12_21  and  O8_23 
REMARK   10  A    between atoms: O8_23  and  C13_24 
REMARK   11  A    between atoms: C16_30  and  O9_31 
REMARK   12  A    between atoms: C18_34  and  O10_35 
REMARK   13  A    between atoms: C18_34  and  C19_37 
REMARK   14  A    between atoms: C20_40  and  C21_41 
REMARK   15  A    between atoms: C21_41  and  C22_42 
REMARK   16  A    between atoms: C22_42  and  O13_43 
ROOT
HETATM    1  C12 UNL     1     -15.991 -33.963  14.735  1.00  0.00     0.284 C 
HETATM    2  O7  UNL     1     -15.480 -34.205  15.834  1.00  0.00    -0.260 OA
ENDROOT
BRANCH   1   3
HETATM    3  C11 UNL     1     -16.302 -32.579  14.386  1.00  0.00     0.081 C 
HETATM    4  C10 UNL     1     -15.343 -31.714  14.107  1.00  0.00     0.022 C 
BRANCH   4   5
HETATM    5  C9  UNL     1     -15.665 -30.321  13.755  1.00  0.00     0.131 C 
HETATM    6  C5  UNL     1     -14.592 -29.414  14.310  1.00  0.00     0.311 C 
HETATM    7  O4  UNL     1     -15.205 -28.535  15.191  1.00  0.00    -0.322 OA
HETATM    8  C6  UNL     1     -16.527 -28.399  14.785  1.00  0.00     0.164 C 
HETATM    9  C7  UNL     1     -17.381 -27.984  15.941  1.00  0.00     0.079 C 
HETATM   10  C8  UNL     1     -16.913 -29.825  14.411  1.00  0.00     0.115 C 
BRANCH   6  11
HETATM   11  O3  UNL     1     -13.922 -28.740  13.271  1.00  0.00    -0.283 OA
BRANCH  11  12
HETATM   12  C4  UNL     1     -12.515 -28.634  13.277  1.00  0.00     0.287 C 
HETATM   13  O2  UNL     1     -12.037 -28.160  14.334  1.00  0.00    -0.260 OA
BRANCH  12  14
HETATM   14  C3  UNL     1     -11.740 -29.056  12.125  1.00  0.00     0.113 C 
HETATM   15  C2  UNL     1     -11.425 -28.225  11.179  1.00  0.00     0.045 C 
HETATM   16  C1  UNL     1     -11.818 -26.816  11.195  1.00  0.00     0.076 C 
BRANCH  15  17
HETATM   17  O1  UNL     1     -10.671 -28.706  10.090  1.00  0.00    -0.365 OA
ATOM     18  H1  UNL     1     -11.100 -28.815   9.250  1.00  0.00     0.217 HD
ENDBRANCH  15  17
ENDBRANCH  12  14
ENDBRANCH  11  12
ENDBRANCH   6  11
BRANCH   8  19
HETATM   19  O5  UNL     1     -16.676 -27.600  13.667  1.00  0.00    -0.365 OA
ATOM     20  H5  UNL     1     -16.470 -28.048  12.855  1.00  0.00     0.213 HD
ENDBRANCH   8  19
BRANCH   5  21
HETATM   21  O6  UNL     1     -15.730 -30.130  12.374  1.00  0.00    -0.381 OA
ATOM     22  H6  UNL     1     -15.087 -30.695  11.963  1.00  0.00     0.211 HD
ENDBRANCH   5  21
ENDBRANCH   4   5
ENDBRANCH   1   3
BRANCH   1  23
HETATM   23  O8  UNL     1     -16.261 -34.992  13.862  1.00  0.00    -0.283 OA
BRANCH  23  24
HETATM   24  C13 UNL     1     -15.386 -35.321  12.795  1.00  0.00     0.340 C 
HETATM   25  N1  UNL     1     -14.162 -35.819  13.405  1.00  0.00    -0.043 N 
HETATM   26  C14 UNL     1     -14.173 -37.242  13.510  1.00  0.00     0.199 C 
ATOM     27  H12 UNL     1     -13.335 -35.488  12.908  1.00  0.00     0.280 HD
ATOM     28  H11 UNL     1     -13.988 -35.379  14.309  1.00  0.00     0.280 HD
HETATM   29  C15 UNL     1     -15.496 -37.687  14.088  1.00  0.00     0.066 C 
HETATM   30  C20 UNL     1     -14.047 -37.910  12.129  1.00  0.00     0.064 C 
HETATM   31  C16 UNL     1     -16.558 -37.451  13.029  1.00  0.00     0.132 C 
HETATM   32  C17 UNL     1     -15.985 -36.466  12.038  1.00  0.00     0.117 C 
HETATM   33  C18 UNL     1     -14.925 -37.197  11.185  1.00  0.00     0.161 C 
BRANCH  31  34
HETATM   34  O9  UNL     1     -16.869 -38.673  12.468  1.00  0.00    -0.395 OA
ATOM     35  H9  UNL     1     -17.383 -38.508  11.687  1.00  0.00     0.210 HD
ENDBRANCH  31  34
BRANCH  33  36
HETATM   36  O10 UNL     1     -15.707 -38.116  10.440  1.00  0.00    -0.378 OA
ATOM     37  H10 UNL     1     -15.359 -38.018   9.561  1.00  0.00     0.211 HD
ENDBRANCH  33  36
BRANCH  33  38
HETATM   38  C19 UNL     1     -14.320 -36.279  10.231  1.00  0.00     0.210 C 
HETATM   39  O11 UNL     1     -13.582 -35.292  10.531  1.00  0.00    -0.646 OA
HETATM   40  O12 UNL     1     -14.507 -36.407   8.836  1.00  0.00    -0.646 OA
ENDBRANCH  33  38
BRANCH  30  41
HETATM   41  C21 UNL     1     -12.599 -37.989  11.835  1.00  0.00     0.036 C 
BRANCH  41  42
HETATM   42  C22 UNL     1     -11.717 -38.529  12.908  1.00  0.00     0.164 C 
BRANCH  42  43
HETATM   43  O13 UNL     1     -10.648 -37.681  13.204  1.00  0.00    -0.401 OA
ATOM     44  H13 UNL     1      -9.864 -38.154  13.459  1.00  0.00     0.209 HD
ENDBRANCH  42  43
ENDBRANCH  41  42
ENDBRANCH  30  41
ENDBRANCH  23  24
ENDBRANCH   1  23
TORSDOF 16
ENDMDL
