MODEL 1
REMARK VINA RESULT: -8.743895037      0.000      0.000
REMARK  13 active torsions:
REMARK  status: ('A' for Active; 'I' for Inactive)
REMARK    1  A    between atoms: C5_9  and  N2_10 
REMARK    2  A    between atoms: N2_10  and  C6_12 
REMARK    3  A    between atoms: C7_15  and  S1_16 
REMARK    4  A    between atoms: S1_16  and  N4_19 
REMARK    5  A    between atoms: N4_19  and  C8_21 
REMARK    6  A    between atoms: C8_21  and  N5_23 
REMARK    7  A    between atoms: N5_23  and  C9_24 
REMARK    8  A    between atoms: N5_23  and  N8_30 
REMARK    9  A    between atoms: C9_24  and  C10_25 
REMARK   10  A    between atoms: N8_30  and  C11_31 
REMARK   11  A    between atoms: C11_31  and  O5_32 
REMARK   12  A    between atoms: C11_31  and  N9_34 
REMARK   13  A    between atoms: N9_34  and  N10_36 
ROOT
HETATM    1  S1  UNL     1     -14.790 -34.016  13.230  1.00  0.00     0.280 S 
HETATM    2  O3  UNL     1     -16.214 -34.284  13.263  1.00  0.00    -0.199 OA
HETATM    3  O4  UNL     1     -14.117 -34.579  14.505  1.00  0.00    -0.199 OA
ENDROOT
BRANCH   1   4
HETATM    4  C7  UNL     1     -14.605 -32.252  13.368  1.00  0.00     0.151 A 
HETATM    5  N3  UNL     1     -13.428 -31.640  13.414  1.00  0.00    -0.330 N 
HETATM    6  C6  UNL     1     -13.302 -30.305  13.522  1.00  0.00     0.132 A 
ATOM      7  H3  UNL     1     -12.581 -32.208  13.364  1.00  0.00     0.168 HD
HETATM    8  C14 UNL     1     -14.406 -29.492  13.594  1.00  0.00     0.090 A 
HETATM    9  C13 UNL     1     -15.655 -30.087  13.551  1.00  0.00     0.033 A 
HETATM   10  N11 UNL     1     -14.284 -28.064  13.713  1.00  0.00    -0.098 NA
HETATM   11  C12 UNL     1     -15.727 -31.473  13.437  1.00  0.00     0.046 A 
BRANCH   6  12
HETATM   12  N2  UNL     1     -12.015 -29.745  13.561  1.00  0.00    -0.328 N 
ATOM     13  H2  UNL     1     -11.459 -29.853  14.409  1.00  0.00     0.169 HD
BRANCH  12  14
HETATM   14  C5  UNL     1     -11.451 -29.026  12.451  1.00  0.00     0.122 A 
HETATM   15  C2  UNL     1     -10.444 -27.975  12.433  1.00  0.00     0.123 A 
HETATM   16  C1  UNL     1     -10.879 -26.718  13.159  1.00  0.00     0.055 C 
HETATM   17  C3  UNL     1      -9.120 -28.390  13.016  1.00  0.00     0.055 C 
HETATM   18  O1  UNL     1     -10.252 -27.622  11.089  1.00  0.00    -0.285 OA
HETATM   19  C4  UNL     1     -11.103 -28.421  10.337  1.00  0.00     0.367 A 
HETATM   20  O2  UNL     1     -11.163 -28.338   9.078  1.00  0.00    -0.238 OA
HETATM   21  N1  UNL     1     -11.808 -29.259  11.237  1.00  0.00    -0.289 N 
ATOM     22  H1  UNL     1     -12.504 -29.952  10.960  1.00  0.00     0.172 HD
ENDBRANCH  12  14
ENDBRANCH   6  12
ENDBRANCH   1   4
BRANCH   1  23
HETATM   23  N4  UNL     1     -13.958 -34.613  11.906  1.00  0.00    -0.257 N 
ATOM     24  H4  UNL     1     -13.147 -34.040  11.674  1.00  0.00     0.181 HD
BRANCH  23  25
HETATM   25  C8  UNL     1     -14.093 -35.679  11.056  1.00  0.00     0.179 C 
HETATM   26  S2  UNL     1     -13.191 -37.065  11.657  1.00  0.00    -0.011 SA
BRANCH  25  27
HETATM   27  N5  UNL     1     -14.714 -36.015   9.881  1.00  0.00    -0.263 N 
BRANCH  27  28
HETATM   28  C9  UNL     1     -14.276 -36.712   8.717  1.00  0.00     0.219 C 
BRANCH  28  29
HETATM   29  C10 UNL     1     -15.049 -37.949   8.429  1.00  0.00     0.106 C 
HETATM   30  N6  UNL     1     -16.225 -37.860   7.943  1.00  0.00    -0.390 N 
ATOM     31  H62 UNL     1     -16.647 -36.952   7.746  1.00  0.00     0.157 HD
ATOM     32  H61 UNL     1     -16.755 -38.708   7.746  1.00  0.00     0.157 HD
HETATM   33  N7  UNL     1     -14.467 -39.201   8.700  1.00  0.00    -0.086 NA
ENDBRANCH  28  29
ENDBRANCH  27  28
BRANCH  27  34
HETATM   34  N8  UNL     1     -16.101 -35.591   9.752  1.00  0.00    -0.082 NA
BRANCH  34  35
HETATM   35  C11 UNL     1     -16.192 -34.298   9.152  1.00  0.00     0.357 C 
BRANCH  35  36
HETATM   36  O5  UNL     1     -16.457 -33.353  10.133  1.00  0.00    -0.360 OA
ATOM     37  H5  UNL     1     -16.921 -33.766  10.852  1.00  0.00     0.213 HD
ENDBRANCH  35  36
BRANCH  35  38
HETATM   38  N9  UNL     1     -17.205 -34.313   8.106  1.00  0.00    -0.232 N 
ATOM     39  H9  UNL     1     -17.691 -35.189   7.913  1.00  0.00     0.190 HD
BRANCH  38  40
HETATM   40  N10 UNL     1     -17.541 -33.191   7.359  1.00  0.00    -0.040 N 
HETATM   41  O6  UNL     1     -17.752 -33.273   6.137  1.00  0.00    -0.517 OA
HETATM   42  O7  UNL     1     -17.646 -31.969   7.968  1.00  0.00    -0.517 OA
ENDBRANCH  38  40
ENDBRANCH  35  38
ENDBRANCH  34  35
ENDBRANCH  27  34
ENDBRANCH  25  27
ENDBRANCH  23  25
ENDBRANCH   1  23
TORSDOF 13
ENDMDL
MODEL 2
REMARK VINA RESULT: -8.587766279      3.236      8.535
REMARK  13 active torsions:
REMARK  status: ('A' for Active; 'I' for Inactive)
REMARK    1  A    between atoms: C5_9  and  N2_10 
REMARK    2  A    between atoms: N2_10  and  C6_12 
REMARK    3  A    between atoms: C7_15  and  S1_16 
REMARK    4  A    between atoms: S1_16  and  N4_19 
REMARK    5  A    between atoms: N4_19  and  C8_21 
REMARK    6  A    between atoms: C8_21  and  N5_23 
REMARK    7  A    between atoms: N5_23  and  C9_24 
REMARK    8  A    between atoms: N5_23  and  N8_30 
REMARK    9  A    between atoms: C9_24  and  C10_25 
REMARK   10  A    between atoms: N8_30  and  C11_31 
REMARK   11  A    between atoms: C11_31  and  O5_32 
REMARK   12  A    between atoms: C11_31  and  N9_34 
REMARK   13  A    between atoms: N9_34  and  N10_36 
ROOT
HETATM    1  S1  UNL     1     -16.431 -32.022  11.041  1.00  0.00     0.280 S 
HETATM    2  O3  UNL     1     -17.509 -32.124  12.003  1.00  0.00    -0.199 OA
HETATM    3  O4  UNL     1     -16.738 -30.899  10.019  1.00  0.00    -0.199 OA
ENDROOT
BRANCH   1   4
HETATM    4  C7  UNL     1     -16.466 -33.519  10.082  1.00  0.00     0.151 A 
HETATM    5  N3  UNL     1     -16.156 -34.712  10.575  1.00  0.00    -0.330 N 
HETATM    6  C6  UNL     1     -16.183 -35.838   9.838  1.00  0.00     0.132 A 
ATOM      7  H3  UNL     1     -15.886 -34.779  11.557  1.00  0.00     0.168 HD
HETATM    8  C14 UNL     1     -16.538 -35.809   8.513  1.00  0.00     0.090 A 
HETATM    9  C13 UNL     1     -16.869 -34.587   7.955  1.00  0.00     0.033 A 
HETATM   10  N11 UNL     1     -16.569 -37.005   7.713  1.00  0.00    -0.098 NA
HETATM   11  C12 UNL     1     -16.824 -33.453   8.764  1.00  0.00     0.046 A 
BRANCH   6  12
HETATM   12  N2  UNL     1     -15.842 -37.057  10.446  1.00  0.00    -0.328 N 
ATOM     13  H2  UNL     1     -16.553 -37.551  10.985  1.00  0.00     0.169 HD
BRANCH  12  14
HETATM   14  C5  UNL     1     -14.530 -37.634  10.339  1.00  0.00     0.122 A 
HETATM   15  C2  UNL     1     -13.680 -38.221  11.364  1.00  0.00     0.123 A 
HETATM   16  C1  UNL     1     -13.270 -37.234  12.438  1.00  0.00     0.055 C 
HETATM   17  C3  UNL     1     -14.295 -39.406  12.060  1.00  0.00     0.055 C 
HETATM   18  O1  UNL     1     -12.503 -38.637  10.724  1.00  0.00    -0.285 OA
HETATM   19  C4  UNL     1     -12.638 -38.315   9.380  1.00  0.00     0.367 A 
HETATM   20  O2  UNL     1     -11.734 -38.565   8.535  1.00  0.00    -0.238 OA
HETATM   21  N1  UNL     1     -13.907 -37.702   9.215  1.00  0.00    -0.289 N 
ATOM     22  H1  UNL     1     -14.275 -37.362   8.326  1.00  0.00     0.172 HD
ENDBRANCH  12  14
ENDBRANCH   6  12
ENDBRANCH   1   4
BRANCH   1  23
HETATM   23  N4  UNL     1     -14.906 -31.737  11.669  1.00  0.00    -0.257 N 
ATOM     24  H4  UNL     1     -14.173 -31.881  10.975  1.00  0.00     0.181 HD
BRANCH  23  25
HETATM   25  C8  UNL     1     -14.395 -31.360  12.883  1.00  0.00     0.179 C 
HETATM   26  S2  UNL     1     -14.443 -32.706  14.017  1.00  0.00    -0.011 SA
BRANCH  25  27
HETATM   27  N5  UNL     1     -13.849 -30.265  13.500  1.00  0.00    -0.263 N 
BRANCH  27  28
HETATM   28  C9  UNL     1     -12.539 -29.702  13.498  1.00  0.00     0.219 C 
BRANCH  28  29
HETATM   29  C10 UNL     1     -12.519 -28.219  13.409  1.00  0.00     0.106 C 
HETATM   30  N6  UNL     1     -12.238 -27.528  14.445  1.00  0.00    -0.390 N 
ATOM     31  H62 UNL     1     -12.024 -27.976  15.335  1.00  0.00     0.157 HD
ATOM     32  H61 UNL     1     -12.225 -26.510  14.383  1.00  0.00     0.157 HD
HETATM   33  N7  UNL     1     -12.815 -27.600  12.181  1.00  0.00    -0.086 NA
ENDBRANCH  28  29
ENDBRANCH  27  28
BRANCH  27  34
HETATM   34  N8  UNL     1     -14.753 -29.492  14.340  1.00  0.00    -0.082 NA
BRANCH  34  35
HETATM   35  C11 UNL     1     -16.018 -29.304  13.702  1.00  0.00     0.357 C 
BRANCH  35  36
HETATM   36  O5  UNL     1     -15.946 -28.209  12.852  1.00  0.00    -0.360 OA
ATOM     37  H5  UNL     1     -15.325 -27.580  13.201  1.00  0.00     0.213 HD
ENDBRANCH  35  36
BRANCH  35  38
HETATM   38  N9  UNL     1     -17.059 -29.158  14.710  1.00  0.00    -0.232 N 
ATOM     39  H9  UNL     1     -17.185 -29.908  15.390  1.00  0.00     0.190 HD
BRANCH  38  40
HETATM   40  N10 UNL     1     -17.887 -28.046  14.790  1.00  0.00    -0.040 N 
HETATM   41  O6  UNL     1     -17.428 -26.896  14.686  1.00  0.00    -0.517 OA
HETATM   42  O7  UNL     1     -19.234 -28.207  14.983  1.00  0.00    -0.517 OA
ENDBRANCH  38  40
ENDBRANCH  35  38
ENDBRANCH  34  35
ENDBRANCH  27  34
ENDBRANCH  25  27
ENDBRANCH  23  25
ENDBRANCH   1  23
TORSDOF 13
ENDMDL
MODEL 3
REMARK VINA RESULT: -8.585065168      2.983      8.464
REMARK  13 active torsions:
REMARK  status: ('A' for Active; 'I' for Inactive)
REMARK    1  A    between atoms: C5_9  and  N2_10 
REMARK    2  A    between atoms: N2_10  and  C6_12 
REMARK    3  A    between atoms: C7_15  and  S1_16 
REMARK    4  A    between atoms: S1_16  and  N4_19 
REMARK    5  A    between atoms: N4_19  and  C8_21 
REMARK    6  A    between atoms: C8_21  and  N5_23 
REMARK    7  A    between atoms: N5_23  and  C9_24 
REMARK    8  A    between atoms: N5_23  and  N8_30 
REMARK    9  A    between atoms: C9_24  and  C10_25 
REMARK   10  A    between atoms: N8_30  and  C11_31 
REMARK   11  A    between atoms: C11_31  and  O5_32 
REMARK   12  A    between atoms: C11_31  and  N9_34 
REMARK   13  A    between atoms: N9_34  and  N10_36 
ROOT
HETATM    1  S1  UNL     1     -16.226 -32.206  10.978  1.00  0.00     0.280 S 
HETATM    2  O3  UNL     1     -17.336 -32.319  11.902  1.00  0.00    -0.199 OA
HETATM    3  O4  UNL     1     -16.608 -31.273   9.803  1.00  0.00    -0.199 OA
ENDROOT
BRANCH   1   4
HETATM    4  C7  UNL     1     -16.027 -33.807  10.230  1.00  0.00     0.151 A 
HETATM    5  N3  UNL     1     -15.395 -34.817  10.816  1.00  0.00    -0.330 N 
HETATM    6  C6  UNL     1     -15.248 -36.022  10.237  1.00  0.00     0.132 A 
ATOM      7  H3  UNL     1     -15.003 -34.672  11.747  1.00  0.00     0.168 HD
HETATM    8  C14 UNL     1     -15.753 -36.275   8.986  1.00  0.00     0.090 A 
HETATM    9  C13 UNL     1     -16.420 -35.251   8.336  1.00  0.00     0.033 A 
HETATM   10  N11 UNL     1     -15.601 -37.559   8.356  1.00  0.00    -0.098 NA
HETATM   11  C12 UNL     1     -16.543 -34.023   8.982  1.00  0.00     0.046 A 
BRANCH   6  12
HETATM   12  N2  UNL     1     -14.566 -37.032  10.935  1.00  0.00    -0.328 N 
ATOM     13  H2  UNL     1     -14.143 -37.794  10.405  1.00  0.00     0.169 HD
BRANCH  12  14
HETATM   14  C5  UNL     1     -14.441 -37.034  12.367  1.00  0.00     0.122 A 
HETATM   15  C2  UNL     1     -15.287 -37.652  13.378  1.00  0.00     0.123 A 
HETATM   16  C1  UNL     1     -16.696 -37.099  13.399  1.00  0.00     0.055 C 
HETATM   17  C3  UNL     1     -15.398 -39.148  13.248  1.00  0.00     0.055 C 
HETATM   18  O1  UNL     1     -14.714 -37.352  14.623  1.00  0.00    -0.285 OA
HETATM   19  C4  UNL     1     -13.580 -36.589  14.372  1.00  0.00     0.367 A 
HETATM   20  O2  UNL     1     -12.842 -36.158  15.301  1.00  0.00    -0.238 OA
HETATM   21  N1  UNL     1     -13.474 -36.433  12.966  1.00  0.00    -0.289 N 
ATOM     22  H1  UNL     1     -12.732 -35.916  12.495  1.00  0.00     0.172 HD
ENDBRANCH  12  14
ENDBRANCH   6  12
ENDBRANCH   1   4
BRANCH   1  23
HETATM   23  N4  UNL     1     -14.784 -31.652  11.622  1.00  0.00    -0.257 N 
ATOM     24  H4  UNL     1     -14.065 -31.538  10.908  1.00  0.00     0.181 HD
BRANCH  23  25
HETATM   25  C8  UNL     1     -14.327 -31.314  12.869  1.00  0.00     0.179 C 
HETATM   26  S2  UNL     1     -14.391 -32.703  13.947  1.00  0.00    -0.011 SA
BRANCH  25  27
HETATM   27  N5  UNL     1     -13.826 -30.233  13.548  1.00  0.00    -0.263 N 
BRANCH  27  28
HETATM   28  C9  UNL     1     -12.526 -29.651  13.623  1.00  0.00     0.219 C 
BRANCH  28  29
HETATM   29  C10 UNL     1     -12.517 -28.175  13.456  1.00  0.00     0.106 C 
HETATM   30  N6  UNL     1     -12.241 -27.429  14.454  1.00  0.00    -0.390 N 
ATOM     31  H62 UNL     1     -12.025 -27.828  15.367  1.00  0.00     0.157 HD
ATOM     32  H61 UNL     1     -12.235 -26.415  14.340  1.00  0.00     0.157 HD
HETATM   33  N7  UNL     1     -12.815 -27.623  12.197  1.00  0.00    -0.086 NA
ENDBRANCH  28  29
ENDBRANCH  27  28
BRANCH  27  34
HETATM   34  N8  UNL     1     -14.778 -29.506  14.375  1.00  0.00    -0.082 NA
BRANCH  34  35
HETATM   35  C11 UNL     1     -16.022 -29.326  13.696  1.00  0.00     0.357 C 
BRANCH  35  36
HETATM   36  O5  UNL     1     -15.934 -28.223  12.859  1.00  0.00    -0.360 OA
ATOM     37  H5  UNL     1     -16.801 -28.000  12.539  1.00  0.00     0.213 HD
ENDBRANCH  35  36
BRANCH  35  38
HETATM   38  N9  UNL     1     -17.099 -29.202  14.669  1.00  0.00    -0.232 N 
ATOM     39  H9  UNL     1     -17.276 -29.984  15.300  1.00  0.00     0.190 HD
BRANCH  38  40
HETATM   40  N10 UNL     1     -17.895 -28.070  14.778  1.00  0.00    -0.040 N 
HETATM   41  O6  UNL     1     -17.404 -26.930  14.705  1.00  0.00    -0.517 OA
HETATM   42  O7  UNL     1     -19.246 -28.197  14.966  1.00  0.00    -0.517 OA
ENDBRANCH  38  40
ENDBRANCH  35  38
ENDBRANCH  34  35
ENDBRANCH  27  34
ENDBRANCH  25  27
ENDBRANCH  23  25
ENDBRANCH   1  23
TORSDOF 13
ENDMDL
MODEL 4
REMARK VINA RESULT: -8.482360643      3.127      8.712
REMARK  13 active torsions:
REMARK  status: ('A' for Active; 'I' for Inactive)
REMARK    1  A    between atoms: C5_9  and  N2_10 
REMARK    2  A    between atoms: N2_10  and  C6_12 
REMARK    3  A    between atoms: C7_15  and  S1_16 
REMARK    4  A    between atoms: S1_16  and  N4_19 
REMARK    5  A    between atoms: N4_19  and  C8_21 
REMARK    6  A    between atoms: C8_21  and  N5_23 
REMARK    7  A    between atoms: N5_23  and  C9_24 
REMARK    8  A    between atoms: N5_23  and  N8_30 
REMARK    9  A    between atoms: C9_24  and  C10_25 
REMARK   10  A    between atoms: N8_30  and  C11_31 
REMARK   11  A    between atoms: C11_31  and  O5_32 
REMARK   12  A    between atoms: C11_31  and  N9_34 
REMARK   13  A    between atoms: N9_34  and  N10_36 
ROOT
HETATM    1  S1  UNL     1     -16.441 -32.009  10.923  1.00  0.00     0.280 S 
HETATM    2  O3  UNL     1     -17.589 -32.052  11.805  1.00  0.00    -0.199 OA
HETATM    3  O4  UNL     1     -16.664 -30.950   9.817  1.00  0.00    -0.199 OA
ENDROOT
BRANCH   1   4
HETATM    4  C7  UNL     1     -16.412 -33.562  10.056  1.00  0.00     0.151 A 
HETATM    5  N3  UNL     1     -16.076 -34.713  10.625  1.00  0.00    -0.330 N 
HETATM    6  C6  UNL     1     -16.055 -35.880   9.956  1.00  0.00     0.132 A 
ATOM      7  H3  UNL     1     -15.823 -34.712  11.614  1.00  0.00     0.168 HD
HETATM    8  C14 UNL     1     -16.384 -35.941   8.626  1.00  0.00     0.090 A 
HETATM    9  C13 UNL     1     -16.741 -34.765   7.990  1.00  0.00     0.033 A 
HETATM   10  N11 UNL     1     -16.363 -37.183   7.899  1.00  0.00    -0.098 NA
HETATM   11  C12 UNL     1     -16.747 -33.585   8.730  1.00  0.00     0.046 A 
BRANCH   6  12
HETATM   12  N2  UNL     1     -15.688 -37.049  10.643  1.00  0.00    -0.328 N 
ATOM     13  H2  UNL     1     -15.137 -37.753  10.151  1.00  0.00     0.169 HD
BRANCH  12  14
HETATM   14  C5  UNL     1     -16.059 -37.293  12.010  1.00  0.00     0.122 A 
HETATM   15  C2  UNL     1     -15.223 -37.491  13.184  1.00  0.00     0.123 A 
HETATM   16  C1  UNL     1     -14.348 -38.724  13.095  1.00  0.00     0.055 C 
HETATM   17  C3  UNL     1     -14.320 -36.326  13.492  1.00  0.00     0.055 C 
HETATM   18  O1  UNL     1     -16.090 -37.685  14.270  1.00  0.00    -0.285 OA
HETATM   19  C4  UNL     1     -17.384 -37.610  13.771  1.00  0.00     0.367 A 
HETATM   20  O2  UNL     1     -18.397 -37.747  14.512  1.00  0.00    -0.238 OA
HETATM   21  N1  UNL     1     -17.290 -37.366  12.377  1.00  0.00    -0.289 N 
ATOM     22  H1  UNL     1     -18.090 -37.264  11.752  1.00  0.00     0.172 HD
ENDBRANCH  12  14
ENDBRANCH   6  12
ENDBRANCH   1   4
BRANCH   1  23
HETATM   23  N4  UNL     1     -14.967 -31.689  11.648  1.00  0.00    -0.257 N 
ATOM     24  H4  UNL     1     -14.190 -31.784  10.993  1.00  0.00     0.181 HD
BRANCH  23  25
HETATM   25  C8  UNL     1     -14.541 -31.332  12.900  1.00  0.00     0.179 C 
HETATM   26  S2  UNL     1     -14.879 -32.615  14.056  1.00  0.00    -0.011 SA
BRANCH  25  27
HETATM   27  N5  UNL     1     -13.925 -30.290  13.544  1.00  0.00    -0.263 N 
BRANCH  27  28
HETATM   28  C9  UNL     1     -12.566 -29.866  13.625  1.00  0.00     0.219 C 
BRANCH  28  29
HETATM   29  C10 UNL     1     -12.378 -28.405  13.430  1.00  0.00     0.106 C 
HETATM   30  N6  UNL     1     -12.953 -27.820  12.453  1.00  0.00    -0.390 N 
ATOM     31  H62 UNL     1     -13.543 -28.337  11.801  1.00  0.00     0.157 HD
ATOM     32  H61 UNL     1     -12.823 -26.817  12.319  1.00  0.00     0.157 HD
HETATM   33  N7  UNL     1     -11.564 -27.691  14.328  1.00  0.00    -0.086 NA
ENDBRANCH  28  29
ENDBRANCH  27  28
BRANCH  27  34
HETATM   34  N8  UNL     1     -14.797 -29.417  14.316  1.00  0.00    -0.082 NA
BRANCH  34  35
HETATM   35  C11 UNL     1     -16.064 -29.254  13.677  1.00  0.00     0.357 C 
BRANCH  35  36
HETATM   36  O5  UNL     1     -16.028 -28.131  12.863  1.00  0.00    -0.360 OA
ATOM     37  H5  UNL     1     -16.314 -28.367  11.988  1.00  0.00     0.213 HD
ENDBRANCH  35  36
BRANCH  35  38
HETATM   38  N9  UNL     1     -17.115 -29.179  14.683  1.00  0.00    -0.232 N 
ATOM     39  H9  UNL     1     -17.225 -29.960  15.330  1.00  0.00     0.190 HD
BRANCH  38  40
HETATM   40  N10 UNL     1     -17.975 -28.094  14.802  1.00  0.00    -0.040 N 
HETATM   41  O6  UNL     1     -19.192 -28.259  14.989  1.00  0.00    -0.517 OA
HETATM   42  O7  UNL     1     -17.484 -26.819  14.716  1.00  0.00    -0.517 OA
ENDBRANCH  38  40
ENDBRANCH  35  38
ENDBRANCH  34  35
ENDBRANCH  27  34
ENDBRANCH  25  27
ENDBRANCH  23  25
ENDBRANCH   1  23
TORSDOF 13
ENDMDL
MODEL 5
REMARK VINA RESULT: -8.443497565      3.423      8.111
REMARK  13 active torsions:
REMARK  status: ('A' for Active; 'I' for Inactive)
REMARK    1  A    between atoms: C5_9  and  N2_10 
REMARK    2  A    between atoms: N2_10  and  C6_12 
REMARK    3  A    between atoms: C7_15  and  S1_16 
REMARK    4  A    between atoms: S1_16  and  N4_19 
REMARK    5  A    between atoms: N4_19  and  C8_21 
REMARK    6  A    between atoms: C8_21  and  N5_23 
REMARK    7  A    between atoms: N5_23  and  C9_24 
REMARK    8  A    between atoms: N5_23  and  N8_30 
REMARK    9  A    between atoms: C9_24  and  C10_25 
REMARK   10  A    between atoms: N8_30  and  C11_31 
REMARK   11  A    between atoms: C11_31  and  O5_32 
REMARK   12  A    between atoms: C11_31  and  N9_34 
REMARK   13  A    between atoms: N9_34  and  N10_36 
ROOT
HETATM    1  S1  UNL     1     -16.408 -32.349  10.209  1.00  0.00     0.280 S 
HETATM    2  O3  UNL     1     -17.688 -32.355  10.888  1.00  0.00    -0.199 OA
HETATM    3  O4  UNL     1     -16.502 -31.510   8.912  1.00  0.00    -0.199 OA
ENDROOT
BRANCH   1   4
HETATM    4  C7  UNL     1     -16.128 -34.012   9.646  1.00  0.00     0.151 A 
HETATM    5  N3  UNL     1     -15.297 -34.858  10.242  1.00  0.00    -0.330 N 
HETATM    6  C6  UNL     1     -15.091 -36.113   9.803  1.00  0.00     0.132 A 
ATOM      7  H3  UNL     1     -14.791 -34.542  11.070  1.00  0.00     0.168 HD
HETATM    8  C14 UNL     1     -15.742 -36.592   8.695  1.00  0.00     0.090 A 
HETATM    9  C13 UNL     1     -16.620 -35.746   8.040  1.00  0.00     0.033 A 
HETATM   10  N11 UNL     1     -15.529 -37.931   8.214  1.00  0.00    -0.098 NA
HETATM   11  C12 UNL     1     -16.795 -34.457   8.537  1.00  0.00     0.046 A 
BRANCH   6  12
HETATM   12  N2  UNL     1     -14.193 -36.938  10.500  1.00  0.00    -0.328 N 
ATOM     13  H2  UNL     1     -13.498 -37.463   9.970  1.00  0.00     0.169 HD
BRANCH  12  14
HETATM   14  C5  UNL     1     -14.217 -37.071  11.931  1.00  0.00     0.122 A 
HETATM   15  C2  UNL     1     -14.950 -38.006  12.772  1.00  0.00     0.123 A 
HETATM   16  C1  UNL     1     -16.453 -37.861  12.658  1.00  0.00     0.055 C 
HETATM   17  C3  UNL     1     -14.621 -39.451  12.505  1.00  0.00     0.055 C 
HETATM   18  O1  UNL     1     -14.612 -37.707  14.100  1.00  0.00    -0.285 OA
HETATM   19  C4  UNL     1     -13.721 -36.643  14.060  1.00  0.00     0.367 A 
HETATM   20  O2  UNL     1     -13.231 -36.139  15.109  1.00  0.00    -0.238 OA
HETATM   21  N1  UNL     1     -13.523 -36.304  12.697  1.00  0.00    -0.289 N 
ATOM     22  H1  UNL     1     -12.914 -35.554  12.369  1.00  0.00     0.172 HD
ENDBRANCH  12  14
ENDBRANCH   6  12
ENDBRANCH   1   4
BRANCH   1  23
HETATM   23  N4  UNL     1     -15.107 -31.779  11.094  1.00  0.00    -0.257 N 
ATOM     24  H4  UNL     1     -14.316 -31.537  10.498  1.00  0.00     0.181 HD
BRANCH  23  25
HETATM   25  C8  UNL     1     -14.838 -31.555  12.418  1.00  0.00     0.179 C 
HETATM   26  S2  UNL     1     -13.104 -31.627  12.716  1.00  0.00    -0.011 SA
BRANCH  25  27
HETATM   27  N5  UNL     1     -15.490 -31.286  13.593  1.00  0.00    -0.263 N 
BRANCH  27  28
HETATM   28  C9  UNL     1     -16.342 -32.065  14.431  1.00  0.00     0.219 C 
BRANCH  28  29
HETATM   29  C10 UNL     1     -15.999 -33.510  14.461  1.00  0.00     0.106 C 
HETATM   30  N6  UNL     1     -15.562 -34.034  15.539  1.00  0.00    -0.390 N 
ATOM     31  H62 UNL     1     -15.444 -33.477  16.385  1.00  0.00     0.157 HD
ATOM     32  H61 UNL     1     -15.327 -35.026  15.559  1.00  0.00     0.157 HD
HETATM   33  N7  UNL     1     -16.163 -34.279  13.294  1.00  0.00    -0.086 NA
ENDBRANCH  28  29
ENDBRANCH  27  28
BRANCH  27  34
HETATM   34  N8  UNL     1     -15.308 -29.944  14.128  1.00  0.00    -0.082 NA
BRANCH  34  35
HETATM   35  C11 UNL     1     -16.407 -29.097  13.785  1.00  0.00     0.357 C 
BRANCH  35  36
HETATM   36  O5  UNL     1     -15.993 -28.163  12.847  1.00  0.00    -0.360 OA
ATOM     37  H5  UNL     1     -16.524 -28.245  12.064  1.00  0.00     0.213 HD
ENDBRANCH  35  36
BRANCH  35  38
HETATM   38  N9  UNL     1     -16.943 -28.478  14.989  1.00  0.00    -0.232 N 
ATOM     39  H9  UNL     1     -16.445 -28.614  15.868  1.00  0.00     0.190 HD
BRANCH  38  40
HETATM   40  N10 UNL     1     -18.101 -27.710  14.995  1.00  0.00    -0.040 N 
HETATM   41  O6  UNL     1     -19.224 -28.243  14.983  1.00  0.00    -0.517 OA
HETATM   42  O7  UNL     1     -18.017 -26.343  15.018  1.00  0.00    -0.517 OA
ENDBRANCH  38  40
ENDBRANCH  35  38
ENDBRANCH  34  35
ENDBRANCH  27  34
ENDBRANCH  25  27
ENDBRANCH  23  25
ENDBRANCH   1  23
TORSDOF 13
ENDMDL
