MODEL 1
REMARK VINA RESULT: -9.389839463      0.000      0.000
REMARK  10 active torsions:
REMARK  status: ('A' for Active; 'I' for Inactive)
REMARK    1  A    between atoms: O1_2  and  C2_3 
REMARK    2  A    between atoms: C4_5  and  N1_6 
REMARK    3  A    between atoms: N1_6  and  S1_8 
REMARK    4  A    between atoms: S1_8  and  C5_11 
REMARK    5  A    between atoms: C8_14  and  N2_15 
REMARK       I    between atoms: N2_15  and  C9_17 
REMARK    6  A    between atoms: C9_17  and  C10_19 
REMARK    7  A    between atoms: N5_23  and  C11_24 
REMARK    8  A    between atoms: C12_30  and  N8_31 
REMARK    9  A    between atoms: C14_39  and  C15_40 
REMARK       I    between atoms: C15_40  and  N11_42 
REMARK   10  A    between atoms: N11_42  and  N12_44 
ROOT
HETATM    1  C5  UNL     1     -15.063 -32.400  13.821  1.00  0.00     0.151 A 
HETATM    2  C6  UNL     1     -16.150 -31.573  13.866  1.00  0.00     0.047 A 
HETATM    3  C7  UNL     1     -15.661 -30.295  13.938  1.00  0.00     0.051 A 
HETATM    4  C8  UNL     1     -14.278 -30.380  13.934  1.00  0.00     0.108 A 
HETATM    5  N10 UNL     1     -13.934 -31.671  13.861  1.00  0.00    -0.332 N 
ATOM      6  H10 UNL     1     -12.983 -32.038  13.841  1.00  0.00     0.168 HD
ENDROOT
BRANCH   1   7
HETATM    7  S1  UNL     1     -15.062 -34.163  13.724  1.00  0.00     0.278 S 
HETATM    8  O2  UNL     1     -16.487 -34.611  13.660  1.00  0.00    -0.199 OA
HETATM    9  O3  UNL     1     -14.388 -34.647  14.978  1.00  0.00    -0.199 OA
BRANCH   7  10
HETATM   10  N1  UNL     1     -14.204 -34.711  12.356  1.00  0.00    -0.279 N 
ATOM     11  H1  UNL     1     -13.195 -34.833  12.445  1.00  0.00     0.179 HD
BRANCH  10  12
HETATM   12  C4  UNL     1     -14.798 -35.011  11.101  1.00  0.00     0.046 A 
HETATM   13  C3  UNL     1     -15.606 -34.019  10.569  1.00  0.00     0.069 A 
HETATM   14  C2  UNL     1     -16.216 -34.240   9.357  1.00  0.00     0.095 A 
HETATM   15  C16 UNL     1     -16.002 -35.439   8.719  1.00  0.00     0.095 A 
HETATM   16  C14 UNL     1     -15.192 -36.460   9.229  1.00  0.00     0.062 A 
HETATM   17  N13 UNL     1     -16.623 -35.672   7.479  1.00  0.00    -0.098 NA
HETATM   18  C13 UNL     1     -14.595 -36.209  10.442  1.00  0.00     0.049 A 
BRANCH  14  19
HETATM   19  O1  UNL     1     -17.022 -33.246   8.830  1.00  0.00    -0.354 OA
HETATM   20  C1  UNL     1     -16.946 -31.951   9.383  1.00  0.00     0.210 C 
ENDBRANCH  14  19
BRANCH  16  21
HETATM   21  C15 UNL     1     -15.022 -37.700   8.482  1.00  0.00     0.271 C 
HETATM   22  O6  UNL     1     -13.895 -38.224   8.298  1.00  0.00    -0.266 OA
HETATM   23  N11 UNL     1     -16.147 -38.349   7.940  1.00  0.00    -0.272 N 
ATOM     24  H11 UNL     1     -17.068 -37.935   8.081  1.00  0.00     0.189 HD
BRANCH  23  25
HETATM   25  N12 UNL     1     -16.050 -39.547   7.210  1.00  0.00    -0.342 N 
ATOM     26 2H12 UNL     1     -15.125 -39.830   6.885  1.00  0.00     0.176 HD
ATOM     27 1H12 UNL     1     -16.861 -40.129   7.001  1.00  0.00     0.176 HD
ENDBRANCH  23  25
ENDBRANCH  16  21
ENDBRANCH  10  12
ENDBRANCH   7  10
ENDBRANCH   1   7
BRANCH   4  28
HETATM   28  N2  UNL     1     -13.421 -29.253  13.997  1.00  0.00    -0.306 N 
HETATM   29  C9  UNL     1     -12.365 -28.974  13.131  1.00  0.00     0.293 C 
HETATM   30  O4  UNL     1     -12.068 -29.724  12.185  1.00  0.00    -0.264 OA
ATOM     31  H2  UNL     1     -13.594 -28.583  14.746  1.00  0.00     0.170 HD
BRANCH  29  32
HETATM   32  C10 UNL     1     -11.566 -27.768  13.322  1.00  0.00     0.204 A 
HETATM   33  N3  UNL     1     -10.857 -27.098  12.366  1.00  0.00    -0.262 N 
HETATM   34  N4  UNL     1     -10.275 -26.064  12.946  1.00  0.00     0.004 NA
ATOM     35  H3  UNL     1     -10.790 -27.350  11.380  1.00  0.00     0.186 HD
HETATM   36  N5  UNL     1     -10.573 -26.030  14.245  1.00  0.00    -0.156 N 
HETATM   37  N9  UNL     1     -11.356 -27.071  14.452  1.00  0.00    -0.258 N 
ATOM     38  H9  UNL     1     -11.753 -27.318  15.359  1.00  0.00     0.190 HD
BRANCH  36  39
HETATM   39  C11 UNL     1     -10.124 -25.058  15.185  1.00  0.00     0.210 A 
HETATM   40  N6  UNL     1      -8.880 -24.576  15.354  1.00  0.00    -0.219 N 
HETATM   41  O5  UNL     1      -8.838 -23.700  16.309  1.00  0.00    -0.153 OA
ATOM     42  H6  UNL     1      -8.072 -24.863  14.801  1.00  0.00     0.198 HD
HETATM   43  N7  UNL     1     -10.040 -23.587  16.786  1.00  0.00    -0.222 N 
HETATM   44  C12 UNL     1     -10.888 -24.406  16.129  1.00  0.00     0.170 A 
ATOM     45  H7  UNL     1     -10.307 -22.966  17.550  1.00  0.00     0.198 HD
BRANCH  44  46
HETATM   46  N8  UNL     1     -12.154 -24.548  16.343  1.00  0.00    -0.381 N 
ATOM     47  H82 UNL     1     -12.594 -25.155  17.035  1.00  0.00     0.157 HD
ATOM     48  H81 UNL     1     -12.919 -24.080  15.857  1.00  0.00     0.157 HD
ENDBRANCH  44  46
ENDBRANCH  36  39
ENDBRANCH  29  32
ENDBRANCH   4  28
TORSDOF 10
ENDMDL
MODEL 2
REMARK VINA RESULT: -9.243322281      1.663      1.910
REMARK  10 active torsions:
REMARK  status: ('A' for Active; 'I' for Inactive)
REMARK    1  A    between atoms: O1_2  and  C2_3 
REMARK    2  A    between atoms: C4_5  and  N1_6 
REMARK    3  A    between atoms: N1_6  and  S1_8 
REMARK    4  A    between atoms: S1_8  and  C5_11 
REMARK    5  A    between atoms: C8_14  and  N2_15 
REMARK       I    between atoms: N2_15  and  C9_17 
REMARK    6  A    between atoms: C9_17  and  C10_19 
REMARK    7  A    between atoms: N5_23  and  C11_24 
REMARK    8  A    between atoms: C12_30  and  N8_31 
REMARK    9  A    between atoms: C14_39  and  C15_40 
REMARK       I    between atoms: C15_40  and  N11_42 
REMARK   10  A    between atoms: N11_42  and  N12_44 
ROOT
HETATM    1  C5  UNL     1     -15.248 -30.754  13.526  1.00  0.00     0.151 A 
HETATM    2  C6  UNL     1     -16.259 -29.950  13.968  1.00  0.00     0.047 A 
HETATM    3  C7  UNL     1     -15.673 -28.778  14.369  1.00  0.00     0.051 A 
HETATM    4  C8  UNL     1     -14.310 -28.903  14.158  1.00  0.00     0.108 A 
HETATM    5  N10 UNL     1     -14.072 -30.115  13.643  1.00  0.00    -0.332 N 
ATOM      6  H10 UNL     1     -13.158 -30.488  13.385  1.00  0.00     0.168 HD
ENDROOT
BRANCH   1   7
HETATM    7  S1  UNL     1     -15.387 -32.395  12.886  1.00  0.00     0.278 S 
HETATM    8  O2  UNL     1     -16.521 -33.060  13.596  1.00  0.00    -0.199 OA
HETATM    9  O3  UNL     1     -14.077 -33.069  13.186  1.00  0.00    -0.199 OA
BRANCH   7  10
HETATM   10  N1  UNL     1     -15.662 -32.386  11.203  1.00  0.00    -0.279 N 
ATOM     11  H1  UNL     1     -15.729 -31.480  10.737  1.00  0.00     0.179 HD
BRANCH  10  12
HETATM   12  C4  UNL     1     -15.804 -33.552  10.405  1.00  0.00     0.046 A 
HETATM   13  C3  UNL     1     -16.518 -33.390   9.230  1.00  0.00     0.069 A 
HETATM   14  C2  UNL     1     -16.698 -34.478   8.407  1.00  0.00     0.095 A 
HETATM   15  C16 UNL     1     -16.161 -35.686   8.785  1.00  0.00     0.095 A 
HETATM   16  C14 UNL     1     -15.435 -35.882   9.965  1.00  0.00     0.062 A 
HETATM   17  N13 UNL     1     -16.341 -36.802   7.950  1.00  0.00    -0.098 NA
HETATM   18  C13 UNL     1     -15.271 -34.776  10.765  1.00  0.00     0.049 A 
BRANCH  14  19
HETATM   19  O1  UNL     1     -17.413 -34.310   7.234  1.00  0.00    -0.354 OA
HETATM   20  C1  UNL     1     -18.005 -33.058   6.977  1.00  0.00     0.210 C 
ENDBRANCH  14  19
BRANCH  16  21
HETATM   21  C15 UNL     1     -14.902 -37.200  10.284  1.00  0.00     0.271 C 
HETATM   22  O6  UNL     1     -13.668 -37.443  10.291  1.00  0.00    -0.266 OA
HETATM   23  N11 UNL     1     -15.782 -38.253  10.600  1.00  0.00    -0.272 N 
ATOM     24  H11 UNL     1     -16.786 -38.070  10.598  1.00  0.00     0.189 HD
BRANCH  23  25
HETATM   25  N12 UNL     1     -15.331 -39.547  10.917  1.00  0.00    -0.342 N 
ATOM     26 2H12 UNL     1     -14.533 -39.630  11.547  1.00  0.00     0.176 HD
ATOM     27 1H12 UNL     1     -15.771 -40.388  10.542  1.00  0.00     0.176 HD
ENDBRANCH  23  25
ENDBRANCH  16  21
ENDBRANCH  10  12
ENDBRANCH   7  10
ENDBRANCH   1   7
BRANCH   4  28
HETATM   28  N2  UNL     1     -13.371 -27.884  14.456  1.00  0.00    -0.306 N 
HETATM   29  C9  UNL     1     -12.072 -27.792  13.959  1.00  0.00     0.293 C 
HETATM   30  O4  UNL     1     -11.601 -28.635  13.176  1.00  0.00    -0.264 OA
ATOM     31  H2  UNL     1     -13.675 -27.149  15.095  1.00  0.00     0.170 HD
BRANCH  29  32
HETATM   32  C10 UNL     1     -11.216 -26.680  14.358  1.00  0.00     0.204 A 
HETATM   33  N3  UNL     1      -9.988 -26.370  13.850  1.00  0.00    -0.262 N 
HETATM   34  N4  UNL     1      -9.549 -25.295  14.479  1.00  0.00     0.004 NA
ATOM     35  H3  UNL     1      -9.496 -26.879  13.115  1.00  0.00     0.186 HD
HETATM   36  N5  UNL     1     -10.441 -24.887  15.380  1.00  0.00    -0.156 N 
HETATM   37  N9  UNL     1     -11.444 -25.739  15.292  1.00  0.00    -0.258 N 
ATOM     38  H9  UNL     1     -12.289 -25.691  15.862  1.00  0.00     0.190 HD
BRANCH  36  39
HETATM   39  C11 UNL     1     -10.309 -23.761  16.244  1.00  0.00     0.210 A 
HETATM   40  N6  UNL     1      -9.284 -23.451  17.057  1.00  0.00    -0.219 N 
HETATM   41  O5  UNL     1      -9.508 -22.347  17.700  1.00  0.00    -0.153 OA
ATOM     42  H6  UNL     1      -8.438 -24.013  17.155  1.00  0.00     0.198 HD
HETATM   43  N7  UNL     1     -10.672 -21.911  17.329  1.00  0.00    -0.222 N 
HETATM   44  C12 UNL     1     -11.223 -22.745  16.424  1.00  0.00     0.170 A 
ATOM     45  H7  UNL     1     -11.110 -21.056  17.673  1.00  0.00     0.198 HD
BRANCH  44  46
HETATM   46  N8  UNL     1     -12.372 -22.617  15.847  1.00  0.00    -0.381 N 
ATOM     47  H82 UNL     1     -12.695 -21.824  15.292  1.00  0.00     0.157 HD
ATOM     48  H81 UNL     1     -13.144 -23.284  15.853  1.00  0.00     0.157 HD
ENDBRANCH  44  46
ENDBRANCH  36  39
ENDBRANCH  29  32
ENDBRANCH   4  28
TORSDOF 10
ENDMDL
MODEL 3
REMARK VINA RESULT: -9.151698870      2.311     11.286
REMARK  10 active torsions:
REMARK  status: ('A' for Active; 'I' for Inactive)
REMARK    1  A    between atoms: O1_2  and  C2_3 
REMARK    2  A    between atoms: C4_5  and  N1_6 
REMARK    3  A    between atoms: N1_6  and  S1_8 
REMARK    4  A    between atoms: S1_8  and  C5_11 
REMARK    5  A    between atoms: C8_14  and  N2_15 
REMARK       I    between atoms: N2_15  and  C9_17 
REMARK    6  A    between atoms: C9_17  and  C10_19 
REMARK    7  A    between atoms: N5_23  and  C11_24 
REMARK    8  A    between atoms: C12_30  and  N8_31 
REMARK    9  A    between atoms: C14_39  and  C15_40 
REMARK       I    between atoms: C15_40  and  N11_42 
REMARK   10  A    between atoms: N11_42  and  N12_44 
ROOT
HETATM    1  C5  UNL     1     -15.391 -30.301  13.750  1.00  0.00     0.151 A 
HETATM    2  C6  UNL     1     -16.246 -31.024  14.531  1.00  0.00     0.047 A 
HETATM    3  C7  UNL     1     -16.524 -32.174  13.840  1.00  0.00     0.051 A 
HETATM    4  C8  UNL     1     -15.824 -32.118  12.646  1.00  0.00     0.108 A 
HETATM    5  N10 UNL     1     -15.139 -30.969  12.611  1.00  0.00    -0.332 N 
ATOM      6  H10 UNL     1     -14.534 -30.654  11.852  1.00  0.00     0.168 HD
ENDROOT
BRANCH   1   7
HETATM    7  S1  UNL     1     -14.684 -28.724  14.111  1.00  0.00     0.278 S 
HETATM    8  O2  UNL     1     -15.422 -28.157  15.281  1.00  0.00    -0.199 OA
HETATM    9  O3  UNL     1     -14.881 -27.887  12.877  1.00  0.00    -0.199 OA
BRANCH   7  10
HETATM   10  N1  UNL     1     -13.020 -28.853  14.464  1.00  0.00    -0.279 N 
ATOM     11  H1  UNL     1     -12.736 -29.524  15.178  1.00  0.00     0.179 HD
BRANCH  10  12
HETATM   12  C4  UNL     1     -12.003 -28.089  13.832  1.00  0.00     0.046 A 
HETATM   13  C3  UNL     1     -11.617 -28.529  12.577  1.00  0.00     0.069 A 
HETATM   14  C2  UNL     1     -10.635 -27.839  11.905  1.00  0.00     0.095 A 
HETATM   15  C16 UNL     1     -10.072 -26.739  12.507  1.00  0.00     0.095 A 
HETATM   16  C14 UNL     1     -10.440 -26.269  13.773  1.00  0.00     0.062 A 
HETATM   17  N13 UNL     1      -9.067 -26.029  11.827  1.00  0.00    -0.098 NA
HETATM   18  C13 UNL     1     -11.425 -26.979  14.419  1.00  0.00     0.049 A 
BRANCH  14  19
HETATM   19  O1  UNL     1     -10.253 -28.283  10.651  1.00  0.00    -0.354 OA
HETATM   20  C1  UNL     1     -11.214 -28.301   9.619  1.00  0.00     0.210 C 
ENDBRANCH  14  19
BRANCH  16  21
HETATM   21  C15 UNL     1      -9.788 -25.092  14.333  1.00  0.00     0.271 C 
HETATM   22  O6  UNL     1      -8.896 -25.174  15.215  1.00  0.00    -0.266 OA
HETATM   23  N11 UNL     1     -10.155 -23.809  13.884  1.00  0.00    -0.272 N 
ATOM     24  H11 UNL     1     -10.878 -23.728  13.169  1.00  0.00     0.189 HD
BRANCH  23  25
HETATM   25  N12 UNL     1      -9.565 -22.635  14.384  1.00  0.00    -0.342 N 
ATOM     26 2H12 UNL     1      -8.947 -22.113  13.762  1.00  0.00     0.176 HD
ATOM     27 1H12 UNL     1      -9.732 -22.298  15.332  1.00  0.00     0.176 HD
ENDBRANCH  23  25
ENDBRANCH  16  21
ENDBRANCH  10  12
ENDBRANCH   7  10
ENDBRANCH   1   7
BRANCH   4  28
HETATM   28  N2  UNL     1     -15.864 -33.138  11.663  1.00  0.00    -0.306 N 
HETATM   29  C9  UNL     1     -16.210 -32.974  10.322  1.00  0.00     0.293 C 
HETATM   30  O4  UNL     1     -16.529 -31.869   9.850  1.00  0.00    -0.264 OA
ATOM     31  H2  UNL     1     -15.616 -34.080  11.964  1.00  0.00     0.170 HD
BRANCH  29  32
HETATM   32  C10 UNL     1     -16.207 -34.124   9.423  1.00  0.00     0.204 A 
HETATM   33  N3  UNL     1     -16.701 -34.168   8.151  1.00  0.00    -0.262 N 
HETATM   34  N4  UNL     1     -16.504 -35.388   7.684  1.00  0.00     0.004 NA
ATOM     35  H3  UNL     1     -17.144 -33.397   7.652  1.00  0.00     0.186 HD
HETATM   36  N5  UNL     1     -15.900 -36.145   8.598  1.00  0.00    -0.156 N 
HETATM   37  N9  UNL     1     -15.729 -35.360   9.645  1.00  0.00    -0.258 N 
ATOM     38  H9  UNL     1     -15.288 -35.656  10.516  1.00  0.00     0.190 HD
BRANCH  36  39
HETATM   39  C11 UNL     1     -15.530 -37.513   8.446  1.00  0.00     0.210 A 
HETATM   40  N6  UNL     1     -16.103 -38.448   7.670  1.00  0.00    -0.219 N 
HETATM   41  O5  UNL     1     -15.500 -39.591   7.783  1.00  0.00    -0.153 OA
ATOM     42  H6  UNL     1     -16.910 -38.281   7.068  1.00  0.00     0.198 HD
HETATM   43  N7  UNL     1     -14.527 -39.434   8.628  1.00  0.00    -0.222 N 
HETATM   44  C12 UNL     1     -14.491 -38.163   9.077  1.00  0.00     0.170 A 
ATOM     45  H7  UNL     1     -13.880 -40.170   8.912  1.00  0.00     0.198 HD
BRANCH  44  46
HETATM   46  N8  UNL     1     -13.655 -37.662   9.925  1.00  0.00    -0.381 N 
ATOM     47  H82 UNL     1     -13.672 -36.721  10.319  1.00  0.00     0.157 HD
ATOM     48  H81 UNL     1     -12.843 -38.122  10.337  1.00  0.00     0.157 HD
ENDBRANCH  44  46
ENDBRANCH  36  39
ENDBRANCH  29  32
ENDBRANCH   4  28
TORSDOF 10
ENDMDL
MODEL 4
REMARK VINA RESULT: -9.139756498      1.790      2.204
REMARK  10 active torsions:
REMARK  status: ('A' for Active; 'I' for Inactive)
REMARK    1  A    between atoms: O1_2  and  C2_3 
REMARK    2  A    between atoms: C4_5  and  N1_6 
REMARK    3  A    between atoms: N1_6  and  S1_8 
REMARK    4  A    between atoms: S1_8  and  C5_11 
REMARK    5  A    between atoms: C8_14  and  N2_15 
REMARK       I    between atoms: N2_15  and  C9_17 
REMARK    6  A    between atoms: C9_17  and  C10_19 
REMARK    7  A    between atoms: N5_23  and  C11_24 
REMARK    8  A    between atoms: C12_30  and  N8_31 
REMARK    9  A    between atoms: C14_39  and  C15_40 
REMARK       I    between atoms: C15_40  and  N11_42 
REMARK   10  A    between atoms: N11_42  and  N12_44 
ROOT
HETATM    1  C5  UNL     1     -15.398 -30.416  13.519  1.00  0.00     0.151 A 
HETATM    2  C6  UNL     1     -16.091 -29.456  14.197  1.00  0.00     0.047 A 
HETATM    3  C7  UNL     1     -15.182 -28.488  14.536  1.00  0.00     0.051 A 
HETATM    4  C8  UNL     1     -13.949 -28.892  14.050  1.00  0.00     0.108 A 
HETATM    5  N10 UNL     1     -14.102 -30.069  13.433  1.00  0.00    -0.332 N 
ATOM      6  H10 UNL     1     -13.365 -30.608  12.978  1.00  0.00     0.168 HD
ENDROOT
BRANCH   1   7
HETATM    7  S1  UNL     1     -16.035 -31.913  12.831  1.00  0.00     0.278 S 
HETATM    8  O2  UNL     1     -17.526 -31.840  12.898  1.00  0.00    -0.199 OA
HETATM    9  O3  UNL     1     -15.498 -33.026  13.690  1.00  0.00    -0.199 OA
BRANCH   7  10
HETATM   10  N1  UNL     1     -15.521 -32.126  11.219  1.00  0.00    -0.279 N 
ATOM     11  H1  UNL     1     -15.029 -31.354  10.771  1.00  0.00     0.179 HD
BRANCH  10  12
HETATM   12  C4  UNL     1     -15.733 -33.307  10.457  1.00  0.00     0.046 A 
HETATM   13  C3  UNL     1     -16.517 -33.156   9.326  1.00  0.00     0.069 A 
HETATM   14  C2  UNL     1     -16.766 -34.257   8.540  1.00  0.00     0.095 A 
HETATM   15  C16 UNL     1     -16.227 -35.467   8.909  1.00  0.00     0.095 A 
HETATM   16  C14 UNL     1     -15.430 -35.651  10.046  1.00  0.00     0.062 A 
HETATM   17  N13 UNL     1     -16.477 -36.597   8.111  1.00  0.00    -0.098 NA
HETATM   18  C13 UNL     1     -15.199 -34.532  10.810  1.00  0.00     0.049 A 
BRANCH  14  19
HETATM   19  O1  UNL     1     -17.550 -34.101   7.410  1.00  0.00    -0.354 OA
HETATM   20  C1  UNL     1     -17.932 -32.800   7.028  1.00  0.00     0.210 C 
ENDBRANCH  14  19
BRANCH  16  21
HETATM   21  C15 UNL     1     -14.900 -36.972  10.359  1.00  0.00     0.271 C 
HETATM   22  O6  UNL     1     -13.669 -37.224  10.339  1.00  0.00    -0.266 OA
HETATM   23  N11 UNL     1     -15.781 -38.016  10.700  1.00  0.00    -0.272 N 
ATOM     24  H11 UNL     1     -16.783 -37.826  10.721  1.00  0.00     0.189 HD
BRANCH  23  25
HETATM   25  N12 UNL     1     -15.333 -39.312  11.013  1.00  0.00    -0.342 N 
ATOM     26 2H12 UNL     1     -14.328 -39.486  10.982  1.00  0.00     0.176 HD
ATOM     27 1H12 UNL     1     -15.971 -40.066  11.267  1.00  0.00     0.176 HD
ENDBRANCH  23  25
ENDBRANCH  16  21
ENDBRANCH  10  12
ENDBRANCH   7  10
ENDBRANCH   1   7
BRANCH   4  28
HETATM   28  N2  UNL     1     -12.757 -28.141  14.210  1.00  0.00    -0.306 N 
HETATM   29  C9  UNL     1     -11.840 -27.832  13.206  1.00  0.00     0.293 C 
HETATM   30  O4  UNL     1     -11.993 -28.205  12.031  1.00  0.00    -0.264 OA
ATOM     31  H2  UNL     1     -12.552 -27.794  15.147  1.00  0.00     0.170 HD
BRANCH  29  32
HETATM   32  C10 UNL     1     -10.652 -27.046  13.523  1.00  0.00     0.204 A 
HETATM   33  N3  UNL     1      -9.408 -27.191  12.980  1.00  0.00    -0.262 N 
HETATM   34  N4  UNL     1      -8.617 -26.289  13.534  1.00  0.00     0.004 NA
ATOM     35  H3  UNL     1      -9.137 -27.874  12.272  1.00  0.00     0.186 HD
HETATM   36  N5  UNL     1      -9.294 -25.558  14.419  1.00  0.00    -0.156 N 
HETATM   37  N9  UNL     1     -10.525 -26.033  14.398  1.00  0.00    -0.258 N 
ATOM     38  H9  UNL     1     -11.287 -25.675  14.975  1.00  0.00     0.190 HD
BRANCH  36  39
HETATM   39  C11 UNL     1      -8.768 -24.494  15.208  1.00  0.00     0.210 A 
HETATM   40  N6  UNL     1      -8.895 -24.299  16.532  1.00  0.00    -0.219 N 
HETATM   41  O5  UNL     1      -8.284 -23.220  16.911  1.00  0.00    -0.153 OA
ATOM     42  H6  UNL     1      -9.407 -24.920  17.159  1.00  0.00     0.198 HD
HETATM   43  N7  UNL     1      -7.746 -22.687  15.857  1.00  0.00    -0.222 N 
HETATM   44  C12 UNL     1      -8.011 -23.432  14.764  1.00  0.00     0.170 A 
ATOM     45  H7  UNL     1      -7.200 -21.825  15.854  1.00  0.00     0.198 HD
BRANCH  44  46
HETATM   46  N8  UNL     1      -7.632 -23.195  13.552  1.00  0.00    -0.381 N 
ATOM     47  H82 UNL     1      -8.027 -22.508  12.909  1.00  0.00     0.157 HD
ATOM     48  H81 UNL     1      -6.880 -23.655  13.039  1.00  0.00     0.157 HD
ENDBRANCH  44  46
ENDBRANCH  36  39
ENDBRANCH  29  32
ENDBRANCH   4  28
TORSDOF 10
ENDMDL
MODEL 5
REMARK VINA RESULT: -9.098045416      1.733      2.205
REMARK  10 active torsions:
REMARK  status: ('A' for Active; 'I' for Inactive)
REMARK    1  A    between atoms: O1_2  and  C2_3 
REMARK    2  A    between atoms: C4_5  and  N1_6 
REMARK    3  A    between atoms: N1_6  and  S1_8 
REMARK    4  A    between atoms: S1_8  and  C5_11 
REMARK    5  A    between atoms: C8_14  and  N2_15 
REMARK       I    between atoms: N2_15  and  C9_17 
REMARK    6  A    between atoms: C9_17  and  C10_19 
REMARK    7  A    between atoms: N5_23  and  C11_24 
REMARK    8  A    between atoms: C12_30  and  N8_31 
REMARK    9  A    between atoms: C14_39  and  C15_40 
REMARK       I    between atoms: C15_40  and  N11_42 
REMARK   10  A    between atoms: N11_42  and  N12_44 
ROOT
HETATM    1  C5  UNL     1     -14.296 -31.769  13.570  1.00  0.00     0.151 A 
HETATM    2  C6  UNL     1     -15.171 -30.779  13.913  1.00  0.00     0.047 A 
HETATM    3  C7  UNL     1     -14.453 -29.612  13.918  1.00  0.00     0.051 A 
HETATM    4  C8  UNL     1     -13.148 -29.928  13.574  1.00  0.00     0.108 A 
HETATM    5  N10 UNL     1     -13.074 -31.248  13.366  1.00  0.00    -0.332 N 
ATOM      6  H10 UNL     1     -12.237 -31.767  13.099  1.00  0.00     0.168 HD
ENDROOT
BRANCH   1   7
HETATM    7  S1  UNL     1     -14.641 -33.493  13.401  1.00  0.00     0.278 S 
HETATM    8  O2  UNL     1     -16.127 -33.652  13.355  1.00  0.00    -0.199 OA
HETATM    9  O3  UNL     1     -14.054 -34.155  14.618  1.00  0.00    -0.199 OA
BRANCH   7  10
HETATM   10  N1  UNL     1     -13.930 -34.136  11.992  1.00  0.00    -0.279 N 
ATOM     11  H1  UNL     1     -12.913 -34.211  11.964  1.00  0.00     0.179 HD
BRANCH  10  12
HETATM   12  C4  UNL     1     -14.656 -34.576  10.853  1.00  0.00     0.046 A 
HETATM   13  C3  UNL     1     -15.574 -33.673  10.343  1.00  0.00     0.069 A 
HETATM   14  C2  UNL     1     -16.316 -34.032   9.242  1.00  0.00     0.095 A 
HETATM   15  C16 UNL     1     -16.118 -35.275   8.689  1.00  0.00     0.095 A 
HETATM   16  C14 UNL     1     -15.199 -36.209   9.180  1.00  0.00     0.062 A 
HETATM   17  N13 UNL     1     -16.873 -35.648   7.564  1.00  0.00    -0.098 NA
HETATM   18  C13 UNL     1     -14.472 -35.821  10.281  1.00  0.00     0.049 A 
BRANCH  14  19
HETATM   19  O1  UNL     1     -17.232 -33.125   8.737  1.00  0.00    -0.354 OA
HETATM   20  C1  UNL     1     -17.024 -31.751   8.973  1.00  0.00     0.210 C 
ENDBRANCH  14  19
BRANCH  16  21
HETATM   21  C15 UNL     1     -15.056 -37.505   8.529  1.00  0.00     0.271 C 
HETATM   22  O6  UNL     1     -13.939 -38.060   8.374  1.00  0.00    -0.266 OA
HETATM   23  N11 UNL     1     -16.197 -38.176   8.049  1.00  0.00    -0.272 N 
ATOM     24  H11 UNL     1     -17.111 -37.737   8.168  1.00  0.00     0.189 HD
BRANCH  23  25
HETATM   25  N12 UNL     1     -16.127 -39.428   7.413  1.00  0.00    -0.342 N 
ATOM     26 2H12 UNL     1     -15.884 -40.237   7.984  1.00  0.00     0.176 HD
ATOM     27 1H12 UNL     1     -16.308 -39.547   6.416  1.00  0.00     0.176 HD
ENDBRANCH  23  25
ENDBRANCH  16  21
ENDBRANCH  10  12
ENDBRANCH   7  10
ENDBRANCH   1   7
BRANCH   4  28
HETATM   28  N2  UNL     1     -12.108 -28.971  13.475  1.00  0.00    -0.306 N 
HETATM   29  C9  UNL     1     -11.426 -28.616  12.311  1.00  0.00     0.293 C 
HETATM   30  O4  UNL     1     -11.683 -29.132  11.209  1.00  0.00    -0.264 OA
ATOM     31  H2  UNL     1     -11.832 -28.497  14.335  1.00  0.00     0.170 HD
BRANCH  29  32
HETATM   32  C10 UNL     1     -10.372 -27.608  12.364  1.00  0.00     0.204 A 
HETATM   33  N3  UNL     1      -9.026 -27.836  12.406  1.00  0.00    -0.262 N 
HETATM   34  N4  UNL     1      -8.420 -26.663  12.447  1.00  0.00     0.004 NA
ATOM     35  H3  UNL     1      -8.571 -28.748  12.406  1.00  0.00     0.186 HD
HETATM   36  N5  UNL     1      -9.314 -25.675  12.434  1.00  0.00    -0.156 N 
HETATM   37  N9  UNL     1     -10.492 -26.270  12.383  1.00  0.00    -0.258 N 
ATOM     38  H9  UNL     1     -11.383 -25.773  12.362  1.00  0.00     0.190 HD
BRANCH  36  39
HETATM   39  C11 UNL     1      -9.027 -24.280  12.468  1.00  0.00     0.210 A 
HETATM   40  N6  UNL     1      -9.775 -23.289  12.984  1.00  0.00    -0.219 N 
HETATM   41  O5  UNL     1      -9.199 -22.137  12.836  1.00  0.00    -0.153 OA
ATOM     42  H6  UNL     1     -10.680 -23.426  13.434  1.00  0.00     0.198 HD
HETATM   43  N7  UNL     1      -8.071 -22.341  12.226  1.00  0.00    -0.222 N 
HETATM   44  C12 UNL     1      -7.905 -23.655  11.970  1.00  0.00     0.170 A 
ATOM     45  H7  UNL     1      -7.404 -21.611  11.976  1.00  0.00     0.198 HD
BRANCH  44  46
HETATM   46  N8  UNL     1      -6.899 -24.209  11.377  1.00  0.00    -0.381 N 
ATOM     47  H82 UNL     1      -5.910 -24.019  11.539  1.00  0.00     0.157 HD
ATOM     48  H81 UNL     1      -6.929 -24.925  10.650  1.00  0.00     0.157 HD
ENDBRANCH  44  46
ENDBRANCH  36  39
ENDBRANCH  29  32
ENDBRANCH   4  28
TORSDOF 10
ENDMDL
