MODEL 1
REMARK VINA RESULT: -9.633459320      0.000      0.000
REMARK  10 active torsions:
REMARK  status: ('A' for Active; 'I' for Inactive)
REMARK    1  A    between atoms: C2_5  and  N2_6 
REMARK       I    between atoms: N2_6  and  C3_8 
REMARK    2  A    between atoms: C4_11  and  O2_12 
REMARK    3  A    between atoms: C5_17  and  O3_18 
REMARK    4  A    between atoms: O3_18  and  N5_19 
REMARK    5  A    between atoms: C6_21  and  C7_22 
REMARK    6  A    between atoms: C9_25  and  N6_26 
REMARK    7  A    between atoms: C10_31  and  N8_32 
REMARK       I    between atoms: N8_32  and  C11_34 
REMARK    8  A    between atoms: C11_34  and  C12_36 
REMARK    9  A    between atoms: C14_38  and  N9_39 
REMARK   10  A    between atoms: C16_43  and  N10_44 
ROOT
HETATM    1  N1  UNL     1     -15.948 -34.508  17.061  1.00  0.00    -0.402 N 
ATOM      2  H11 UNL     1     -15.901 -33.489  17.018  1.00  0.00     0.155 HD
ATOM      3  H12 UNL     1     -16.047 -34.972  17.964  1.00  0.00     0.155 HD
HETATM    4  C1  UNL     1     -15.887 -35.265  16.032  1.00  0.00     0.035 C 
HETATM    5  C2  UNL     1     -15.954 -36.726  16.094  1.00  0.00     0.189 C 
HETATM    6  C4  UNL     1     -15.263 -37.439  14.976  1.00  0.00     0.350 C 
HETATM    7  N4  UNL     1     -15.085 -36.662  13.785  1.00  0.00    -0.015 N 
ATOM      8  H41 UNL     1     -15.949 -36.634  13.244  1.00  0.00     0.283 HD
ATOM      9  H42 UNL     1     -14.483 -37.154  13.125  1.00  0.00     0.283 HD
HETATM   10  C5  UNL     1     -14.597 -35.340  14.019  1.00  0.00     0.381 C 
HETATM   11  C10 UNL     1     -15.743 -34.589  14.714  1.00  0.00     0.191 C 
ENDROOT
BRANCH  11  12
HETATM   12  N8  UNL     1     -15.442 -33.202  14.801  1.00  0.00    -0.343 N 
HETATM   13  C11 UNL     1     -16.171 -32.256  14.055  1.00  0.00     0.252 C 
HETATM   14  O4  UNL     1     -17.111 -32.703  13.301  1.00  0.00    -0.268 OA
ATOM     15  H8  UNL     1     -14.688 -32.888  15.413  1.00  0.00     0.163 HD
BRANCH  13  16
HETATM   16  C12 UNL     1     -15.905 -30.829  14.108  1.00  0.00     0.036 A 
HETATM   17  C13 UNL     1     -14.650 -30.354  13.855  1.00  0.00     0.053 A 
HETATM   18  C14 UNL     1     -14.405 -28.984  13.908  1.00  0.00     0.106 A 
HETATM   19  C15 UNL     1     -15.450 -28.164  14.215  1.00  0.00     0.072 A 
HETATM   20  C16 UNL     1     -16.721 -28.607  14.475  1.00  0.00     0.106 A 
HETATM   21  C17 UNL     1     -16.936 -29.960  14.417  1.00  0.00     0.053 A 
BRANCH  18  22
HETATM   22  N9  UNL     1     -13.120 -28.469  13.650  1.00  0.00    -0.116 N 
HETATM   23  O5  UNL     1     -12.241 -28.494  14.516  1.00  0.00    -0.532 OA
HETATM   24  O6  UNL     1     -12.848 -27.934  12.422  1.00  0.00    -0.532 OA
ENDBRANCH  18  22
BRANCH  20  25
HETATM   25  N10 UNL     1     -17.787 -27.708  14.794  1.00  0.00    -0.116 N 
HETATM   26  O7  UNL     1     -17.576 -26.488  14.764  1.00  0.00    -0.532 OA
HETATM   27  O8  UNL     1     -19.001 -28.241  15.121  1.00  0.00    -0.532 OA
ENDBRANCH  20  25
ENDBRANCH  13  16
ENDBRANCH  11  12
BRANCH  10  28
HETATM   28  O3  UNL     1     -14.313 -34.661  12.842  1.00  0.00    -0.244 OA
BRANCH  28  29
HETATM   29  N5  UNL     1     -15.025 -34.685  11.699  1.00  0.00    -0.273 N 
HETATM   30  C6  UNL     1     -15.254 -33.640  11.019  1.00  0.00     0.144 C 
ATOM     31  H5  UNL     1     -15.393 -35.577  11.368  1.00  0.00     0.193 HD
BRANCH  30  32
HETATM   32  C7  UNL     1     -16.049 -33.728   9.758  1.00  0.00     0.058 A 
HETATM   33  C8  UNL     1     -16.568 -32.593   9.195  1.00  0.00     0.084 A 
HETATM   34  S1  UNL     1     -17.367 -33.199   7.815  1.00  0.00    -0.064 SA
HETATM   35  C9  UNL     1     -17.002 -34.851   8.025  1.00  0.00     0.142 A 
HETATM   36  N7  UNL     1     -16.284 -34.867   9.143  1.00  0.00    -0.335 N 
ATOM     37  H7  UNL     1     -15.922 -35.745   9.517  1.00  0.00     0.168 HD
BRANCH  35  38
HETATM   38  N6  UNL     1     -17.343 -35.876   7.270  1.00  0.00    -0.380 N 
ATOM     39  H62 UNL     1     -18.259 -36.081   6.872  1.00  0.00     0.158 HD
ATOM     40  H61 UNL     1     -16.766 -36.651   6.944  1.00  0.00     0.158 HD
ENDBRANCH  35  38
ENDBRANCH  30  32
ENDBRANCH  28  29
ENDBRANCH  10  28
BRANCH   5  41
HETATM   41  N2  UNL     1     -17.353 -37.118  16.160  1.00  0.00    -0.331 N 
HETATM   42  C3  UNL     1     -18.059 -37.216  17.384  1.00  0.00     0.329 C 
HETATM   43  N3  UNL     1     -19.414 -37.599  17.424  1.00  0.00    -0.040 NA
HETATM   44  O1  UNL     1     -17.484 -36.959  18.496  1.00  0.00    -0.251 OA
ATOM     45  H2  UNL     1     -17.845 -37.330  15.292  1.00  0.00     0.164 HD
ENDBRANCH   5  41
BRANCH   6  46
HETATM   46  O2  UNL     1     -14.023 -37.959  15.342  1.00  0.00    -0.368 OA
ATOM     47  H2  UNL     1     -13.394 -37.959  14.630  1.00  0.00     0.212 HD
ENDBRANCH   6  46
TORSDOF 10
ENDMDL
MODEL 2
REMARK VINA RESULT: -9.600153217      0.103      2.508
REMARK  10 active torsions:
REMARK  status: ('A' for Active; 'I' for Inactive)
REMARK    1  A    between atoms: C2_5  and  N2_6 
REMARK       I    between atoms: N2_6  and  C3_8 
REMARK    2  A    between atoms: C4_11  and  O2_12 
REMARK    3  A    between atoms: C5_17  and  O3_18 
REMARK    4  A    between atoms: O3_18  and  N5_19 
REMARK    5  A    between atoms: C6_21  and  C7_22 
REMARK    6  A    between atoms: C9_25  and  N6_26 
REMARK    7  A    between atoms: C10_31  and  N8_32 
REMARK       I    between atoms: N8_32  and  C11_34 
REMARK    8  A    between atoms: C11_34  and  C12_36 
REMARK    9  A    between atoms: C14_38  and  N9_39 
REMARK   10  A    between atoms: C16_43  and  N10_44 
ROOT
HETATM    1  N1  UNL     1     -15.841 -34.559  17.054  1.00  0.00    -0.402 N 
ATOM      2  H11 UNL     1     -15.821 -33.539  17.018  1.00  0.00     0.155 HD
ATOM      3  H12 UNL     1     -15.913 -35.032  17.955  1.00  0.00     0.155 HD
HETATM    4  C1  UNL     1     -15.780 -35.308  16.019  1.00  0.00     0.035 C 
HETATM    5  C2  UNL     1     -15.810 -36.769  16.070  1.00  0.00     0.189 C 
HETATM    6  C4  UNL     1     -15.121 -37.457  14.935  1.00  0.00     0.350 C 
HETATM    7  N4  UNL     1     -14.983 -36.667  13.747  1.00  0.00    -0.015 N 
ATOM      8  H41 UNL     1     -15.857 -36.657  13.222  1.00  0.00     0.283 HD
ATOM      9  H42 UNL     1     -14.381 -37.139  13.073  1.00  0.00     0.283 HD
HETATM   10  C5  UNL     1     -14.524 -35.335  13.983  1.00  0.00     0.381 C 
HETATM   11  C10 UNL     1     -15.676 -34.618  14.703  1.00  0.00     0.191 C 
ENDROOT
BRANCH  11  12
HETATM   12  N8  UNL     1     -15.408 -33.225  14.796  1.00  0.00    -0.343 N 
HETATM   13  C11 UNL     1     -16.168 -32.293  14.063  1.00  0.00     0.252 C 
HETATM   14  O4  UNL     1     -17.104 -32.758  13.316  1.00  0.00    -0.268 OA
ATOM     15  H8  UNL     1     -14.656 -32.896  15.402  1.00  0.00     0.163 HD
BRANCH  13  16
HETATM   16  C12 UNL     1     -15.936 -30.859  14.122  1.00  0.00     0.036 A 
HETATM   17  C13 UNL     1     -16.962 -30.010  14.420  1.00  0.00     0.053 A 
HETATM   18  C14 UNL     1     -16.729 -28.637  14.474  1.00  0.00     0.106 A 
HETATM   19  C15 UNL     1     -15.464 -28.198  14.222  1.00  0.00     0.072 A 
HETATM   20  C16 UNL     1     -14.411 -29.023  13.920  1.00  0.00     0.106 A 
HETATM   21  C17 UNL     1     -14.667 -30.369  13.873  1.00  0.00     0.053 A 
BRANCH  18  22
HETATM   22  N9  UNL     1     -17.771 -27.739  14.780  1.00  0.00    -0.116 N 
HETATM   23  O5  UNL     1     -17.580 -26.519  14.770  1.00  0.00    -0.532 OA
HETATM   24  O6  UNL     1     -19.007 -28.231  15.094  1.00  0.00    -0.532 OA
ENDBRANCH  18  22
BRANCH  20  25
HETATM   25  N10 UNL     1     -13.100 -28.515  13.663  1.00  0.00    -0.116 N 
HETATM   26  O7  UNL     1     -12.230 -28.618  14.539  1.00  0.00    -0.532 OA
HETATM   27  O8  UNL     1     -12.863 -27.931  12.451  1.00  0.00    -0.532 OA
ENDBRANCH  20  25
ENDBRANCH  13  16
ENDBRANCH  11  12
BRANCH  10  28
HETATM   28  O3  UNL     1     -14.279 -34.641  12.806  1.00  0.00    -0.244 OA
BRANCH  28  29
HETATM   29  N5  UNL     1     -15.004 -34.682  11.672  1.00  0.00    -0.273 N 
HETATM   30  C6  UNL     1     -15.255 -33.645  10.989  1.00  0.00     0.144 C 
ATOM     31  H5  UNL     1     -15.363 -35.582  11.351  1.00  0.00     0.193 HD
BRANCH  30  32
HETATM   32  C7  UNL     1     -16.065 -33.752   9.738  1.00  0.00     0.058 A 
HETATM   33  C8  UNL     1     -16.586 -32.626   9.161  1.00  0.00     0.084 A 
HETATM   34  S1  UNL     1     -17.402 -33.253   7.801  1.00  0.00    -0.064 SA
HETATM   35  C9  UNL     1     -17.040 -34.902   8.035  1.00  0.00     0.142 A 
HETATM   36  N7  UNL     1     -16.309 -34.901   9.146  1.00  0.00    -0.335 N 
ATOM     37  H7  UNL     1     -15.946 -35.773   9.531  1.00  0.00     0.168 HD
BRANCH  35  38
HETATM   38  N6  UNL     1     -17.391 -35.939   7.302  1.00  0.00    -0.380 N 
ATOM     39  H62 UNL     1     -17.540 -36.899   7.611  1.00  0.00     0.158 HD
ATOM     40  H61 UNL     1     -17.580 -35.982   6.301  1.00  0.00     0.158 HD
ENDBRANCH  35  38
ENDBRANCH  30  32
ENDBRANCH  28  29
ENDBRANCH  10  28
BRANCH   5  41
HETATM   41  N2  UNL     1     -17.198 -37.197  16.158  1.00  0.00    -0.331 N 
HETATM   42  C3  UNL     1     -17.877 -37.327  17.393  1.00  0.00     0.329 C 
HETATM   43  N3  UNL     1     -19.222 -37.744  17.454  1.00  0.00    -0.040 NA
HETATM   44  O1  UNL     1     -17.288 -37.069  18.497  1.00  0.00    -0.251 OA
ATOM     45  H2  UNL     1     -17.701 -37.411  15.296  1.00  0.00     0.164 HD
ENDBRANCH   5  41
BRANCH   6  46
HETATM   46  O2  UNL     1     -13.862 -37.948  15.276  1.00  0.00    -0.368 OA
ATOM     47  H2  UNL     1     -13.895 -38.801  15.693  1.00  0.00     0.212 HD
ENDBRANCH   6  46
TORSDOF 10
ENDMDL
MODEL 3
REMARK VINA RESULT: -8.923574944      1.290      1.363
REMARK  10 active torsions:
REMARK  status: ('A' for Active; 'I' for Inactive)
REMARK    1  A    between atoms: C2_5  and  N2_6 
REMARK       I    between atoms: N2_6  and  C3_8 
REMARK    2  A    between atoms: C4_11  and  O2_12 
REMARK    3  A    between atoms: C5_17  and  O3_18 
REMARK    4  A    between atoms: O3_18  and  N5_19 
REMARK    5  A    between atoms: C6_21  and  C7_22 
REMARK    6  A    between atoms: C9_25  and  N6_26 
REMARK    7  A    between atoms: C10_31  and  N8_32 
REMARK       I    between atoms: N8_32  and  C11_34 
REMARK    8  A    between atoms: C11_34  and  C12_36 
REMARK    9  A    between atoms: C14_38  and  N9_39 
REMARK   10  A    between atoms: C16_43  and  N10_44 
ROOT
HETATM    1  N1  UNL     1     -16.575 -34.193  17.553  1.00  0.00    -0.402 N 
ATOM      2  H11 UNL     1     -16.517 -33.187  17.396  1.00  0.00     0.155 HD
ATOM      3  H12 UNL     1     -16.875 -34.547  18.463  1.00  0.00     0.155 HD
HETATM    4  C1  UNL     1     -16.291 -35.069  16.665  1.00  0.00     0.035 C 
HETATM    5  C2  UNL     1     -16.375 -36.512  16.891  1.00  0.00     0.189 C 
HETATM    6  C4  UNL     1     -15.455 -37.339  16.050  1.00  0.00     0.350 C 
HETATM    7  N4  UNL     1     -15.014 -36.709  14.842  1.00  0.00    -0.015 N 
ATOM      8  H41 UNL     1     -15.735 -36.767  14.124  1.00  0.00     0.283 HD
ATOM      9  H42 UNL     1     -14.282 -37.262  14.397  1.00  0.00     0.283 HD
HETATM   10  C5  UNL     1     -14.585 -35.357  15.012  1.00  0.00     0.381 C 
HETATM   11  C10 UNL     1     -15.854 -34.554  15.338  1.00  0.00     0.191 C 
ENDROOT
BRANCH  11  12
HETATM   12  N8  UNL     1     -15.575 -33.161  15.318  1.00  0.00    -0.343 N 
HETATM   13  C11 UNL     1     -16.119 -32.329  14.321  1.00  0.00     0.252 C 
HETATM   14  O4  UNL     1     -16.873 -32.886  13.441  1.00  0.00    -0.268 OA
ATOM     15  H8  UNL     1     -14.972 -32.757  16.035  1.00  0.00     0.163 HD
BRANCH  13  16
HETATM   16  C12 UNL     1     -15.866 -30.900  14.254  1.00  0.00     0.036 A 
HETATM   17  C13 UNL     1     -14.620 -30.437  13.943  1.00  0.00     0.053 A 
HETATM   18  C14 UNL     1     -14.388 -29.064  13.882  1.00  0.00     0.106 A 
HETATM   19  C15 UNL     1     -15.436 -28.232  14.139  1.00  0.00     0.072 A 
HETATM   20  C16 UNL     1     -16.699 -28.662  14.453  1.00  0.00     0.106 A 
HETATM   21  C17 UNL     1     -16.901 -30.018  14.508  1.00  0.00     0.053 A 
BRANCH  18  22
HETATM   22  N9  UNL     1     -13.112 -28.561  13.563  1.00  0.00    -0.116 N 
HETATM   23  O5  UNL     1     -12.158 -28.715  14.332  1.00  0.00    -0.532 OA
HETATM   24  O6  UNL     1     -12.933 -27.892  12.384  1.00  0.00    -0.532 OA
ENDBRANCH  18  22
BRANCH  20  25
HETATM   25  N10 UNL     1     -17.768 -27.750  14.716  1.00  0.00    -0.116 N 
HETATM   26  O7  UNL     1     -17.551 -26.532  14.651  1.00  0.00    -0.532 OA
HETATM   27  O8  UNL     1     -18.992 -28.267  15.031  1.00  0.00    -0.532 OA
ENDBRANCH  20  25
ENDBRANCH  13  16
ENDBRANCH  11  12
BRANCH  10  28
HETATM   28  O3  UNL     1     -14.044 -34.819  13.853  1.00  0.00    -0.244 OA
BRANCH  28  29
HETATM   29  N5  UNL     1     -14.138 -35.318  12.605  1.00  0.00    -0.273 N 
HETATM   30  C6  UNL     1     -15.153 -35.124  11.871  1.00  0.00     0.144 C 
ATOM     31  H5  UNL     1     -13.365 -35.873  12.238  1.00  0.00     0.193 HD
BRANCH  30  32
HETATM   32  C7  UNL     1     -15.202 -35.702  10.495  1.00  0.00     0.058 A 
HETATM   33  C8  UNL     1     -14.067 -36.214   9.926  1.00  0.00     0.084 A 
HETATM   34  S1  UNL     1     -14.624 -36.736   8.401  1.00  0.00    -0.064 SA
HETATM   35  C9  UNL     1     -16.258 -36.281   8.566  1.00  0.00     0.142 A 
HETATM   36  N7  UNL     1     -16.307 -35.748   9.783  1.00  0.00    -0.335 N 
ATOM     37  H7  UNL     1     -17.183 -35.381  10.156  1.00  0.00     0.168 HD
BRANCH  35  38
HETATM   38  N6  UNL     1     -17.246 -36.417   7.705  1.00  0.00    -0.380 N 
ATOM     39  H62 UNL     1     -17.922 -37.179   7.646  1.00  0.00     0.158 HD
ATOM     40  H61 UNL     1     -17.524 -35.798   6.943  1.00  0.00     0.158 HD
ENDBRANCH  35  38
ENDBRANCH  30  32
ENDBRANCH  28  29
ENDBRANCH  10  28
BRANCH   5  41
HETATM   41  N2  UNL     1     -17.755 -36.927  16.694  1.00  0.00    -0.331 N 
HETATM   42  C3  UNL     1     -18.617 -37.240  17.773  1.00  0.00     0.329 C 
HETATM   43  N3  UNL     1     -19.951 -37.640  17.558  1.00  0.00    -0.040 NA
HETATM   44  O1  UNL     1     -18.209 -37.169  18.981  1.00  0.00    -0.251 OA
ATOM     45  H2  UNL     1     -18.117 -36.994  15.742  1.00  0.00     0.164 HD
ENDBRANCH   5  41
BRANCH   6  46
HETATM   46  O2  UNL     1     -14.330 -37.781  16.744  1.00  0.00    -0.368 OA
ATOM     47  H2  UNL     1     -13.841 -38.447  16.275  1.00  0.00     0.212 HD
ENDBRANCH   6  46
TORSDOF 10
ENDMDL
MODEL 4
REMARK VINA RESULT: -8.575548723      3.159      6.617
REMARK  10 active torsions:
REMARK  status: ('A' for Active; 'I' for Inactive)
REMARK    1  A    between atoms: C2_5  and  N2_6 
REMARK       I    between atoms: N2_6  and  C3_8 
REMARK    2  A    between atoms: C4_11  and  O2_12 
REMARK    3  A    between atoms: C5_17  and  O3_18 
REMARK    4  A    between atoms: O3_18  and  N5_19 
REMARK    5  A    between atoms: C6_21  and  C7_22 
REMARK    6  A    between atoms: C9_25  and  N6_26 
REMARK    7  A    between atoms: C10_31  and  N8_32 
REMARK       I    between atoms: N8_32  and  C11_34 
REMARK    8  A    between atoms: C11_34  and  C12_36 
REMARK    9  A    between atoms: C14_38  and  N9_39 
REMARK   10  A    between atoms: C16_43  and  N10_44 
ROOT
HETATM    1  N1  UNL     1     -15.990 -33.786  10.520  1.00  0.00    -0.402 N 
ATOM      2  H11 UNL     1     -15.799 -32.800  10.703  1.00  0.00     0.155 HD
ATOM      3  H12 UNL     1     -16.334 -34.073   9.604  1.00  0.00     0.155 HD
HETATM    4  C1  UNL     1     -15.822 -34.713  11.385  1.00  0.00     0.035 C 
HETATM    5  C2  UNL     1     -16.094 -36.127  11.124  1.00  0.00     0.189 C 
HETATM    6  C4  UNL     1     -16.454 -36.936  12.328  1.00  0.00     0.350 C 
HETATM    7  N4  UNL     1     -16.008 -36.390  13.576  1.00  0.00    -0.015 N 
ATOM      8  H41 UNL     1     -15.020 -36.595  13.722  1.00  0.00     0.283 HD
ATOM      9  H42 UNL     1     -16.410 -36.908  14.356  1.00  0.00     0.283 HD
HETATM   10  C5  UNL     1     -16.255 -34.991  13.722  1.00  0.00     0.381 C 
HETATM   11  C10 UNL     1     -15.319 -34.295  12.722  1.00  0.00     0.191 C 
ENDROOT
BRANCH  11  12
HETATM   12  N8  UNL     1     -15.329 -32.889  12.934  1.00  0.00    -0.343 N 
HETATM   13  C11 UNL     1     -14.177 -32.218  13.386  1.00  0.00     0.252 C 
HETATM   14  O4  UNL     1     -13.128 -32.930  13.595  1.00  0.00    -0.268 OA
ATOM     15  H8  UNL     1     -16.182 -32.359  12.755  1.00  0.00     0.163 HD
BRANCH  13  16
HETATM   16  C12 UNL     1     -14.134 -30.784  13.618  1.00  0.00     0.036 A 
HETATM   17  C13 UNL     1     -15.249 -30.124  14.048  1.00  0.00     0.053 A 
HETATM   18  C14 UNL     1     -15.197 -28.749  14.267  1.00  0.00     0.106 A 
HETATM   19  C15 UNL     1     -14.012 -28.114  14.039  1.00  0.00     0.072 A 
HETATM   20  C16 UNL     1     -12.874 -28.746  13.608  1.00  0.00     0.106 A 
HETATM   21  C17 UNL     1     -12.952 -30.099  13.399  1.00  0.00     0.053 A 
BRANCH  18  22
HETATM   22  N9  UNL     1     -16.333 -28.044  14.711  1.00  0.00    -0.116 N 
HETATM   23  O5  UNL     1     -17.181 -27.640  13.911  1.00  0.00    -0.532 OA
HETATM   24  O6  UNL     1     -16.492 -27.808  16.048  1.00  0.00    -0.532 OA
ENDBRANCH  18  22
BRANCH  20  25
HETATM   25  N10 UNL     1     -11.653 -28.038  13.382  1.00  0.00    -0.116 N 
HETATM   26  O7  UNL     1     -10.849 -27.909  14.314  1.00  0.00    -0.532 OA
HETATM   27  O8  UNL     1     -11.428 -27.528  12.135  1.00  0.00    -0.532 OA
ENDBRANCH  20  25
ENDBRANCH  13  16
ENDBRANCH  11  12
BRANCH  10  28
HETATM   28  O3  UNL     1     -15.929 -34.521  14.987  1.00  0.00    -0.244 OA
BRANCH  28  29
HETATM   29  N5  UNL     1     -16.783 -34.182  15.972  1.00  0.00    -0.273 N 
HETATM   30  C6  UNL     1     -16.890 -34.856  17.039  1.00  0.00     0.144 C 
ATOM     31  H5  UNL     1     -17.364 -33.352  15.854  1.00  0.00     0.193 HD
BRANCH  30  32
HETATM   32  C7  UNL     1     -17.854 -34.431  18.098  1.00  0.00     0.058 A 
HETATM   33  C8  UNL     1     -19.084 -35.026  18.184  1.00  0.00     0.084 A 
HETATM   34  S1  UNL     1     -19.791 -34.220  19.510  1.00  0.00    -0.064 SA
HETATM   35  C9  UNL     1     -18.496 -33.178  19.883  1.00  0.00     0.142 A 
HETATM   36  N7  UNL     1     -17.577 -33.491  18.976  1.00  0.00    -0.335 N 
ATOM     37  H7  UNL     1     -16.676 -33.013  18.960  1.00  0.00     0.168 HD
BRANCH  35  38
HETATM   38  N6  UNL     1     -18.410 -32.273  20.838  1.00  0.00    -0.380 N 
ATOM     39  H62 UNL     1     -19.059 -32.115  21.609  1.00  0.00     0.158 HD
ATOM     40  H61 UNL     1     -17.689 -31.567  20.990  1.00  0.00     0.158 HD
ENDBRANCH  35  38
ENDBRANCH  30  32
ENDBRANCH  28  29
ENDBRANCH  10  28
BRANCH   5  41
HETATM   41  N2  UNL     1     -14.938 -36.700  10.452  1.00  0.00    -0.331 N 
HETATM   42  C3  UNL     1     -14.784 -36.674   9.045  1.00  0.00     0.329 C 
HETATM   43  N3  UNL     1     -13.656 -37.237   8.416  1.00  0.00    -0.040 NA
HETATM   44  O1  UNL     1     -15.671 -36.138   8.298  1.00  0.00    -0.251 OA
ATOM     45  H2  UNL     1     -14.209 -37.136  11.018  1.00  0.00     0.164 HD
ENDBRANCH   5  41
BRANCH   6  46
HETATM   46  O2  UNL     1     -17.822 -37.186  12.431  1.00  0.00    -0.368 OA
ATOM     47  H2  UNL     1     -18.083 -37.480  13.296  1.00  0.00     0.212 HD
ENDBRANCH   6  46
TORSDOF 10
ENDMDL
MODEL 5
REMARK VINA RESULT: -8.538798935      3.137      6.083
REMARK  10 active torsions:
REMARK  status: ('A' for Active; 'I' for Inactive)
REMARK    1  A    between atoms: C2_5  and  N2_6 
REMARK       I    between atoms: N2_6  and  C3_8 
REMARK    2  A    between atoms: C4_11  and  O2_12 
REMARK    3  A    between atoms: C5_17  and  O3_18 
REMARK    4  A    between atoms: O3_18  and  N5_19 
REMARK    5  A    between atoms: C6_21  and  C7_22 
REMARK    6  A    between atoms: C9_25  and  N6_26 
REMARK    7  A    between atoms: C10_31  and  N8_32 
REMARK       I    between atoms: N8_32  and  C11_34 
REMARK    8  A    between atoms: C11_34  and  C12_36 
REMARK    9  A    between atoms: C14_38  and  N9_39 
REMARK   10  A    between atoms: C16_43  and  N10_44 
ROOT
HETATM    1  N1  UNL     1     -16.081 -34.083  10.511  1.00  0.00    -0.402 N 
ATOM      2  H11 UNL     1     -15.928 -33.087  10.673  1.00  0.00     0.155 HD
ATOM      3  H12 UNL     1     -16.423 -34.402   9.604  1.00  0.00     0.155 HD
HETATM    4  C1  UNL     1     -15.868 -34.987  11.391  1.00  0.00     0.035 C 
HETATM    5  C2  UNL     1     -16.086 -36.415  11.159  1.00  0.00     0.189 C 
HETATM    6  C4  UNL     1     -16.401 -37.214  12.383  1.00  0.00     0.350 C 
HETATM    7  N4  UNL     1     -15.965 -36.627  13.615  1.00  0.00    -0.015 N 
ATOM      8  H41 UNL     1     -14.969 -36.790  13.755  1.00  0.00     0.283 HD
ATOM      9  H42 UNL     1     -16.339 -37.145  14.409  1.00  0.00     0.283 HD
HETATM   10  C5  UNL     1     -16.267 -35.236  13.737  1.00  0.00     0.381 C 
HETATM   11  C10 UNL     1     -15.369 -34.522  12.715  1.00  0.00     0.191 C 
ENDROOT
BRANCH  11  12
HETATM   12  N8  UNL     1     -15.434 -33.115  12.900  1.00  0.00    -0.343 N 
HETATM   13  C11 UNL     1     -14.324 -32.398  13.387  1.00  0.00     0.252 C 
HETATM   14  O4  UNL     1     -13.262 -33.072  13.652  1.00  0.00    -0.268 OA
ATOM     15  H8  UNL     1     -16.296 -32.617  12.677  1.00  0.00     0.163 HD
BRANCH  13  16
HETATM   16  C12 UNL     1     -14.337 -30.960  13.594  1.00  0.00     0.036 A 
HETATM   17  C13 UNL     1     -13.188 -30.235  13.452  1.00  0.00     0.053 A 
HETATM   18  C14 UNL     1     -13.211 -28.857  13.653  1.00  0.00     0.106 A 
HETATM   19  C15 UNL     1     -14.402 -28.284  13.987  1.00  0.00     0.072 A 
HETATM   20  C16 UNL     1     -15.573 -28.981  14.137  1.00  0.00     0.106 A 
HETATM   21  C17 UNL     1     -15.523 -30.337  13.935  1.00  0.00     0.053 A 
BRANCH  18  22
HETATM   22  N9  UNL     1     -12.040 -28.087  13.512  1.00  0.00    -0.116 N 
HETATM   23  O5  UNL     1     -11.270 -27.923  14.463  1.00  0.00    -0.532 OA
HETATM   24  O6  UNL     1     -11.758 -27.514  12.303  1.00  0.00    -0.532 OA
ENDBRANCH  18  22
BRANCH  20  25
HETATM   25  N10 UNL     1     -16.799 -28.336  14.490  1.00  0.00    -0.116 N 
HETATM   26  O7  UNL     1     -16.825 -27.102  14.588  1.00  0.00    -0.532 OA
HETATM   27  O8  UNL     1     -17.898 -29.118  14.705  1.00  0.00    -0.532 OA
ENDBRANCH  20  25
ENDBRANCH  13  16
ENDBRANCH  11  12
BRANCH  10  28
HETATM   28  O3  UNL     1     -15.949 -34.730  14.990  1.00  0.00    -0.244 OA
BRANCH  28  29
HETATM   29  N5  UNL     1     -16.808 -34.357  15.958  1.00  0.00    -0.273 N 
HETATM   30  C6  UNL     1     -16.859 -34.941  17.081  1.00  0.00     0.144 C 
ATOM     31  H5  UNL     1     -17.440 -33.576  15.780  1.00  0.00     0.193 HD
BRANCH  30  32
HETATM   32  C7  UNL     1     -17.833 -34.484  18.117  1.00  0.00     0.058 A 
HETATM   33  C8  UNL     1     -19.078 -35.050  18.186  1.00  0.00     0.084 A 
HETATM   34  S1  UNL     1     -19.790 -34.215  19.491  1.00  0.00    -0.064 SA
HETATM   35  C9  UNL     1     -18.478 -33.199  19.879  1.00  0.00     0.142 A 
HETATM   36  N7  UNL     1     -17.550 -33.543  18.992  1.00  0.00    -0.335 N 
ATOM     37  H7  UNL     1     -16.638 -33.086  18.988  1.00  0.00     0.168 HD
BRANCH  35  38
HETATM   38  N6  UNL     1     -18.389 -32.287  20.827  1.00  0.00    -0.380 N 
ATOM     39  H62 UNL     1     -17.554 -31.990  21.330  1.00  0.00     0.158 HD
ATOM     40  H61 UNL     1     -19.126 -31.711  21.234  1.00  0.00     0.158 HD
ENDBRANCH  35  38
ENDBRANCH  30  32
ENDBRANCH  28  29
ENDBRANCH  10  28
BRANCH   5  41
HETATM   41  N2  UNL     1     -14.914 -36.954  10.487  1.00  0.00    -0.331 N 
HETATM   42  C3  UNL     1     -14.781 -36.961   9.078  1.00  0.00     0.329 C 
HETATM   43  N3  UNL     1     -13.636 -37.490   8.448  1.00  0.00    -0.040 NA
HETATM   44  O1  UNL     1     -15.701 -36.486   8.329  1.00  0.00    -0.251 OA
ATOM     45  H2  UNL     1     -14.158 -37.341  11.053  1.00  0.00     0.164 HD
ENDBRANCH   5  41
BRANCH   6  46
HETATM   46  O2  UNL     1     -17.757 -37.516  12.504  1.00  0.00    -0.368 OA
ATOM     47  H2  UNL     1     -18.317 -36.752  12.438  1.00  0.00     0.212 HD
ENDBRANCH   6  46
TORSDOF 10
ENDMDL
