MODEL 1
REMARK VINA RESULT: -8.934289955      0.000      0.000
REMARK  12 active torsions:
REMARK  status: ('A' for Active; 'I' for Inactive)
REMARK    1  A    between atoms: O1_2  and  N1_3 
REMARK    2  A    between atoms: N1_3  and  C2_5 
REMARK    3  A    between atoms: C2_5  and  C16_41 
REMARK    4  A    between atoms: C3_6  and  O2_7 
REMARK    5  A    between atoms: C3_6  and  N2_9 
REMARK       I    between atoms: N2_9  and  C4_11 
REMARK    6  A    between atoms: C4_11  and  C5_13 
REMARK    7  A    between atoms: C7_15  and  C8_16 
REMARK    8  A    between atoms: C8_16  and  O4_17 
REMARK    9  A    between atoms: C8_16  and  C9_19 
REMARK   10  A    between atoms: C10_22  and  C11_23 
REMARK   11  A    between atoms: C12_32  and  N9_33 
REMARK   12  A    between atoms: C18_44  and  N12_45 
ROOT
HETATM    1  C5  UNL     1     -15.319 -35.193  14.210  1.00  0.00     0.103 A 
HETATM    2  C6  UNL     1     -14.447 -35.092  13.117  1.00  0.00     0.047 A 
HETATM    3  C7  UNL     1     -14.612 -36.189  12.308  1.00  0.00    -0.006 A 
HETATM    4  C14 UNL     1     -15.582 -36.956  12.907  1.00  0.00     0.101 A 
HETATM    5  N11 UNL     1     -15.999 -36.345  14.050  1.00  0.00    -0.356 N 
HETATM    6  C15 UNL     1     -17.035 -36.881  14.934  1.00  0.00     0.156 C 
ENDROOT
BRANCH   3   7
HETATM    7  C8  UNL     1     -13.890 -36.470  11.055  1.00  0.00     0.204 C 
BRANCH   7   8
HETATM    8  O4  UNL     1     -13.191 -37.698  11.137  1.00  0.00    -0.385 OA
ATOM      9  H4  UNL     1     -12.333 -37.576  11.525  1.00  0.00     0.211 HD
ENDBRANCH   7   8
BRANCH   7  10
HETATM   10  C9  UNL     1     -14.812 -36.548   9.884  1.00  0.00     0.072 A 
HETATM   11  N3  UNL     1     -15.451 -35.475   9.390  1.00  0.00    -0.339 N 
HETATM   12  C10 UNL     1     -16.281 -35.523   8.344  1.00  0.00     0.154 A 
ATOM     13  H3  UNL     1     -15.294 -34.573   9.838  1.00  0.00     0.167 HD
HETATM   14  N8  UNL     1     -16.470 -36.728   7.772  1.00  0.00    -0.324 N 
HETATM   15  C12 UNL     1     -15.873 -37.854   8.198  1.00  0.00     0.127 A 
ATOM     16  H8  UNL     1     -17.099 -36.787   6.973  1.00  0.00     0.169 HD
HETATM   17  C13 UNL     1     -15.016 -37.775   9.288  1.00  0.00     0.115 A 
HETATM   18  N10 UNL     1     -14.369 -38.955   9.763  1.00  0.00    -0.096 NA
BRANCH  12  19
HETATM   19  C11 UNL     1     -16.964 -34.339   7.827  1.00  0.00     0.176 A 
HETATM   20  N4  UNL     1     -17.662 -34.243   6.684  1.00  0.00    -0.267 N 
HETATM   21  N5  UNL     1     -18.134 -32.999   6.561  1.00  0.00    -0.007 NA
ATOM     22  H4  UNL     1     -17.808 -35.000   6.016  1.00  0.00     0.185 HD
HETATM   23  N6  UNL     1     -17.738 -32.300   7.627  1.00  0.00    -0.007 NA
HETATM   24  N7  UNL     1     -17.022 -33.126   8.397  1.00  0.00    -0.267 N 
ATOM     25  H7  UNL     1     -16.587 -32.872   9.284  1.00  0.00     0.185 HD
ENDBRANCH  12  19
BRANCH  15  26
HETATM   26  N9  UNL     1     -16.083 -38.988   7.620  1.00  0.00    -0.384 N 
ATOM     27  H92 UNL     1     -16.139 -39.843   8.173  1.00  0.00     0.157 HD
ATOM     28  H91 UNL     1     -16.197 -39.058   6.609  1.00  0.00     0.157 HD
ENDBRANCH  15  26
ENDBRANCH   7  10
ENDBRANCH   3   7
BRANCH   1  29
HETATM   29  C4  UNL     1     -15.453 -34.215  15.269  1.00  0.00     0.274 C 
HETATM   30  N2  UNL     1     -15.864 -32.842  15.064  1.00  0.00    -0.300 N 
ATOM     31  H2  UNL     1     -15.903 -32.220  15.871  1.00  0.00     0.171 HD
HETATM   32  O3  UNL     1     -15.203 -34.544  16.468  1.00  0.00    -0.266 OA
BRANCH  30  33
HETATM   33  C3  UNL     1     -16.205 -32.336  13.818  1.00  0.00     0.174 C 
HETATM   34  C2  UNL     1     -15.811 -31.138  13.131  1.00  0.00     0.132 C 
BRANCH  34  35
HETATM   35  N1  UNL     1     -16.410 -30.945  11.984  1.00  0.00    -0.261 N 
ATOM     36  H1  UNL     1     -17.157 -30.253  11.944  1.00  0.00     0.194 HD
BRANCH  35  37
HETATM   37  O1  UNL     1     -16.104 -31.598  10.866  1.00  0.00    -0.285 OA
HETATM   38  C1  UNL     1     -14.834 -32.236  10.772  1.00  0.00     0.237 C 
ENDBRANCH  35  37
ENDBRANCH  34  35
BRANCH  34  39
HETATM   39  C16 UNL     1     -14.868 -30.121  13.676  1.00  0.00     0.074 A 
HETATM   40  C17 UNL     1     -15.316 -29.044  14.395  1.00  0.00     0.085 A 
HETATM   41  S1  UNL     1     -13.885 -28.147  14.657  1.00  0.00    -0.064 SA
HETATM   42  C18 UNL     1     -12.802 -29.174  13.850  1.00  0.00     0.142 A 
HETATM   43  N13 UNL     1     -13.581 -30.161  13.412  1.00  0.00    -0.335 N 
ATOM     44  H13 UNL     1     -13.186 -30.936  12.880  1.00  0.00     0.168 HD
BRANCH  42  45
HETATM   45  N12 UNL     1     -11.498 -29.040  13.687  1.00  0.00    -0.380 N 
ATOM     46 2H12 UNL     1     -10.969 -29.076  12.816  1.00  0.00     0.158 HD
ATOM     47 1H12 UNL     1     -10.779 -28.876  14.392  1.00  0.00     0.158 HD
ENDBRANCH  42  45
ENDBRANCH  34  39
BRANCH  33  48
HETATM   48  O2  UNL     1     -17.042 -33.073  13.138  1.00  0.00    -0.344 OA
ATOM     49  H2  UNL     1     -17.818 -32.603  12.858  1.00  0.00     0.219 HD
ENDBRANCH  33  48
ENDBRANCH  30  33
ENDBRANCH   1  29
TORSDOF 12
ENDMDL
MODEL 2
REMARK VINA RESULT: -8.768041248      3.178      6.264
REMARK  12 active torsions:
REMARK  status: ('A' for Active; 'I' for Inactive)
REMARK    1  A    between atoms: O1_2  and  N1_3 
REMARK    2  A    between atoms: N1_3  and  C2_5 
REMARK    3  A    between atoms: C2_5  and  C16_41 
REMARK    4  A    between atoms: C3_6  and  O2_7 
REMARK    5  A    between atoms: C3_6  and  N2_9 
REMARK       I    between atoms: N2_9  and  C4_11 
REMARK    6  A    between atoms: C4_11  and  C5_13 
REMARK    7  A    between atoms: C7_15  and  C8_16 
REMARK    8  A    between atoms: C8_16  and  O4_17 
REMARK    9  A    between atoms: C8_16  and  C9_19 
REMARK   10  A    between atoms: C10_22  and  C11_23 
REMARK   11  A    between atoms: C12_32  and  N9_33 
REMARK   12  A    between atoms: C18_44  and  N12_45 
ROOT
HETATM    1  C5  UNL     1     -15.581 -35.333  13.596  1.00  0.00     0.103 A 
HETATM    2  C6  UNL     1     -15.475 -34.955  12.251  1.00  0.00     0.047 A 
HETATM    3  C7  UNL     1     -15.868 -33.647  12.120  1.00  0.00    -0.006 A 
HETATM    4  C14 UNL     1     -16.213 -33.229  13.382  1.00  0.00     0.101 A 
HETATM    5  N11 UNL     1     -16.035 -34.253  14.261  1.00  0.00    -0.356 N 
HETATM    6  C15 UNL     1     -16.296 -34.154  15.697  1.00  0.00     0.156 C 
ENDROOT
BRANCH   3   7
HETATM    7  C8  UNL     1     -15.905 -32.865  10.871  1.00  0.00     0.204 C 
BRANCH   7   8
HETATM    8  O4  UNL     1     -14.660 -32.235  10.631  1.00  0.00    -0.385 OA
ATOM      9  H4  UNL     1     -14.504 -31.541  11.260  1.00  0.00     0.211 HD
ENDBRANCH   7   8
BRANCH   7  10
HETATM   10  C9  UNL     1     -16.220 -33.717   9.687  1.00  0.00     0.072 A 
HETATM   11  N3  UNL     1     -15.783 -34.983   9.566  1.00  0.00    -0.339 N 
HETATM   12  C10 UNL     1     -16.052 -35.762   8.516  1.00  0.00     0.154 A 
ATOM     13  H3  UNL     1     -15.214 -35.369  10.319  1.00  0.00     0.167 HD
HETATM   14  N8  UNL     1     -16.805 -35.225   7.537  1.00  0.00    -0.324 N 
HETATM   15  C12 UNL     1     -17.286 -33.971   7.572  1.00  0.00     0.127 A 
ATOM     16  H8  UNL     1     -17.022 -35.803   6.725  1.00  0.00     0.169 HD
HETATM   17  C13 UNL     1     -16.990 -33.183   8.676  1.00  0.00     0.115 A 
HETATM   18  N10 UNL     1     -17.486 -31.846   8.741  1.00  0.00    -0.096 NA
BRANCH  12  19
HETATM   19  C11 UNL     1     -15.563 -37.135   8.410  1.00  0.00     0.176 A 
HETATM   20  N4  UNL     1     -14.413 -37.624   8.902  1.00  0.00    -0.267 N 
HETATM   21  N5  UNL     1     -14.324 -38.923   8.599  1.00  0.00    -0.007 NA
ATOM     22  H4  UNL     1     -13.719 -37.089   9.424  1.00  0.00     0.185 HD
HETATM   23  N6  UNL     1     -15.418 -39.263   7.914  1.00  0.00    -0.007 NA
HETATM   24  N7  UNL     1     -16.171 -38.165   7.802  1.00  0.00    -0.267 N 
ATOM     25  H7  UNL     1     -17.072 -38.117   7.326  1.00  0.00     0.185 HD
ENDBRANCH  12  19
BRANCH  15  26
HETATM   26  N9  UNL     1     -18.004 -33.497   6.611  1.00  0.00    -0.384 N 
ATOM     27  H92 UNL     1     -18.976 -33.235   6.778  1.00  0.00     0.157 HD
ATOM     28  H91 UNL     1     -17.625 -33.372   5.673  1.00  0.00     0.157 HD
ENDBRANCH  15  26
ENDBRANCH   7  10
ENDBRANCH   3   7
BRANCH   1  29
HETATM   29  C4  UNL     1     -15.233 -36.632  14.133  1.00  0.00     0.274 C 
HETATM   30  N2  UNL     1     -16.121 -37.776  14.142  1.00  0.00    -0.300 N 
ATOM     31  H2  UNL     1     -15.794 -38.643  14.567  1.00  0.00     0.171 HD
HETATM   32  O3  UNL     1     -14.085 -36.820  14.638  1.00  0.00    -0.266 OA
BRANCH  30  33
HETATM   33  C3  UNL     1     -17.396 -37.742  13.597  1.00  0.00     0.174 C 
HETATM   34  C2  UNL     1     -18.693 -37.625  14.204  1.00  0.00     0.132 C 
BRANCH  34  35
HETATM   35  N1  UNL     1     -19.696 -37.714  13.368  1.00  0.00    -0.261 N 
ATOM     36  H1  UNL     1     -20.218 -36.865  13.154  1.00  0.00     0.194 HD
BRANCH  35  37
HETATM   37  O1  UNL     1     -20.076 -38.845  12.780  1.00  0.00    -0.285 OA
HETATM   38  C1  UNL     1     -21.135 -39.598  13.364  1.00  0.00     0.237 C 
ENDBRANCH  35  37
ENDBRANCH  34  35
BRANCH  34  39
HETATM   39  C16 UNL     1     -18.934 -37.497  15.668  1.00  0.00     0.074 A 
HETATM   40  C17 UNL     1     -19.303 -38.576  16.428  1.00  0.00     0.085 A 
HETATM   41  S1  UNL     1     -19.575 -37.877  17.964  1.00  0.00    -0.064 SA
HETATM   42  C18 UNL     1     -19.209 -36.268  17.568  1.00  0.00     0.142 A 
HETATM   43  N13 UNL     1     -18.895 -36.333  16.276  1.00  0.00    -0.335 N 
ATOM     44  H13 UNL     1     -18.628 -35.491  15.766  1.00  0.00     0.168 HD
BRANCH  42  45
HETATM   45  N12 UNL     1     -19.227 -35.200  18.345  1.00  0.00    -0.380 N 
ATOM     46 2H12 UNL     1     -20.014 -34.580  18.539  1.00  0.00     0.158 HD
ATOM     47 1H12 UNL     1     -18.468 -34.794  18.892  1.00  0.00     0.158 HD
ENDBRANCH  42  45
ENDBRANCH  34  39
BRANCH  33  48
HETATM   48  O2  UNL     1     -17.439 -37.841  12.296  1.00  0.00    -0.344 OA
ATOM     49  H2  UNL     1     -16.917 -38.558  11.954  1.00  0.00     0.219 HD
ENDBRANCH  33  48
ENDBRANCH  30  33
ENDBRANCH   1  29
TORSDOF 12
ENDMDL
MODEL 3
REMARK VINA RESULT: -8.653378264      3.243      8.096
REMARK  12 active torsions:
REMARK  status: ('A' for Active; 'I' for Inactive)
REMARK    1  A    between atoms: O1_2  and  N1_3 
REMARK    2  A    between atoms: N1_3  and  C2_5 
REMARK    3  A    between atoms: C2_5  and  C16_41 
REMARK    4  A    between atoms: C3_6  and  O2_7 
REMARK    5  A    between atoms: C3_6  and  N2_9 
REMARK       I    between atoms: N2_9  and  C4_11 
REMARK    6  A    between atoms: C4_11  and  C5_13 
REMARK    7  A    between atoms: C7_15  and  C8_16 
REMARK    8  A    between atoms: C8_16  and  O4_17 
REMARK    9  A    between atoms: C8_16  and  C9_19 
REMARK   10  A    between atoms: C10_22  and  C11_23 
REMARK   11  A    between atoms: C12_32  and  N9_33 
REMARK   12  A    between atoms: C18_44  and  N12_45 
ROOT
HETATM    1  C5  UNL     1     -14.438 -34.646  14.242  1.00  0.00     0.103 A 
HETATM    2  C6  UNL     1     -13.984 -33.591  13.438  1.00  0.00     0.047 A 
HETATM    3  C7  UNL     1     -14.980 -32.654  13.322  1.00  0.00    -0.006 A 
HETATM    4  C14 UNL     1     -16.038 -33.137  14.053  1.00  0.00     0.101 A 
HETATM    5  N11 UNL     1     -15.698 -34.335  14.601  1.00  0.00    -0.356 N 
HETATM    6  C15 UNL     1     -16.587 -35.127  15.453  1.00  0.00     0.156 C 
ENDROOT
BRANCH   3   7
HETATM    7  C8  UNL     1     -14.910 -31.392  12.564  1.00  0.00     0.204 C 
BRANCH   7   8
HETATM    8  O4  UNL     1     -16.026 -31.255  11.704  1.00  0.00    -0.385 OA
ATOM      9  H4  UNL     1     -16.288 -30.345  11.630  1.00  0.00     0.211 HD
ENDBRANCH   7   8
BRANCH   7  10
HETATM   10  C9  UNL     1     -14.880 -30.202  13.464  1.00  0.00     0.072 A 
HETATM   11  N3  UNL     1     -15.960 -29.774  14.139  1.00  0.00    -0.339 N 
HETATM   12  C10 UNL     1     -15.955 -28.711  14.949  1.00  0.00     0.154 A 
ATOM     13  H3  UNL     1     -16.833 -30.289  14.027  1.00  0.00     0.167 HD
HETATM   14  N8  UNL     1     -14.789 -28.050  15.078  1.00  0.00    -0.324 N 
HETATM   15  C12 UNL     1     -13.658 -28.405  14.443  1.00  0.00     0.127 A 
ATOM     16  H8  UNL     1     -14.762 -27.236  15.691  1.00  0.00     0.169 HD
HETATM   17  C13 UNL     1     -13.693 -29.514  13.607  1.00  0.00     0.115 A 
HETATM   18  N10 UNL     1     -12.509 -29.914  12.919  1.00  0.00    -0.096 NA
BRANCH  12  19
HETATM   19  C11 UNL     1     -17.145 -28.267  15.671  1.00  0.00     0.176 A 
HETATM   20  N4  UNL     1     -18.403 -28.220  15.204  1.00  0.00    -0.267 N 
HETATM   21  N5  UNL     1     -19.210 -27.757  16.163  1.00  0.00    -0.007 NA
ATOM     22  H4  UNL     1     -18.696 -28.493  14.266  1.00  0.00     0.185 HD
HETATM   23  N6  UNL     1     -18.467 -27.511  17.244  1.00  0.00    -0.007 NA
HETATM   24  N7  UNL     1     -17.205 -27.825  16.936  1.00  0.00    -0.267 N 
ATOM     25  H7  UNL     1     -16.408 -27.740  17.567  1.00  0.00     0.185 HD
ENDBRANCH  12  19
BRANCH  15  26
HETATM   26  N9  UNL     1     -12.563 -27.743  14.596  1.00  0.00    -0.384 N 
ATOM     27  H92 UNL     1     -12.522 -26.961  15.251  1.00  0.00     0.157 HD
ATOM     28  H91 UNL     1     -11.719 -27.979  14.074  1.00  0.00     0.157 HD
ENDBRANCH  15  26
ENDBRANCH   7  10
ENDBRANCH   3   7
BRANCH   1  29
HETATM   29  C4  UNL     1     -13.664 -35.811  14.614  1.00  0.00     0.274 C 
HETATM   30  N2  UNL     1     -13.463 -36.964  13.761  1.00  0.00    -0.300 N 
ATOM     31  H2  UNL     1     -12.922 -37.749  14.123  1.00  0.00     0.171 HD
HETATM   32  O3  UNL     1     -13.110 -35.864  15.753  1.00  0.00    -0.266 OA
BRANCH  30  33
HETATM   33  C3  UNL     1     -13.974 -37.046  12.474  1.00  0.00     0.174 C 
HETATM   34  C2  UNL     1     -15.261 -37.450  11.980  1.00  0.00     0.132 C 
BRANCH  34  35
HETATM   35  N1  UNL     1     -15.358 -37.480  10.675  1.00  0.00    -0.261 N 
ATOM     36  H1  UNL     1     -15.003 -38.302  10.187  1.00  0.00     0.194 HD
BRANCH  35  37
HETATM   37  O1  UNL     1     -15.892 -36.505   9.946  1.00  0.00    -0.285 OA
HETATM   38  C1  UNL     1     -15.483 -36.360   8.590  1.00  0.00     0.237 C 
ENDBRANCH  35  37
ENDBRANCH  34  35
BRANCH  34  39
HETATM   39  C16 UNL     1     -16.396 -37.891  12.837  1.00  0.00     0.074 A 
HETATM   40  C17 UNL     1     -16.198 -38.698  13.926  1.00  0.00     0.085 A 
HETATM   41  S1  UNL     1     -17.792 -39.006  14.460  1.00  0.00    -0.064 SA
HETATM   42  C18 UNL     1     -18.621 -38.103  13.286  1.00  0.00     0.142 A 
HETATM   43  N13 UNL     1     -17.643 -37.604  12.534  1.00  0.00    -0.335 N 
ATOM     44  H13 UNL     1     -17.857 -37.008  11.735  1.00  0.00     0.168 HD
BRANCH  42  45
HETATM   45  N12 UNL     1     -19.922 -37.928  13.143  1.00  0.00    -0.380 N 
ATOM     46 2H12 UNL     1     -20.675 -38.532  13.473  1.00  0.00     0.158 HD
ATOM     47 1H12 UNL     1     -20.418 -37.167  12.680  1.00  0.00     0.158 HD
ENDBRANCH  42  45
ENDBRANCH  34  39
BRANCH  33  48
HETATM   48  O2  UNL     1     -13.140 -36.701  11.531  1.00  0.00    -0.344 OA
ATOM     49  H2  UNL     1     -12.257 -37.023  11.670  1.00  0.00     0.219 HD
ENDBRANCH  33  48
ENDBRANCH  30  33
ENDBRANCH   1  29
TORSDOF 12
ENDMDL
MODEL 4
REMARK VINA RESULT: -8.650850451      3.149      6.282
REMARK  12 active torsions:
REMARK  status: ('A' for Active; 'I' for Inactive)
REMARK    1  A    between atoms: O1_2  and  N1_3 
REMARK    2  A    between atoms: N1_3  and  C2_5 
REMARK    3  A    between atoms: C2_5  and  C16_41 
REMARK    4  A    between atoms: C3_6  and  O2_7 
REMARK    5  A    between atoms: C3_6  and  N2_9 
REMARK       I    between atoms: N2_9  and  C4_11 
REMARK    6  A    between atoms: C4_11  and  C5_13 
REMARK    7  A    between atoms: C7_15  and  C8_16 
REMARK    8  A    between atoms: C8_16  and  O4_17 
REMARK    9  A    between atoms: C8_16  and  C9_19 
REMARK   10  A    between atoms: C10_22  and  C11_23 
REMARK   11  A    between atoms: C12_32  and  N9_33 
REMARK   12  A    between atoms: C18_44  and  N12_45 
ROOT
HETATM    1  C5  UNL     1     -14.481 -35.158  13.662  1.00  0.00     0.103 A 
HETATM    2  C6  UNL     1     -14.401 -34.524  12.415  1.00  0.00     0.047 A 
HETATM    3  C7  UNL     1     -15.475 -33.682  12.270  1.00  0.00    -0.006 A 
HETATM    4  C14 UNL     1     -16.207 -33.802  13.427  1.00  0.00     0.101 A 
HETATM    5  N11 UNL     1     -15.597 -34.694  14.255  1.00  0.00    -0.356 N 
HETATM    6  C15 UNL     1     -16.101 -35.055  15.581  1.00  0.00     0.156 C 
ENDROOT
BRANCH   3   7
HETATM    7  C8  UNL     1     -15.766 -32.827  11.105  1.00  0.00     0.204 C 
BRANCH   7   8
HETATM    8  O4  UNL     1     -14.656 -32.008  10.788  1.00  0.00    -0.385 OA
ATOM      9  H4  UNL     1     -14.939 -31.156  10.479  1.00  0.00     0.211 HD
ENDBRANCH   7   8
BRANCH   7  10
HETATM   10  C9  UNL     1     -16.100 -33.630   9.893  1.00  0.00     0.072 A 
HETATM   11  N3  UNL     1     -15.661 -34.887   9.710  1.00  0.00    -0.339 N 
HETATM   12  C10 UNL     1     -15.947 -35.623   8.633  1.00  0.00     0.154 A 
ATOM     13  H3  UNL     1     -15.076 -35.302  10.435  1.00  0.00     0.167 HD
HETATM   14  N8  UNL     1     -16.721 -35.049   7.693  1.00  0.00    -0.324 N 
HETATM   15  C12 UNL     1     -17.206 -33.799   7.789  1.00  0.00     0.127 A 
ATOM     16  H8  UNL     1     -16.952 -35.593   6.861  1.00  0.00     0.169 HD
HETATM   17  C13 UNL     1     -16.892 -33.057   8.920  1.00  0.00     0.115 A 
HETATM   18  N10 UNL     1     -17.391 -31.726   9.051  1.00  0.00    -0.096 NA
BRANCH  12  19
HETATM   19  C11 UNL     1     -15.456 -36.988   8.460  1.00  0.00     0.176 A 
HETATM   20  N4  UNL     1     -14.226 -37.446   8.742  1.00  0.00    -0.267 N 
HETATM   21  N5  UNL     1     -14.164 -38.748   8.447  1.00  0.00    -0.007 NA
ATOM     22  H4  UNL     1     -13.460 -36.888   9.121  1.00  0.00     0.185 HD
HETATM   23  N6  UNL     1     -15.356 -39.122   7.978  1.00  0.00    -0.007 NA
HETATM   24  N7  UNL     1     -16.142 -38.040   7.988  1.00  0.00    -0.267 N 
ATOM     25  H7  UNL     1     -17.115 -38.018   7.684  1.00  0.00     0.185 HD
ENDBRANCH  12  19
BRANCH  15  26
HETATM   26  N9  UNL     1     -17.944 -33.288   6.863  1.00  0.00    -0.384 N 
ATOM     27  H92 UNL     1     -18.810 -33.750   6.584  1.00  0.00     0.157 HD
ATOM     28  H91 UNL     1     -17.686 -32.421   6.393  1.00  0.00     0.157 HD
ENDBRANCH  15  26
ENDBRANCH   7  10
ENDBRANCH   3   7
BRANCH   1  29
HETATM   29  C4  UNL     1     -13.517 -36.102  14.187  1.00  0.00     0.274 C 
HETATM   30  N2  UNL     1     -13.352 -37.456  13.701  1.00  0.00    -0.300 N 
ATOM     31  H2  UNL     1     -12.662 -38.056  14.153  1.00  0.00     0.171 HD
HETATM   32  O3  UNL     1     -12.748 -35.758  15.135  1.00  0.00    -0.266 OA
BRANCH  30  33
HETATM   33  C3  UNL     1     -14.092 -37.973  12.647  1.00  0.00     0.174 C 
HETATM   34  C2  UNL     1     -15.456 -38.417  12.564  1.00  0.00     0.132 C 
BRANCH  34  35
HETATM   35  N1  UNL     1     -15.792 -38.930  11.408  1.00  0.00    -0.261 N 
ATOM     36  H1  UNL     1     -16.268 -38.327  10.737  1.00  0.00     0.194 HD
BRANCH  35  37
HETATM   37  O1  UNL     1     -15.550 -40.188  11.053  1.00  0.00    -0.285 OA
HETATM   38  C1  UNL     1     -16.531 -41.180  11.339  1.00  0.00     0.237 C 
ENDBRANCH  35  37
ENDBRANCH  34  35
BRANCH  34  39
HETATM   39  C16 UNL     1     -16.423 -38.398  13.696  1.00  0.00     0.074 A 
HETATM   40  C17 UNL     1     -16.214 -39.143  14.827  1.00  0.00     0.085 A 
HETATM   41  S1  UNL     1     -17.644 -38.872  15.723  1.00  0.00    -0.064 SA
HETATM   42  C18 UNL     1     -18.426 -37.837  14.630  1.00  0.00     0.142 A 
HETATM   43  N13 UNL     1     -17.560 -37.742  13.623  1.00  0.00    -0.335 N 
ATOM     44  H13 UNL     1     -17.776 -37.170  12.807  1.00  0.00     0.168 HD
BRANCH  42  45
HETATM   45  N12 UNL     1     -19.608 -37.258  14.739  1.00  0.00    -0.380 N 
ATOM     46 2H12 UNL     1     -19.874 -36.490  15.356  1.00  0.00     0.158 HD
ATOM     47 1H12 UNL     1     -20.470 -37.463  14.234  1.00  0.00     0.158 HD
ENDBRANCH  42  45
ENDBRANCH  34  39
BRANCH  33  48
HETATM   48  O2  UNL     1     -13.439 -38.086  11.523  1.00  0.00    -0.344 OA
ATOM     49  H2  UNL     1     -13.416 -37.283  11.016  1.00  0.00     0.219 HD
ENDBRANCH  33  48
ENDBRANCH  30  33
ENDBRANCH   1  29
TORSDOF 12
ENDMDL
MODEL 5
REMARK VINA RESULT: -8.619256690      4.549      8.087
REMARK  12 active torsions:
REMARK  status: ('A' for Active; 'I' for Inactive)
REMARK    1  A    between atoms: O1_2  and  N1_3 
REMARK    2  A    between atoms: N1_3  and  C2_5 
REMARK    3  A    between atoms: C2_5  and  C16_41 
REMARK    4  A    between atoms: C3_6  and  O2_7 
REMARK    5  A    between atoms: C3_6  and  N2_9 
REMARK       I    between atoms: N2_9  and  C4_11 
REMARK    6  A    between atoms: C4_11  and  C5_13 
REMARK    7  A    between atoms: C7_15  and  C8_16 
REMARK    8  A    between atoms: C8_16  and  O4_17 
REMARK    9  A    between atoms: C8_16  and  C9_19 
REMARK   10  A    between atoms: C10_22  and  C11_23 
REMARK   11  A    between atoms: C12_32  and  N9_33 
REMARK   12  A    between atoms: C18_44  and  N12_45 
ROOT
HETATM    1  C5  UNL     1     -15.691 -35.642  14.865  1.00  0.00     0.103 A 
HETATM    2  C6  UNL     1     -15.664 -34.935  13.655  1.00  0.00     0.047 A 
HETATM    3  C7  UNL     1     -15.966 -33.618  13.897  1.00  0.00    -0.006 A 
HETATM    4  C14 UNL     1     -16.175 -33.523  15.252  1.00  0.00     0.101 A 
HETATM    5  N11 UNL     1     -16.006 -34.747  15.822  1.00  0.00    -0.356 N 
HETATM    6  C15 UNL     1     -16.142 -35.008  17.255  1.00  0.00     0.156 C 
ENDROOT
BRANCH   3   7
HETATM    7  C8  UNL     1     -16.042 -32.539  12.896  1.00  0.00     0.204 C 
BRANCH   7   8
HETATM    8  O4  UNL     1     -17.378 -32.333  12.475  1.00  0.00    -0.385 OA
ATOM      9  H4  UNL     1     -17.406 -32.006  11.584  1.00  0.00     0.211 HD
ENDBRANCH   7   8
BRANCH   7  10
HETATM   10  C9  UNL     1     -15.528 -31.244  13.431  1.00  0.00     0.072 A 
HETATM   11  N3  UNL     1     -16.332 -30.308  13.963  1.00  0.00    -0.339 N 
HETATM   12  C10 UNL     1     -15.893 -29.142  14.447  1.00  0.00     0.154 A 
ATOM     13  H3  UNL     1     -17.333 -30.498  14.000  1.00  0.00     0.167 HD
HETATM   14  N8  UNL     1     -14.567 -28.919  14.385  1.00  0.00    -0.324 N 
HETATM   15  C12 UNL     1     -13.688 -29.796  13.871  1.00  0.00     0.127 A 
ATOM     16  H8  UNL     1     -14.210 -28.035  14.748  1.00  0.00     0.169 HD
HETATM   17  C13 UNL     1     -14.172 -31.000  13.375  1.00  0.00     0.115 A 
HETATM   18  N10 UNL     1     -13.263 -31.951  12.822  1.00  0.00    -0.096 NA
BRANCH  12  19
HETATM   19  C11 UNL     1     -16.790 -28.141  15.020  1.00  0.00     0.176 A 
HETATM   20  N4  UNL     1     -17.322 -27.080  14.393  1.00  0.00    -0.267 N 
HETATM   21  N5  UNL     1     -18.089 -26.402  15.253  1.00  0.00    -0.007 NA
ATOM     22  H4  UNL     1     -17.166 -26.830  13.417  1.00  0.00     0.185 HD
HETATM   23  N6  UNL     1     -18.047 -27.032  16.429  1.00  0.00    -0.007 NA
HETATM   24  N7  UNL     1     -17.250 -28.095  16.279  1.00  0.00    -0.267 N 
ATOM     25  H7  UNL     1     -17.026 -28.769  17.011  1.00  0.00     0.185 HD
ENDBRANCH  12  19
BRANCH  15  26
HETATM   26  N9  UNL     1     -12.424 -29.541  13.831  1.00  0.00    -0.384 N 
ATOM     27  H92 UNL     1     -11.780 -30.044  14.442  1.00  0.00     0.157 HD
ATOM     28  H91 UNL     1     -12.041 -28.840  13.197  1.00  0.00     0.157 HD
ENDBRANCH  15  26
ENDBRANCH   7  10
ENDBRANCH   3   7
BRANCH   1  29
HETATM   29  C4  UNL     1     -15.402 -37.051  15.020  1.00  0.00     0.274 C 
HETATM   30  N2  UNL     1     -16.305 -38.116  14.636  1.00  0.00    -0.300 N 
ATOM     31  H2  UNL     1     -16.023 -39.081  14.810  1.00  0.00     0.171 HD
HETATM   32  O3  UNL     1     -14.297 -37.419  15.522  1.00  0.00    -0.266 OA
BRANCH  30  33
HETATM   33  C3  UNL     1     -17.537 -37.881  14.043  1.00  0.00     0.174 C 
HETATM   34  C2  UNL     1     -18.850 -37.708  14.600  1.00  0.00     0.132 C 
BRANCH  34  35
HETATM   35  N1  UNL     1     -19.806 -37.585  13.715  1.00  0.00    -0.261 N 
ATOM     36  H1  UNL     1     -20.307 -36.698  13.672  1.00  0.00     0.194 HD
BRANCH  35  37
HETATM   37  O1  UNL     1     -20.164 -38.546  12.868  1.00  0.00    -0.285 OA
HETATM   38  C1  UNL     1     -21.049 -39.564  13.323  1.00  0.00     0.237 C 
ENDBRANCH  35  37
ENDBRANCH  34  35
BRANCH  34  39
HETATM   39  C16 UNL     1     -19.163 -37.745  16.056  1.00  0.00     0.074 A 
HETATM   40  C17 UNL     1     -19.602 -38.892  16.663  1.00  0.00     0.085 A 
HETATM   41  S1  UNL     1     -19.934 -38.369  18.256  1.00  0.00    -0.064 SA
HETATM   42  C18 UNL     1     -19.501 -36.738  18.073  1.00  0.00     0.142 A 
HETATM   43  N13 UNL     1     -19.122 -36.662  16.799  1.00  0.00    -0.335 N 
ATOM     44  H13 UNL     1     -18.805 -35.776  16.406  1.00  0.00     0.168 HD
BRANCH  42  45
HETATM   45  N12 UNL     1     -19.529 -35.768  18.969  1.00  0.00    -0.380 N 
ATOM     46 2H12 UNL     1     -20.300 -35.135  19.182  1.00  0.00     0.158 HD
ATOM     47 1H12 UNL     1     -18.795 -35.470  19.611  1.00  0.00     0.158 HD
ENDBRANCH  42  45
ENDBRANCH  34  39
BRANCH  33  48
HETATM   48  O2  UNL     1     -17.512 -37.808  12.740  1.00  0.00    -0.344 OA
ATOM     49  H2  UNL     1     -18.351 -37.578  12.358  1.00  0.00     0.219 HD
ENDBRANCH  33  48
ENDBRANCH  30  33
ENDBRANCH   1  29
TORSDOF 12
ENDMDL
