MODEL 1
REMARK VINA RESULT: -6.940643081      0.000      0.000
REMARK  14 active torsions:
REMARK  status: ('A' for Active; 'I' for Inactive)
REMARK    1  A    between atoms: C2_2  and  N1_3 
REMARK    2  A    between atoms: N1_3  and  C3_5 
REMARK    3  A    between atoms: C4_8  and  N3_9 
REMARK    4  A    between atoms: C6_15  and  C7_16 
REMARK    5  A    between atoms: C8_19  and  O1_20 
REMARK    6  A    between atoms: C9_22  and  C10_23 
REMARK    7  A    between atoms: C10_23  and  C11_24 
REMARK    8  A    between atoms: C13_27  and  C14_28 
REMARK    9  A    between atoms: C14_28  and  N6_30 
REMARK   10  A    between atoms: N6_30  and  C16_33 
REMARK   11  A    between atoms: C16_33  and  C17_34 
REMARK   12  A    between atoms: C17_34  and  N7_35 
REMARK   13  A    between atoms: N8_39  and  N9_40 
REMARK   14  A    between atoms: N10_44  and  N11_46 
ROOT
HETATM    1  C7  UNL     1     -14.838 -34.254  11.937  1.00  0.00     0.097 A 
HETATM    2  N5  UNL     1     -13.892 -35.173  12.459  1.00  0.00    -0.331 N 
ATOM      3  H5  UNL     1     -13.511 -35.015  13.392  1.00  0.00     0.168 HD
HETATM    4  C8  UNL     1     -13.451 -36.324  11.711  1.00  0.00     0.166 A 
HETATM    5  C9  UNL     1     -13.886 -36.608  10.499  1.00  0.00     0.090 A 
HETATM    6  N8  UNL     1     -14.829 -35.734   9.921  1.00  0.00    -0.243 N 
HETATM    7  C21 UNL     1     -15.332 -34.550  10.601  1.00  0.00     0.169 A 
HETATM    8  N10 UNL     1     -16.192 -33.833  10.028  1.00  0.00    -0.289 N 
ATOM      9  H10 UNL     1     -16.541 -33.021  10.538  1.00  0.00     0.188 HD
ENDROOT
BRANCH   1  10
HETATM   10  C6  UNL     1     -15.243 -33.175  12.624  1.00  0.00     0.059 A 
HETATM   11  C5  UNL     1     -14.513 -31.983  12.750  1.00  0.00     0.174 A 
HETATM   12  N4  UNL     1     -13.331 -31.522  12.327  1.00  0.00    -0.173 N 
HETATM   13  N13 UNL     1     -15.262 -31.129  13.506  1.00  0.00    -0.068 N 
HETATM   14  C4  UNL     1     -12.875 -30.302  12.609  1.00  0.00     0.692 A 
ATOM     15  H4  UNL     1     -12.748 -32.136  11.760  1.00  0.00     0.186 HD
HETATM   16  N2  UNL     1     -13.637 -29.503  13.350  1.00  0.00    -0.021 N 
HETATM   17  C3  UNL     1     -14.848 -29.877  13.824  1.00  0.00     0.719 A 
ATOM     18  H2  UNL     1     -13.294 -28.568  13.569  1.00  0.00     0.203 HD
HETATM   19  N12 UNL     1     -16.376 -31.703  13.845  1.00  0.00    -0.288 N 
HETATM   20  C22 UNL     1     -16.406 -32.966  13.322  1.00  0.00     0.126 A 
ATOM     21  H12 UNL     1     -17.111 -31.280  14.411  1.00  0.00     0.187 HD
BRANCH  14  22
HETATM   22  N3  UNL     1     -11.705 -29.895  12.171  1.00  0.00    -0.234 N 
ATOM     23  H32 UNL     1     -11.567 -28.939  11.843  1.00  0.00     0.174 HD
ATOM     24  H31 UNL     1     -10.908 -30.531  12.151  1.00  0.00     0.174 HD
ENDBRANCH  14  22
BRANCH  17  25
HETATM   25  N1  UNL     1     -15.525 -29.068  14.519  1.00  0.00    -0.203 N 
ATOM     26  H1  UNL     1     -15.293 -29.081  15.512  1.00  0.00     0.183 HD
BRANCH  25  27
HETATM   27  C2  UNL     1     -16.542 -28.152  14.181  1.00  0.00     0.074 C 
HETATM   28  C1  UNL     1     -17.694 -28.227  15.175  1.00  0.00     0.055 C 
ENDBRANCH  25  27
ENDBRANCH  17  25
ENDBRANCH   1  10
BRANCH   4  29
HETATM   29  O1  UNL     1     -12.518 -37.142  12.354  1.00  0.00    -0.345 OA
ATOM     30  H1  UNL     1     -12.154 -37.843  11.827  1.00  0.00     0.219 HD
ENDBRANCH   4  29
BRANCH   6  31
HETATM   31  N9  UNL     1     -15.354 -35.952   8.638  1.00  0.00    -0.337 N 
ATOM     32  H92 UNL     1     -14.707 -36.375   7.972  1.00  0.00     0.177 HD
ATOM     33  H91 UNL     1     -16.313 -35.700   8.398  1.00  0.00     0.177 HD
ENDBRANCH   6  31
BRANCH   8  34
HETATM   34  N11 UNL     1     -16.698 -34.052   8.779  1.00  0.00    -0.344 N 
ATOM     35 2H11 UNL     1     -16.182 -33.635   8.004  1.00  0.00     0.176 HD
ATOM     36 1H11 UNL     1     -17.536 -34.594   8.570  1.00  0.00     0.176 HD
ENDBRANCH   8  34
BRANCH   5  37
HETATM   37  C10 UNL     1     -13.358 -37.797   9.868  1.00  0.00     0.103 C 
BRANCH  37  38
HETATM   38  C11 UNL     1     -14.333 -38.967   9.890  1.00  0.00    -0.045 A 
HETATM   39  C12 UNL     1     -14.649 -39.669   8.745  1.00  0.00     0.057 A 
HETATM   40  S1  UNL     1     -15.711 -40.870   9.291  1.00  0.00    -0.104 SA
HETATM   41  C13 UNL     1     -15.749 -40.477  10.948  1.00  0.00     0.013 A 
HETATM   42  C20 UNL     1     -14.915 -39.399  11.031  1.00  0.00     0.024 A 
BRANCH  41  43
HETATM   43  C14 UNL     1     -16.516 -41.145  12.067  1.00  0.00     0.221 C 
HETATM   44  C15 UNL     1     -15.714 -41.001  13.322  1.00  0.00     0.046 C 
BRANCH  43  45
HETATM   45  N6  UNL     1     -17.853 -40.610  12.152  1.00  0.00    -0.065 N 
ATOM     46  H62 UNL     1     -18.029 -39.928  11.414  1.00  0.00     0.278 HD
ATOM     47  H61 UNL     1     -18.550 -41.308  11.893  1.00  0.00     0.278 HD
BRANCH  45  48
HETATM   48  C16 UNL     1     -18.125 -40.052  13.466  1.00  0.00     0.263 C 
BRANCH  48  49
HETATM   49  C17 UNL     1     -18.695 -38.666  13.257  1.00  0.00     0.298 C 
BRANCH  49  50
HETATM   50  N7  UNL     1     -17.929 -37.662  13.965  1.00  0.00     0.081 N 
HETATM   51  C18 UNL     1     -16.899 -37.179  13.068  1.00  0.00     0.309 C 
HETATM   52  C19 UNL     1     -17.298 -38.156  15.158  1.00  0.00     0.309 C 
ENDBRANCH  49  50
ENDBRANCH  48  49
ENDBRANCH  45  48
ENDBRANCH  43  45
ENDBRANCH  41  43
ENDBRANCH  37  38
ENDBRANCH   5  37
TORSDOF 14
ENDMDL
MODEL 2
REMARK VINA RESULT: -6.880173525      3.363      9.907
REMARK  14 active torsions:
REMARK  status: ('A' for Active; 'I' for Inactive)
REMARK    1  A    between atoms: C2_2  and  N1_3 
REMARK    2  A    between atoms: N1_3  and  C3_5 
REMARK    3  A    between atoms: C4_8  and  N3_9 
REMARK    4  A    between atoms: C6_15  and  C7_16 
REMARK    5  A    between atoms: C8_19  and  O1_20 
REMARK    6  A    between atoms: C9_22  and  C10_23 
REMARK    7  A    between atoms: C10_23  and  C11_24 
REMARK    8  A    between atoms: C13_27  and  C14_28 
REMARK    9  A    between atoms: C14_28  and  N6_30 
REMARK   10  A    between atoms: N6_30  and  C16_33 
REMARK   11  A    between atoms: C16_33  and  C17_34 
REMARK   12  A    between atoms: C17_34  and  N7_35 
REMARK   13  A    between atoms: N8_39  and  N9_40 
REMARK   14  A    between atoms: N10_44  and  N11_46 
ROOT
HETATM    1  C7  UNL     1     -15.377 -35.954  10.586  1.00  0.00     0.097 A 
HETATM    2  N5  UNL     1     -14.439 -34.892  10.519  1.00  0.00    -0.331 N 
ATOM      3  H5  UNL     1     -14.000 -34.676   9.623  1.00  0.00     0.168 HD
HETATM    4  C8  UNL     1     -14.087 -34.109  11.676  1.00  0.00     0.166 A 
HETATM    5  C9  UNL     1     -14.600 -34.317  12.873  1.00  0.00     0.090 A 
HETATM    6  N8  UNL     1     -15.540 -35.358  13.009  1.00  0.00    -0.243 N 
HETATM    7  C21 UNL     1     -15.957 -36.199  11.898  1.00  0.00     0.169 A 
HETATM    8  N10 UNL     1     -16.820 -37.093  12.095  1.00  0.00    -0.289 N 
ATOM      9  H10 UNL     1     -17.108 -37.652  11.292  1.00  0.00     0.188 HD
ENDROOT
BRANCH   1  10
HETATM   10  C6  UNL     1     -15.701 -36.694   9.515  1.00  0.00     0.059 A 
HETATM   11  C5  UNL     1     -15.269 -38.010   9.288  1.00  0.00     0.174 A 
HETATM   12  N4  UNL     1     -14.493 -38.898   9.920  1.00  0.00    -0.173 N 
HETATM   13  N13 UNL     1     -15.818 -38.418   8.107  1.00  0.00    -0.068 N 
HETATM   14  C4  UNL     1     -14.248 -40.121   9.455  1.00  0.00     0.692 A 
ATOM     15  H4  UNL     1     -14.068 -38.623  10.805  1.00  0.00     0.186 HD
HETATM   16  N2  UNL     1     -14.803 -40.478   8.301  1.00  0.00    -0.021 N 
HETATM   17  C3  UNL     1     -15.602 -39.652   7.586  1.00  0.00     0.719 A 
ATOM     18  H2  UNL     1     -14.620 -41.413   7.939  1.00  0.00     0.203 HD
HETATM   19  N12 UNL     1     -16.541 -37.463   7.606  1.00  0.00    -0.288 N 
HETATM   20  C22 UNL     1     -16.497 -36.382   8.442  1.00  0.00     0.126 A 
ATOM     21  H12 UNL     1     -17.059 -37.512   6.729  1.00  0.00     0.187 HD
BRANCH  14  22
HETATM   22  N3  UNL     1     -13.478 -40.958  10.114  1.00  0.00    -0.234 N 
ATOM     23  H32 UNL     1     -13.623 -41.142  11.107  1.00  0.00     0.174 HD
ATOM     24  H31 UNL     1     -12.715 -41.443   9.642  1.00  0.00     0.174 HD
ENDBRANCH  14  22
BRANCH  17  25
HETATM   25  N1  UNL     1     -16.103 -40.052   6.498  1.00  0.00    -0.203 N 
ATOM     26  H1  UNL     1     -16.758 -39.394   6.077  1.00  0.00     0.183 HD
BRANCH  25  27
HETATM   27  C2  UNL     1     -15.927 -41.237   5.756  1.00  0.00     0.074 C 
HETATM   28  C1  UNL     1     -17.247 -41.979   5.593  1.00  0.00     0.055 C 
ENDBRANCH  25  27
ENDBRANCH  17  25
ENDBRANCH   1  10
BRANCH   4  29
HETATM   29  O1  UNL     1     -13.150 -33.094  11.457  1.00  0.00    -0.345 OA
ATOM     30  H1  UNL     1     -13.509 -32.252  11.203  1.00  0.00     0.219 HD
ENDBRANCH   4  29
BRANCH   6  31
HETATM   31  N9  UNL     1     -16.145 -35.655  14.240  1.00  0.00    -0.337 N 
ATOM     32  H92 UNL     1     -15.624 -36.302  14.833  1.00  0.00     0.177 HD
ATOM     33  H91 UNL     1     -17.040 -35.249  14.513  1.00  0.00     0.177 HD
ENDBRANCH   6  31
BRANCH   8  34
HETATM   34  N11 UNL     1     -17.404 -37.375  13.297  1.00  0.00    -0.344 N 
ATOM     35 2H11 UNL     1     -16.770 -37.572  14.071  1.00  0.00     0.176 HD
ATOM     36 1H11 UNL     1     -18.408 -37.401  13.472  1.00  0.00     0.176 HD
ENDBRANCH   8  34
BRANCH   5  37
HETATM   37  C10 UNL     1     -14.155 -33.451  13.943  1.00  0.00     0.103 C 
BRANCH  37  38
HETATM   38  C11 UNL     1     -14.881 -32.112  13.968  1.00  0.00    -0.045 A 
HETATM   39  C12 UNL     1     -16.243 -32.030  14.178  1.00  0.00     0.057 A 
HETATM   40  S1  UNL     1     -16.551 -30.365  14.162  1.00  0.00    -0.104 SA
HETATM   41  C13 UNL     1     -14.970 -29.791  13.891  1.00  0.00     0.013 A 
HETATM   42  C20 UNL     1     -14.231 -30.937  13.819  1.00  0.00     0.024 A 
BRANCH  41  43
HETATM   43  C14 UNL     1     -14.486 -28.365  13.756  1.00  0.00     0.221 C 
HETATM   44  C15 UNL     1     -14.368 -27.787  15.131  1.00  0.00     0.046 C 
BRANCH  43  45
HETATM   45  N6  UNL     1     -13.267 -28.316  12.985  1.00  0.00    -0.065 N 
ATOM     46  H62 UNL     1     -13.067 -29.215  12.547  1.00  0.00     0.278 HD
ATOM     47  H61 UNL     1     -13.382 -27.752  12.143  1.00  0.00     0.278 HD
BRANCH  45  48
HETATM   48  C16 UNL     1     -12.145 -27.854  13.783  1.00  0.00     0.263 C 
BRANCH  48  49
HETATM   49  C17 UNL     1     -10.907 -27.949  12.918  1.00  0.00     0.298 C 
BRANCH  49  50
HETATM   50  N7  UNL     1      -9.712 -27.597  13.656  1.00  0.00     0.081 N 
HETATM   51  C18 UNL     1      -9.757 -26.172  13.913  1.00  0.00     0.309 C 
HETATM   52  C19 UNL     1      -8.495 -27.894  12.953  1.00  0.00     0.309 C 
ENDBRANCH  49  50
ENDBRANCH  48  49
ENDBRANCH  45  48
ENDBRANCH  43  45
ENDBRANCH  41  43
ENDBRANCH  37  38
ENDBRANCH   5  37
TORSDOF 14
ENDMDL
MODEL 3
REMARK VINA RESULT: -6.716017002      8.585     14.422
REMARK  14 active torsions:
REMARK  status: ('A' for Active; 'I' for Inactive)
REMARK    1  A    between atoms: C2_2  and  N1_3 
REMARK    2  A    between atoms: N1_3  and  C3_5 
REMARK    3  A    between atoms: C4_8  and  N3_9 
REMARK    4  A    between atoms: C6_15  and  C7_16 
REMARK    5  A    between atoms: C8_19  and  O1_20 
REMARK    6  A    between atoms: C9_22  and  C10_23 
REMARK    7  A    between atoms: C10_23  and  C11_24 
REMARK    8  A    between atoms: C13_27  and  C14_28 
REMARK    9  A    between atoms: C14_28  and  N6_30 
REMARK   10  A    between atoms: N6_30  and  C16_33 
REMARK   11  A    between atoms: C16_33  and  C17_34 
REMARK   12  A    between atoms: C17_34  and  N7_35 
REMARK   13  A    between atoms: N8_39  and  N9_40 
REMARK   14  A    between atoms: N10_44  and  N11_46 
ROOT
HETATM    1  C7  UNL     1     -10.681 -25.817  14.378  1.00  0.00     0.097 A 
HETATM    2  N5  UNL     1     -11.313 -25.418  15.583  1.00  0.00    -0.331 N 
ATOM      3  H5  UNL     1     -11.908 -26.086  16.075  1.00  0.00     0.168 HD
HETATM    4  C8  UNL     1     -11.142 -24.098  16.136  1.00  0.00     0.166 A 
HETATM    5  C9  UNL     1     -10.395 -23.169  15.572  1.00  0.00     0.090 A 
HETATM    6  N8  UNL     1      -9.738 -23.501  14.369  1.00  0.00    -0.243 N 
HETATM    7  C21 UNL     1      -9.851 -24.806  13.739  1.00  0.00     0.169 A 
HETATM    8  N10 UNL     1      -9.213 -25.033  12.679  1.00  0.00    -0.289 N 
ATOM      9  H10 UNL     1      -9.296 -25.964  12.272  1.00  0.00     0.188 HD
ENDROOT
BRANCH   1  10
HETATM   10  C6  UNL     1     -10.846 -27.040  13.852  1.00  0.00     0.059 A 
HETATM   11  C5  UNL     1     -12.043 -27.773  13.885  1.00  0.00     0.174 A 
HETATM   12  N4  UNL     1     -13.275 -27.594  14.372  1.00  0.00    -0.173 N 
HETATM   13  N13 UNL     1     -11.811 -28.953  13.239  1.00  0.00    -0.068 N 
HETATM   14  C4  UNL     1     -14.250 -28.494  14.253  1.00  0.00     0.692 A 
ATOM     15  H4  UNL     1     -13.479 -26.723  14.861  1.00  0.00     0.186 HD
HETATM   16  N2  UNL     1     -13.981 -29.630  13.616  1.00  0.00    -0.021 N 
HETATM   17  C3  UNL     1     -12.766 -29.905  13.088  1.00  0.00     0.719 A 
ATOM     18  H2  UNL     1     -14.722 -30.324  13.521  1.00  0.00     0.203 HD
HETATM   19  N12 UNL     1     -10.583 -28.992  12.821  1.00  0.00    -0.288 N 
HETATM   20  C22 UNL     1      -9.951 -27.832  13.178  1.00  0.00     0.126 A 
ATOM     21  H12 UNL     1     -10.156 -29.764  12.309  1.00  0.00     0.187 HD
BRANCH  14  22
HETATM   22  N3  UNL     1     -15.446 -28.272  14.750  1.00  0.00    -0.234 N 
ATOM     23  H32 UNL     1     -15.694 -27.366  15.146  1.00  0.00     0.174 HD
ATOM     24  H31 UNL     1     -16.153 -29.007  14.749  1.00  0.00     0.174 HD
ENDBRANCH  14  22
BRANCH  17  25
HETATM   25  N1  UNL     1     -12.576 -31.001  12.491  1.00  0.00    -0.203 N 
ATOM     26  H1  UNL     1     -11.882 -30.952  11.745  1.00  0.00     0.183 HD
BRANCH  25  27
HETATM   27  C2  UNL     1     -13.142 -32.281  12.662  1.00  0.00     0.074 C 
HETATM   28  C1  UNL     1     -13.892 -32.716  11.409  1.00  0.00     0.055 C 
ENDBRANCH  25  27
ENDBRANCH  17  25
ENDBRANCH   1  10
BRANCH   4  29
HETATM   29  O1  UNL     1     -11.824 -23.850  17.331  1.00  0.00    -0.345 OA
ATOM     30  H1  UNL     1     -11.971 -24.607  17.885  1.00  0.00     0.219 HD
ENDBRANCH   4  29
BRANCH   6  31
HETATM   31  N9  UNL     1      -8.919 -22.582  13.694  1.00  0.00    -0.337 N 
ATOM     32  H92 UNL     1      -9.001 -21.616  14.010  1.00  0.00     0.177 HD
ATOM     33  H91 UNL     1      -8.292 -22.870  12.943  1.00  0.00     0.177 HD
ENDBRANCH   6  31
BRANCH   8  34
HETATM   34  N11 UNL     1      -8.418 -24.134  12.028  1.00  0.00    -0.344 N 
ATOM     35 2H11 UNL     1      -8.843 -23.233  11.808  1.00  0.00     0.176 HD
ATOM     36 1H11 UNL     1      -7.450 -24.295  11.753  1.00  0.00     0.176 HD
ENDBRANCH   8  34
BRANCH   5  37
HETATM   37  C10 UNL     1     -10.313 -21.889  16.240  1.00  0.00     0.103 C 
BRANCH  37  38
HETATM   38  C11 UNL     1      -9.240 -21.849  17.320  1.00  0.00    -0.045 A 
HETATM   39  C12 UNL     1      -7.909 -22.070  17.028  1.00  0.00     0.057 A 
HETATM   40  S1  UNL     1      -7.134 -21.875  18.521  1.00  0.00    -0.104 SA
HETATM   41  C13 UNL     1      -8.485 -21.520  19.494  1.00  0.00     0.013 A 
HETATM   42  C20 UNL     1      -9.525 -21.564  18.610  1.00  0.00     0.024 A 
BRANCH  41  43
HETATM   43  C14 UNL     1      -8.541 -21.229  20.977  1.00  0.00     0.221 C 
HETATM   44  C15 UNL     1      -9.971 -20.985  21.344  1.00  0.00     0.046 C 
BRANCH  43  45
HETATM   45  N6  UNL     1      -7.909 -22.289  21.724  1.00  0.00    -0.065 N 
ATOM     46  H62 UNL     1      -7.048 -22.600  21.273  1.00  0.00     0.278 HD
ATOM     47  H61 UNL     1      -7.513 -21.943  22.598  1.00  0.00     0.278 HD
BRANCH  45  48
HETATM   48  C16 UNL     1      -8.817 -23.398  21.956  1.00  0.00     0.263 C 
BRANCH  48  49
HETATM   49  C17 UNL     1      -8.147 -24.648  21.426  1.00  0.00     0.298 C 
BRANCH  49  50
HETATM   50  N7  UNL     1      -9.058 -25.448  20.636  1.00  0.00     0.081 N 
HETATM   51  C18 UNL     1      -8.643 -26.832  20.753  1.00  0.00     0.309 C 
HETATM   52  C19 UNL     1      -9.074 -25.095  19.244  1.00  0.00     0.309 C 
ENDBRANCH  49  50
ENDBRANCH  48  49
ENDBRANCH  45  48
ENDBRANCH  43  45
ENDBRANCH  41  43
ENDBRANCH  37  38
ENDBRANCH   5  37
TORSDOF 14
ENDMDL
MODEL 4
REMARK VINA RESULT: -6.703055500      1.582      2.175
REMARK  14 active torsions:
REMARK  status: ('A' for Active; 'I' for Inactive)
REMARK    1  A    between atoms: C2_2  and  N1_3 
REMARK    2  A    between atoms: N1_3  and  C3_5 
REMARK    3  A    between atoms: C4_8  and  N3_9 
REMARK    4  A    between atoms: C6_15  and  C7_16 
REMARK    5  A    between atoms: C8_19  and  O1_20 
REMARK    6  A    between atoms: C9_22  and  C10_23 
REMARK    7  A    between atoms: C10_23  and  C11_24 
REMARK    8  A    between atoms: C13_27  and  C14_28 
REMARK    9  A    between atoms: C14_28  and  N6_30 
REMARK   10  A    between atoms: N6_30  and  C16_33 
REMARK   11  A    between atoms: C16_33  and  C17_34 
REMARK   12  A    between atoms: C17_34  and  N7_35 
REMARK   13  A    between atoms: N8_39  and  N9_40 
REMARK   14  A    between atoms: N10_44  and  N11_46 
ROOT
HETATM    1  C7  UNL     1     -15.255 -34.834  10.556  1.00  0.00     0.097 A 
HETATM    2  N5  UNL     1     -14.226 -35.616  11.141  1.00  0.00    -0.331 N 
ATOM      3  H5  UNL     1     -13.729 -35.251  11.954  1.00  0.00     0.168 HD
HETATM    4  C8  UNL     1     -13.861 -36.911  10.623  1.00  0.00     0.166 A 
HETATM    5  C9  UNL     1     -14.446 -37.462   9.577  1.00  0.00     0.090 A 
HETATM    6  N8  UNL     1     -15.479 -36.737   8.948  1.00  0.00    -0.243 N 
HETATM    7  C21 UNL     1     -15.915 -35.426   9.402  1.00  0.00     0.169 A 
HETATM    8  N10 UNL     1     -16.861 -34.853   8.802  1.00  0.00    -0.289 N 
ATOM      9  H10 UNL     1     -17.158 -33.944   9.156  1.00  0.00     0.188 HD
ENDROOT
BRANCH   1  10
HETATM   10  C6  UNL     1     -15.592 -33.624  11.027  1.00  0.00     0.059 A 
HETATM   11  C5  UNL     1     -15.845 -33.329  12.376  1.00  0.00     0.174 A 
HETATM   12  N4  UNL     1     -15.864 -34.008  13.528  1.00  0.00    -0.173 N 
HETATM   13  N13 UNL     1     -16.140 -31.999  12.450  1.00  0.00    -0.068 N 
HETATM   14  C4  UNL     1     -16.149 -33.450  14.704  1.00  0.00     0.692 A 
ATOM     15  H4  UNL     1     -15.648 -35.004  13.506  1.00  0.00     0.186 HD
HETATM   16  N2  UNL     1     -16.430 -32.151  14.731  1.00  0.00    -0.021 N 
HETATM   17  C3  UNL     1     -16.438 -31.379  13.619  1.00  0.00     0.719 A 
ATOM     18  H2  UNL     1     -16.650 -31.717  15.627  1.00  0.00     0.203 HD
HETATM   19  N12 UNL     1     -16.085 -31.470  11.266  1.00  0.00    -0.288 N 
HETATM   20  C22 UNL     1     -15.751 -32.437  10.358  1.00  0.00     0.126 A 
ATOM     21  H12 UNL     1     -16.264 -30.490  11.047  1.00  0.00     0.187 HD
BRANCH  14  22
HETATM   22  N3  UNL     1     -16.155 -34.159  15.810  1.00  0.00    -0.234 N 
ATOM     23  H32 UNL     1     -15.531 -34.958  15.930  1.00  0.00     0.174 HD
ATOM     24  H31 UNL     1     -16.787 -33.923  16.575  1.00  0.00     0.174 HD
ENDBRANCH  14  22
BRANCH  17  25
HETATM   25  N1  UNL     1     -16.709 -30.149  13.712  1.00  0.00    -0.203 N 
ATOM     26  H1  UNL     1     -17.307 -29.799  12.963  1.00  0.00     0.183 HD
BRANCH  25  27
HETATM   27  C2  UNL     1     -16.342 -29.169  14.657  1.00  0.00     0.074 C 
HETATM   28  C1  UNL     1     -17.544 -28.321  15.056  1.00  0.00     0.055 C 
ENDBRANCH  25  27
ENDBRANCH  17  25
ENDBRANCH   1  10
BRANCH   4  29
HETATM   29  O1  UNL     1     -12.831 -37.567  11.304  1.00  0.00    -0.345 OA
ATOM     30  H1  UNL     1     -12.931 -37.621  12.247  1.00  0.00     0.219 HD
ENDBRANCH   4  29
BRANCH   6  31
HETATM   31  N9  UNL     1     -16.164 -37.239   7.831  1.00  0.00    -0.337 N 
ATOM     32  H92 UNL     1     -16.347 -38.242   7.851  1.00  0.00     0.177 HD
ATOM     33  H91 UNL     1     -16.451 -36.637   7.060  1.00  0.00     0.177 HD
ENDBRANCH   6  31
BRANCH   8  34
HETATM   34  N11 UNL     1     -17.522 -35.349   7.716  1.00  0.00    -0.344 N 
ATOM     35 2H11 UNL     1     -18.030 -36.223   7.857  1.00  0.00     0.176 HD
ATOM     36 1H11 UNL     1     -17.545 -34.917   6.792  1.00  0.00     0.176 HD
ENDBRANCH   8  34
BRANCH   5  37
HETATM   37  C10 UNL     1     -13.978 -38.768   9.169  1.00  0.00     0.103 C 
BRANCH  37  38
HETATM   38  C11 UNL     1     -14.959 -39.884   9.503  1.00  0.00    -0.045 A 
HETATM   39  C12 UNL     1     -15.328 -40.829   8.567  1.00  0.00     0.057 A 
HETATM   40  S1  UNL     1     -16.373 -41.852   9.420  1.00  0.00    -0.104 SA
HETATM   41  C13 UNL     1     -16.338 -41.083  10.940  1.00  0.00     0.013 A 
HETATM   42  C20 UNL     1     -15.494 -40.029  10.736  1.00  0.00     0.024 A 
BRANCH  41  43
HETATM   43  C14 UNL     1     -17.061 -41.459  12.214  1.00  0.00     0.221 C 
HETATM   44  C15 UNL     1     -16.124 -41.227  13.358  1.00  0.00     0.046 C 
BRANCH  43  45
HETATM   45  N6  UNL     1     -18.311 -40.745  12.315  1.00  0.00    -0.065 N 
ATOM     46  H62 UNL     1     -18.450 -40.123  11.519  1.00  0.00     0.278 HD
ATOM     47  H61 UNL     1     -19.106 -41.367  12.172  1.00  0.00     0.278 HD
BRANCH  45  48
HETATM   48  C16 UNL     1     -18.418 -40.028  13.574  1.00  0.00     0.263 C 
BRANCH  48  49
HETATM   49  C17 UNL     1     -18.892 -38.626  13.255  1.00  0.00     0.298 C 
BRANCH  49  50
HETATM   50  N7  UNL     1     -17.975 -37.626  13.759  1.00  0.00     0.081 N 
HETATM   51  C18 UNL     1     -17.000 -37.359  12.722  1.00  0.00     0.309 C 
HETATM   52  C19 UNL     1     -17.276 -38.033  14.946  1.00  0.00     0.309 C 
ENDBRANCH  49  50
ENDBRANCH  48  49
ENDBRANCH  45  48
ENDBRANCH  43  45
ENDBRANCH  41  43
ENDBRANCH  37  38
ENDBRANCH   5  37
TORSDOF 14
ENDMDL
MODEL 5
REMARK VINA RESULT: -6.687899241      1.262      1.955
REMARK  14 active torsions:
REMARK  status: ('A' for Active; 'I' for Inactive)
REMARK    1  A    between atoms: C2_2  and  N1_3 
REMARK    2  A    between atoms: N1_3  and  C3_5 
REMARK    3  A    between atoms: C4_8  and  N3_9 
REMARK    4  A    between atoms: C6_15  and  C7_16 
REMARK    5  A    between atoms: C8_19  and  O1_20 
REMARK    6  A    between atoms: C9_22  and  C10_23 
REMARK    7  A    between atoms: C10_23  and  C11_24 
REMARK    8  A    between atoms: C13_27  and  C14_28 
REMARK    9  A    between atoms: C14_28  and  N6_30 
REMARK   10  A    between atoms: N6_30  and  C16_33 
REMARK   11  A    between atoms: C16_33  and  C17_34 
REMARK   12  A    between atoms: C17_34  and  N7_35 
REMARK   13  A    between atoms: N8_39  and  N9_40 
REMARK   14  A    between atoms: N10_44  and  N11_46 
ROOT
HETATM    1  C7  UNL     1     -14.807 -34.104  12.054  1.00  0.00     0.097 A 
HETATM    2  N5  UNL     1     -13.874 -35.042  12.566  1.00  0.00    -0.331 N 
ATOM      3  H5  UNL     1     -13.475 -34.888  13.492  1.00  0.00     0.168 HD
HETATM    4  C8  UNL     1     -13.472 -36.207  11.818  1.00  0.00     0.166 A 
HETATM    5  C9  UNL     1     -13.932 -36.487  10.614  1.00  0.00     0.090 A 
HETATM    6  N8  UNL     1     -14.865 -35.594  10.047  1.00  0.00    -0.243 N 
HETATM    7  C21 UNL     1     -15.328 -34.396  10.728  1.00  0.00     0.169 A 
HETATM    8  N10 UNL     1     -16.181 -33.662  10.165  1.00  0.00    -0.289 N 
ATOM      9  H10 UNL     1     -16.503 -32.840  10.676  1.00  0.00     0.188 HD
ENDROOT
BRANCH   1  10
HETATM   10  C6  UNL     1     -15.176 -33.013  12.742  1.00  0.00     0.059 A 
HETATM   11  C5  UNL     1     -14.431 -31.826  12.824  1.00  0.00     0.174 A 
HETATM   12  N4  UNL     1     -13.262 -31.381  12.350  1.00  0.00    -0.173 N 
HETATM   13  N13 UNL     1     -15.144 -30.955  13.597  1.00  0.00    -0.068 N 
HETATM   14  C4  UNL     1     -12.785 -30.163  12.598  1.00  0.00     0.692 A 
ATOM     15  H4  UNL     1     -12.707 -32.008  11.770  1.00  0.00     0.186 HD
HETATM   16  N2  UNL     1     -13.511 -29.346  13.356  1.00  0.00    -0.021 N 
HETATM   17  C3  UNL     1     -14.706 -29.703  13.882  1.00  0.00     0.719 A 
ATOM     18  H2  UNL     1     -13.152 -28.412  13.550  1.00  0.00     0.203 HD
HETATM   19  N12 UNL     1     -16.248 -31.515  13.986  1.00  0.00    -0.288 N 
HETATM   20  C22 UNL     1     -16.310 -32.784  13.481  1.00  0.00     0.126 A 
ATOM     21  H12 UNL     1     -16.958 -31.077  14.573  1.00  0.00     0.187 HD
BRANCH  14  22
HETATM   22  N3  UNL     1     -11.629 -29.772  12.110  1.00  0.00    -0.234 N 
ATOM     23  H32 UNL     1     -10.770 -29.857  12.653  1.00  0.00     0.174 HD
ATOM     24  H31 UNL     1     -11.570 -29.373  11.174  1.00  0.00     0.174 HD
ENDBRANCH  14  22
BRANCH  17  25
HETATM   25  N1  UNL     1     -15.349 -28.879  14.592  1.00  0.00    -0.203 N 
ATOM     26  H1  UNL     1     -15.045 -28.845  15.564  1.00  0.00     0.183 HD
BRANCH  25  27
HETATM   27  C2  UNL     1     -16.409 -27.999  14.292  1.00  0.00     0.074 C 
HETATM   28  C1  UNL     1     -17.630 -28.305  15.151  1.00  0.00     0.055 C 
ENDBRANCH  25  27
ENDBRANCH  17  25
ENDBRANCH   1  10
BRANCH   4  29
HETATM   29  O1  UNL     1     -12.547 -37.043  12.451  1.00  0.00    -0.345 OA
ATOM     30  H1  UNL     1     -11.656 -36.990  12.126  1.00  0.00     0.219 HD
ENDBRANCH   4  29
BRANCH   6  31
HETATM   31  N9  UNL     1     -15.414 -35.806   8.773  1.00  0.00    -0.337 N 
ATOM     32  H92 UNL     1     -14.863 -36.405   8.158  1.00  0.00     0.177 HD
ATOM     33  H91 UNL     1     -16.301 -35.387   8.492  1.00  0.00     0.177 HD
ENDBRANCH   6  31
BRANCH   8  34
HETATM   34  N11 UNL     1     -16.712 -33.876   8.925  1.00  0.00    -0.344 N 
ATOM     35 2H11 UNL     1     -17.538 -34.473   8.885  1.00  0.00     0.176 HD
ATOM     36 1H11 UNL     1     -16.348 -33.490   8.054  1.00  0.00     0.176 HD
ENDBRANCH   8  34
BRANCH   5  37
HETATM   37  C10 UNL     1     -13.442 -37.692   9.982  1.00  0.00     0.103 C 
BRANCH  37  38
HETATM   38  C11 UNL     1     -14.397 -38.869  10.121  1.00  0.00    -0.045 A 
HETATM   39  C12 UNL     1     -14.570 -39.787   9.105  1.00  0.00     0.057 A 
HETATM   40  S1  UNL     1     -15.671 -40.899   9.751  1.00  0.00    -0.104 SA
HETATM   41  C13 UNL     1     -15.903 -40.201  11.288  1.00  0.00     0.013 A 
HETATM   42  C20 UNL     1     -15.099 -39.098  11.253  1.00  0.00     0.024 A 
BRANCH  41  43
HETATM   43  C14 UNL     1     -16.784 -40.672  12.424  1.00  0.00     0.221 C 
HETATM   44  C15 UNL     1     -15.924 -40.817  13.641  1.00  0.00     0.046 C 
BRANCH  43  45
HETATM   45  N6  UNL     1     -17.908 -39.783  12.593  1.00  0.00    -0.065 N 
ATOM     46  H62 UNL     1     -17.667 -38.987  13.183  1.00  0.00     0.278 HD
ATOM     47  H61 UNL     1     -18.120 -39.283  11.730  1.00  0.00     0.278 HD
BRANCH  45  48
HETATM   48  C16 UNL     1     -19.075 -40.485  13.100  1.00  0.00     0.263 C 
BRANCH  48  49
HETATM   49  C17 UNL     1     -19.437 -41.548  12.085  1.00  0.00     0.298 C 
BRANCH  49  50
HETATM   50  N7  UNL     1     -20.851 -41.531  11.777  1.00  0.00     0.081 N 
HETATM   51  C18 UNL     1     -21.562 -42.015  12.943  1.00  0.00     0.309 C 
HETATM   52  C19 UNL     1     -21.204 -42.357  10.655  1.00  0.00     0.309 C 
ENDBRANCH  49  50
ENDBRANCH  48  49
ENDBRANCH  45  48
ENDBRANCH  43  45
ENDBRANCH  41  43
ENDBRANCH  37  38
ENDBRANCH   5  37
TORSDOF 14
ENDMDL
