MODEL 1
REMARK VINA RESULT: -5.938643324      0.000      0.000
REMARK  1 active torsions:
REMARK  status: ('A' for Active; 'I' for Inactive)
REMARK    1  A    between atoms: C3_4  and  C4_5 
ROOT
HETATM    1  C4  UNL     1     -29.043   2.925  46.925  1.00  0.00    -0.012 C 
HETATM    2  C5  UNL     1     -29.132   1.721  45.985  1.00  0.00     0.017 C 
HETATM    3  C6  UNL     1     -28.145   1.874  44.861  1.00  0.00    -0.013 C 
HETATM    4  C7  UNL     1     -26.760   1.946  45.436  1.00  0.00     0.009 C 
HETATM    5  C8  UNL     1     -26.690   3.140  46.350  1.00  0.00    -0.013 C 
HETATM    6  C9  UNL     1     -26.989   4.424  45.644  1.00  0.00     0.009 C 
HETATM    7  C10 UNL     1     -28.364   4.344  45.015  1.00  0.00    -0.013 C 
HETATM    8  C11 UNL     1     -28.506   3.142  44.112  1.00  0.00     0.009 C 
HETATM    9  C12 UNL     1     -29.358   4.193  46.151  1.00  0.00     0.017 C 
HETATM   10  C13 UNL     1     -27.667   2.962  47.494  1.00  0.00     0.017 C 
ENDROOT
BRANCH   1  11
HETATM   11  C3  UNL     1     -30.125   2.750  47.954  1.00  0.00     0.145 C 
HETATM   12  C2  UNL     1     -29.998   1.571  48.853  1.00  0.00     0.110 C 
HETATM   13  C1  UNL     1     -30.447   2.556  49.868  1.00  0.00     0.115 C 
HETATM   14  S1  UNL     1     -31.087   2.492  51.358  1.00  0.00    -0.058 SA
HETATM   15  O1  UNL     1     -30.104   3.617  49.042  1.00  0.00    -0.337 OA
ENDBRANCH   1  11
TORSDOF 1
ENDMDL
MODEL 2
REMARK VINA RESULT: -5.845756816      0.166      1.941
REMARK  1 active torsions:
REMARK  status: ('A' for Active; 'I' for Inactive)
REMARK    1  A    between atoms: C3_4  and  C4_5 
ROOT
HETATM    1  C4  UNL     1     -29.200   2.917  46.749  1.00  0.00    -0.012 C 
HETATM    2  C5  UNL     1     -27.852   3.042  47.462  1.00  0.00     0.017 C 
HETATM    3  C6  UNL     1     -26.751   3.213  46.453  1.00  0.00    -0.013 C 
HETATM    4  C7  UNL     1     -27.005   4.465  45.663  1.00  0.00     0.009 C 
HETATM    5  C8  UNL     1     -28.330   4.320  44.963  1.00  0.00    -0.013 C 
HETATM    6  C9  UNL     1     -28.366   3.147  44.036  1.00  0.00     0.009 C 
HETATM    7  C10 UNL     1     -28.060   1.884  44.812  1.00  0.00    -0.013 C 
HETATM    8  C11 UNL     1     -26.755   1.983  45.565  1.00  0.00     0.009 C 
HETATM    9  C12 UNL     1     -29.173   1.711  45.826  1.00  0.00     0.017 C 
HETATM   10  C13 UNL     1     -29.435   4.177  45.990  1.00  0.00     0.017 C 
ENDROOT
BRANCH   1  11
HETATM   11  C3  UNL     1     -30.227   2.644  47.811  1.00  0.00     0.145 C 
HETATM   12  C2  UNL     1     -29.919   1.540  48.760  1.00  0.00     0.110 C 
HETATM   13  C1  UNL     1     -30.483   2.501  49.740  1.00  0.00     0.115 C 
HETATM   14  S1  UNL     1     -31.080   2.421  51.248  1.00  0.00    -0.058 SA
HETATM   15  O1  UNL     1     -30.308   3.558  48.858  1.00  0.00    -0.337 OA
ENDBRANCH   1  11
TORSDOF 1
ENDMDL
MODEL 3
REMARK VINA RESULT: -5.822300853      0.250      1.925
REMARK  1 active torsions:
REMARK  status: ('A' for Active; 'I' for Inactive)
REMARK    1  A    between atoms: C3_4  and  C4_5 
ROOT
HETATM    1  C4  UNL     1     -29.089   2.912  46.814  1.00  0.00    -0.012 C 
HETATM    2  C5  UNL     1     -29.371   4.176  46.000  1.00  0.00     0.017 C 
HETATM    3  C6  UNL     1     -28.341   4.329  44.916  1.00  0.00    -0.013 C 
HETATM    4  C7  UNL     1     -28.409   3.136  44.008  1.00  0.00     0.009 C 
HETATM    5  C8  UNL     1     -28.120   1.905  44.823  1.00  0.00    -0.013 C 
HETATM    6  C9  UNL     1     -26.772   1.945  45.471  1.00  0.00     0.009 C 
HETATM    7  C10 UNL     1     -26.673   3.174  46.349  1.00  0.00    -0.013 C 
HETATM    8  C11 UNL     1     -26.987   4.441  45.591  1.00  0.00     0.009 C 
HETATM    9  C12 UNL     1     -27.710   3.016  47.443  1.00  0.00     0.017 C 
HETATM   10  C13 UNL     1     -29.180   1.745  45.894  1.00  0.00     0.017 C 
ENDROOT
BRANCH   1  11
HETATM   11  C3  UNL     1     -30.090   2.888  47.934  1.00  0.00     0.145 C 
HETATM   12  C2  UNL     1     -29.902   1.832  48.966  1.00  0.00     0.110 C 
HETATM   13  C1  UNL     1     -30.267   2.946  49.876  1.00  0.00     0.115 C 
HETATM   14  S1  UNL     1     -30.792   3.083  51.406  1.00  0.00    -0.058 SA
HETATM   15  O1  UNL     1     -29.982   3.886  48.897  1.00  0.00    -0.337 OA
ENDBRANCH   1  11
TORSDOF 1
ENDMDL
MODEL 4
REMARK VINA RESULT: -5.640651875      0.946      2.075
REMARK  1 active torsions:
REMARK  status: ('A' for Active; 'I' for Inactive)
REMARK    1  A    between atoms: C3_4  and  C4_5 
ROOT
HETATM    1  C4  UNL     1     -28.675   2.942  47.408  1.00  0.00    -0.012 C 
HETATM    2  C5  UNL     1     -27.150   2.921  47.297  1.00  0.00     0.017 C 
HETATM    3  C6  UNL     1     -26.739   3.024  45.855  1.00  0.00    -0.013 C 
HETATM    4  C7  UNL     1     -27.254   4.317  45.293  1.00  0.00     0.009 C 
HETATM    5  C8  UNL     1     -28.755   4.315  45.402  1.00  0.00    -0.013 C 
HETATM    6  C9  UNL     1     -29.385   3.179  44.661  1.00  0.00     0.009 C 
HETATM    7  C10 UNL     1     -28.834   1.870  45.184  1.00  0.00    -0.013 C 
HETATM    8  C11 UNL     1     -27.326   1.827  45.131  1.00  0.00     0.009 C 
HETATM    9  C12 UNL     1     -29.253   1.767  46.638  1.00  0.00     0.017 C 
HETATM   10  C13 UNL     1     -29.157   4.241  46.862  1.00  0.00     0.017 C 
ENDROOT
BRANCH   1  11
HETATM   11  C3  UNL     1     -29.006   2.730  48.859  1.00  0.00     0.145 C 
HETATM   12  C2  UNL     1     -30.015   3.651  49.449  1.00  0.00     0.110 C 
HETATM   13  C1  UNL     1     -30.476   2.398  50.096  1.00  0.00     0.115 C 
HETATM   14  S1  UNL     1     -31.406   2.013  51.371  1.00  0.00    -0.058 SA
HETATM   15  O1  UNL     1     -29.791   1.625  49.170  1.00  0.00    -0.337 OA
ENDBRANCH   1  11
TORSDOF 1
ENDMDL
MODEL 5
REMARK VINA RESULT: -5.536395705      0.934      2.171
REMARK  1 active torsions:
REMARK  status: ('A' for Active; 'I' for Inactive)
REMARK    1  A    between atoms: C3_4  and  C4_5 
ROOT
HETATM    1  C4  UNL     1     -28.648   2.914  47.387  1.00  0.00    -0.012 C 
HETATM    2  C5  UNL     1     -29.213   4.240  46.874  1.00  0.00     0.017 C 
HETATM    3  C6  UNL     1     -28.792   4.460  45.448  1.00  0.00    -0.013 C 
HETATM    4  C7  UNL     1     -29.327   3.340  44.604  1.00  0.00     0.009 C 
HETATM    5  C8  UNL     1     -28.753   2.047  45.117  1.00  0.00    -0.013 C 
HETATM    6  C9  UNL     1     -27.259   2.019  45.069  1.00  0.00     0.009 C 
HETATM    7  C10 UNL     1     -26.708   3.177  45.874  1.00  0.00    -0.013 C 
HETATM    8  C11 UNL     1     -27.276   4.502  45.426  1.00  0.00     0.009 C 
HETATM    9  C12 UNL     1     -27.131   2.950  47.312  1.00  0.00     0.017 C 
HETATM   10  C13 UNL     1     -29.208   1.821  46.545  1.00  0.00     0.017 C 
ENDROOT
BRANCH   1  11
HETATM   11  C3  UNL     1     -29.021   2.818  48.840  1.00  0.00     0.145 C 
HETATM   12  C2  UNL     1     -30.208   3.606  49.270  1.00  0.00     0.110 C 
HETATM   13  C1  UNL     1     -30.483   2.376  50.053  1.00  0.00     0.115 C 
HETATM   14  S1  UNL     1     -31.405   1.983  51.331  1.00  0.00    -0.058 SA
HETATM   15  O1  UNL     1     -29.620   1.635  49.258  1.00  0.00    -0.337 OA
ENDBRANCH   1  11
TORSDOF 1
ENDMDL
