MODEL 1
REMARK VINA RESULT: -5.809140868      0.000      0.000
REMARK  1 active torsions:
REMARK  status: ('A' for Active; 'I' for Inactive)
REMARK    1  A    between atoms: N1_3  and  C3_4 
ROOT
HETATM    1  C3  UNL     1     -28.947   3.020  47.117  1.00  0.00     0.037 C 
HETATM    2  C4  UNL     1     -29.276   4.260  46.321  1.00  0.00     0.036 C 
HETATM    3  C5  UNL     1     -28.467   4.317  45.059  1.00  0.00    -0.012 C 
HETATM    4  C6  UNL     1     -28.682   3.116  44.177  1.00  0.00     0.009 C 
HETATM    5  C7  UNL     1     -28.317   1.884  44.957  1.00  0.00    -0.012 C 
HETATM    6  C8  UNL     1     -26.891   1.912  45.384  1.00  0.00     0.009 C 
HETATM    7  C9  UNL     1     -26.630   3.169  46.166  1.00  0.00    -0.012 C 
HETATM    8  C10 UNL     1     -26.995   4.405  45.367  1.00  0.00     0.009 C 
HETATM    9  C11 UNL     1     -27.466   3.092  47.432  1.00  0.00     0.036 C 
HETATM   10  C12 UNL     1     -29.189   1.832  46.191  1.00  0.00     0.036 C 
ENDROOT
BRANCH   1  11
HETATM   11  N1  UNL     1     -29.682   2.837  48.284  1.00  0.00    -0.354 N 
HETATM   12  C2  UNL     1     -30.093   1.599  48.703  1.00  0.00     0.075 C 
HETATM   13  C1  UNL     1     -30.649   1.546  50.051  1.00  0.00     0.124 C 
HETATM   14  S1  UNL     1     -30.401   3.241  50.662  1.00  0.00    -0.119 SA
HETATM   15  C13 UNL     1     -30.222   3.934  48.966  1.00  0.00     0.136 C 
ENDBRANCH   1  11
TORSDOF 1
ENDMDL
MODEL 2
REMARK VINA RESULT: -5.755367741      0.157      1.892
REMARK  1 active torsions:
REMARK  status: ('A' for Active; 'I' for Inactive)
REMARK    1  A    between atoms: N1_3  and  C3_4 
ROOT
HETATM    1  C3  UNL     1     -28.943   2.907  47.131  1.00  0.00     0.037 C 
HETATM    2  C4  UNL     1     -29.168   1.746  46.193  1.00  0.00     0.036 C 
HETATM    3  C5  UNL     1     -28.295   1.862  44.979  1.00  0.00    -0.012 C 
HETATM    4  C6  UNL     1     -26.830   1.920  45.320  1.00  0.00     0.009 C 
HETATM    5  C7  UNL     1     -26.600   3.099  46.224  1.00  0.00    -0.012 C 
HETATM    6  C8  UNL     1     -26.984   4.376  45.562  1.00  0.00     0.009 C 
HETATM    7  C9  UNL     1     -28.414   4.288  45.105  1.00  0.00    -0.012 C 
HETATM    8  C10 UNL     1     -28.631   3.100  44.189  1.00  0.00     0.009 C 
HETATM    9  C11 UNL     1     -29.275   4.162  46.350  1.00  0.00     0.036 C 
HETATM   10  C12 UNL     1     -27.453   2.919  47.459  1.00  0.00     0.036 C 
ENDROOT
BRANCH   1  11
HETATM   11  N1  UNL     1     -29.665   2.872  48.321  1.00  0.00    -0.354 N 
HETATM   12  C2  UNL     1     -30.155   1.704  48.844  1.00  0.00     0.075 C 
HETATM   13  C1  UNL     1     -30.685   1.800  50.201  1.00  0.00     0.124 C 
HETATM   14  S1  UNL     1     -30.303   3.515  50.668  1.00  0.00    -0.119 SA
HETATM   15  C13 UNL     1     -30.110   4.056  48.920  1.00  0.00     0.136 C 
ENDBRANCH   1  11
TORSDOF 1
ENDMDL
MODEL 3
REMARK VINA RESULT: -5.666156101      0.201      1.926
REMARK  1 active torsions:
REMARK  status: ('A' for Active; 'I' for Inactive)
REMARK    1  A    between atoms: N1_3  and  C3_4 
ROOT
HETATM    1  C3  UNL     1     -28.866   2.961  47.288  1.00  0.00     0.037 C 
HETATM    2  C4  UNL     1     -27.372   2.965  47.505  1.00  0.00     0.036 C 
HETATM    3  C5  UNL     1     -26.642   3.109  46.203  1.00  0.00    -0.012 C 
HETATM    4  C6  UNL     1     -27.018   4.364  45.461  1.00  0.00     0.009 C 
HETATM    5  C7  UNL     1     -28.500   4.340  45.211  1.00  0.00    -0.012 C 
HETATM    6  C8  UNL     1     -28.895   3.165  44.387  1.00  0.00     0.009 C 
HETATM    7  C9  UNL     1     -28.419   1.906  45.056  1.00  0.00    -0.012 C 
HETATM    8  C10 UNL     1     -26.922   1.938  45.297  1.00  0.00     0.009 C 
HETATM    9  C11 UNL     1     -29.164   1.789  46.374  1.00  0.00     0.036 C 
HETATM   10  C12 UNL     1     -29.202   4.251  46.547  1.00  0.00     0.036 C 
ENDROOT
BRANCH   1  11
HETATM   11  N1  UNL     1     -29.645   2.888  48.439  1.00  0.00    -0.354 N 
HETATM   12  C2  UNL     1     -30.103   1.696  48.937  1.00  0.00     0.075 C 
HETATM   13  C1  UNL     1     -30.706   1.763  50.265  1.00  0.00     0.124 C 
HETATM   14  S1  UNL     1     -30.432   3.493  50.751  1.00  0.00    -0.119 SA
HETATM   15  C13 UNL     1     -30.177   4.047  49.015  1.00  0.00     0.136 C 
ENDBRANCH   1  11
TORSDOF 1
ENDMDL
MODEL 4
REMARK VINA RESULT: -5.531864697      0.558      2.218
REMARK  1 active torsions:
REMARK  status: ('A' for Active; 'I' for Inactive)
REMARK    1  A    between atoms: N1_3  and  C3_4 
ROOT
HETATM    1  C3  UNL     1     -28.958   2.945  47.115  1.00  0.00     0.037 C 
HETATM    2  C4  UNL     1     -29.171   1.755  46.210  1.00  0.00     0.036 C 
HETATM    3  C5  UNL     1     -28.296   1.842  44.995  1.00  0.00    -0.012 C 
HETATM    4  C6  UNL     1     -26.832   1.921  45.339  1.00  0.00     0.009 C 
HETATM    5  C7  UNL     1     -26.613   3.128  46.207  1.00  0.00    -0.012 C 
HETATM    6  C8  UNL     1     -27.006   4.382  45.507  1.00  0.00     0.009 C 
HETATM    7  C9  UNL     1     -28.434   4.270  45.049  1.00  0.00    -0.012 C 
HETATM    8  C10 UNL     1     -28.640   3.053  44.168  1.00  0.00     0.009 C 
HETATM    9  C11 UNL     1     -29.297   4.174  46.295  1.00  0.00     0.036 C 
HETATM   10  C12 UNL     1     -27.469   2.979  47.445  1.00  0.00     0.036 C 
ENDROOT
BRANCH   1  11
HETATM   11  N1  UNL     1     -29.682   2.940  48.303  1.00  0.00    -0.354 N 
HETATM   12  C2  UNL     1     -30.027   4.096  48.953  1.00  0.00     0.075 C 
HETATM   13  C1  UNL     1     -30.975   3.937  50.052  1.00  0.00     0.124 C 
HETATM   14  S1  UNL     1     -31.407   2.173  49.967  1.00  0.00    -0.119 SA
HETATM   15  C13 UNL     1     -29.900   1.747  49.000  1.00  0.00     0.136 C 
ENDBRANCH   1  11
TORSDOF 1
ENDMDL
MODEL 5
REMARK VINA RESULT: -5.491563863      0.605      1.133
REMARK  1 active torsions:
REMARK  status: ('A' for Active; 'I' for Inactive)
REMARK    1  A    between atoms: N1_3  and  C3_4 
ROOT
HETATM    1  C3  UNL     1     -28.946   3.077  47.101  1.00  0.00     0.037 C 
HETATM    2  C4  UNL     1     -29.293   4.289  46.271  1.00  0.00     0.036 C 
HETATM    3  C5  UNL     1     -28.504   4.309  44.995  1.00  0.00    -0.012 C 
HETATM    4  C6  UNL     1     -28.725   3.079  44.156  1.00  0.00     0.009 C 
HETATM    5  C7  UNL     1     -28.343   1.874  44.970  1.00  0.00    -0.012 C 
HETATM    6  C8  UNL     1     -26.911   1.922  45.374  1.00  0.00     0.009 C 
HETATM    7  C9  UNL     1     -26.644   3.205  46.111  1.00  0.00    -0.012 C 
HETATM    8  C10 UNL     1     -27.028   4.413  45.277  1.00  0.00     0.009 C 
HETATM    9  C11 UNL     1     -27.461   3.165  47.391  1.00  0.00     0.036 C 
HETATM   10  C12 UNL     1     -29.196   1.858  46.218  1.00  0.00     0.036 C 
ENDROOT
BRANCH   1  11
HETATM   11  N1  UNL     1     -29.663   2.929  48.284  1.00  0.00    -0.354 N 
HETATM   12  C2  UNL     1     -30.002   3.998  49.072  1.00  0.00     0.075 C 
HETATM   13  C1  UNL     1     -30.942   3.708  50.150  1.00  0.00     0.124 C 
HETATM   14  S1  UNL     1     -31.377   1.967  49.856  1.00  0.00    -0.119 SA
HETATM   15  C13 UNL     1     -29.878   1.660  48.834  1.00  0.00     0.136 C 
ENDBRANCH   1  11
TORSDOF 1
ENDMDL
