MODEL 1
REMARK VINA RESULT: -7.130412388      0.000      0.000
REMARK  7 active torsions:
REMARK  status: ('A' for Active; 'I' for Inactive)
REMARK    1  A    between atoms: C1_2  and  C2_3 
REMARK       I    between atoms: C1_2  and  N1_6 
REMARK    2  A    between atoms: C2_3  and  O2_4 
REMARK    3  A    between atoms: C5_9  and  C6_10 
REMARK       I    between atoms: C6_10  and  N2_12 
REMARK    4  A    between atoms: C9_15  and  C10_16 
REMARK    5  A    between atoms: C10_16  and  N3_17 
REMARK    6  A    between atoms: C15_22  and  C16_23 
REMARK    7  A    between atoms: C16_23  and  O4_24 
ROOT
HETATM    1  C6  UNL     1     -19.854  -4.973 -15.427  1.00  0.00     0.225 C 
HETATM    2  O3  UNL     1     -19.519  -3.967 -16.146  1.00  0.00    -0.273 OA
HETATM    3  N2  UNL     1     -21.147  -5.517 -15.622  1.00  0.00    -0.351 N 
HETATM    4  C7  UNL     1     -21.562  -6.654 -14.865  1.00  0.00     0.126 C 
HETATM    5  C8  UNL     1     -22.311  -7.708 -15.616  1.00  0.00     0.027 C 
HETATM    6  C9  UNL     1     -22.992  -7.098 -16.873  1.00  0.00     0.023 C 
HETATM    7  C15 UNL     1     -23.351  -5.723 -16.472  1.00  0.00     0.033 C 
HETATM    8  C17 UNL     1     -22.044  -4.910 -16.578  1.00  0.00     0.132 C 
ENDROOT
BRANCH   1   9
HETATM    9  C5  UNL     1     -18.853  -5.451 -14.470  1.00  0.00     0.097 C 
HETATM   10  C4  UNL     1     -17.542  -4.748 -14.496  1.00  0.00     0.035 C 
HETATM   11  C3  UNL     1     -16.557  -5.755 -13.964  1.00  0.00     0.127 C 
HETATM   12  N1  UNL     1     -17.150  -7.047 -14.149  1.00  0.00    -0.349 N 
HETATM   13  C1  UNL     1     -16.589  -8.329 -13.836  1.00  0.00     0.243 C 
HETATM   14  C18 UNL     1     -18.473  -6.886 -14.724  1.00  0.00     0.139 C 
HETATM   15  O1  UNL     1     -17.275  -9.386 -14.082  1.00  0.00    -0.271 OA
BRANCH  13  16
HETATM   16  C2  UNL     1     -15.259  -8.465 -13.243  1.00  0.00     0.267 C 
BRANCH  16  17
HETATM   17  O2  UNL     1     -14.224  -8.353 -14.124  1.00  0.00    -0.392 OA
ATOM     18  H2  UNL     1     -13.383  -8.158 -13.728  1.00  0.00     0.210 HD
ENDBRANCH  16  17
ENDBRANCH  13  16
ENDBRANCH   1   9
BRANCH   7  19
HETATM   19  C16 UNL     1     -24.478  -5.019 -17.104  1.00  0.00     0.170 C 
BRANCH  19  20
HETATM   20  O4  UNL     1     -24.053  -4.084 -18.019  1.00  0.00    -0.400 OA
ATOM     21  H4  UNL     1     -24.679  -3.966 -18.723  1.00  0.00     0.209 HD
ENDBRANCH  19  20
ENDBRANCH   7  19
BRANCH   6  22
HETATM   22  C10 UNL     1     -24.023  -8.055 -17.287  1.00  0.00     0.277 C 
BRANCH  22  23
HETATM   23  N3  UNL     1     -23.634  -9.292 -17.861  1.00  0.00     0.088 N 
HETATM   24  C11 UNL     1     -22.680  -9.025 -18.922  1.00  0.00     0.272 C 
HETATM   25  C12 UNL     1     -23.435  -8.984 -20.209  1.00  0.00     0.032 C 
HETATM   26  C13 UNL     1     -24.872  -9.369 -19.853  1.00  0.00     0.032 C 
HETATM   27  C14 UNL     1     -24.662 -10.030 -18.508  1.00  0.00     0.272 C 
ENDBRANCH  22  23
ENDBRANCH   6  22
TORSDOF 7
ENDMDL
MODEL 2
REMARK VINA RESULT: -6.941703652      0.476      1.079
REMARK  7 active torsions:
REMARK  status: ('A' for Active; 'I' for Inactive)
REMARK    1  A    between atoms: C1_2  and  C2_3 
REMARK       I    between atoms: C1_2  and  N1_6 
REMARK    2  A    between atoms: C2_3  and  O2_4 
REMARK    3  A    between atoms: C5_9  and  C6_10 
REMARK       I    between atoms: C6_10  and  N2_12 
REMARK    4  A    between atoms: C9_15  and  C10_16 
REMARK    5  A    between atoms: C10_16  and  N3_17 
REMARK    6  A    between atoms: C15_22  and  C16_23 
REMARK    7  A    between atoms: C16_23  and  O4_24 
ROOT
HETATM    1  C6  UNL     1     -19.820  -5.043 -15.383  1.00  0.00     0.225 C 
HETATM    2  O3  UNL     1     -19.466  -4.050 -16.112  1.00  0.00    -0.273 OA
HETATM    3  N2  UNL     1     -21.129  -5.553 -15.561  1.00  0.00    -0.351 N 
HETATM    4  C7  UNL     1     -21.567  -6.674 -14.794  1.00  0.00     0.126 C 
HETATM    5  C8  UNL     1     -22.353  -7.711 -15.531  1.00  0.00     0.027 C 
HETATM    6  C9  UNL     1     -23.031  -7.089 -16.784  1.00  0.00     0.023 C 
HETATM    7  C15 UNL     1     -23.348  -5.703 -16.385  1.00  0.00     0.033 C 
HETATM    8  C17 UNL     1     -22.021  -4.926 -16.510  1.00  0.00     0.132 C 
ENDROOT
BRANCH   1   9
HETATM    9  C5  UNL     1     -18.821  -5.544 -14.435  1.00  0.00     0.097 C 
HETATM   10  C4  UNL     1     -17.522  -4.820 -14.418  1.00  0.00     0.035 C 
HETATM   11  C3  UNL     1     -16.526  -5.832 -13.917  1.00  0.00     0.127 C 
HETATM   12  N1  UNL     1     -17.096  -7.125 -14.160  1.00  0.00    -0.349 N 
HETATM   13  C1  UNL     1     -16.518  -8.409 -13.893  1.00  0.00     0.243 C 
HETATM   14  C18 UNL     1     -18.416  -6.961 -14.743  1.00  0.00     0.139 C 
HETATM   15  O1  UNL     1     -17.184  -9.466 -14.190  1.00  0.00    -0.271 OA
BRANCH  13  16
HETATM   16  C2  UNL     1     -15.193  -8.548 -13.291  1.00  0.00     0.267 C 
BRANCH  16  17
HETATM   17  O2  UNL     1     -14.150  -8.334 -14.144  1.00  0.00    -0.392 OA
ATOM     18  H2  UNL     1     -13.534  -7.668 -13.863  1.00  0.00     0.210 HD
ENDBRANCH  16  17
ENDBRANCH  13  16
ENDBRANCH   1   9
BRANCH   7  19
HETATM   19  C16 UNL     1     -24.462  -4.971 -17.008  1.00  0.00     0.170 C 
BRANCH  19  20
HETATM   20  O4  UNL     1     -24.024  -4.066 -17.946  1.00  0.00    -0.400 OA
ATOM     21  H4  UNL     1     -23.326  -3.515 -17.610  1.00  0.00     0.209 HD
ENDBRANCH  19  20
ENDBRANCH   7  19
BRANCH   6  22
HETATM   22  C10 UNL     1     -24.092  -8.019 -17.181  1.00  0.00     0.277 C 
BRANCH  22  23
HETATM   23  N3  UNL     1     -24.047  -8.618 -18.466  1.00  0.00     0.088 N 
HETATM   24  C11 UNL     1     -24.860  -9.820 -18.439  1.00  0.00     0.272 C 
HETATM   25  C12 UNL     1     -23.950 -10.975 -18.177  1.00  0.00     0.032 C 
HETATM   26  C13 UNL     1     -22.537 -10.390 -18.177  1.00  0.00     0.032 C 
HETATM   27  C14 UNL     1     -22.774  -9.079 -18.896  1.00  0.00     0.272 C 
ENDBRANCH  22  23
ENDBRANCH   6  22
TORSDOF 7
ENDMDL
MODEL 3
REMARK VINA RESULT: -6.533286632      3.876      6.337
REMARK  7 active torsions:
REMARK  status: ('A' for Active; 'I' for Inactive)
REMARK    1  A    between atoms: C1_2  and  C2_3 
REMARK       I    between atoms: C1_2  and  N1_6 
REMARK    2  A    between atoms: C2_3  and  O2_4 
REMARK    3  A    between atoms: C5_9  and  C6_10 
REMARK       I    between atoms: C6_10  and  N2_12 
REMARK    4  A    between atoms: C9_15  and  C10_16 
REMARK    5  A    between atoms: C10_16  and  N3_17 
REMARK    6  A    between atoms: C15_22  and  C16_23 
REMARK    7  A    between atoms: C16_23  and  O4_24 
ROOT
HETATM    1  C6  UNL     1     -23.123  -7.690 -15.513  1.00  0.00     0.225 C 
HETATM    2  O3  UNL     1     -23.966  -7.448 -14.578  1.00  0.00    -0.273 OA
HETATM    3  N2  UNL     1     -22.874  -9.046 -15.836  1.00  0.00    -0.351 N 
HETATM    4  C7  UNL     1     -21.963  -9.372 -16.885  1.00  0.00     0.126 C 
HETATM    5  C8  UNL     1     -22.383 -10.476 -17.803  1.00  0.00     0.027 C 
HETATM    6  C9  UNL     1     -23.397 -11.416 -17.093  1.00  0.00     0.023 C 
HETATM    7  C15 UNL     1     -22.981 -11.410 -15.677  1.00  0.00     0.033 C 
HETATM    8  C17 UNL     1     -23.534 -10.094 -15.092  1.00  0.00     0.132 C 
ENDROOT
BRANCH   1   9
HETATM    9  C5  UNL     1     -22.502  -6.525 -16.148  1.00  0.00     0.097 C 
HETATM   10  C4  UNL     1     -21.507  -5.789 -15.322  1.00  0.00     0.035 C 
HETATM   11  C3  UNL     1     -21.515  -4.387 -15.871  1.00  0.00     0.127 C 
HETATM   12  N1  UNL     1     -22.768  -4.218 -16.547  1.00  0.00    -0.349 N 
HETATM   13  C1  UNL     1     -23.267  -3.045 -17.203  1.00  0.00     0.243 C 
HETATM   14  C18 UNL     1     -23.514  -5.463 -16.485  1.00  0.00     0.139 C 
HETATM   15  O1  UNL     1     -24.427  -3.084 -17.752  1.00  0.00    -0.271 OA
BRANCH  13  16
HETATM   16  C2  UNL     1     -22.490  -1.808 -17.265  1.00  0.00     0.267 C 
BRANCH  16  17
HETATM   17  O2  UNL     1     -22.664  -0.968 -16.205  1.00  0.00    -0.392 OA
ATOM     18  H2  UNL     1     -23.021  -0.115 -16.425  1.00  0.00     0.210 HD
ENDBRANCH  16  17
ENDBRANCH  13  16
ENDBRANCH   1   9
BRANCH   7  19
HETATM   19  C16 UNL     1     -23.267 -12.554 -14.797  1.00  0.00     0.170 C 
BRANCH  19  20
HETATM   20  O4  UNL     1     -22.423 -12.594 -13.712  1.00  0.00    -0.400 OA
ATOM     21  H4  UNL     1     -22.878 -12.840 -12.916  1.00  0.00     0.209 HD
ENDBRANCH  19  20
ENDBRANCH   7  19
BRANCH   6  22
HETATM   22  C10 UNL     1     -23.414 -12.661 -17.867  1.00  0.00     0.277 C 
BRANCH  22  23
HETATM   23  N3  UNL     1     -24.637 -13.120 -18.420  1.00  0.00     0.088 N 
HETATM   24  C11 UNL     1     -24.337 -14.102 -19.446  1.00  0.00     0.272 C 
HETATM   25  C12 UNL     1     -24.331 -13.394 -20.760  1.00  0.00     0.032 C 
HETATM   26  C13 UNL     1     -24.772 -11.962 -20.456  1.00  0.00     0.032 C 
HETATM   27  C14 UNL     1     -25.419 -12.147 -19.100  1.00  0.00     0.272 C 
ENDBRANCH  22  23
ENDBRANCH   6  22
TORSDOF 7
ENDMDL
MODEL 4
REMARK VINA RESULT: -6.510426975      1.587      2.070
REMARK  7 active torsions:
REMARK  status: ('A' for Active; 'I' for Inactive)
REMARK    1  A    between atoms: C1_2  and  C2_3 
REMARK       I    between atoms: C1_2  and  N1_6 
REMARK    2  A    between atoms: C2_3  and  O2_4 
REMARK    3  A    between atoms: C5_9  and  C6_10 
REMARK       I    between atoms: C6_10  and  N2_12 
REMARK    4  A    between atoms: C9_15  and  C10_16 
REMARK    5  A    between atoms: C10_16  and  N3_17 
REMARK    6  A    between atoms: C15_22  and  C16_23 
REMARK    7  A    between atoms: C16_23  and  O4_24 
ROOT
HETATM    1  C6  UNL     1     -20.790  -5.689 -16.133  1.00  0.00     0.225 C 
HETATM    2  O3  UNL     1     -20.470  -5.048 -17.196  1.00  0.00    -0.273 OA
HETATM    3  N2  UNL     1     -22.057  -6.319 -16.102  1.00  0.00    -0.351 N 
HETATM    4  C7  UNL     1     -22.453  -7.067 -14.953  1.00  0.00     0.126 C 
HETATM    5  C8  UNL     1     -23.145  -8.366 -15.218  1.00  0.00     0.027 C 
HETATM    6  C9  UNL     1     -23.813  -8.348 -16.621  1.00  0.00     0.023 C 
HETATM    7  C15 UNL     1     -24.230  -6.945 -16.817  1.00  0.00     0.033 C 
HETATM    8  C17 UNL     1     -22.950  -6.191 -17.231  1.00  0.00     0.132 C 
ENDROOT
BRANCH   1   9
HETATM    9  C5  UNL     1     -19.797  -5.695 -15.054  1.00  0.00     0.097 C 
HETATM   10  C4  UNL     1     -18.687  -4.714 -15.187  1.00  0.00     0.035 C 
HETATM   11  C3  UNL     1     -17.550  -5.314 -14.404  1.00  0.00     0.127 C 
HETATM   12  N1  UNL     1     -17.809  -6.721 -14.315  1.00  0.00    -0.349 N 
HETATM   13  C1  UNL     1     -17.000  -7.731 -13.699  1.00  0.00     0.243 C 
HETATM   14  C18 UNL     1     -19.075  -7.013 -14.962  1.00  0.00     0.139 C 
HETATM   15  O1  UNL     1     -17.398  -8.952 -13.726  1.00  0.00    -0.271 OA
BRANCH  13  16
HETATM   16  C2  UNL     1     -15.735  -7.409 -13.040  1.00  0.00     0.267 C 
BRANCH  16  17
HETATM   17  O2  UNL     1     -14.704  -8.252 -13.333  1.00  0.00    -0.392 OA
ATOM     18  H2  UNL     1     -14.180  -7.997 -14.083  1.00  0.00     0.210 HD
ENDBRANCH  16  17
ENDBRANCH  13  16
ENDBRANCH   1   9
BRANCH   7  19
HETATM   19  C16 UNL     1     -25.363  -6.605 -17.691  1.00  0.00     0.170 C 
BRANCH  19  20
HETATM   20  O4  UNL     1     -25.051  -6.758 -19.022  1.00  0.00    -0.400 OA
ATOM     21  H4  UNL     1     -24.957  -5.923 -19.463  1.00  0.00     0.209 HD
ENDBRANCH  19  20
ENDBRANCH   7  19
BRANCH   6  22
HETATM   22  C10 UNL     1     -24.800  -9.432 -16.620  1.00  0.00     0.277 C 
BRANCH  22  23
HETATM   23  N3  UNL     1     -24.711 -10.454 -17.599  1.00  0.00     0.088 N 
HETATM   24  C11 UNL     1     -25.217 -11.687 -17.023  1.00  0.00     0.272 C 
HETATM   25  C12 UNL     1     -24.047 -12.461 -16.512  1.00  0.00     0.032 C 
HETATM   26  C13 UNL     1     -22.812 -11.665 -16.938  1.00  0.00     0.032 C 
HETATM   27  C14 UNL     1     -23.400 -10.795 -18.029  1.00  0.00     0.272 C 
ENDBRANCH  22  23
ENDBRANCH   6  22
TORSDOF 7
ENDMDL
MODEL 5
REMARK VINA RESULT: -6.509784394      3.866      6.567
REMARK  7 active torsions:
REMARK  status: ('A' for Active; 'I' for Inactive)
REMARK    1  A    between atoms: C1_2  and  C2_3 
REMARK       I    between atoms: C1_2  and  N1_6 
REMARK    2  A    between atoms: C2_3  and  O2_4 
REMARK    3  A    between atoms: C5_9  and  C6_10 
REMARK       I    between atoms: C6_10  and  N2_12 
REMARK    4  A    between atoms: C9_15  and  C10_16 
REMARK    5  A    between atoms: C10_16  and  N3_17 
REMARK    6  A    between atoms: C15_22  and  C16_23 
REMARK    7  A    between atoms: C16_23  and  O4_24 
ROOT
HETATM    1  C6  UNL     1     -23.171  -7.514 -15.514  1.00  0.00     0.225 C 
HETATM    2  O3  UNL     1     -23.922  -7.321 -14.494  1.00  0.00    -0.273 OA
HETATM    3  N2  UNL     1     -22.890  -8.853 -15.878  1.00  0.00    -0.351 N 
HETATM    4  C7  UNL     1     -22.079  -9.126 -17.020  1.00  0.00     0.126 C 
HETATM    5  C8  UNL     1     -22.537 -10.242 -17.903  1.00  0.00     0.027 C 
HETATM    6  C9  UNL     1     -23.423 -11.238 -17.103  1.00  0.00     0.023 C 
HETATM    7  C15 UNL     1     -22.862 -11.221 -15.737  1.00  0.00     0.033 C 
HETATM    8  C17 UNL     1     -23.416  -9.938 -15.082  1.00  0.00     0.132 C 
ENDROOT
BRANCH   1   9
HETATM    9  C5  UNL     1     -22.677  -6.314 -16.195  1.00  0.00     0.097 C 
HETATM   10  C4  UNL     1     -21.512  -5.640 -15.562  1.00  0.00     0.035 C 
HETATM   11  C3  UNL     1     -21.611  -4.205 -16.008  1.00  0.00     0.127 C 
HETATM   12  N1  UNL     1     -22.977  -3.985 -16.384  1.00  0.00    -0.349 N 
HETATM   13  C1  UNL     1     -23.581  -2.769 -16.843  1.00  0.00     0.243 C 
HETATM   14  C18 UNL     1     -23.716  -5.225 -16.239  1.00  0.00     0.139 C 
HETATM   15  O1  UNL     1     -24.833  -2.763 -17.128  1.00  0.00    -0.271 OA
BRANCH  13  16
HETATM   16  C2  UNL     1     -22.811  -1.535 -16.996  1.00  0.00     0.267 C 
BRANCH  16  17
HETATM   17  O2  UNL     1     -22.753  -0.753 -15.880  1.00  0.00    -0.392 OA
ATOM     18  H2  UNL     1     -22.705  -1.229 -15.060  1.00  0.00     0.210 HD
ENDBRANCH  16  17
ENDBRANCH  13  16
ENDBRANCH   1   9
BRANCH   7  19
HETATM   19  C16 UNL     1     -22.998 -12.384 -14.847  1.00  0.00     0.170 C 
BRANCH  19  20
HETATM   20  O4  UNL     1     -22.031 -12.400 -13.869  1.00  0.00    -0.400 OA
ATOM     21  H4  UNL     1     -22.065 -13.194 -13.349  1.00  0.00     0.209 HD
ENDBRANCH  19  20
ENDBRANCH   7  19
BRANCH   6  22
HETATM   22  C10 UNL     1     -23.460 -12.476 -17.886  1.00  0.00     0.277 C 
BRANCH  22  23
HETATM   23  N3  UNL     1     -24.699 -12.942 -18.394  1.00  0.00     0.088 N 
HETATM   24  C11 UNL     1     -25.734 -12.649 -17.418  1.00  0.00     0.272 C 
HETATM   25  C12 UNL     1     -25.932 -13.874 -16.588  1.00  0.00     0.032 C 
HETATM   26  C13 UNL     1     -25.040 -14.944 -17.218  1.00  0.00     0.032 C 
HETATM   27  C14 UNL     1     -24.806 -14.346 -18.588  1.00  0.00     0.272 C 
ENDBRANCH  22  23
ENDBRANCH   6  22
TORSDOF 7
ENDMDL
