MODEL 1
REMARK VINA RESULT: -6.113703586      0.000      0.000
REMARK  7 active torsions:
REMARK  status: ('A' for Active; 'I' for Inactive)
REMARK    1  A    between atoms: C1_2  and  N1_3 
REMARK    2  A    between atoms: C4_7  and  O3_8 
REMARK    3  A    between atoms: C5_10  and  O4_11 
REMARK    4  A    between atoms: C6_13  and  C7_14 
REMARK    5  A    between atoms: C7_14  and  S1_15 
REMARK    6  A    between atoms: S1_15  and  C8_17 
REMARK    7  A    between atoms: C8_17  and  C9_18 
ROOT
HETATM    1  C7  UNL     1     -22.817 -12.050 -16.772  1.00  0.00     0.137 C 
ENDROOT
BRANCH   1   2
HETATM    2  C6  UNL     1     -23.966 -11.954 -15.790  1.00  0.00     0.140 C 
HETATM    3  N1  UNL     1     -25.073 -12.841 -16.170  1.00  0.00    -0.307 N 
HETATM    4  C2  UNL     1     -25.304 -14.247 -16.224  1.00  0.00     0.237 C 
HETATM    5  O2  UNL     1     -25.582 -14.990 -15.112  1.00  0.00    -0.315 OA
HETATM    6  C3  UNL     1     -24.626 -14.902 -14.052  1.00  0.00     0.177 C 
HETATM    7  C4  UNL     1     -24.020 -13.627 -14.073  1.00  0.00     0.096 C 
HETATM    8  C5  UNL     1     -23.416 -12.394 -14.376  1.00  0.00     0.200 C 
BRANCH   3   9
HETATM    9  C1  UNL     1     -26.181 -12.046 -16.573  1.00  0.00     0.357 C 
HETATM   10  O1  UNL     1     -26.754 -11.182 -15.874  1.00  0.00    -0.283 OA
ENDBRANCH   3   9
BRANCH   7  11
HETATM   11  O3  UNL     1     -25.266 -13.008 -13.849  1.00  0.00    -0.360 OA
ATOM     12  H3  UNL     1     -25.679 -13.576 -14.488  1.00  0.00     0.217 HD
ENDBRANCH   7  11
BRANCH   8  13
HETATM   13  O4  UNL     1     -21.987 -12.366 -14.464  1.00  0.00    -0.387 OA
ATOM     14  H4  UNL     1     -21.574 -11.519 -14.580  1.00  0.00     0.210 HD
ENDBRANCH   8  13
ENDBRANCH   1   2
BRANCH   1  15
HETATM   15  S1  UNL     1     -22.774 -10.744 -17.921  1.00  0.00     0.017 S 
HETATM   16  O5  UNL     1     -22.584 -11.210 -19.489  1.00  0.00    -0.258 OA
BRANCH  15  17
HETATM   17  C8  UNL     1     -23.950  -9.524 -17.618  1.00  0.00     0.118 C 
BRANCH  17  18
HETATM   18  C9  UNL     1     -23.490  -8.283 -16.915  1.00  0.00    -0.025 C 
HETATM   19  C10 UNL     1     -23.799  -8.401 -15.437  1.00  0.00     0.015 C 
HETATM   20  C11 UNL     1     -23.583  -7.078 -14.745  1.00  0.00    -0.009 C 
HETATM   21  C12 UNL     1     -22.143  -6.665 -14.931  1.00  0.00     0.036 C 
HETATM   22  C16 UNL     1     -24.438  -6.000 -15.381  1.00  0.00     0.036 C 
HETATM   23  C13 UNL     1     -21.847  -6.567 -16.421  1.00  0.00     0.123 C 
HETATM   24  C14 UNL     1     -22.056  -7.938 -17.082  1.00  0.00     0.042 C 
HETATM   25  O6  UNL     1     -22.647  -5.588 -16.952  1.00  0.00    -0.381 OA
HETATM   26  C15 UNL     1     -24.004  -5.841 -16.804  1.00  0.00     0.123 C 
HETATM   27  C17 UNL     1     -24.294  -7.126 -17.531  1.00  0.00     0.042 C 
ENDBRANCH  17  18
ENDBRANCH  15  17
ENDBRANCH   1  15
TORSDOF 7
ENDMDL
MODEL 2
REMARK VINA RESULT: -6.104861927      1.920      2.862
REMARK  7 active torsions:
REMARK  status: ('A' for Active; 'I' for Inactive)
REMARK    1  A    between atoms: C1_2  and  N1_3 
REMARK    2  A    between atoms: C4_7  and  O3_8 
REMARK    3  A    between atoms: C5_10  and  O4_11 
REMARK    4  A    between atoms: C6_13  and  C7_14 
REMARK    5  A    between atoms: C7_14  and  S1_15 
REMARK    6  A    between atoms: S1_15  and  C8_17 
REMARK    7  A    between atoms: C8_17  and  C9_18 
ROOT
HETATM    1  C7  UNL     1     -22.207 -10.554 -16.153  1.00  0.00     0.137 C 
ENDROOT
BRANCH   1   2
HETATM    2  C6  UNL     1     -23.442 -10.794 -15.310  1.00  0.00     0.140 C 
HETATM    3  N1  UNL     1     -24.617 -11.071 -16.146  1.00  0.00    -0.307 N 
HETATM    4  C2  UNL     1     -25.058 -12.125 -16.999  1.00  0.00     0.237 C 
HETATM    5  O2  UNL     1     -25.588 -13.288 -16.518  1.00  0.00    -0.315 OA
HETATM    6  C3  UNL     1     -24.773 -14.003 -15.585  1.00  0.00     0.177 C 
HETATM    7  C4  UNL     1     -23.977 -13.087 -14.862  1.00  0.00     0.096 C 
HETATM    8  C5  UNL     1     -23.154 -12.048 -14.395  1.00  0.00     0.200 C 
BRANCH   3   9
HETATM    9  C1  UNL     1     -25.526  -9.983 -16.038  1.00  0.00     0.357 C 
HETATM   10  O1  UNL     1     -25.939  -9.478 -14.971  1.00  0.00    -0.283 OA
ENDBRANCH   3   9
BRANCH   7  11
HETATM   11  O3  UNL     1     -25.128 -12.463 -14.343  1.00  0.00    -0.360 OA
ATOM     12  H3  UNL     1     -25.436 -12.268 -15.220  1.00  0.00     0.217 HD
ENDBRANCH   7  11
BRANCH   8  13
HETATM   13  O4  UNL     1     -21.738 -12.265 -14.430  1.00  0.00    -0.387 OA
ATOM     14  H4  UNL     1     -21.311 -12.216 -15.277  1.00  0.00     0.210 HD
ENDBRANCH   8  13
ENDBRANCH   1   2
BRANCH   1  15
HETATM   15  S1  UNL     1     -22.187  -8.996 -16.929  1.00  0.00     0.017 S 
HETATM   16  O5  UNL     1     -22.814  -8.976 -18.451  1.00  0.00    -0.258 OA
BRANCH  15  17
HETATM   17  C8  UNL     1     -22.650  -7.705 -15.889  1.00  0.00     0.118 C 
BRANCH  17  18
HETATM   18  C9  UNL     1     -21.868  -6.430 -15.984  1.00  0.00    -0.025 C 
HETATM   19  C10 UNL     1     -21.254  -6.321 -17.365  1.00  0.00     0.015 C 
HETATM   20  C11 UNL     1     -20.261  -5.185 -17.412  1.00  0.00    -0.009 C 
HETATM   21  C12 UNL     1     -20.980  -3.902 -17.074  1.00  0.00     0.036 C 
HETATM   22  C16 UNL     1     -19.183  -5.378 -16.366  1.00  0.00     0.036 C 
HETATM   23  C13 UNL     1     -21.603  -4.036 -15.691  1.00  0.00     0.123 C 
HETATM   24  C14 UNL     1     -22.622  -5.185 -15.692  1.00  0.00     0.042 C 
HETATM   25  O6  UNL     1     -20.592  -4.216 -14.782  1.00  0.00    -0.381 OA
HETATM   26  C15 UNL     1     -19.832  -5.353 -15.018  1.00  0.00     0.123 C 
HETATM   27  C17 UNL     1     -20.762  -6.532 -14.921  1.00  0.00     0.042 C 
ENDBRANCH  17  18
ENDBRANCH  15  17
ENDBRANCH   1  15
TORSDOF 7
ENDMDL
MODEL 3
REMARK VINA RESULT: -6.045502497      0.566      1.488
REMARK  7 active torsions:
REMARK  status: ('A' for Active; 'I' for Inactive)
REMARK    1  A    between atoms: C1_2  and  N1_3 
REMARK    2  A    between atoms: C4_7  and  O3_8 
REMARK    3  A    between atoms: C5_10  and  O4_11 
REMARK    4  A    between atoms: C6_13  and  C7_14 
REMARK    5  A    between atoms: C7_14  and  S1_15 
REMARK    6  A    between atoms: S1_15  and  C8_17 
REMARK    7  A    between atoms: C8_17  and  C9_18 
ROOT
HETATM    1  C7  UNL     1     -22.898 -11.923 -16.938  1.00  0.00     0.137 C 
ENDROOT
BRANCH   1   2
HETATM    2  C6  UNL     1     -24.012 -11.843 -15.916  1.00  0.00     0.140 C 
HETATM    3  N1  UNL     1     -25.119 -12.747 -16.255  1.00  0.00    -0.307 N 
HETATM    4  C2  UNL     1     -25.330 -14.157 -16.297  1.00  0.00     0.237 C 
HETATM    5  O2  UNL     1     -25.556 -14.901 -15.174  1.00  0.00    -0.315 OA
HETATM    6  C3  UNL     1     -24.565 -14.796 -14.150  1.00  0.00     0.177 C 
HETATM    7  C4  UNL     1     -23.980 -13.511 -14.195  1.00  0.00     0.096 C 
HETATM    8  C5  UNL     1     -23.406 -12.270 -14.522  1.00  0.00     0.200 C 
BRANCH   3   9
HETATM    9  C1  UNL     1     -26.252 -11.971 -16.619  1.00  0.00     0.357 C 
HETATM   10  O1  UNL     1     -26.865 -11.176 -15.874  1.00  0.00    -0.283 OA
ENDBRANCH   3   9
BRANCH   7  11
HETATM   11  O3  UNL     1     -25.226 -12.911 -13.928  1.00  0.00    -0.360 OA
ATOM     12  H3  UNL     1     -24.890 -12.540 -13.120  1.00  0.00     0.217 HD
ENDBRANCH   7  11
BRANCH   8  13
HETATM   13  O4  UNL     1     -21.982 -12.220 -14.660  1.00  0.00    -0.387 OA
ATOM     14  H4  UNL     1     -21.625 -11.591 -15.276  1.00  0.00     0.210 HD
ENDBRANCH   8  13
ENDBRANCH   1   2
BRANCH   1  15
HETATM   15  S1  UNL     1     -22.846 -10.560 -18.018  1.00  0.00     0.017 S 
HETATM   16  O5  UNL     1     -22.564 -10.940 -19.596  1.00  0.00    -0.258 OA
BRANCH  15  17
HETATM   17  C8  UNL     1     -24.078  -9.397 -17.716  1.00  0.00     0.118 C 
BRANCH  17  18
HETATM   18  C9  UNL     1     -23.661  -8.097 -17.097  1.00  0.00    -0.025 C 
HETATM   19  C10 UNL     1     -22.193  -7.853 -17.385  1.00  0.00     0.015 C 
HETATM   20  C11 UNL     1     -21.682  -6.690 -16.569  1.00  0.00    -0.009 C 
HETATM   21  C12 UNL     1     -22.481  -5.461 -16.928  1.00  0.00     0.036 C 
HETATM   22  C16 UNL     1     -21.898  -6.943 -15.091  1.00  0.00     0.036 C 
HETATM   23  C13 UNL     1     -23.953  -5.730 -16.647  1.00  0.00     0.123 C 
HETATM   24  C14 UNL     1     -24.439  -6.903 -17.513  1.00  0.00     0.042 C 
HETATM   25  O6  UNL     1     -24.097  -5.960 -15.304  1.00  0.00    -0.381 OA
HETATM   26  C15 UNL     1     -23.371  -7.051 -14.847  1.00  0.00     0.123 C 
HETATM   27  C17 UNL     1     -23.882  -8.259 -15.584  1.00  0.00     0.042 C 
ENDBRANCH  17  18
ENDBRANCH  15  17
ENDBRANCH   1  15
TORSDOF 7
ENDMDL
MODEL 4
REMARK VINA RESULT: -5.898199630      2.177      3.981
REMARK  7 active torsions:
REMARK  status: ('A' for Active; 'I' for Inactive)
REMARK    1  A    between atoms: C1_2  and  N1_3 
REMARK    2  A    between atoms: C4_7  and  O3_8 
REMARK    3  A    between atoms: C5_10  and  O4_11 
REMARK    4  A    between atoms: C6_13  and  C7_14 
REMARK    5  A    between atoms: C7_14  and  S1_15 
REMARK    6  A    between atoms: S1_15  and  C8_17 
REMARK    7  A    between atoms: C8_17  and  C9_18 
ROOT
HETATM    1  C7  UNL     1     -23.989  -9.192 -17.527  1.00  0.00     0.137 C 
ENDROOT
BRANCH   1   2
HETATM    2  C6  UNL     1     -23.115 -10.394 -17.232  1.00  0.00     0.140 C 
HETATM    3  N1  UNL     1     -23.827 -11.389 -16.419  1.00  0.00    -0.307 N 
HETATM    4  C2  UNL     1     -24.916 -12.291 -16.605  1.00  0.00     0.237 C 
HETATM    5  O2  UNL     1     -24.784 -13.476 -17.273  1.00  0.00    -0.315 OA
HETATM    6  C3  UNL     1     -24.265 -13.384 -18.602  1.00  0.00     0.177 C 
HETATM    7  C4  UNL     1     -23.393 -12.277 -18.688  1.00  0.00     0.096 C 
HETATM    8  C5  UNL     1     -22.722 -11.044 -18.615  1.00  0.00     0.200 C 
BRANCH   3   9
HETATM    9  C1  UNL     1     -23.238 -11.435 -15.127  1.00  0.00     0.357 C 
HETATM   10  O1  UNL     1     -22.502 -12.347 -14.691  1.00  0.00    -0.283 OA
ENDBRANCH   3   9
BRANCH   7  11
HETATM   11  O3  UNL     1     -22.543 -12.843 -17.719  1.00  0.00    -0.360 OA
ATOM     12  H3  UNL     1     -22.736 -12.135 -17.115  1.00  0.00     0.217 HD
ENDBRANCH   7  11
BRANCH   8  13
HETATM   13  O4  UNL     1     -23.020 -10.073 -19.625  1.00  0.00    -0.387 OA
ATOM     14  H4  UNL     1     -22.359  -9.917 -20.289  1.00  0.00     0.210 HD
ENDBRANCH   8  13
ENDBRANCH   1   2
BRANCH   1  15
HETATM   15  S1  UNL     1     -24.003  -8.011 -16.249  1.00  0.00     0.017 S 
HETATM   16  O5  UNL     1     -25.277  -8.131 -15.213  1.00  0.00    -0.258 OA
BRANCH  15  17
HETATM   17  C8  UNL     1     -22.457  -7.750 -15.539  1.00  0.00     0.118 C 
BRANCH  17  18
HETATM   18  C9  UNL     1     -21.793  -6.432 -15.802  1.00  0.00    -0.025 C 
HETATM   19  C10 UNL     1     -21.302  -6.395 -17.235  1.00  0.00     0.015 C 
HETATM   20  C11 UNL     1     -20.413  -5.196 -17.457  1.00  0.00    -0.009 C 
HETATM   21  C12 UNL     1     -21.205  -3.946 -17.160  1.00  0.00     0.036 C 
HETATM   22  C16 UNL     1     -19.242  -5.218 -16.496  1.00  0.00     0.036 C 
HETATM   23  C13 UNL     1     -21.702  -4.008 -15.722  1.00  0.00     0.123 C 
HETATM   24  C14 UNL     1     -22.620  -5.227 -15.544  1.00  0.00     0.042 C 
HETATM   25  O6  UNL     1     -20.611  -4.034 -14.893  1.00  0.00    -0.381 OA
HETATM   26  C15 UNL     1     -19.781  -5.126 -15.103  1.00  0.00     0.123 C 
HETATM   27  C17 UNL     1     -20.600  -6.360 -14.834  1.00  0.00     0.042 C 
ENDBRANCH  17  18
ENDBRANCH  15  17
ENDBRANCH   1  15
TORSDOF 7
ENDMDL
MODEL 5
REMARK VINA RESULT: -5.854953641      1.359      1.926
REMARK  7 active torsions:
REMARK  status: ('A' for Active; 'I' for Inactive)
REMARK    1  A    between atoms: C1_2  and  N1_3 
REMARK    2  A    between atoms: C4_7  and  O3_8 
REMARK    3  A    between atoms: C5_10  and  O4_11 
REMARK    4  A    between atoms: C6_13  and  C7_14 
REMARK    5  A    between atoms: C7_14  and  S1_15 
REMARK    6  A    between atoms: S1_15  and  C8_17 
REMARK    7  A    between atoms: C8_17  and  C9_18 
ROOT
HETATM    1  C7  UNL     1     -22.946 -10.737 -17.976  1.00  0.00     0.137 C 
ENDROOT
BRANCH   1   2
HETATM    2  C6  UNL     1     -23.830 -10.653 -16.749  1.00  0.00     0.140 C 
HETATM    3  N1  UNL     1     -24.873 -11.687 -16.766  1.00  0.00    -0.307 N 
HETATM    4  C2  UNL     1     -24.926 -13.107 -16.643  1.00  0.00     0.237 C 
HETATM    5  O2  UNL     1     -24.833 -13.745 -15.439  1.00  0.00    -0.315 OA
HETATM    6  C3  UNL     1     -23.672 -13.440 -14.663  1.00  0.00     0.177 C 
HETATM    7  C4  UNL     1     -23.259 -12.118 -14.940  1.00  0.00     0.096 C 
HETATM    8  C5  UNL     1     -22.908 -10.871 -15.486  1.00  0.00     0.200 C 
BRANCH   3   9
HETATM    9  C1  UNL     1     -26.137 -11.064 -16.944  1.00  0.00     0.357 C 
HETATM   10  O1  UNL     1     -26.658 -10.231 -16.169  1.00  0.00    -0.283 OA
ENDBRANCH   3   9
BRANCH   7  11
HETATM   11  O3  UNL     1     -24.484 -11.612 -14.464  1.00  0.00    -0.360 OA
ATOM     12  H3  UNL     1     -24.689 -11.262 -15.323  1.00  0.00     0.217 HD
ENDBRANCH   7  11
BRANCH   8  13
HETATM   13  O4  UNL     1     -21.557 -10.704 -15.930  1.00  0.00    -0.387 OA
ATOM     14  H4  UNL     1     -21.345 -11.005 -16.805  1.00  0.00     0.210 HD
ENDBRANCH   8  13
ENDBRANCH   1   2
BRANCH   1  15
HETATM   15  S1  UNL     1     -23.054  -9.341 -19.008  1.00  0.00     0.017 S 
HETATM   16  O5  UNL     1     -23.023  -9.671 -20.621  1.00  0.00    -0.258 OA
BRANCH  15  17
HETATM   17  C8  UNL     1     -24.217  -8.187 -18.482  1.00  0.00     0.118 C 
BRANCH  17  18
HETATM   18  C9  UNL     1     -23.754  -7.126 -17.530  1.00  0.00    -0.025 C 
HETATM   19  C10 UNL     1     -22.256  -7.247 -17.336  1.00  0.00     0.015 C 
HETATM   20  C11 UNL     1     -21.798  -6.366 -16.200  1.00  0.00    -0.009 C 
HETATM   21  C12 UNL     1     -22.153  -4.936 -16.525  1.00  0.00     0.036 C 
HETATM   22  C16 UNL     1     -22.530  -6.724 -14.922  1.00  0.00     0.036 C 
HETATM   23  C13 UNL     1     -23.659  -4.836 -16.732  1.00  0.00     0.123 C 
HETATM   24  C14 UNL     1     -24.079  -5.729 -17.910  1.00  0.00     0.042 C 
HETATM   25  O6  UNL     1     -24.275  -5.176 -15.556  1.00  0.00    -0.381 OA
HETATM   26  C15 UNL     1     -23.989  -6.466 -15.133  1.00  0.00     0.123 C 
HETATM   27  C17 UNL     1     -24.482  -7.400 -16.204  1.00  0.00     0.042 C 
ENDBRANCH  17  18
ENDBRANCH  15  17
ENDBRANCH   1  15
TORSDOF 7
ENDMDL
