MODEL 1
REMARK VINA RESULT: -10.074618059      0.000      0.000
REMARK  9 active torsions:
REMARK  status: ('A' for Active; 'I' for Inactive)
REMARK    1  A    between atoms: C2_3  and  C3_4 
REMARK    2  A    between atoms: C3_4  and  C4_5 
REMARK    3  A    between atoms: C3_4  and  N3_8 
REMARK    4  A    between atoms: C5_13  and  C6_14 
REMARK    5  A    between atoms: C6_14  and  C7_16 
REMARK    6  A    between atoms: C8_19  and  N7_20 
REMARK    7  A    between atoms: C9_27  and  N11_28 
REMARK    8  A    between atoms: C10_35  and  O3_36 
REMARK    9  A    between atoms: C11_38  and  O4_39 
ROOT
HETATM    1  N3  UNL     1      20.057  -4.266  71.835  1.00  0.00    -0.235 N 
HETATM    2  N4  UNL     1      19.192  -3.722  71.013  1.00  0.00    -0.237 N 
ATOM      3  H4  UNL     1      18.474  -3.056  71.301  1.00  0.00     0.208 HD
HETATM    4  N5  UNL     1      19.356  -4.131  69.787  1.00  0.00    -0.278 N 
ATOM      5  H5  UNL     1      18.796  -3.838  68.986  1.00  0.00     0.189 HD
HETATM    6  C5  UNL     1      20.387  -5.007  69.744  1.00  0.00     0.156 A 
HETATM    7  C10 UNL     1      20.812  -5.071  71.072  1.00  0.00     0.192 A 
ENDROOT
BRANCH   6   8
HETATM    8  C6  UNL     1      20.937  -5.724  68.605  1.00  0.00     0.249 C 
HETATM    9  O2  UNL     1      21.696  -5.046  67.826  1.00  0.00    -0.282 OA
BRANCH   8  10
HETATM   10  C7  UNL     1      20.657  -7.119  68.348  1.00  0.00     0.189 A 
HETATM   11  N6  UNL     1      21.248  -7.858  67.387  1.00  0.00    -0.168 N 
HETATM   12  C8  UNL     1      20.750  -9.114  67.414  1.00  0.00     0.736 A 
ATOM     13  H6  UNL     1      21.961  -7.520  66.740  1.00  0.00     0.186 HD
HETATM   14  N12 UNL     1      19.859  -9.115  68.399  1.00  0.00    -0.128 N 
HETATM   15  N13 UNL     1      19.786  -7.910  68.982  1.00  0.00    -0.267 N 
ATOM     16  H12 UNL     1      19.305  -9.925  68.676  1.00  0.00     0.205 HD
ATOM     17  H13 UNL     1      19.181  -7.647  69.760  1.00  0.00     0.189 HD
BRANCH  12  18
HETATM   18  N7  UNL     1      21.153 -10.160  66.533  1.00  0.00     0.108 N 
HETATM   19  N8  UNL     1      20.635 -10.416  65.320  1.00  0.00    -0.191 N 
HETATM   20  N9  UNL     1      21.215 -11.437  64.759  1.00  0.00    -0.212 N 
ATOM     21  H8  UNL     1      19.882  -9.877  64.892  1.00  0.00     0.211 HD
HETATM   22  N10 UNL     1      22.132 -11.873  65.599  1.00  0.00    -0.114 N 
ATOM     23  H9  UNL     1      21.000 -11.828  63.842  1.00  0.00     0.210 HD
HETATM   24  C9  UNL     1      22.101 -11.084  66.707  1.00  0.00     0.729 A 
ATOM     25  H10 UNL     1      22.756 -12.665  65.446  1.00  0.00     0.207 HD
BRANCH  24  26
HETATM   26  N11 UNL     1      22.865 -11.238  67.716  1.00  0.00    -0.231 N 
ATOM     27 2H11 UNL     1      23.690 -10.668  67.900  1.00  0.00     0.174 HD
ATOM     28 1H11 UNL     1      22.780 -11.924  68.466  1.00  0.00     0.174 HD
ENDBRANCH  24  26
ENDBRANCH  12  18
ENDBRANCH   8  10
ENDBRANCH   6   8
BRANCH   7  29
HETATM   29  O3  UNL     1      21.873  -5.868  71.504  1.00  0.00    -0.343 OA
ATOM     30  H3  UNL     1      22.793  -5.744  71.298  1.00  0.00     0.219 HD
ENDBRANCH   7  29
BRANCH   1  31
HETATM   31  C3  UNL     1      20.139  -4.015  73.267  1.00  0.00     0.255 C 
BRANCH  31  32
HETATM   32  C2  UNL     1      21.479  -3.500  73.648  1.00  0.00     0.113 A 
HETATM   33  N1  UNL     1      22.452  -4.178  74.297  1.00  0.00    -0.185 N 
HETATM   34  C1  UNL     1      22.382  -5.539  74.739  1.00  0.00     0.175 C 
HETATM   35  C12 UNL     1      23.529  -3.353  74.474  1.00  0.00     0.680 A 
HETATM   36  N14 UNL     1      23.244  -2.166  73.946  1.00  0.00    -0.169 N 
HETATM   37  N15 UNL     1      24.624  -3.719  75.070  1.00  0.00    -0.234 N 
HETATM   38  C11 UNL     1      22.001  -2.246  73.441  1.00  0.00     0.181 A 
ATOM     39  H14 UNL     1      23.855  -1.349  73.928  1.00  0.00     0.186 HD
ATOM     40 2H15 UNL     1      24.843  -4.629  75.475  1.00  0.00     0.174 HD
ATOM     41 1H15 UNL     1      25.427  -3.104  75.202  1.00  0.00     0.174 HD
BRANCH  38  42
HETATM   42  O4  UNL     1      21.350  -1.193  72.799  1.00  0.00    -0.344 OA
ATOM     43  H4  UNL     1      20.926  -1.242  71.949  1.00  0.00     0.219 HD
ENDBRANCH  38  42
ENDBRANCH  31  32
BRANCH  31  44
HETATM   44  C4  UNL     1      19.042  -3.190  73.789  1.00  0.00     0.262 C 
HETATM   45  N2  UNL     1      18.538  -2.031  73.183  1.00  0.00    -0.060 NA
HETATM   46  O1  UNL     1      18.498  -3.563  74.893  1.00  0.00    -0.274 OA
ENDBRANCH  31  44
ENDBRANCH   1  31
TORSDOF 9
ENDMDL
MODEL 2
REMARK VINA RESULT: -9.888066059      4.688      9.136
REMARK  9 active torsions:
REMARK  status: ('A' for Active; 'I' for Inactive)
REMARK    1  A    between atoms: C2_3  and  C3_4 
REMARK    2  A    between atoms: C3_4  and  C4_5 
REMARK    3  A    between atoms: C3_4  and  N3_8 
REMARK    4  A    between atoms: C5_13  and  C6_14 
REMARK    5  A    between atoms: C6_14  and  C7_16 
REMARK    6  A    between atoms: C8_19  and  N7_20 
REMARK    7  A    between atoms: C9_27  and  N11_28 
REMARK    8  A    between atoms: C10_35  and  O3_36 
REMARK    9  A    between atoms: C11_38  and  O4_39 
ROOT
HETATM    1  N3  UNL     1      19.152  -2.071  73.327  1.00  0.00    -0.235 N 
HETATM    2  N4  UNL     1      18.649  -0.948  72.872  1.00  0.00    -0.237 N 
ATOM      3  H4  UNL     1      19.005  -0.454  72.054  1.00  0.00     0.208 HD
HETATM    4  N5  UNL     1      17.639  -0.539  73.588  1.00  0.00    -0.278 N 
ATOM      5  H5  UNL     1      17.098   0.308  73.416  1.00  0.00     0.189 HD
HETATM    6  C5  UNL     1      17.423  -1.416  74.596  1.00  0.00     0.156 A 
HETATM    7  C10 UNL     1      18.409  -2.384  74.400  1.00  0.00     0.192 A 
ENDROOT
BRANCH   6   8
HETATM    8  C6  UNL     1      16.416  -1.381  75.644  1.00  0.00     0.249 C 
HETATM    9  O2  UNL     1      16.055  -0.217  76.039  1.00  0.00    -0.282 OA
BRANCH   8  10
HETATM   10  C7  UNL     1      15.844  -2.577  76.221  1.00  0.00     0.189 A 
HETATM   11  N6  UNL     1      16.300  -3.190  77.331  1.00  0.00    -0.168 N 
HETATM   12  C8  UNL     1      15.545  -4.282  77.586  1.00  0.00     0.736 A 
ATOM     13  H6  UNL     1      17.093  -2.878  77.892  1.00  0.00     0.186 HD
HETATM   14  N12 UNL     1      14.636  -4.311  76.619  1.00  0.00    -0.128 N 
HETATM   15  N13 UNL     1      14.799  -3.282  75.775  1.00  0.00    -0.267 N 
ATOM     16  H12 UNL     1      13.910  -5.022  76.530  1.00  0.00     0.205 HD
ATOM     17  H13 UNL     1      14.234  -3.077  74.951  1.00  0.00     0.189 HD
BRANCH  12  18
HETATM   18  N7  UNL     1      15.750  -5.164  78.687  1.00  0.00     0.108 N 
HETATM   19  N8  UNL     1      16.008  -6.481  78.609  1.00  0.00    -0.191 N 
HETATM   20  N9  UNL     1      16.146  -7.011  79.790  1.00  0.00    -0.212 N 
ATOM     21  H8  UNL     1      16.085  -7.000  77.734  1.00  0.00     0.211 HD
HETATM   22  N10 UNL     1      15.982  -6.045  80.671  1.00  0.00    -0.114 N 
ATOM     23  H9  UNL     1      16.344  -7.990  79.995  1.00  0.00     0.210 HD
HETATM   24  C9  UNL     1      15.735  -4.891  79.994  1.00  0.00     0.729 A 
ATOM     25  H10 UNL     1      16.032  -6.145  81.685  1.00  0.00     0.207 HD
BRANCH  24  26
HETATM   26  N11 UNL     1      15.529  -3.764  80.554  1.00  0.00    -0.231 N 
ATOM     27 2H11 UNL     1      14.658  -3.240  80.482  1.00  0.00     0.174 HD
ATOM     28 1H11 UNL     1      16.173  -3.228  81.137  1.00  0.00     0.174 HD
ENDBRANCH  24  26
ENDBRANCH  12  18
ENDBRANCH   8  10
ENDBRANCH   6   8
BRANCH   7  29
HETATM   29  O3  UNL     1      18.568  -3.501  75.221  1.00  0.00    -0.343 OA
ATOM     30  H3  UNL     1      17.964  -4.230  75.305  1.00  0.00     0.219 HD
ENDBRANCH   7  29
BRANCH   1  31
HETATM   31  C3  UNL     1      20.282  -2.787  72.750  1.00  0.00     0.255 C 
BRANCH  31  32
HETATM   32  C2  UNL     1      21.288  -3.132  73.787  1.00  0.00     0.113 A 
HETATM   33  N1  UNL     1      22.359  -2.393  74.152  1.00  0.00    -0.185 N 
HETATM   34  C1  UNL     1      22.731  -1.119  73.612  1.00  0.00     0.175 C 
HETATM   35  C12 UNL     1      23.049  -3.058  75.128  1.00  0.00     0.680 A 
HETATM   36  N14 UNL     1      22.425  -4.206  75.380  1.00  0.00    -0.169 N 
HETATM   37  N15 UNL     1      24.131  -2.601  75.683  1.00  0.00    -0.234 N 
HETATM   38  C11 UNL     1      21.353  -4.259  74.570  1.00  0.00     0.181 A 
ATOM     39  H14 UNL     1      22.707  -4.912  76.059  1.00  0.00     0.186 HD
ATOM     40 2H15 UNL     1      24.609  -1.721  75.491  1.00  0.00     0.174 HD
ATOM     41 1H15 UNL     1      24.645  -3.098  76.411  1.00  0.00     0.174 HD
BRANCH  38  42
HETATM   42  O4  UNL     1      20.445  -5.317  74.544  1.00  0.00    -0.344 OA
ATOM     43  H4  UNL     1      20.611  -6.195  74.868  1.00  0.00     0.219 HD
ENDBRANCH  38  42
ENDBRANCH  31  32
BRANCH  31  44
HETATM   44  C4  UNL     1      19.895  -3.939  71.925  1.00  0.00     0.262 C 
HETATM   45  N2  UNL     1      20.651  -5.107  71.756  1.00  0.00    -0.060 NA
HETATM   46  O1  UNL     1      18.769  -3.869  71.309  1.00  0.00    -0.274 OA
ENDBRANCH  31  44
ENDBRANCH   1  31
TORSDOF 9
ENDMDL
MODEL 3
REMARK VINA RESULT: -9.631135634      4.247      9.354
REMARK  9 active torsions:
REMARK  status: ('A' for Active; 'I' for Inactive)
REMARK    1  A    between atoms: C2_3  and  C3_4 
REMARK    2  A    between atoms: C3_4  and  C4_5 
REMARK    3  A    between atoms: C3_4  and  N3_8 
REMARK    4  A    between atoms: C5_13  and  C6_14 
REMARK    5  A    between atoms: C6_14  and  C7_16 
REMARK    6  A    between atoms: C8_19  and  N7_20 
REMARK    7  A    between atoms: C9_27  and  N11_28 
REMARK    8  A    between atoms: C10_35  and  O3_36 
REMARK    9  A    between atoms: C11_38  and  O4_39 
ROOT
HETATM    1  N3  UNL     1      19.837  -2.452  73.985  1.00  0.00    -0.235 N 
HETATM    2  N4  UNL     1      19.706  -1.229  73.529  1.00  0.00    -0.237 N 
ATOM      3  H4  UNL     1      20.396  -0.765  72.938  1.00  0.00     0.208 HD
HETATM    4  N5  UNL     1      18.592  -0.678  73.920  1.00  0.00    -0.278 N 
ATOM      5  H5  UNL     1      18.286   0.267  73.684  1.00  0.00     0.189 HD
HETATM    6  C5  UNL     1      17.905  -1.555  74.688  1.00  0.00     0.156 A 
HETATM    7  C10 UNL     1      18.731  -2.680  74.710  1.00  0.00     0.192 A 
ENDROOT
BRANCH   6   8
HETATM    8  C6  UNL     1      16.620  -1.390  75.347  1.00  0.00     0.249 C 
HETATM    9  O2  UNL     1      16.104  -0.218  75.290  1.00  0.00    -0.282 OA
BRANCH   8  10
HETATM   10  C7  UNL     1      15.946  -2.470  76.031  1.00  0.00     0.189 A 
HETATM   11  N6  UNL     1      16.373  -3.042  77.175  1.00  0.00    -0.168 N 
HETATM   12  C8  UNL     1      15.518  -4.024  77.535  1.00  0.00     0.736 A 
ATOM     13  H6  UNL     1      17.213  -2.774  77.689  1.00  0.00     0.186 HD
HETATM   14  N12 UNL     1      14.578  -4.031  76.597  1.00  0.00    -0.128 N 
HETATM   15  N13 UNL     1      14.819  -3.093  75.670  1.00  0.00    -0.267 N 
ATOM     16  H12 UNL     1      13.780  -4.665  76.583  1.00  0.00     0.205 HD
ATOM     17  H13 UNL     1      14.251  -2.892  74.847  1.00  0.00     0.189 HD
BRANCH  12  18
HETATM   18  N7  UNL     1      15.667  -4.837  78.698  1.00  0.00     0.108 N 
HETATM   19  N8  UNL     1      16.182  -6.077  78.736  1.00  0.00    -0.191 N 
HETATM   20  N9  UNL     1      16.183  -6.556  79.946  1.00  0.00    -0.212 N 
ATOM     21  H8  UNL     1      16.528  -6.580  77.919  1.00  0.00     0.211 HD
HETATM   22  N10 UNL     1      15.667  -5.632  80.731  1.00  0.00    -0.114 N 
ATOM     23  H9  UNL     1      16.521  -7.474  80.234  1.00  0.00     0.210 HD
HETATM   24  C9  UNL     1      15.342  -4.557  79.963  1.00  0.00     0.729 A 
ATOM     25  H10 UNL     1      15.533  -5.709  81.739  1.00  0.00     0.207 HD
BRANCH  24  26
HETATM   26  N11 UNL     1      14.817  -3.487  80.416  1.00  0.00    -0.231 N 
ATOM     27 2H11 UNL     1      15.020  -2.554  80.058  1.00  0.00     0.174 HD
ATOM     28 1H11 UNL     1      14.142  -3.395  81.176  1.00  0.00     0.174 HD
ENDBRANCH  24  26
ENDBRANCH  12  18
ENDBRANCH   8  10
ENDBRANCH   6   8
BRANCH   7  29
HETATM   29  O3  UNL     1      18.417  -3.853  75.397  1.00  0.00    -0.343 OA
ATOM     30  H3  UNL     1      18.496  -4.740  75.065  1.00  0.00     0.219 HD
ENDBRANCH   7  29
BRANCH   1  31
HETATM   31  C3  UNL     1      20.965  -3.336  73.726  1.00  0.00     0.255 C 
BRANCH  31  32
HETATM   32  C2  UNL     1      20.719  -4.190  72.536  1.00  0.00     0.113 A 
HETATM   33  N1  UNL     1      21.294  -5.383  72.263  1.00  0.00    -0.185 N 
HETATM   34  C1  UNL     1      22.253  -6.065  73.079  1.00  0.00     0.175 C 
HETATM   35  C12 UNL     1      20.817  -5.844  71.067  1.00  0.00     0.680 A 
HETATM   36  N14 UNL     1      19.951  -4.957  70.585  1.00  0.00    -0.169 N 
HETATM   37  N15 UNL     1      21.184  -6.970  70.532  1.00  0.00    -0.234 N 
HETATM   38  C11 UNL     1      19.884  -3.948  71.472  1.00  0.00     0.181 A 
ATOM     39  H14 UNL     1      19.435  -5.028  69.708  1.00  0.00     0.186 HD
ATOM     40 2H15 UNL     1      21.848  -7.651  70.902  1.00  0.00     0.174 HD
ATOM     41 1H15 UNL     1      20.828  -7.314  69.640  1.00  0.00     0.174 HD
BRANCH  38  42
HETATM   42  O4  UNL     1      19.075  -2.823  71.316  1.00  0.00    -0.344 OA
ATOM     43  H4  UNL     1      18.419  -2.705  70.639  1.00  0.00     0.219 HD
ENDBRANCH  38  42
ENDBRANCH  31  32
BRANCH  31  44
HETATM   44  C4  UNL     1      22.260  -2.646  73.677  1.00  0.00     0.262 C 
HETATM   45  N2  UNL     1      23.377  -2.958  74.464  1.00  0.00    -0.060 NA
HETATM   46  O1  UNL     1      22.379  -1.677  72.840  1.00  0.00    -0.274 OA
ENDBRANCH  31  44
ENDBRANCH   1  31
TORSDOF 9
ENDMDL
MODEL 4
REMARK VINA RESULT: -9.625497127      5.833      8.405
REMARK  9 active torsions:
REMARK  status: ('A' for Active; 'I' for Inactive)
REMARK    1  A    between atoms: C2_3  and  C3_4 
REMARK    2  A    between atoms: C3_4  and  C4_5 
REMARK    3  A    between atoms: C3_4  and  N3_8 
REMARK    4  A    between atoms: C5_13  and  C6_14 
REMARK    5  A    between atoms: C6_14  and  C7_16 
REMARK    6  A    between atoms: C8_19  and  N7_20 
REMARK    7  A    between atoms: C9_27  and  N11_28 
REMARK    8  A    between atoms: C10_35  and  O3_36 
REMARK    9  A    between atoms: C11_38  and  O4_39 
ROOT
HETATM    1  N3  UNL     1      19.130   0.909  73.814  1.00  0.00    -0.235 N 
HETATM    2  N4  UNL     1      19.240  -0.223  73.161  1.00  0.00    -0.237 N 
ATOM      3  H4  UNL     1      18.481  -0.651  72.631  1.00  0.00     0.208 HD
HETATM    4  N5  UNL     1      20.434  -0.735  73.267  1.00  0.00    -0.278 N 
ATOM      5  H5  UNL     1      20.741  -1.609  72.840  1.00  0.00     0.189 HD
HETATM    6  C5  UNL     1      21.200   0.076  74.034  1.00  0.00     0.156 A 
HETATM    7  C10 UNL     1      20.334   1.118  74.368  1.00  0.00     0.192 A 
ENDROOT
BRANCH   6   8
HETATM    8  C6  UNL     1      22.590  -0.080  74.431  1.00  0.00     0.249 C 
HETATM    9  O2  UNL     1      23.217   1.000  74.721  1.00  0.00    -0.282 OA
BRANCH   8  10
HETATM   10  C7  UNL     1      23.246  -1.366  74.501  1.00  0.00     0.189 A 
HETATM   11  N6  UNL     1      22.650  -2.548  74.246  1.00  0.00    -0.168 N 
HETATM   12  C8  UNL     1      23.543  -3.549  74.414  1.00  0.00     0.736 A 
ATOM     13  H6  UNL     1      21.675  -2.669  73.968  1.00  0.00     0.186 HD
HETATM   14  N12 UNL     1      24.674  -2.951  74.770  1.00  0.00    -0.128 N 
HETATM   15  N13 UNL     1      24.516  -1.621  74.831  1.00  0.00    -0.267 N 
ATOM     16  H12 UNL     1      25.546  -3.439  74.971  1.00  0.00     0.205 HD
ATOM     17  H13 UNL     1      25.229  -0.936  75.080  1.00  0.00     0.189 HD
BRANCH  12  18
HETATM   18  N7  UNL     1      23.249  -4.932  74.227  1.00  0.00     0.108 N 
HETATM   19  N8  UNL     1      24.067  -5.848  73.683  1.00  0.00    -0.191 N 
HETATM   20  N9  UNL     1      23.511  -7.025  73.650  1.00  0.00    -0.212 N 
ATOM     21  H8  UNL     1      25.006  -5.647  73.339  1.00  0.00     0.211 HD
HETATM   22  N10 UNL     1      22.309  -6.901  74.177  1.00  0.00    -0.114 N 
ATOM     23  H9  UNL     1      23.927  -7.882  73.286  1.00  0.00     0.210 HD
HETATM   24  C9  UNL     1      22.136  -5.601  74.539  1.00  0.00     0.729 A 
ATOM     25  H10 UNL     1      21.627  -7.651  74.293  1.00  0.00     0.207 HD
BRANCH  24  26
HETATM   26  N11 UNL     1      21.076  -5.145  75.081  1.00  0.00    -0.231 N 
ATOM     27 2H11 UNL     1      20.567  -5.616  75.828  1.00  0.00     0.174 HD
ATOM     28 1H11 UNL     1      20.587  -4.277  74.863  1.00  0.00     0.174 HD
ENDBRANCH  24  26
ENDBRANCH  12  18
ENDBRANCH   8  10
ENDBRANCH   6   8
BRANCH   7  29
HETATM   29  O3  UNL     1      20.704   2.203  75.163  1.00  0.00    -0.343 OA
ATOM     30  H3  UNL     1      21.458   2.767  75.034  1.00  0.00     0.219 HD
ENDBRANCH   7  29
BRANCH   1  31
HETATM   31  C3  UNL     1      17.928   1.729  73.890  1.00  0.00     0.255 C 
BRANCH  31  32
HETATM   32  C2  UNL     1      17.950   2.811  72.874  1.00  0.00     0.113 A 
HETATM   33  N1  UNL     1      17.913   4.143  73.108  1.00  0.00    -0.185 N 
HETATM   34  C1  UNL     1      17.854   4.773  74.392  1.00  0.00     0.175 C 
HETATM   35  C12 UNL     1      17.935   4.807  71.912  1.00  0.00     0.680 A 
HETATM   36  N14 UNL     1      17.985   3.910  70.930  1.00  0.00    -0.169 N 
HETATM   37  N15 UNL     1      17.908   6.102  71.807  1.00  0.00    -0.234 N 
HETATM   38  C11 UNL     1      17.995   2.695  71.505  1.00  0.00     0.181 A 
ATOM     39  H14 UNL     1      18.010   4.108  69.930  1.00  0.00     0.186 HD
ATOM     40 2H15 UNL     1      17.871   6.789  72.560  1.00  0.00     0.174 HD
ATOM     41 1H15 UNL     1      17.925   6.596  70.916  1.00  0.00     0.174 HD
BRANCH  38  42
HETATM   42  O4  UNL     1      18.045   1.495  70.796  1.00  0.00    -0.344 OA
ATOM     43  H4  UNL     1      17.292   0.984  70.523  1.00  0.00     0.219 HD
ENDBRANCH  38  42
ENDBRANCH  31  32
BRANCH  31  44
HETATM   44  C4  UNL     1      16.680   0.956  73.875  1.00  0.00     0.262 C 
HETATM   45  N2  UNL     1      16.100   0.371  72.741  1.00  0.00    -0.060 NA
HETATM   46  O1  UNL     1      16.069   0.803  74.996  1.00  0.00    -0.274 OA
ENDBRANCH  31  44
ENDBRANCH   1  31
TORSDOF 9
ENDMDL
MODEL 5
REMARK VINA RESULT: -9.619218521      5.063      8.020
REMARK  9 active torsions:
REMARK  status: ('A' for Active; 'I' for Inactive)
REMARK    1  A    between atoms: C2_3  and  C3_4 
REMARK    2  A    between atoms: C3_4  and  C4_5 
REMARK    3  A    between atoms: C3_4  and  N3_8 
REMARK    4  A    between atoms: C5_13  and  C6_14 
REMARK    5  A    between atoms: C6_14  and  C7_16 
REMARK    6  A    between atoms: C8_19  and  N7_20 
REMARK    7  A    between atoms: C9_27  and  N11_28 
REMARK    8  A    between atoms: C10_35  and  O3_36 
REMARK    9  A    between atoms: C11_38  and  O4_39 
ROOT
HETATM    1  N3  UNL     1      18.845  -2.134  73.427  1.00  0.00    -0.235 N 
HETATM    2  N4  UNL     1      18.671  -2.309  72.139  1.00  0.00    -0.237 N 
ATOM      3  H4  UNL     1      18.002  -1.782  71.577  1.00  0.00     0.208 HD
HETATM    4  N5  UNL     1      19.454  -3.234  71.660  1.00  0.00    -0.278 N 
ATOM      5  H5  UNL     1      19.487  -3.533  70.685  1.00  0.00     0.189 HD
HETATM    6  C5  UNL     1      20.215  -3.736  72.661  1.00  0.00     0.156 A 
HETATM    7  C10 UNL     1      19.799  -3.010  73.778  1.00  0.00     0.192 A 
ENDROOT
BRANCH   6   8
HETATM    8  C6  UNL     1      21.226  -4.779  72.612  1.00  0.00     0.249 C 
HETATM    9  O2  UNL     1      20.945  -5.801  71.891  1.00  0.00    -0.282 OA
BRANCH   8  10
HETATM   10  C7  UNL     1      22.479  -4.690  73.326  1.00  0.00     0.189 A 
HETATM   11  N6  UNL     1      22.920  -3.592  73.972  1.00  0.00    -0.168 N 
HETATM   12  C8  UNL     1      24.128  -3.846  74.522  1.00  0.00     0.736 A 
ATOM     13  H6  UNL     1      22.419  -2.705  74.036  1.00  0.00     0.186 HD
HETATM   14  N12 UNL     1      24.401  -5.105  74.199  1.00  0.00    -0.128 N 
HETATM   15  N13 UNL     1      23.410  -5.639  73.470  1.00  0.00    -0.267 N 
ATOM     16  H12 UNL     1      25.250  -5.600  74.469  1.00  0.00     0.205 HD
ATOM     17  H13 UNL     1      23.374  -6.587  73.096  1.00  0.00     0.189 HD
BRANCH  12  18
HETATM   18  N7  UNL     1      24.885  -2.903  75.278  1.00  0.00     0.108 N 
HETATM   19  N8  UNL     1      25.957  -3.177  76.040  1.00  0.00    -0.191 N 
HETATM   20  N9  UNL     1      26.428  -2.103  76.605  1.00  0.00    -0.212 N 
ATOM     21  H8  UNL     1      26.351  -4.110  76.162  1.00  0.00     0.211 HD
HETATM   22  N10 UNL     1      25.669  -1.097  76.220  1.00  0.00    -0.114 N 
ATOM     23  H9  UNL     1      27.234  -2.050  77.228  1.00  0.00     0.210 HD
HETATM   24  C9  UNL     1      24.705  -1.585  75.393  1.00  0.00     0.729 A 
ATOM     25  H10 UNL     1      25.785  -0.121  76.494  1.00  0.00     0.207 HD
BRANCH  24  26
HETATM   26  N11 UNL     1      23.804  -0.868  74.845  1.00  0.00    -0.231 N 
ATOM     27 2H11 UNL     1      23.451  -1.018  73.900  1.00  0.00     0.174 HD
ATOM     28 1H11 UNL     1      23.314  -0.067  75.244  1.00  0.00     0.174 HD
ENDBRANCH  24  26
ENDBRANCH  12  18
ENDBRANCH   8  10
ENDBRANCH   6   8
BRANCH   7  29
HETATM   29  O3  UNL     1      20.323  -3.196  75.057  1.00  0.00    -0.343 OA
ATOM     30  H3  UNL     1      19.963  -2.859  75.870  1.00  0.00     0.219 HD
ENDBRANCH   7  29
BRANCH   1  31
HETATM   31  C3  UNL     1      18.127  -1.176  74.256  1.00  0.00     0.255 C 
BRANCH  31  32
HETATM   32  C2  UNL     1      17.928   0.111  73.543  1.00  0.00     0.113 A 
HETATM   33  N1  UNL     1      18.817   1.124  73.437  1.00  0.00    -0.185 N 
HETATM   34  C1  UNL     1      20.138   1.149  73.990  1.00  0.00     0.175 C 
HETATM   35  C12 UNL     1      18.253   2.140  72.714  1.00  0.00     0.680 A 
HETATM   36  N14 UNL     1      17.021   1.778  72.366  1.00  0.00    -0.169 N 
HETATM   37  N15 UNL     1      18.863   3.255  72.443  1.00  0.00    -0.234 N 
HETATM   38  C11 UNL     1      16.815   0.547  72.864  1.00  0.00     0.181 A 
ATOM     39  H14 UNL     1      16.358   2.332  71.823  1.00  0.00     0.186 HD
ATOM     40 2H15 UNL     1      19.808   3.532  72.710  1.00  0.00     0.174 HD
ATOM     41 1H15 UNL     1      18.443   4.012  71.905  1.00  0.00     0.174 HD
BRANCH  38  42
HETATM   42  O4  UNL     1      15.631  -0.173  72.703  1.00  0.00    -0.344 OA
ATOM     43  H4  UNL     1      14.781   0.201  72.503  1.00  0.00     0.219 HD
ENDBRANCH  38  42
ENDBRANCH  31  32
BRANCH  31  44
HETATM   44  C4  UNL     1      16.886  -1.705  74.836  1.00  0.00     0.262 C 
HETATM   45  N2  UNL     1      16.353  -1.346  76.081  1.00  0.00    -0.060 NA
HETATM   46  O1  UNL     1      16.233  -2.568  74.141  1.00  0.00    -0.274 OA
ENDBRANCH  31  44
ENDBRANCH   1  31
TORSDOF 9
ENDMDL
