MODEL 1
REMARK VINA RESULT: -9.078497846      0.000      0.000
REMARK  15 active torsions:
REMARK  status: ('A' for Active; 'I' for Inactive)
REMARK    1  A    between atoms: O1_2  and  C2_3 
REMARK    2  A    between atoms: C2_3  and  O2_4 
REMARK    3  A    between atoms: C2_3  and  C3_6 
REMARK    4  A    between atoms: C3_6  and  N1_7 
REMARK    5  A    between atoms: C3_6  and  C4_11 
REMARK    6  A    between atoms: C4_11  and  C5_12 
REMARK    7  A    between atoms: C7_14  and  N2_15 
REMARK    8  A    between atoms: N3_17  and  C8_19 
REMARK    9  A    between atoms: C9_20  and  O3_21 
REMARK   10  A    between atoms: N5_27  and  N6_28 
REMARK   11  A    between atoms: N7_33  and  C12_34 
REMARK   12  A    between atoms: C12_34  and  O6_35 
REMARK   13  A    between atoms: C12_34  and  C13_37 
REMARK   14  A    between atoms: C13_37  and  N8_39 
REMARK   15  A    between atoms: C13_37  and  O7_43 
ROOT
HETATM    1  C5  UNL     1      20.789  -5.005  71.124  1.00  0.00    -0.012 A 
HETATM    2  C6  UNL     1      19.785  -4.076  71.431  1.00  0.00     0.047 A 
HETATM    3  C7  UNL     1      19.485  -3.921  72.758  1.00  0.00     0.117 A 
HETATM    4  C11 UNL     1      20.140  -4.646  73.741  1.00  0.00     0.283 A 
HETATM    5  O5  UNL     1      19.770  -4.407  74.903  1.00  0.00    -0.265 OA
HETATM    6  N7  UNL     1      21.107  -5.542  73.464  1.00  0.00    -0.243 N 
HETATM    7  C15 UNL     1      21.407  -5.696  72.132  1.00  0.00     0.134 A 
HETATM    8  N9  UNL     1      22.425  -6.598  71.731  1.00  0.00    -0.081 NA
ENDROOT
BRANCH   3   9
HETATM    9  N2  UNL     1      18.478  -2.991  73.133  1.00  0.00    -0.294 N 
HETATM   10  N3  UNL     1      18.713  -1.731  73.155  1.00  0.00    -0.280 N 
ATOM     11  H3  UNL     1      19.643  -1.399  72.897  1.00  0.00     0.188 HD
ATOM     12  H2  UNL     1      17.551  -3.332  73.389  1.00  0.00     0.187 HD
BRANCH  10  13
HETATM   13  C8  UNL     1      17.725  -0.781  73.526  1.00  0.00     0.197 A 
HETATM   14  C9  UNL     1      17.061  -0.811  74.741  1.00  0.00     0.192 A 
HETATM   15  N4  UNL     1      16.222   0.226  74.724  1.00  0.00    -0.284 N 
HETATM   16  C10 UNL     1      16.353   0.873  73.554  1.00  0.00     0.349 A 
ATOM     17  H4  UNL     1      15.584   0.485  75.477  1.00  0.00     0.172 HD
HETATM   18  O4  UNL     1      15.723   1.906  73.173  1.00  0.00    -0.245 OA
HETATM   19  N5  UNL     1      17.292   0.256  72.789  1.00  0.00    -0.190 N 
BRANCH  14  20
HETATM   20  O3  UNL     1      17.225  -1.730  75.781  1.00  0.00    -0.343 OA
ATOM     21  H3  UNL     1      17.604  -1.574  76.639  1.00  0.00     0.219 HD
ENDBRANCH  14  20
BRANCH  19  22
HETATM   22  N6  UNL     1      17.713   0.629  71.506  1.00  0.00    -0.333 N 
ATOM     23  H62 UNL     1      18.445   0.189  70.948  1.00  0.00     0.177 HD
ATOM     24  H61 UNL     1      17.357   1.392  70.930  1.00  0.00     0.177 HD
ENDBRANCH  19  22
ENDBRANCH  10  13
ENDBRANCH   3   9
BRANCH   1  25
HETATM   25  C4  UNL     1      21.103  -5.207  69.700  1.00  0.00     0.080 C 
BRANCH  25  26
HETATM   26  C3  UNL     1      20.361  -6.253  68.974  1.00  0.00     0.242 C 
BRANCH  26  27
HETATM   27  C2  UNL     1      21.006  -6.326  67.573  1.00  0.00     0.286 C 
BRANCH  27  28
HETATM   28  O1  UNL     1      20.660  -5.250  66.801  1.00  0.00    -0.364 OA
HETATM   29  C1  UNL     1      21.443  -5.067  65.672  1.00  0.00     0.204 C 
ENDBRANCH  27  28
BRANCH  27  30
HETATM   30  O2  UNL     1      20.701  -7.550  66.976  1.00  0.00    -0.369 OA
ATOM     31  H2  UNL     1      20.270  -8.157  67.566  1.00  0.00     0.212 HD
ENDBRANCH  27  30
ENDBRANCH  26  27
BRANCH  26  32
HETATM   32  N1  UNL     1      20.378  -7.573  69.476  1.00  0.00    -0.070 N 
ATOM     33  H13 UNL     1      20.584  -8.277  68.767  1.00  0.00     0.274 HD
ATOM     34  H12 UNL     1      21.177  -7.770  70.080  1.00  0.00     0.274 HD
ATOM     35  H11 UNL     1      19.477  -7.708  69.935  1.00  0.00     0.274 HD
ENDBRANCH  26  32
ENDBRANCH  25  26
ENDBRANCH   1  25
BRANCH   6  36
HETATM   36  C12 UNL     1      21.808  -6.316  74.396  1.00  0.00     0.191 C 
BRANCH  36  37
HETATM   37  O6  UNL     1      23.044  -5.916  74.620  1.00  0.00    -0.345 OA
ATOM     38  H6  UNL     1      23.543  -5.719  73.836  1.00  0.00     0.219 HD
ENDBRANCH  36  37
BRANCH  36  39
HETATM   39  C13 UNL     1      21.497  -7.479  75.194  1.00  0.00     0.284 C 
HETATM   40  C14 UNL     1      20.832  -8.483  74.207  1.00  0.00     0.088 C 
BRANCH  39  41
HETATM   41  N8  UNL     1      20.360  -7.060  76.077  1.00  0.00    -0.039 N 
ATOM     42  H83 UNL     1      20.583  -6.278  76.693  1.00  0.00     0.278 HD
ATOM     43  H82 UNL     1      19.597  -6.604  75.577  1.00  0.00     0.278 HD
ATOM     44  H81 UNL     1      20.078  -7.906  76.571  1.00  0.00     0.278 HD
ENDBRANCH  39  41
BRANCH  39  45
HETATM   45  O7  UNL     1      22.421  -8.098  75.947  1.00  0.00    -0.359 OA
ATOM     46  H7  UNL     1      23.159  -8.558  75.566  1.00  0.00     0.213 HD
ENDBRANCH  39  45
ENDBRANCH  36  39
ENDBRANCH   6  36
TORSDOF 15
ENDMDL
MODEL 2
REMARK VINA RESULT: -9.009700507      2.366      3.203
REMARK  15 active torsions:
REMARK  status: ('A' for Active; 'I' for Inactive)
REMARK    1  A    between atoms: O1_2  and  C2_3 
REMARK    2  A    between atoms: C2_3  and  O2_4 
REMARK    3  A    between atoms: C2_3  and  C3_6 
REMARK    4  A    between atoms: C3_6  and  N1_7 
REMARK    5  A    between atoms: C3_6  and  C4_11 
REMARK    6  A    between atoms: C4_11  and  C5_12 
REMARK    7  A    between atoms: C7_14  and  N2_15 
REMARK    8  A    between atoms: N3_17  and  C8_19 
REMARK    9  A    between atoms: C9_20  and  O3_21 
REMARK   10  A    between atoms: N5_27  and  N6_28 
REMARK   11  A    between atoms: N7_33  and  C12_34 
REMARK   12  A    between atoms: C12_34  and  O6_35 
REMARK   13  A    between atoms: C12_34  and  C13_37 
REMARK   14  A    between atoms: C13_37  and  N8_39 
REMARK   15  A    between atoms: C13_37  and  O7_43 
ROOT
HETATM    1  C5  UNL     1      21.360  -5.599  71.850  1.00  0.00    -0.012 A 
HETATM    2  C6  UNL     1      20.179  -4.900  72.135  1.00  0.00     0.047 A 
HETATM    3  C7  UNL     1      20.232  -4.013  73.177  1.00  0.00     0.117 A 
HETATM    4  C11 UNL     1      21.394  -3.820  73.909  1.00  0.00     0.283 A 
HETATM    5  O5  UNL     1      21.303  -2.987  74.826  1.00  0.00    -0.265 OA
HETATM    6  N7  UNL     1      22.537  -4.483  73.649  1.00  0.00    -0.243 N 
HETATM    7  C15 UNL     1      22.482  -5.372  72.604  1.00  0.00     0.134 A 
HETATM    8  N9  UNL     1      23.636  -6.107  72.231  1.00  0.00    -0.081 NA
ENDROOT
BRANCH   3   9
HETATM    9  N2  UNL     1      19.067  -3.272  73.511  1.00  0.00    -0.294 N 
HETATM   10  N3  UNL     1      18.686  -3.148  74.729  1.00  0.00    -0.280 N 
ATOM     11  H3  UNL     1      19.235  -3.593  75.465  1.00  0.00     0.188 HD
ATOM     12  H2  UNL     1      18.524  -2.830  72.769  1.00  0.00     0.187 HD
BRANCH  10  13
HETATM   13  C8  UNL     1      17.525  -2.413  75.090  1.00  0.00     0.197 A 
HETATM   14  C9  UNL     1      17.119  -1.265  74.433  1.00  0.00     0.192 A 
HETATM   15  N4  UNL     1      16.004  -0.867  75.049  1.00  0.00    -0.284 N 
HETATM   16  C10 UNL     1      15.727  -1.725  76.044  1.00  0.00     0.349 A 
ATOM     17  H4  UNL     1      15.453  -0.045  74.803  1.00  0.00     0.172 HD
HETATM   18  O4  UNL     1      14.748  -1.676  76.850  1.00  0.00    -0.245 OA
HETATM   19  N5  UNL     1      16.670  -2.703  76.086  1.00  0.00    -0.190 N 
BRANCH  14  20
HETATM   20  O3  UNL     1      17.737  -0.639  73.347  1.00  0.00    -0.343 OA
ATOM     21  H3  UNL     1      17.321  -0.152  72.644  1.00  0.00     0.219 HD
ENDBRANCH  14  20
BRANCH  19  22
HETATM   22  N6  UNL     1      16.730  -3.780  76.980  1.00  0.00    -0.333 N 
ATOM     23  H62 UNL     1      17.275  -4.636  76.875  1.00  0.00     0.177 HD
ATOM     24  H61 UNL     1      16.244  -3.878  77.871  1.00  0.00     0.177 HD
ENDBRANCH  19  22
ENDBRANCH  10  13
ENDBRANCH   3   9
BRANCH   1  25
HETATM   25  C4  UNL     1      21.312  -6.579  70.753  1.00  0.00     0.080 C 
BRANCH  25  26
HETATM   26  C3  UNL     1      20.381  -6.320  69.640  1.00  0.00     0.242 C 
BRANCH  26  27
HETATM   27  C2  UNL     1      21.194  -5.532  68.590  1.00  0.00     0.286 C 
BRANCH  27  28
HETATM   28  O1  UNL     1      20.455  -5.280  67.466  1.00  0.00    -0.364 OA
HETATM   29  C1  UNL     1      21.193  -5.155  66.299  1.00  0.00     0.204 C 
ENDBRANCH  27  28
BRANCH  27  30
HETATM   30  O2  UNL     1      22.390  -6.198  68.322  1.00  0.00    -0.369 OA
ATOM     31  H2  UNL     1      23.081  -5.989  68.941  1.00  0.00     0.212 HD
ENDBRANCH  27  30
ENDBRANCH  26  27
BRANCH  26  32
HETATM   32  N1  UNL     1      19.821  -7.419  68.951  1.00  0.00    -0.070 N 
ATOM     33  H13 UNL     1      20.133  -7.494  67.982  1.00  0.00     0.274 HD
ATOM     34  H12 UNL     1      20.178  -8.322  69.265  1.00  0.00     0.274 HD
ATOM     35  H11 UNL     1      18.811  -7.323  69.048  1.00  0.00     0.274 HD
ENDBRANCH  26  32
ENDBRANCH  25  26
ENDBRANCH   1  25
BRANCH   6  36
HETATM   36  C12 UNL     1      23.745  -4.351  74.345  1.00  0.00     0.191 C 
BRANCH  36  37
HETATM   37  O6  UNL     1      24.383  -5.485  74.554  1.00  0.00    -0.345 OA
ATOM     38  H6  UNL     1      24.656  -5.624  75.454  1.00  0.00     0.219 HD
ENDBRANCH  36  37
BRANCH  36  39
HETATM   39  C13 UNL     1      24.481  -3.242  74.905  1.00  0.00     0.284 C 
HETATM   40  C14 UNL     1      25.930  -3.775  75.104  1.00  0.00     0.088 C 
BRANCH  39  41
HETATM   41  N8  UNL     1      23.972  -3.100  76.309  1.00  0.00    -0.039 N 
ATOM     42  H83 UNL     1      22.979  -2.876  76.366  1.00  0.00     0.278 HD
ATOM     43  H82 UNL     1      23.926  -3.980  76.821  1.00  0.00     0.278 HD
ATOM     44  H81 UNL     1      24.577  -2.403  76.744  1.00  0.00     0.278 HD
ENDBRANCH  39  41
BRANCH  39  45
HETATM   45  O7  UNL     1      24.498  -2.029  74.329  1.00  0.00    -0.359 OA
ATOM     46  H7  UNL     1      24.765  -1.249  74.799  1.00  0.00     0.213 HD
ENDBRANCH  39  45
ENDBRANCH  36  39
ENDBRANCH   6  36
TORSDOF 15
ENDMDL
MODEL 3
REMARK VINA RESULT: -8.787978446      2.613      5.462
REMARK  15 active torsions:
REMARK  status: ('A' for Active; 'I' for Inactive)
REMARK    1  A    between atoms: O1_2  and  C2_3 
REMARK    2  A    between atoms: C2_3  and  O2_4 
REMARK    3  A    between atoms: C2_3  and  C3_6 
REMARK    4  A    between atoms: C3_6  and  N1_7 
REMARK    5  A    between atoms: C3_6  and  C4_11 
REMARK    6  A    between atoms: C4_11  and  C5_12 
REMARK    7  A    between atoms: C7_14  and  N2_15 
REMARK    8  A    between atoms: N3_17  and  C8_19 
REMARK    9  A    between atoms: C9_20  and  O3_21 
REMARK   10  A    between atoms: N5_27  and  N6_28 
REMARK   11  A    between atoms: N7_33  and  C12_34 
REMARK   12  A    between atoms: C12_34  and  O6_35 
REMARK   13  A    between atoms: C12_34  and  C13_37 
REMARK   14  A    between atoms: C13_37  and  N8_39 
REMARK   15  A    between atoms: C13_37  and  O7_43 
ROOT
HETATM    1  C5  UNL     1      21.893  -4.877  73.359  1.00  0.00    -0.012 A 
HETATM    2  C6  UNL     1      20.806  -4.154  73.868  1.00  0.00     0.047 A 
HETATM    3  C7  UNL     1      19.790  -3.883  72.992  1.00  0.00     0.117 A 
HETATM    4  C11 UNL     1      19.837  -4.304  71.671  1.00  0.00     0.283 A 
HETATM    5  O5  UNL     1      18.849  -3.992  70.986  1.00  0.00    -0.265 OA
HETATM    6  N7  UNL     1      20.874  -5.000  71.165  1.00  0.00    -0.243 N 
HETATM    7  C15 UNL     1      21.892  -5.270  72.046  1.00  0.00     0.134 A 
HETATM    8  N9  UNL     1      23.021  -6.016  71.623  1.00  0.00    -0.081 NA
ENDROOT
BRANCH   3   9
HETATM    9  N2  UNL     1      18.659  -3.156  73.451  1.00  0.00    -0.294 N 
HETATM   10  N3  UNL     1      18.443  -2.986  74.703  1.00  0.00    -0.280 N 
ATOM     11  H3  UNL     1      19.100  -3.383  75.374  1.00  0.00     0.188 HD
ATOM     12  H2  UNL     1      18.007  -2.762  72.772  1.00  0.00     0.187 HD
BRANCH  10  13
HETATM   13  C8  UNL     1      17.319  -2.263  75.187  1.00  0.00     0.197 A 
HETATM   14  C9  UNL     1      16.873  -1.082  74.619  1.00  0.00     0.192 A 
HETATM   15  N4  UNL     1      15.813  -0.710  75.338  1.00  0.00    -0.284 N 
HETATM   16  C10 UNL     1      15.606  -1.613  76.310  1.00  0.00     0.349 A 
ATOM     17  H4  UNL     1      15.251   0.126  75.176  1.00  0.00     0.172 HD
HETATM   18  O4  UNL     1      14.693  -1.599  77.190  1.00  0.00    -0.245 OA
HETATM   19  N5  UNL     1      16.541  -2.597  76.231  1.00  0.00    -0.190 N 
BRANCH  14  20
HETATM   20  O3  UNL     1      17.410  -0.408  73.520  1.00  0.00    -0.343 OA
ATOM     21  H3  UNL     1      17.367   0.523  73.332  1.00  0.00     0.219 HD
ENDBRANCH  14  20
BRANCH  19  22
HETATM   22  N6  UNL     1      16.661  -3.715  77.066  1.00  0.00    -0.333 N 
ATOM     23  H62 UNL     1      16.739  -4.691  76.778  1.00  0.00     0.177 HD
ATOM     24  H61 UNL     1      16.690  -3.733  78.085  1.00  0.00     0.177 HD
ENDBRANCH  19  22
ENDBRANCH  10  13
ENDBRANCH   3   9
BRANCH   1  25
HETATM   25  C4  UNL     1      23.008  -5.150  74.280  1.00  0.00     0.080 C 
BRANCH  25  26
HETATM   26  C3  UNL     1      24.138  -4.203  74.291  1.00  0.00     0.242 C 
BRANCH  26  27
HETATM   27  C2  UNL     1      23.674  -3.010  75.153  1.00  0.00     0.286 C 
BRANCH  27  28
HETATM   28  O1  UNL     1      23.348  -1.927  74.382  1.00  0.00    -0.364 OA
HETATM   29  C1  UNL     1      23.958  -0.740  74.755  1.00  0.00     0.204 C 
ENDBRANCH  27  28
BRANCH  27  30
HETATM   30  O2  UNL     1      24.638  -2.723  76.121  1.00  0.00    -0.369 OA
ATOM     31  H2  UNL     1      24.693  -3.385  76.800  1.00  0.00     0.212 HD
ENDBRANCH  27  30
ENDBRANCH  26  27
BRANCH  26  32
HETATM   32  N1  UNL     1      25.371  -4.621  74.841  1.00  0.00    -0.070 N 
ATOM     33  H13 UNL     1      25.271  -5.275  75.616  1.00  0.00     0.274 HD
ATOM     34  H12 UNL     1      25.903  -5.238  74.227  1.00  0.00     0.274 HD
ATOM     35  H11 UNL     1      25.868  -3.766  75.090  1.00  0.00     0.274 HD
ENDBRANCH  26  32
ENDBRANCH  25  26
ENDBRANCH   1  25
BRANCH   6  36
HETATM   36  C12 UNL     1      20.999  -5.452  69.846  1.00  0.00     0.191 C 
BRANCH  36  37
HETATM   37  O6  UNL     1      21.291  -4.511  68.971  1.00  0.00    -0.345 OA
ATOM     38  H6  UNL     1      21.169  -4.765  68.064  1.00  0.00     0.219 HD
ENDBRANCH  36  37
BRANCH  36  39
HETATM   39  C13 UNL     1      20.882  -6.735  69.193  1.00  0.00     0.284 C 
HETATM   40  C14 UNL     1      21.888  -6.681  68.007  1.00  0.00     0.088 C 
BRANCH  39  41
HETATM   41  N8  UNL     1      19.546  -6.711  68.512  1.00  0.00    -0.039 N 
ATOM     42  H83 UNL     1      18.802  -7.156  69.049  1.00  0.00     0.278 HD
ATOM     43  H82 UNL     1      19.124  -5.784  68.468  1.00  0.00     0.278 HD
ATOM     44  H81 UNL     1      19.703  -7.134  67.598  1.00  0.00     0.278 HD
ENDBRANCH  39  41
BRANCH  39  45
HETATM   45  O7  UNL     1      21.002  -7.893  69.863  1.00  0.00    -0.359 OA
ATOM     46  H7  UNL     1      20.428  -8.632  69.704  1.00  0.00     0.213 HD
ENDBRANCH  39  45
ENDBRANCH  36  39
ENDBRANCH   6  36
TORSDOF 15
ENDMDL
MODEL 4
REMARK VINA RESULT: -8.779477493      1.618      2.185
REMARK  15 active torsions:
REMARK  status: ('A' for Active; 'I' for Inactive)
REMARK    1  A    between atoms: O1_2  and  C2_3 
REMARK    2  A    between atoms: C2_3  and  O2_4 
REMARK    3  A    between atoms: C2_3  and  C3_6 
REMARK    4  A    between atoms: C3_6  and  N1_7 
REMARK    5  A    between atoms: C3_6  and  C4_11 
REMARK    6  A    between atoms: C4_11  and  C5_12 
REMARK    7  A    between atoms: C7_14  and  N2_15 
REMARK    8  A    between atoms: N3_17  and  C8_19 
REMARK    9  A    between atoms: C9_20  and  O3_21 
REMARK   10  A    between atoms: N5_27  and  N6_28 
REMARK   11  A    between atoms: N7_33  and  C12_34 
REMARK   12  A    between atoms: C12_34  and  O6_35 
REMARK   13  A    between atoms: C12_34  and  C13_37 
REMARK   14  A    between atoms: C13_37  and  N8_39 
REMARK   15  A    between atoms: C13_37  and  O7_43 
ROOT
HETATM    1  C5  UNL     1      20.629  -5.022  71.178  1.00  0.00    -0.012 A 
HETATM    2  C6  UNL     1      19.553  -4.173  71.472  1.00  0.00     0.047 A 
HETATM    3  C7  UNL     1      19.628  -3.481  72.651  1.00  0.00     0.117 A 
HETATM    4  C11 UNL     1      20.711  -3.617  73.506  1.00  0.00     0.283 A 
HETATM    5  O5  UNL     1      20.651  -2.932  74.541  1.00  0.00    -0.265 OA
HETATM    6  N7  UNL     1      21.753  -4.429  73.240  1.00  0.00    -0.243 N 
HETATM    7  C15 UNL     1      21.676  -5.121  72.056  1.00  0.00     0.134 A 
HETATM    8  N9  UNL     1      22.729  -5.987  71.668  1.00  0.00    -0.081 NA
ENDROOT
BRANCH   3   9
HETATM    9  N2  UNL     1      18.569  -2.601  73.002  1.00  0.00    -0.294 N 
HETATM   10  N3  UNL     1      18.773  -1.344  73.150  1.00  0.00    -0.280 N 
ATOM     11  H3  UNL     1      19.715  -0.977  73.010  1.00  0.00     0.188 HD
ATOM     12  H2  UNL     1      17.630  -2.975  73.140  1.00  0.00     0.187 HD
BRANCH  10  13
HETATM   13  C8  UNL     1      17.733  -0.443  73.501  1.00  0.00     0.197 A 
HETATM   14  C9  UNL     1      16.991  -0.556  74.665  1.00  0.00     0.192 A 
HETATM   15  N4  UNL     1      16.123   0.457  74.644  1.00  0.00    -0.284 N 
HETATM   16  C10 UNL     1      16.311   1.169  73.520  1.00  0.00     0.349 A 
ATOM     17  H4  UNL     1      15.428   0.658  75.364  1.00  0.00     0.172 HD
HETATM   18  O4  UNL     1      15.675   2.202  73.150  1.00  0.00    -0.245 OA
HETATM   19  N5  UNL     1      17.317   0.620  72.790  1.00  0.00    -0.190 N 
BRANCH  14  20
HETATM   20  O3  UNL     1      17.114  -1.523  75.665  1.00  0.00    -0.343 OA
ATOM     21  H3  UNL     1      16.420  -1.916  76.182  1.00  0.00     0.219 HD
ENDBRANCH  14  20
BRANCH  19  22
HETATM   22  N6  UNL     1      17.811   1.072  71.559  1.00  0.00    -0.333 N 
ATOM     23  H62 UNL     1      18.200   0.503  70.808  1.00  0.00     0.177 HD
ATOM     24  H61 UNL     1      17.859   2.033  71.222  1.00  0.00     0.177 HD
ENDBRANCH  19  22
ENDBRANCH  10  13
ENDBRANCH   3   9
BRANCH   1  25
HETATM   25  C4  UNL     1      20.551  -5.797  69.929  1.00  0.00     0.080 C 
BRANCH  25  26
HETATM   26  C3  UNL     1      20.553  -5.052  68.657  1.00  0.00     0.242 C 
BRANCH  26  27
HETATM   27  C2  UNL     1      21.398  -5.897  67.679  1.00  0.00     0.286 C 
BRANCH  27  28
HETATM   28  O1  UNL     1      20.892  -5.856  66.409  1.00  0.00    -0.364 OA
HETATM   29  C1  UNL     1      21.606  -5.065  65.522  1.00  0.00     0.204 C 
ENDBRANCH  27  28
BRANCH  27  30
HETATM   30  O2  UNL     1      21.536  -7.195  68.174  1.00  0.00    -0.369 OA
ATOM     31  H2  UNL     1      21.617  -7.228  69.120  1.00  0.00     0.212 HD
ENDBRANCH  27  30
ENDBRANCH  26  27
BRANCH  26  32
HETATM   32  N1  UNL     1      19.323  -4.819  68.002  1.00  0.00    -0.070 N 
ATOM     33  H13 UNL     1      19.275  -5.226  67.068  1.00  0.00     0.274 HD
ATOM     34  H12 UNL     1      18.542  -5.338  68.403  1.00  0.00     0.274 HD
ATOM     35  H11 UNL     1      19.189  -3.808  68.013  1.00  0.00     0.274 HD
ENDBRANCH  26  32
ENDBRANCH  25  26
ENDBRANCH   1  25
BRANCH   6  36
HETATM   36  C12 UNL     1      22.875  -4.626  74.053  1.00  0.00     0.191 C 
BRANCH  36  37
HETATM   37  O6  UNL     1      23.029  -5.863  74.482  1.00  0.00    -0.345 OA
ATOM     38  H6  UNL     1      23.832  -6.282  74.194  1.00  0.00     0.219 HD
ENDBRANCH  36  37
BRANCH  36  39
HETATM   39  C13 UNL     1      23.933  -3.780  74.551  1.00  0.00     0.284 C 
HETATM   40  C14 UNL     1      23.586  -3.533  76.049  1.00  0.00     0.088 C 
BRANCH  39  41
HETATM   41  N8  UNL     1      23.699  -2.440  73.919  1.00  0.00    -0.039 N 
ATOM     42  H83 UNL     1      22.986  -1.882  74.390  1.00  0.00     0.278 HD
ATOM     43  H82 UNL     1      24.469  -1.784  74.048  1.00  0.00     0.278 HD
ATOM     44  H81 UNL     1      23.487  -2.637  72.941  1.00  0.00     0.278 HD
ENDBRANCH  39  41
BRANCH  39  45
HETATM   45  O7  UNL     1      25.231  -4.099  74.414  1.00  0.00    -0.359 OA
ATOM     46  H7  UNL     1      25.523  -4.790  73.832  1.00  0.00     0.213 HD
ENDBRANCH  39  45
ENDBRANCH  36  39
ENDBRANCH   6  36
TORSDOF 15
ENDMDL
MODEL 5
REMARK VINA RESULT: -8.663214480      1.389      2.097
REMARK  15 active torsions:
REMARK  status: ('A' for Active; 'I' for Inactive)
REMARK    1  A    between atoms: O1_2  and  C2_3 
REMARK    2  A    between atoms: C2_3  and  O2_4 
REMARK    3  A    between atoms: C2_3  and  C3_6 
REMARK    4  A    between atoms: C3_6  and  N1_7 
REMARK    5  A    between atoms: C3_6  and  C4_11 
REMARK    6  A    between atoms: C4_11  and  C5_12 
REMARK    7  A    between atoms: C7_14  and  N2_15 
REMARK    8  A    between atoms: N3_17  and  C8_19 
REMARK    9  A    between atoms: C9_20  and  O3_21 
REMARK   10  A    between atoms: N5_27  and  N6_28 
REMARK   11  A    between atoms: N7_33  and  C12_34 
REMARK   12  A    between atoms: C12_34  and  O6_35 
REMARK   13  A    between atoms: C12_34  and  C13_37 
REMARK   14  A    between atoms: C13_37  and  N8_39 
REMARK   15  A    between atoms: C13_37  and  O7_43 
ROOT
HETATM    1  C5  UNL     1      20.760  -4.922  71.220  1.00  0.00    -0.012 A 
HETATM    2  C6  UNL     1      19.763  -4.038  71.657  1.00  0.00     0.047 A 
HETATM    3  C7  UNL     1      19.537  -3.995  73.006  1.00  0.00     0.117 A 
HETATM    4  C11 UNL     1      20.256  -4.784  73.890  1.00  0.00     0.283 A 
HETATM    5  O5  UNL     1      19.949  -4.645  75.086  1.00  0.00    -0.265 OA
HETATM    6  N7  UNL     1      21.217  -5.638  73.488  1.00  0.00    -0.243 N 
HETATM    7  C15 UNL     1      21.443  -5.681  72.134  1.00  0.00     0.134 A 
HETATM    8  N9  UNL     1      22.448  -6.530  71.606  1.00  0.00    -0.081 NA
ENDROOT
BRANCH   3   9
HETATM    9  N2  UNL     1      18.540  -3.115  73.510  1.00  0.00    -0.294 N 
HETATM   10  N3  UNL     1      18.174  -3.162  74.738  1.00  0.00    -0.280 N 
ATOM     11  H3  UNL     1      18.610  -3.845  75.357  1.00  0.00     0.188 HD
ATOM     12  H2  UNL     1      18.109  -2.435  72.884  1.00  0.00     0.187 HD
BRANCH  10  13
HETATM   13  C8  UNL     1      17.180  -2.295  75.266  1.00  0.00     0.197 A 
HETATM   14  C9  UNL     1      16.812  -1.104  74.662  1.00  0.00     0.192 A 
HETATM   15  N4  UNL     1      15.865  -0.578  75.440  1.00  0.00    -0.284 N 
HETATM   16  C10 UNL     1      15.651  -1.399  76.482  1.00  0.00     0.349 A 
ATOM     17  H4  UNL     1      15.382   0.304  75.272  1.00  0.00     0.172 HD
HETATM   18  O4  UNL     1      14.826  -1.236  77.432  1.00  0.00    -0.245 OA
HETATM   19  N5  UNL     1      16.467  -2.482  76.390  1.00  0.00    -0.190 N 
BRANCH  14  20
HETATM   20  O3  UNL     1      17.318  -0.554  73.481  1.00  0.00    -0.343 OA
ATOM     21  H3  UNL     1      17.146   0.309  73.123  1.00  0.00     0.219 HD
ENDBRANCH  14  20
BRANCH  19  22
HETATM   22  N6  UNL     1      16.542  -3.560  77.281  1.00  0.00    -0.333 N 
ATOM     23  H62 UNL     1      17.303  -3.771  77.927  1.00  0.00     0.177 HD
ATOM     24  H61 UNL     1      15.855  -4.300  77.425  1.00  0.00     0.177 HD
ENDBRANCH  19  22
ENDBRANCH  10  13
ENDBRANCH   3   9
BRANCH   1  25
HETATM   25  C4  UNL     1      20.996  -5.004  69.770  1.00  0.00     0.080 C 
BRANCH  25  26
HETATM   26  C3  UNL     1      20.317  -6.078  69.023  1.00  0.00     0.242 C 
BRANCH  26  27
HETATM   27  C2  UNL     1      21.041  -6.163  67.662  1.00  0.00     0.286 C 
BRANCH  27  28
HETATM   28  O1  UNL     1      20.649  -5.159  66.818  1.00  0.00    -0.364 OA
HETATM   29  C1  UNL     1      21.402  -5.042  65.661  1.00  0.00     0.204 C 
ENDBRANCH  27  28
BRANCH  27  30
HETATM   30  O2  UNL     1      20.874  -7.436  67.115  1.00  0.00    -0.369 OA
ATOM     31  H2  UNL     1      20.994  -8.133  67.749  1.00  0.00     0.212 HD
ENDBRANCH  27  30
ENDBRANCH  26  27
BRANCH  26  32
HETATM   32  N1  UNL     1      20.332  -7.389  69.550  1.00  0.00    -0.070 N 
ATOM     33  H13 UNL     1      19.411  -7.827  69.580  1.00  0.00     0.274 HD
ATOM     34  H12 UNL     1      20.773  -8.072  68.934  1.00  0.00     0.274 HD
ATOM     35  H11 UNL     1      20.779  -7.316  70.464  1.00  0.00     0.274 HD
ENDBRANCH  26  32
ENDBRANCH  25  26
ENDBRANCH   1  25
BRANCH   6  36
HETATM   36  C12 UNL     1      21.979  -6.472  74.315  1.00  0.00     0.191 C 
BRANCH  36  37
HETATM   37  O6  UNL     1      23.258  -6.159  74.378  1.00  0.00    -0.345 OA
ATOM     38  H6  UNL     1      23.668  -6.341  75.216  1.00  0.00     0.219 HD
ENDBRANCH  36  37
BRANCH  36  39
HETATM   39  C13 UNL     1      21.697  -7.624  75.138  1.00  0.00     0.284 C 
HETATM   40  C14 UNL     1      20.940  -8.614  74.205  1.00  0.00     0.088 C 
BRANCH  39  41
HETATM   41  N8  UNL     1      20.635  -7.175  76.097  1.00  0.00    -0.039 N 
ATOM     42  H83 UNL     1      20.888  -6.343  76.631  1.00  0.00     0.278 HD
ATOM     43  H82 UNL     1      19.812  -6.780  75.643  1.00  0.00     0.278 HD
ATOM     44  H81 UNL     1      20.433  -7.990  76.676  1.00  0.00     0.278 HD
ENDBRANCH  39  41
BRANCH  39  45
HETATM   45  O7  UNL     1      22.656  -8.264  75.827  1.00  0.00    -0.359 OA
ATOM     46  H7  UNL     1      22.455  -8.896  76.507  1.00  0.00     0.213 HD
ENDBRANCH  39  45
ENDBRANCH  36  39
ENDBRANCH   6  36
TORSDOF 15
ENDMDL
