MODEL 1
REMARK VINA RESULT: -10.680288999      0.000      0.000
REMARK  11 active torsions:
REMARK  status: ('A' for Active; 'I' for Inactive)
REMARK    1  A    between atoms: N2_5  and  C3_6 
REMARK    2  A    between atoms: N5_11  and  N6_12 
REMARK    3  A    between atoms: N6_12  and  N7_14 
REMARK    4  A    between atoms: N7_14  and  N8_15 
REMARK       I    between atoms: N8_15  and  C4_17 
REMARK    5  A    between atoms: N10_19  and  N11_21 
REMARK    6  A    between atoms: C5_24  and  C6_25 
REMARK    7  A    between atoms: N13_27  and  N14_29 
REMARK    8  A    between atoms: C7_34  and  C8_35 
REMARK    9  A    between atoms: C8_35  and  S1_36 
REMARK   10  A    between atoms: S1_36  and  C9_37 
REMARK   11  A    between atoms: C10_40  and  N17_41 
ROOT
HETATM    1  C3  UNL     1      20.710  -5.170  71.721  1.00  0.00     0.195 A 
HETATM    2  N3  UNL     1      19.784  -4.163  71.953  1.00  0.00    -0.264 N 
ATOM      3  H3  UNL     1      19.086  -3.824  71.291  1.00  0.00     0.190 HD
HETATM    4  N4  UNL     1      19.965  -3.725  73.174  1.00  0.00    -0.217 N 
ATOM      5  H4  UNL     1      19.428  -2.982  73.622  1.00  0.00     0.210 HD
HETATM    6  N5  UNL     1      20.976  -4.416  73.744  1.00  0.00    -0.148 N 
HETATM    7  C5  UNL     1      21.435  -5.295  72.884  1.00  0.00     0.169 A 
ENDROOT
BRANCH   1   8
HETATM    8  N2  UNL     1      20.840  -5.805  70.470  1.00  0.00    -0.175 N 
HETATM    9  N1  UNL     1      21.182  -5.205  69.304  1.00  0.00    -0.280 N 
HETATM   10  C2  UNL     1      21.100  -6.040  68.302  1.00  0.00     0.049 A 
ATOM     11  H1  UNL     1      21.465  -4.229  69.219  1.00  0.00     0.189 HD
HETATM   12  C1  UNL     1      21.387  -5.743  66.890  1.00  0.00     0.072 C 
HETATM   13  C7  UNL     1      20.677  -7.266  68.847  1.00  0.00     0.061 A 
HETATM   14  N15 UNL     1      20.547  -7.045  70.151  1.00  0.00    -0.279 N 
ATOM     15  H15 UNL     1      20.255  -7.754  70.824  1.00  0.00     0.189 HD
BRANCH  13  16
HETATM   16  C8  UNL     1      20.318  -8.363  67.929  1.00  0.00     0.143 C 
BRANCH  16  17
HETATM   17  S1  UNL     1      21.265  -9.853  67.951  1.00  0.00    -0.078 SA
BRANCH  17  18
HETATM   18  C9  UNL     1      21.595 -10.420  66.308  1.00  0.00     0.223 A 
HETATM   19  N16 UNL     1      22.691 -10.861  65.752  1.00  0.00    -0.161 N 
HETATM   20  C10 UNL     1      22.420 -11.164  64.472  1.00  0.00     0.698 A 
ATOM     21  H16 UNL     1      23.597 -10.959  66.210  1.00  0.00     0.187 HD
HETATM   22  N18 UNL     1      21.111 -10.891  64.258  1.00  0.00    -0.089 N 
HETATM   23  O1  UNL     1      20.640 -10.451  65.362  1.00  0.00    -0.197 OA
ATOM     24  H18 UNL     1      20.599 -11.014  63.384  1.00  0.00     0.213 HD
BRANCH  20  25
HETATM   25  N17 UNL     1      23.224 -11.614  63.592  1.00  0.00    -0.233 N 
ATOM     26 2H17 UNL     1      24.040 -12.194  63.790  1.00  0.00     0.174 HD
ATOM     27 1H17 UNL     1      23.178 -11.481  62.582  1.00  0.00     0.174 HD
ENDBRANCH  20  25
ENDBRANCH  17  18
ENDBRANCH  16  17
ENDBRANCH  13  16
ENDBRANCH   1   8
BRANCH   7  28
HETATM   28  C6  UNL     1      22.507  -6.264  73.085  1.00  0.00     0.165 C 
HETATM   29  N12 UNL     1      23.650  -6.212  72.172  1.00  0.00    -0.079 NA
HETATM   30  N13 UNL     1      22.619  -7.155  73.916  1.00  0.00    -0.292 N 
ATOM     31  H13 UNL     1      23.519  -7.588  73.707  1.00  0.00     0.187 HD
BRANCH  30  32
HETATM   32  N14 UNL     1      22.161  -7.833  74.942  1.00  0.00    -0.344 N 
ATOM     33 2H14 UNL     1      21.432  -7.216  75.302  1.00  0.00     0.176 HD
ATOM     34 1H14 UNL     1      22.172  -8.655  75.546  1.00  0.00     0.176 HD
ENDBRANCH  30  32
ENDBRANCH   7  28
BRANCH   6  35
HETATM   35  N6  UNL     1      21.383  -4.050  75.049  1.00  0.00    -0.132 N 
ATOM     36  H6  UNL     1      20.785  -4.235  75.855  1.00  0.00     0.228 HD
BRANCH  35  37
HETATM   37  N7  UNL     1      22.438  -3.523  75.179  1.00  0.00    -0.216 NA
BRANCH  37  38
HETATM   38  N8  UNL     1      23.576  -2.948  75.343  1.00  0.00    -0.184 N 
HETATM   39  C4  UNL     1      24.854  -3.481  74.947  1.00  0.00     0.233 C 
HETATM   40  N9  UNL     1      24.943  -4.913  74.866  1.00  0.00    -0.060 NA
HETATM   41  N10 UNL     1      25.865  -2.775  74.689  1.00  0.00    -0.278 N 
ATOM     42  H10 UNL     1      26.725  -3.252  74.418  1.00  0.00     0.189 HD
ATOM     43  H8  UNL     1      23.573  -2.034  75.794  1.00  0.00     0.207 HD
BRANCH  41  44
HETATM   44  N11 UNL     1      25.882  -1.409  74.750  1.00  0.00    -0.343 N 
ATOM     45 2H11 UNL     1      25.182  -0.914  74.197  1.00  0.00     0.176 HD
ATOM     46 1H11 UNL     1      26.544  -0.870  75.308  1.00  0.00     0.176 HD
ENDBRANCH  41  44
ENDBRANCH  37  38
ENDBRANCH  35  37
ENDBRANCH   6  35
TORSDOF 11
ENDMDL
MODEL 2
REMARK VINA RESULT: -10.364819249      0.709      1.026
REMARK  11 active torsions:
REMARK  status: ('A' for Active; 'I' for Inactive)
REMARK    1  A    between atoms: N2_5  and  C3_6 
REMARK    2  A    between atoms: N5_11  and  N6_12 
REMARK    3  A    between atoms: N6_12  and  N7_14 
REMARK    4  A    between atoms: N7_14  and  N8_15 
REMARK       I    between atoms: N8_15  and  C4_17 
REMARK    5  A    between atoms: N10_19  and  N11_21 
REMARK    6  A    between atoms: C5_24  and  C6_25 
REMARK    7  A    between atoms: N13_27  and  N14_29 
REMARK    8  A    between atoms: C7_34  and  C8_35 
REMARK    9  A    between atoms: C8_35  and  S1_36 
REMARK   10  A    between atoms: S1_36  and  C9_37 
REMARK   11  A    between atoms: C10_40  and  N17_41 
ROOT
HETATM    1  C3  UNL     1      20.738  -5.145  71.662  1.00  0.00     0.195 A 
HETATM    2  N3  UNL     1      19.838  -4.103  71.842  1.00  0.00    -0.264 N 
ATOM      3  H3  UNL     1      19.152  -3.778  71.162  1.00  0.00     0.190 HD
HETATM    4  N4  UNL     1      20.028  -3.613  73.041  1.00  0.00    -0.217 N 
ATOM      5  H4  UNL     1      19.510  -2.836  73.452  1.00  0.00     0.210 HD
HETATM    6  N5  UNL     1      21.019  -4.303  73.647  1.00  0.00    -0.148 N 
HETATM    7  C5  UNL     1      21.456  -5.234  72.832  1.00  0.00     0.169 A 
ENDROOT
BRANCH   1   8
HETATM    8  N2  UNL     1      20.854  -5.842  70.442  1.00  0.00    -0.175 N 
HETATM    9  N1  UNL     1      21.239  -5.312  69.256  1.00  0.00    -0.280 N 
HETATM   10  C2  UNL     1      21.131  -6.187  68.291  1.00  0.00     0.049 A 
ATOM     11  H1  UNL     1      21.571  -4.356  69.132  1.00  0.00     0.189 HD
HETATM   12  C1  UNL     1      21.451  -5.969  66.872  1.00  0.00     0.072 C 
HETATM   13  C7  UNL     1      20.642  -7.366  68.885  1.00  0.00     0.061 A 
HETATM   14  N15 UNL     1      20.506  -7.080  70.175  1.00  0.00    -0.279 N 
ATOM     15  H15 UNL     1      20.171  -7.742  70.875  1.00  0.00     0.189 HD
BRANCH  13  16
HETATM   16  C8  UNL     1      20.243  -8.486  68.011  1.00  0.00     0.143 C 
BRANCH  16  17
HETATM   17  S1  UNL     1      21.215  -9.959  67.997  1.00  0.00    -0.078 SA
BRANCH  17  18
HETATM   18  C9  UNL     1      21.566 -10.474  66.341  1.00  0.00     0.223 A 
HETATM   19  N16 UNL     1      22.657 -10.941  65.796  1.00  0.00    -0.161 N 
HETATM   20  C10 UNL     1      22.408 -11.178  64.498  1.00  0.00     0.698 A 
ATOM     21  H16 UNL     1      23.545 -11.098  66.273  1.00  0.00     0.187 HD
HETATM   22  N18 UNL     1      21.120 -10.838  64.262  1.00  0.00    -0.089 N 
HETATM   23  O1  UNL     1      20.637 -10.422  65.370  1.00  0.00    -0.197 OA
ATOM     24  H18 UNL     1      20.627 -10.902  63.370  1.00  0.00     0.213 HD
BRANCH  20  25
HETATM   25  N17 UNL     1      23.216 -11.629  63.622  1.00  0.00    -0.233 N 
ATOM     26 2H17 UNL     1      23.076 -12.484  63.084  1.00  0.00     0.174 HD
ATOM     27 1H17 UNL     1      24.099 -11.217  63.319  1.00  0.00     0.174 HD
ENDBRANCH  20  25
ENDBRANCH  17  18
ENDBRANCH  16  17
ENDBRANCH  13  16
ENDBRANCH   1   8
BRANCH   7  28
HETATM   28  C6  UNL     1      22.501  -6.220  73.082  1.00  0.00     0.165 C 
HETATM   29  N12 UNL     1      23.699  -6.170  72.242  1.00  0.00    -0.079 NA
HETATM   30  N13 UNL     1      22.551  -7.126  73.905  1.00  0.00    -0.292 N 
ATOM     31  H13 UNL     1      23.456  -7.567  73.744  1.00  0.00     0.187 HD
BRANCH  30  32
HETATM   32  N14 UNL     1      22.022  -7.812  74.890  1.00  0.00    -0.344 N 
ATOM     33 2H14 UNL     1      21.143  -8.135  74.483  1.00  0.00     0.176 HD
ATOM     34 1H14 UNL     1      22.053  -8.175  75.843  1.00  0.00     0.176 HD
ENDBRANCH  30  32
ENDBRANCH   7  28
BRANCH   6  35
HETATM   35  N6  UNL     1      21.432  -3.887  74.935  1.00  0.00    -0.132 N 
ATOM     36  H6  UNL     1      20.798  -3.942  75.732  1.00  0.00     0.228 HD
BRANCH  35  37
HETATM   37  N7  UNL     1      22.536  -3.472  75.062  1.00  0.00    -0.216 NA
BRANCH  37  38
HETATM   38  N8  UNL     1      23.732  -3.027  75.222  1.00  0.00    -0.184 N 
HETATM   39  C4  UNL     1      24.139  -1.649  75.121  1.00  0.00     0.233 C 
HETATM   40  N9  UNL     1      23.324  -0.810  74.287  1.00  0.00    -0.060 NA
HETATM   41  N10 UNL     1      25.148  -1.166  75.700  1.00  0.00    -0.278 N 
ATOM     42  H10 UNL     1      25.351  -0.176  75.561  1.00  0.00     0.189 HD
ATOM     43  H8  UNL     1      24.456  -3.711  75.440  1.00  0.00     0.207 HD
BRANCH  41  44
HETATM   44  N11 UNL     1      25.990  -1.886  76.503  1.00  0.00    -0.343 N 
ATOM     45 2H11 UNL     1      25.557  -2.533  77.163  1.00  0.00     0.176 HD
ATOM     46 1H11 UNL     1      27.007  -1.812  76.477  1.00  0.00     0.176 HD
ENDBRANCH  41  44
ENDBRANCH  37  38
ENDBRANCH  35  37
ENDBRANCH   6  35
TORSDOF 11
ENDMDL
MODEL 3
REMARK VINA RESULT: -9.889975187      2.289      3.907
REMARK  11 active torsions:
REMARK  status: ('A' for Active; 'I' for Inactive)
REMARK    1  A    between atoms: N2_5  and  C3_6 
REMARK    2  A    between atoms: N5_11  and  N6_12 
REMARK    3  A    between atoms: N6_12  and  N7_14 
REMARK    4  A    between atoms: N7_14  and  N8_15 
REMARK       I    between atoms: N8_15  and  C4_17 
REMARK    5  A    between atoms: N10_19  and  N11_21 
REMARK    6  A    between atoms: C5_24  and  C6_25 
REMARK    7  A    between atoms: N13_27  and  N14_29 
REMARK    8  A    between atoms: C7_34  and  C8_35 
REMARK    9  A    between atoms: C8_35  and  S1_36 
REMARK   10  A    between atoms: S1_36  and  C9_37 
REMARK   11  A    between atoms: C10_40  and  N17_41 
ROOT
HETATM    1  C3  UNL     1      20.099  -4.832  71.009  1.00  0.00     0.195 A 
HETATM    2  N3  UNL     1      19.208  -3.776  70.870  1.00  0.00    -0.264 N 
ATOM      3  H3  UNL     1      18.718  -3.513  70.015  1.00  0.00     0.190 HD
HETATM    4  N4  UNL     1      19.111  -3.178  72.030  1.00  0.00    -0.217 N 
ATOM      5  H4  UNL     1      18.528  -2.365  72.230  1.00  0.00     0.210 HD
HETATM    6  N5  UNL     1      19.906  -3.811  72.920  1.00  0.00    -0.148 N 
HETATM    7  C5  UNL     1      20.507  -4.814  72.323  1.00  0.00     0.169 A 
ENDROOT
BRANCH   1   8
HETATM    8  N2  UNL     1      20.493  -5.638  69.922  1.00  0.00    -0.175 N 
HETATM    9  N1  UNL     1      21.096  -5.206  68.788  1.00  0.00    -0.280 N 
HETATM   10  C2  UNL     1      21.224  -6.178  67.923  1.00  0.00     0.049 A 
ATOM     11  H1  UNL     1      21.408  -4.249  68.630  1.00  0.00     0.189 HD
HETATM   12  C1  UNL     1      21.823  -6.082  66.583  1.00  0.00     0.072 C 
HETATM   13  C7  UNL     1      20.668  -7.319  68.531  1.00  0.00     0.061 A 
HETATM   14  N15 UNL     1      20.255  -6.915  69.728  1.00  0.00    -0.279 N 
ATOM     15  H15 UNL     1      19.808  -7.524  70.413  1.00  0.00     0.189 HD
BRANCH  13  16
HETATM   16  C8  UNL     1      20.503  -8.542  67.723  1.00  0.00     0.143 C 
BRANCH  16  17
HETATM   17  S1  UNL     1      21.660  -9.862  67.907  1.00  0.00    -0.078 SA
BRANCH  17  18
HETATM   18  C9  UNL     1      22.453 -10.232  66.369  1.00  0.00     0.223 A 
HETATM   19  N16 UNL     1      22.192 -11.132  65.459  1.00  0.00    -0.161 N 
HETATM   20  C10 UNL     1      23.097 -11.007  64.475  1.00  0.00     0.698 A 
ATOM     21  H16 UNL     1      21.433 -11.813  65.491  1.00  0.00     0.187 HD
HETATM   22  N18 UNL     1      23.928  -9.993  64.812  1.00  0.00    -0.089 N 
HETATM   23  O1  UNL     1      23.527  -9.547  65.941  1.00  0.00    -0.197 OA
ATOM     24  H18 UNL     1      24.722  -9.651  64.270  1.00  0.00     0.213 HD
BRANCH  20  25
HETATM   25  N17 UNL     1      23.190 -11.703  63.412  1.00  0.00    -0.233 N 
ATOM     26 2H17 UNL     1      22.467 -11.775  62.696  1.00  0.00     0.174 HD
ATOM     27 1H17 UNL     1      23.979 -12.275  63.111  1.00  0.00     0.174 HD
ENDBRANCH  20  25
ENDBRANCH  17  18
ENDBRANCH  16  17
ENDBRANCH  13  16
ENDBRANCH   1   8
BRANCH   7  28
HETATM   28  C6  UNL     1      21.433  -5.776  72.909  1.00  0.00     0.165 C 
HETATM   29  N12 UNL     1      22.512  -6.285  72.061  1.00  0.00    -0.079 NA
HETATM   30  N13 UNL     1      21.464  -6.257  74.035  1.00  0.00    -0.292 N 
ATOM     31  H13 UNL     1      22.275  -6.876  74.026  1.00  0.00     0.187 HD
BRANCH  30  32
HETATM   32  N14 UNL     1      20.976  -6.374  75.247  1.00  0.00    -0.344 N 
ATOM     33 2H14 UNL     1      21.166  -5.455  75.648  1.00  0.00     0.176 HD
ATOM     34 1H14 UNL     1      20.510  -6.919  75.973  1.00  0.00     0.176 HD
ENDBRANCH  30  32
ENDBRANCH   7  28
BRANCH   6  35
HETATM   35  N6  UNL     1      20.001  -3.279  74.228  1.00  0.00    -0.132 N 
ATOM     36  H6  UNL     1      20.910  -3.102  74.656  1.00  0.00     0.228 HD
BRANCH  35  37
HETATM   37  N7  UNL     1      18.995  -3.046  74.812  1.00  0.00    -0.216 NA
BRANCH  37  38
HETATM   38  N8  UNL     1      17.893  -2.792  75.423  1.00  0.00    -0.184 N 
HETATM   39  C4  UNL     1      16.746  -2.132  74.854  1.00  0.00     0.233 C 
HETATM   40  N9  UNL     1      17.010  -1.242  73.757  1.00  0.00    -0.060 NA
HETATM   41  N10 UNL     1      15.565  -2.286  75.266  1.00  0.00    -0.278 N 
ATOM     42  H10 UNL     1      14.823  -1.770  74.794  1.00  0.00     0.189 HD
ATOM     43  H8  UNL     1      17.825  -3.084  76.398  1.00  0.00     0.207 HD
BRANCH  41  44
HETATM   44  N11 UNL     1      15.217  -3.100  76.308  1.00  0.00    -0.343 N 
ATOM     45 2H11 UNL     1      15.115  -4.094  76.103  1.00  0.00     0.176 HD
ATOM     46 1H11 UNL     1      15.057  -2.773  77.261  1.00  0.00     0.176 HD
ENDBRANCH  41  44
ENDBRANCH  37  38
ENDBRANCH  35  37
ENDBRANCH   6  35
TORSDOF 11
ENDMDL
MODEL 4
REMARK VINA RESULT: -9.731951914      5.724      9.193
REMARK  11 active torsions:
REMARK  status: ('A' for Active; 'I' for Inactive)
REMARK    1  A    between atoms: N2_5  and  C3_6 
REMARK    2  A    between atoms: N5_11  and  N6_12 
REMARK    3  A    between atoms: N6_12  and  N7_14 
REMARK    4  A    between atoms: N7_14  and  N8_15 
REMARK       I    between atoms: N8_15  and  C4_17 
REMARK    5  A    between atoms: N10_19  and  N11_21 
REMARK    6  A    between atoms: C5_24  and  C6_25 
REMARK    7  A    between atoms: N13_27  and  N14_29 
REMARK    8  A    between atoms: C7_34  and  C8_35 
REMARK    9  A    between atoms: C8_35  and  S1_36 
REMARK   10  A    between atoms: S1_36  and  C9_37 
REMARK   11  A    between atoms: C10_40  and  N17_41 
ROOT
HETATM    1  C3  UNL     1      17.954  -2.819  74.966  1.00  0.00     0.195 A 
HETATM    2  N3  UNL     1      17.629  -3.546  76.102  1.00  0.00    -0.264 N 
ATOM      3  H3  UNL     1      18.062  -4.420  76.399  1.00  0.00     0.190 HD
HETATM    4  N4  UNL     1      16.670  -2.910  76.725  1.00  0.00    -0.217 N 
ATOM      5  H4  UNL     1      16.227  -3.210  77.594  1.00  0.00     0.210 HD
HETATM    6  N5  UNL     1      16.360  -1.792  76.033  1.00  0.00    -0.148 N 
HETATM    7  C5  UNL     1      17.128  -1.718  74.970  1.00  0.00     0.169 A 
ENDROOT
BRANCH   1   8
HETATM    8  N2  UNL     1      18.901  -3.268  74.023  1.00  0.00    -0.175 N 
HETATM    9  N1  UNL     1      18.685  -3.437  72.696  1.00  0.00    -0.280 N 
HETATM   10  C2  UNL     1      19.723  -3.979  72.115  1.00  0.00     0.049 A 
ATOM     11  H1  UNL     1      17.826  -3.176  72.214  1.00  0.00     0.189 HD
HETATM   12  C1  UNL     1      19.850  -4.316  70.689  1.00  0.00     0.072 C 
HETATM   13  C7  UNL     1      20.679  -4.179  73.129  1.00  0.00     0.061 A 
HETATM   14  N15 UNL     1      20.113  -3.724  74.242  1.00  0.00    -0.279 N 
ATOM     15  H15 UNL     1      20.566  -3.728  75.155  1.00  0.00     0.189 HD
BRANCH  13  16
HETATM   16  C8  UNL     1      21.898  -4.946  72.810  1.00  0.00     0.143 C 
BRANCH  16  17
HETATM   17  S1  UNL     1      22.900  -5.561  74.127  1.00  0.00    -0.078 SA
BRANCH  17  18
HETATM   18  C9  UNL     1      24.152  -4.393  74.572  1.00  0.00     0.223 A 
HETATM   19  N16 UNL     1      24.146  -3.087  74.589  1.00  0.00    -0.161 N 
HETATM   20  C10 UNL     1      25.353  -2.668  75.003  1.00  0.00     0.698 A 
ATOM     21  H16 UNL     1      23.361  -2.488  74.333  1.00  0.00     0.187 HD
HETATM   22  N18 UNL     1      26.106  -3.767  75.241  1.00  0.00    -0.089 N 
HETATM   23  O1  UNL     1      25.373  -4.781  74.979  1.00  0.00    -0.197 OA
ATOM     24  H18 UNL     1      27.073  -3.783  75.566  1.00  0.00     0.213 HD
BRANCH  20  25
HETATM   25  N17 UNL     1      25.751  -1.466  75.145  1.00  0.00    -0.233 N 
ATOM     26 2H17 UNL     1      25.338  -0.656  74.683  1.00  0.00     0.174 HD
ATOM     27 1H17 UNL     1      26.515  -1.129  75.731  1.00  0.00     0.174 HD
ENDBRANCH  20  25
ENDBRANCH  17  18
ENDBRANCH  16  17
ENDBRANCH  13  16
ENDBRANCH   1   8
BRANCH   7  28
HETATM   28  C6  UNL     1      17.151  -0.668  73.958  1.00  0.00     0.165 C 
HETATM   29  N12 UNL     1      15.881  -0.299  73.332  1.00  0.00    -0.079 NA
HETATM   30  N13 UNL     1      18.090  -0.017  73.517  1.00  0.00    -0.292 N 
ATOM     31  H13 UNL     1      17.667   0.611  72.834  1.00  0.00     0.187 HD
BRANCH  30  32
HETATM   32  N14 UNL     1      19.369   0.276  73.484  1.00  0.00    -0.344 N 
ATOM     33 2H14 UNL     1      19.356   1.295  73.426  1.00  0.00     0.176 HD
ATOM     34 1H14 UNL     1      20.349  -0.004  73.488  1.00  0.00     0.176 HD
ENDBRANCH  30  32
ENDBRANCH   7  28
BRANCH   6  35
HETATM   35  N6  UNL     1      15.293  -0.990  76.500  1.00  0.00    -0.132 N 
ATOM     36  H6  UNL     1      14.910  -0.239  75.925  1.00  0.00     0.228 HD
BRANCH  35  37
HETATM   37  N7  UNL     1      14.854  -1.216  77.580  1.00  0.00    -0.216 NA
BRANCH  37  38
HETATM   38  N8  UNL     1      14.362  -1.472  78.739  1.00  0.00    -0.184 N 
HETATM   39  C4  UNL     1      14.308  -2.770  79.363  1.00  0.00     0.233 C 
HETATM   40  N9  UNL     1      14.294  -3.898  78.473  1.00  0.00    -0.060 NA
HETATM   41  N10 UNL     1      14.261  -2.953  80.609  1.00  0.00    -0.278 N 
ATOM     42  H10 UNL     1      14.223  -3.914  80.950  1.00  0.00     0.189 HD
ATOM     43  H8  UNL     1      13.976  -0.687  79.263  1.00  0.00     0.207 HD
BRANCH  41  44
HETATM   44  N11 UNL     1      14.257  -1.945  81.533  1.00  0.00    -0.343 N 
ATOM     45 2H11 UNL     1      15.037  -1.288  81.502  1.00  0.00     0.176 HD
ATOM     46 1H11 UNL     1      13.530  -1.818  82.237  1.00  0.00     0.176 HD
ENDBRANCH  41  44
ENDBRANCH  37  38
ENDBRANCH  35  37
ENDBRANCH   6  35
TORSDOF 11
ENDMDL
MODEL 5
REMARK VINA RESULT: -9.714575082      0.987      2.210
REMARK  11 active torsions:
REMARK  status: ('A' for Active; 'I' for Inactive)
REMARK    1  A    between atoms: N2_5  and  C3_6 
REMARK    2  A    between atoms: N5_11  and  N6_12 
REMARK    3  A    between atoms: N6_12  and  N7_14 
REMARK    4  A    between atoms: N7_14  and  N8_15 
REMARK       I    between atoms: N8_15  and  C4_17 
REMARK    5  A    between atoms: N10_19  and  N11_21 
REMARK    6  A    between atoms: C5_24  and  C6_25 
REMARK    7  A    between atoms: N13_27  and  N14_29 
REMARK    8  A    between atoms: C7_34  and  C8_35 
REMARK    9  A    between atoms: C8_35  and  S1_36 
REMARK   10  A    between atoms: S1_36  and  C9_37 
REMARK   11  A    between atoms: C10_40  and  N17_41 
ROOT
HETATM    1  C3  UNL     1      21.687  -5.892  72.038  1.00  0.00     0.195 A 
HETATM    2  N3  UNL     1      22.368  -6.798  72.840  1.00  0.00    -0.264 N 
ATOM      3  H3  UNL     1      22.710  -7.715  72.553  1.00  0.00     0.190 HD
HETATM    4  N4  UNL     1      22.493  -6.266  74.029  1.00  0.00    -0.217 N 
ATOM      5  H4  UNL     1      22.951  -6.704  74.829  1.00  0.00     0.210 HD
HETATM    6  N5  UNL     1      21.918  -5.043  74.028  1.00  0.00    -0.148 N 
HETATM    7  C5  UNL     1      21.430  -4.799  72.833  1.00  0.00     0.169 A 
ENDROOT
BRANCH   1   8
HETATM    8  N2  UNL     1      21.315  -6.186  70.711  1.00  0.00    -0.175 N 
HETATM    9  N1  UNL     1      20.901  -5.290  69.783  1.00  0.00    -0.280 N 
HETATM   10  C2  UNL     1      20.515  -5.890  68.688  1.00  0.00     0.049 A 
ATOM     11  H1  UNL     1      20.892  -4.280  69.920  1.00  0.00     0.189 HD
HETATM   12  C1  UNL     1      19.998  -5.243  67.472  1.00  0.00     0.072 C 
HETATM   13  C7  UNL     1      20.686  -7.268  68.915  1.00  0.00     0.061 A 
HETATM   14  N15 UNL     1      21.173  -7.364  70.148  1.00  0.00    -0.279 N 
ATOM     15  H15 UNL     1      21.408  -8.247  70.602  1.00  0.00     0.189 HD
BRANCH  13  16
HETATM   16  C8  UNL     1      20.162  -8.220  67.917  1.00  0.00     0.143 C 
BRANCH  16  17
HETATM   17  S1  UNL     1      20.762  -9.881  67.910  1.00  0.00    -0.078 SA
BRANCH  17  18
HETATM   18  C9  UNL     1      21.343 -10.340  66.303  1.00  0.00     0.223 A 
HETATM   19  N16 UNL     1      22.524 -10.709  65.885  1.00  0.00    -0.161 N 
HETATM   20  C10 UNL     1      22.447 -10.946  64.566  1.00  0.00     0.698 A 
ATOM     21  H16 UNL     1      23.360 -10.801  66.462  1.00  0.00     0.187 HD
HETATM   22  N18 UNL     1      21.171 -10.708  64.183  1.00  0.00    -0.089 N 
HETATM   23  O1  UNL     1      20.531 -10.349  65.231  1.00  0.00    -0.197 OA
ATOM     24  H18 UNL     1      20.791 -10.797  63.240  1.00  0.00     0.213 HD
BRANCH  20  25
HETATM   25  N17 UNL     1      23.384 -11.316  63.787  1.00  0.00    -0.233 N 
ATOM     26 2H17 UNL     1      23.750 -10.764  63.010  1.00  0.00     0.174 HD
ATOM     27 1H17 UNL     1      23.911 -12.189  63.818  1.00  0.00     0.174 HD
ENDBRANCH  20  25
ENDBRANCH  17  18
ENDBRANCH  16  17
ENDBRANCH  13  16
ENDBRANCH   1   8
BRANCH   7  28
HETATM   28  C6  UNL     1      20.748  -3.593  72.378  1.00  0.00     0.165 C 
HETATM   29  N12 UNL     1      19.434  -3.751  71.751  1.00  0.00    -0.079 NA
HETATM   30  N13 UNL     1      21.099  -2.421  72.426  1.00  0.00    -0.292 N 
ATOM     31  H13 UNL     1      20.325  -1.906  72.007  1.00  0.00     0.187 HD
BRANCH  30  32
HETATM   32  N14 UNL     1      21.974  -1.497  72.747  1.00  0.00    -0.344 N 
ATOM     33 2H14 UNL     1      22.756  -2.051  73.097  1.00  0.00     0.176 HD
ATOM     34 1H14 UNL     1      22.253  -0.519  72.818  1.00  0.00     0.176 HD
ENDBRANCH  30  32
ENDBRANCH   7  28
BRANCH   6  35
HETATM   35  N6  UNL     1      21.881  -4.320  75.243  1.00  0.00    -0.132 N 
ATOM     36  H6  UNL     1      21.112  -4.442  75.902  1.00  0.00     0.228 HD
BRANCH  35  37
HETATM   37  N7  UNL     1      22.769  -3.568  75.474  1.00  0.00    -0.216 NA
BRANCH  37  38
HETATM   38  N8  UNL     1      23.745  -2.765  75.708  1.00  0.00    -0.184 N 
HETATM   39  C4  UNL     1      25.107  -2.944  75.273  1.00  0.00     0.233 C 
HETATM   40  N9  UNL     1      25.524  -4.301  75.047  1.00  0.00    -0.060 NA
HETATM   41  N10 UNL     1      25.924  -2.000  75.100  1.00  0.00    -0.278 N 
ATOM     42  H10 UNL     1      26.867  -2.235  74.791  1.00  0.00     0.189 HD
ATOM     43  H8  UNL     1      23.537  -1.927  76.250  1.00  0.00     0.207 HD
BRANCH  41  44
HETATM   44  N11 UNL     1      25.624  -0.681  75.300  1.00  0.00    -0.343 N 
ATOM     45 2H11 UNL     1      26.168  -0.187  76.008  1.00  0.00     0.176 HD
ATOM     46 1H11 UNL     1      24.901  -0.175  74.789  1.00  0.00     0.176 HD
ENDBRANCH  41  44
ENDBRANCH  37  38
ENDBRANCH  35  37
ENDBRANCH   6  35
TORSDOF 11
ENDMDL
