MODEL 1
REMARK VINA RESULT: -10.297684922      0.000      0.000
REMARK  10 active torsions:
REMARK  status: ('A' for Active; 'I' for Inactive)
REMARK    1  A    between atoms: O1_2  and  N1_3 
REMARK       I    between atoms: C2_5  and  N2_6 
REMARK       I    between atoms: C2_5  and  N9_27 
REMARK    2  A    between atoms: N2_6  and  N3_8 
REMARK    3  A    between atoms: N4_10  and  C3_12 
REMARK    4  A    between atoms: C4_17  and  N7_18 
REMARK    5  A    between atoms: N7_18  and  O2_20 
REMARK    6  A    between atoms: O2_20  and  S1_21 
REMARK    7  A    between atoms: C5_28  and  O6_29 
REMARK    8  A    between atoms: C6_31  and  N10_32 
REMARK    9  A    between atoms: N11_34  and  N12_36 
REMARK   10  A    between atoms: N14_42  and  N15_44 
ROOT
HETATM    1  N1  UNL     1      20.023  -1.930  74.262  1.00  0.00    -0.094 N 
ATOM      2  H1  UNL     1      20.256  -1.760  75.241  1.00  0.00     0.213 HD
HETATM    3  C2  UNL     1      20.899  -2.527  73.544  1.00  0.00     0.741 C 
HETATM    4  N2  UNL     1      20.626  -2.784  72.181  1.00  0.00    -0.114 N 
ATOM      5  H2  UNL     1      21.409  -2.726  71.531  1.00  0.00     0.207 HD
HETATM    6  N9  UNL     1      22.131  -2.912  74.132  1.00  0.00     0.052 N 
HETATM    7  C5  UNL     1      23.292  -2.184  74.116  1.00  0.00     0.228 A 
HETATM    8  C6  UNL     1      24.281  -2.851  74.775  1.00  0.00     0.189 A 
HETATM    9  N13 UNL     1      23.759  -3.988  75.205  1.00  0.00    -0.168 N 
ATOM     10  H13 UNL     1      24.249  -4.708  75.736  1.00  0.00     0.186 HD
HETATM   11  C7  UNL     1      22.453  -4.032  74.817  1.00  0.00     0.721 A 
HETATM   12  N14 UNL     1      21.670  -5.009  75.081  1.00  0.00    -0.137 N 
ATOM     13  H14 UNL     1      22.034  -5.801  75.610  1.00  0.00     0.205 HD
ENDROOT
BRANCH   1  14
HETATM   14  O1  UNL     1      18.814  -1.506  73.827  1.00  0.00    -0.271 OA
HETATM   15  C1  UNL     1      17.625  -1.570  74.629  1.00  0.00     0.238 C 
ENDBRANCH   1  14
BRANCH   4  16
HETATM   16  N3  UNL     1      19.397  -3.107  71.655  1.00  0.00    -0.214 N 
HETATM   17  N4  UNL     1      19.144  -4.014  70.836  1.00  0.00    -0.115 N 
ATOM     18  H4  UNL     1      18.170  -4.112  70.551  1.00  0.00     0.207 HD
ATOM     19  H3  UNL     1      18.606  -2.545  71.969  1.00  0.00     0.209 HD
BRANCH  17  20
HETATM   20  C3  UNL     1      20.057  -4.912  70.265  1.00  0.00     0.727 A 
HETATM   21  N5  UNL     1      20.947  -5.670  70.965  1.00  0.00    -0.116 N 
HETATM   22  N6  UNL     1      21.659  -6.406  70.148  1.00  0.00    -0.115 N 
ATOM     23  H5  UNL     1      21.044  -5.665  71.980  1.00  0.00     0.206 HD
HETATM   24  C4  UNL     1      21.224  -6.118  68.908  1.00  0.00     0.732 A 
ATOM     25  H6  UNL     1      22.394  -7.064  70.402  1.00  0.00     0.206 HD
HETATM   26  N8  UNL     1      20.251  -5.212  68.963  1.00  0.00    -0.017 N 
ATOM     27  H8  UNL     1      19.745  -4.818  68.169  1.00  0.00     0.203 HD
BRANCH  24  28
HETATM   28  N7  UNL     1      21.677  -6.639  67.817  1.00  0.00    -0.075 N 
ATOM     29  H7  UNL     1      22.630  -6.433  67.518  1.00  0.00     0.214 HD
BRANCH  28  30
HETATM   30  O2  UNL     1      20.884  -7.473  67.049  1.00  0.00    -0.117 OA
BRANCH  30  31
HETATM   31  S1  UNL     1      20.717  -9.128  67.462  1.00  0.00     0.274 S 
HETATM   32  O3  UNL     1      19.520  -9.247  68.353  1.00  0.00    -0.571 OA
HETATM   33  O4  UNL     1      21.976  -9.600  68.168  1.00  0.00    -0.571 OA
HETATM   34  O5  UNL     1      20.514 -10.015  66.054  1.00  0.00    -0.571 OA
ENDBRANCH  30  31
ENDBRANCH  28  30
ENDBRANCH  24  28
ENDBRANCH  17  20
ENDBRANCH   4  16
BRANCH   7  35
HETATM   35  O6  UNL     1      23.370  -0.938  73.491  1.00  0.00    -0.342 OA
ATOM     36  H6  UNL     1      24.199  -0.495  73.360  1.00  0.00     0.219 HD
ENDBRANCH   7  35
BRANCH   8  37
HETATM   37  N10 UNL     1      25.603  -2.355  74.931  1.00  0.00    -0.267 N 
HETATM   38  N11 UNL     1      25.842  -1.233  75.461  1.00  0.00    -0.248 N 
ATOM     39  H11 UNL     1      26.803  -0.905  75.558  1.00  0.00     0.207 HD
ATOM     40  H10 UNL     1      26.385  -2.923  74.604  1.00  0.00     0.190 HD
BRANCH  38  41
HETATM   41  N12 UNL     1      24.786  -0.446  75.911  1.00  0.00    -0.331 N 
ATOM     42 2H12 UNL     1      23.917  -0.426  75.377  1.00  0.00     0.178 HD
ATOM     43 1H12 UNL     1      24.893   0.098  76.768  1.00  0.00     0.178 HD
ENDBRANCH  38  41
ENDBRANCH   8  37
BRANCH  12  44
HETATM   44  N15 UNL     1      20.345  -5.028  74.675  1.00  0.00    -0.331 N 
ATOM     45 2H15 UNL     1      20.153  -5.188  73.686  1.00  0.00     0.177 HD
ATOM     46 1H15 UNL     1      19.572  -4.890  75.326  1.00  0.00     0.177 HD
ENDBRANCH  12  44
TORSDOF 10
ENDMDL
MODEL 2
REMARK VINA RESULT: -9.755289787      2.139      4.393
REMARK  10 active torsions:
REMARK  status: ('A' for Active; 'I' for Inactive)
REMARK    1  A    between atoms: O1_2  and  N1_3 
REMARK       I    between atoms: C2_5  and  N2_6 
REMARK       I    between atoms: C2_5  and  N9_27 
REMARK    2  A    between atoms: N2_6  and  N3_8 
REMARK    3  A    between atoms: N4_10  and  C3_12 
REMARK    4  A    between atoms: C4_17  and  N7_18 
REMARK    5  A    between atoms: N7_18  and  O2_20 
REMARK    6  A    between atoms: O2_20  and  S1_21 
REMARK    7  A    between atoms: C5_28  and  O6_29 
REMARK    8  A    between atoms: C6_31  and  N10_32 
REMARK    9  A    between atoms: N11_34  and  N12_36 
REMARK   10  A    between atoms: N14_42  and  N15_44 
ROOT
HETATM    1  N1  UNL     1      21.317  -4.102  74.948  1.00  0.00    -0.094 N 
ATOM      2  H1  UNL     1      21.150  -3.511  75.762  1.00  0.00     0.213 HD
HETATM    3  C2  UNL     1      20.921  -3.665  73.811  1.00  0.00     0.741 C 
HETATM    4  N2  UNL     1      21.127  -4.447  72.652  1.00  0.00    -0.114 N 
ATOM      5  H2  UNL     1      20.404  -4.412  71.933  1.00  0.00     0.207 HD
HETATM    6  N9  UNL     1      20.276  -2.403  73.741  1.00  0.00     0.052 N 
HETATM    7  C5  UNL     1      18.923  -2.189  73.773  1.00  0.00     0.228 A 
HETATM    8  C6  UNL     1      18.650  -0.856  73.685  1.00  0.00     0.189 A 
HETATM    9  N13 UNL     1      19.812  -0.230  73.598  1.00  0.00    -0.168 N 
ATOM     10  H13 UNL     1      19.943   0.779  73.520  1.00  0.00     0.186 HD
HETATM   11  C7  UNL     1      20.804  -1.163  73.631  1.00  0.00     0.721 A 
HETATM   12  N14 UNL     1      22.049  -0.875  73.567  1.00  0.00    -0.137 N 
ATOM     13  H14 UNL     1      22.323   0.105  73.486  1.00  0.00     0.205 HD
ENDROOT
BRANCH   1  14
HETATM   14  O1  UNL     1      21.939  -5.287  75.155  1.00  0.00    -0.271 OA
HETATM   15  C1  UNL     1      21.238  -6.490  75.503  1.00  0.00     0.238 C 
ENDBRANCH   1  14
BRANCH   4  16
HETATM   16  N3  UNL     1      22.216  -5.251  72.409  1.00  0.00    -0.214 N 
HETATM   17  N4  UNL     1      22.389  -6.006  71.430  1.00  0.00    -0.115 N 
ATOM     18  H4  UNL     1      23.262  -6.534  71.411  1.00  0.00     0.207 HD
ATOM     19  H3  UNL     1      22.963  -5.228  73.103  1.00  0.00     0.209 HD
BRANCH  17  20
HETATM   20  C3  UNL     1      21.513  -6.206  70.355  1.00  0.00     0.727 A 
HETATM   21  N5  UNL     1      21.012  -5.217  69.562  1.00  0.00    -0.116 N 
HETATM   22  N6  UNL     1      20.224  -5.722  68.647  1.00  0.00    -0.115 N 
ATOM     23  H5  UNL     1      21.222  -4.224  69.667  1.00  0.00     0.206 HD
HETATM   24  C4  UNL     1      20.215  -7.051  68.852  1.00  0.00     0.732 A 
ATOM     25  H6  UNL     1      19.719  -5.211  67.924  1.00  0.00     0.206 HD
HETATM   26  N8  UNL     1      20.994  -7.360  69.886  1.00  0.00    -0.017 N 
ATOM     27  H8  UNL     1      21.166  -8.296  70.255  1.00  0.00     0.203 HD
BRANCH  24  28
HETATM   28  N7  UNL     1      19.552  -7.911  68.153  1.00  0.00    -0.075 N 
ATOM     29  H7  UNL     1      18.852  -7.587  67.487  1.00  0.00     0.214 HD
BRANCH  28  30
HETATM   30  O2  UNL     1      19.781  -9.269  68.299  1.00  0.00    -0.117 OA
BRANCH  30  31
HETATM   31  S1  UNL     1      21.212  -9.975  67.674  1.00  0.00     0.274 S 
HETATM   32  O3  UNL     1      21.817 -10.798  68.768  1.00  0.00    -0.571 OA
HETATM   33  O4  UNL     1      22.160  -8.879  67.223  1.00  0.00    -0.571 OA
HETATM   34  O5  UNL     1      20.808 -10.927  66.355  1.00  0.00    -0.571 OA
ENDBRANCH  30  31
ENDBRANCH  28  30
ENDBRANCH  24  28
ENDBRANCH  17  20
ENDBRANCH   4  16
BRANCH   7  35
HETATM   35  O6  UNL     1      18.015  -3.243  73.883  1.00  0.00    -0.342 OA
ATOM     36  H6  UNL     1      17.156  -3.208  73.479  1.00  0.00     0.219 HD
ENDBRANCH   7  35
BRANCH   8  37
HETATM   37  N10 UNL     1      17.337  -0.315  73.691  1.00  0.00    -0.267 N 
HETATM   38  N11 UNL     1      16.831   0.236  72.672  1.00  0.00    -0.248 N 
ATOM     39  H11 UNL     1      15.885   0.615  72.710  1.00  0.00     0.207 HD
ATOM     40  H10 UNL     1      16.783  -0.374  74.546  1.00  0.00     0.190 HD
BRANCH  38  41
HETATM   41  N12 UNL     1      17.574   0.323  71.499  1.00  0.00    -0.331 N 
ATOM     42 2H12 UNL     1      17.251   0.937  70.750  1.00  0.00     0.178 HD
ATOM     43 1H12 UNL     1      18.428  -0.226  71.401  1.00  0.00     0.178 HD
ENDBRANCH  38  41
ENDBRANCH   8  37
BRANCH  12  44
HETATM   44  N15 UNL     1      23.039  -1.844  73.603  1.00  0.00    -0.331 N 
ATOM     45 2H15 UNL     1      24.008  -1.532  73.673  1.00  0.00     0.177 HD
ATOM     46 1H15 UNL     1      22.829  -2.841  73.562  1.00  0.00     0.177 HD
ENDBRANCH  12  44
TORSDOF 10
ENDMDL
MODEL 3
REMARK VINA RESULT: -9.727927891      4.594      7.138
REMARK  10 active torsions:
REMARK  status: ('A' for Active; 'I' for Inactive)
REMARK    1  A    between atoms: O1_2  and  N1_3 
REMARK       I    between atoms: C2_5  and  N2_6 
REMARK       I    between atoms: C2_5  and  N9_27 
REMARK    2  A    between atoms: N2_6  and  N3_8 
REMARK    3  A    between atoms: N4_10  and  C3_12 
REMARK    4  A    between atoms: C4_17  and  N7_18 
REMARK    5  A    between atoms: N7_18  and  O2_20 
REMARK    6  A    between atoms: O2_20  and  S1_21 
REMARK    7  A    between atoms: C5_28  and  O6_29 
REMARK    8  A    between atoms: C6_31  and  N10_32 
REMARK    9  A    between atoms: N11_34  and  N12_36 
REMARK   10  A    between atoms: N14_42  and  N15_44 
ROOT
HETATM    1  N1  UNL     1      18.760  -3.062  74.290  1.00  0.00    -0.094 N 
ATOM      2  H1  UNL     1      18.352  -3.996  74.340  1.00  0.00     0.213 HD
HETATM    3  C2  UNL     1      19.942  -2.959  73.809  1.00  0.00     0.741 C 
HETATM    4  N2  UNL     1      20.552  -1.688  73.720  1.00  0.00    -0.114 N 
ATOM      5  H2  UNL     1      21.559  -1.643  73.878  1.00  0.00     0.207 HD
HETATM    6  N9  UNL     1      20.618  -4.130  73.380  1.00  0.00     0.052 N 
HETATM    7  C5  UNL     1      21.490  -4.876  74.130  1.00  0.00     0.228 A 
HETATM    8  C6  UNL     1      21.956  -5.933  73.407  1.00  0.00     0.189 A 
HETATM    9  N13 UNL     1      21.390  -5.863  72.213  1.00  0.00    -0.168 N 
ATOM     10  H13 UNL     1      21.537  -6.516  71.443  1.00  0.00     0.186 HD
HETATM   11  C7  UNL     1      20.576  -4.770  72.189  1.00  0.00     0.721 A 
HETATM   12  N14 UNL     1      19.884  -4.426  71.170  1.00  0.00    -0.137 N 
ATOM     13  H14 UNL     1      19.938  -4.995  70.325  1.00  0.00     0.205 HD
ENDROOT
BRANCH   1  14
HETATM   14  O1  UNL     1      18.007  -2.029  74.739  1.00  0.00    -0.271 OA
HETATM   15  C1  UNL     1      16.799  -2.209  75.493  1.00  0.00     0.238 C 
ENDBRANCH   1  14
BRANCH   4  16
HETATM   16  N3  UNL     1      19.907  -0.505  73.439  1.00  0.00    -0.214 N 
HETATM   17  N4  UNL     1      20.262   0.643  73.777  1.00  0.00    -0.115 N 
ATOM     18  H4  UNL     1      19.660   1.411  73.482  1.00  0.00     0.207 HD
ATOM     19  H3  UNL     1      19.047  -0.574  72.896  1.00  0.00     0.209 HD
BRANCH  17  20
HETATM   20  C3  UNL     1      21.399   0.989  74.520  1.00  0.00     0.727 A 
HETATM   21  N5  UNL     1      21.488   2.061  75.356  1.00  0.00    -0.116 N 
HETATM   22  N6  UNL     1      22.676   2.114  75.904  1.00  0.00    -0.115 N 
ATOM     23  H5  UNL     1      20.735   2.728  75.530  1.00  0.00     0.206 HD
HETATM   24  C4  UNL     1      23.361   1.065  75.415  1.00  0.00     0.732 A 
ATOM     25  H6  UNL     1      23.013   2.811  76.568  1.00  0.00     0.206 HD
HETATM   26  N8  UNL     1      22.598   0.372  74.574  1.00  0.00    -0.017 N 
ATOM     27  H8  UNL     1      22.870  -0.469  74.064  1.00  0.00     0.203 HD
BRANCH  24  28
HETATM   28  N7  UNL     1      24.581   0.765  75.713  1.00  0.00    -0.075 N 
ATOM     29  H7  UNL     1      25.060   1.277  76.454  1.00  0.00     0.214 HD
BRANCH  28  30
HETATM   30  O2  UNL     1      25.246  -0.243  75.037  1.00  0.00    -0.117 OA
BRANCH  30  31
HETATM   31  S1  UNL     1      25.054  -1.877  75.516  1.00  0.00     0.274 S 
HETATM   32  O3  UNL     1      25.108  -1.913  77.012  1.00  0.00    -0.571 OA
HETATM   33  O4  UNL     1      26.162  -2.715  74.905  1.00  0.00    -0.571 OA
HETATM   34  O5  UNL     1      23.575  -2.431  74.952  1.00  0.00    -0.571 OA
ENDBRANCH  30  31
ENDBRANCH  28  30
ENDBRANCH  24  28
ENDBRANCH  17  20
ENDBRANCH   4  16
BRANCH   7  35
HETATM   35  O6  UNL     1      21.805  -4.534  75.446  1.00  0.00    -0.342 OA
ATOM     36  H6  UNL     1      21.808  -5.179  76.143  1.00  0.00     0.219 HD
ENDBRANCH   7  35
BRANCH   8  37
HETATM   37  N10 UNL     1      22.877  -6.891  73.909  1.00  0.00    -0.267 N 
HETATM   38  N11 UNL     1      24.044  -6.574  74.275  1.00  0.00    -0.248 N 
ATOM     39  H11 UNL     1      24.681  -7.287  74.631  1.00  0.00     0.207 HD
ATOM     40  H10 UNL     1      22.586  -7.867  73.976  1.00  0.00     0.190 HD
BRANCH  38  41
HETATM   41  N12 UNL     1      24.455  -5.248  74.189  1.00  0.00    -0.331 N 
ATOM     42 2H12 UNL     1      24.296  -4.625  74.982  1.00  0.00     0.178 HD
ATOM     43 1H12 UNL     1      24.910  -4.915  73.339  1.00  0.00     0.178 HD
ENDBRANCH  38  41
ENDBRANCH   8  37
BRANCH  12  44
HETATM   44  N15 UNL     1      19.064  -3.309  71.172  1.00  0.00    -0.331 N 
ATOM     45 2H15 UNL     1      19.132  -2.670  71.965  1.00  0.00     0.177 HD
ATOM     46 1H15 UNL     1      18.407  -3.112  70.418  1.00  0.00     0.177 HD
ENDBRANCH  12  44
TORSDOF 10
ENDMDL
MODEL 4
REMARK VINA RESULT: -9.386416221      4.156      6.724
REMARK  10 active torsions:
REMARK  status: ('A' for Active; 'I' for Inactive)
REMARK    1  A    between atoms: O1_2  and  N1_3 
REMARK       I    between atoms: C2_5  and  N2_6 
REMARK       I    between atoms: C2_5  and  N9_27 
REMARK    2  A    between atoms: N2_6  and  N3_8 
REMARK    3  A    between atoms: N4_10  and  C3_12 
REMARK    4  A    between atoms: C4_17  and  N7_18 
REMARK    5  A    between atoms: N7_18  and  O2_20 
REMARK    6  A    between atoms: O2_20  and  S1_21 
REMARK    7  A    between atoms: C5_28  and  O6_29 
REMARK    8  A    between atoms: C6_31  and  N10_32 
REMARK    9  A    between atoms: N11_34  and  N12_36 
REMARK   10  A    between atoms: N14_42  and  N15_44 
ROOT
HETATM    1  N1  UNL     1      19.775  -1.465  74.053  1.00  0.00    -0.094 N 
ATOM      2  H1  UNL     1      19.772  -0.670  74.693  1.00  0.00     0.213 HD
HETATM    3  C2  UNL     1      18.655  -2.040  73.822  1.00  0.00     0.741 C 
HETATM    4  N2  UNL     1      18.606  -3.146  72.944  1.00  0.00    -0.114 N 
ATOM      5  H2  UNL     1      17.942  -3.888  73.167  1.00  0.00     0.207 HD
HETATM    6  N9  UNL     1      17.484  -1.556  74.460  1.00  0.00     0.052 N 
HETATM    7  C5  UNL     1      16.955  -2.027  75.633  1.00  0.00     0.228 A 
HETATM    8  C6  UNL     1      15.826  -1.334  75.958  1.00  0.00     0.189 A 
HETATM    9  N13 UNL     1      15.639  -0.435  75.006  1.00  0.00    -0.168 N 
ATOM     10  H13 UNL     1      14.875   0.240  74.964  1.00  0.00     0.186 HD
HETATM   11  C7  UNL     1      16.642  -0.564  74.092  1.00  0.00     0.721 A 
HETATM   12  N14 UNL     1      16.744   0.166  73.047  1.00  0.00    -0.137 N 
ATOM     13  H14 UNL     1      16.041   0.886  72.880  1.00  0.00     0.205 HD
ENDROOT
BRANCH   1  14
HETATM   14  O1  UNL     1      20.964  -1.827  73.516  1.00  0.00    -0.271 OA
HETATM   15  C1  UNL     1      22.099  -0.949  73.458  1.00  0.00     0.238 C 
ENDBRANCH   1  14
BRANCH   4  16
HETATM   16  N3  UNL     1      19.374  -3.310  71.815  1.00  0.00    -0.214 N 
HETATM   17  N4  UNL     1      20.335  -4.093  71.667  1.00  0.00    -0.115 N 
ATOM     18  H4  UNL     1      20.795  -4.083  70.756  1.00  0.00     0.207 HD
ATOM     19  H3  UNL     1      19.133  -2.730  71.012  1.00  0.00     0.209 HD
BRANCH  17  20
HETATM   20  C3  UNL     1      20.850  -4.984  72.618  1.00  0.00     0.727 A 
HETATM   21  N5  UNL     1      21.838  -5.892  72.382  1.00  0.00    -0.116 N 
HETATM   22  N6  UNL     1      22.098  -6.576  73.468  1.00  0.00    -0.115 N 
ATOM     23  H5  UNL     1      22.309  -6.020  71.486  1.00  0.00     0.206 HD
HETATM   24  C4  UNL     1      21.267  -6.104  74.415  1.00  0.00     0.732 A 
ATOM     25  H6  UNL     1      22.790  -7.316  73.574  1.00  0.00     0.206 HD
HETATM   26  N8  UNL     1      20.503  -5.137  73.913  1.00  0.00    -0.017 N 
ATOM     27  H8  UNL     1      19.789  -4.609  74.415  1.00  0.00     0.203 HD
BRANCH  24  28
HETATM   28  N7  UNL     1      21.211  -6.522  75.635  1.00  0.00    -0.075 N 
ATOM     29  H7  UNL     1      21.813  -6.099  76.341  1.00  0.00     0.214 HD
BRANCH  28  30
HETATM   30  O2  UNL     1      20.342  -7.538  75.996  1.00  0.00    -0.117 OA
BRANCH  30  31
HETATM   31  S1  UNL     1      20.698  -9.163  75.588  1.00  0.00     0.274 S 
HETATM   32  O3  UNL     1      22.152  -9.229  75.241  1.00  0.00    -0.571 OA
HETATM   33  O4  UNL     1      19.833  -9.589  74.416  1.00  0.00    -0.571 OA
HETATM   34  O5  UNL     1      20.348 -10.136  76.908  1.00  0.00    -0.571 OA
ENDBRANCH  30  31
ENDBRANCH  28  30
ENDBRANCH  24  28
ENDBRANCH  17  20
ENDBRANCH   4  16
BRANCH   7  35
HETATM   35  O6  UNL     1      17.549  -3.074  76.339  1.00  0.00    -0.342 OA
ATOM     36  H6  UNL     1      17.944  -3.815  75.896  1.00  0.00     0.219 HD
ENDBRANCH   7  35
BRANCH   8  37
HETATM   37  N10 UNL     1      15.049  -1.588  77.119  1.00  0.00    -0.267 N 
HETATM   38  N11 UNL     1      14.464  -2.692  77.310  1.00  0.00    -0.248 N 
ATOM     39  H11 UNL     1      13.913  -2.842  78.155  1.00  0.00     0.207 HD
ATOM     40  H10 UNL     1      14.959  -0.854  77.823  1.00  0.00     0.190 HD
BRANCH  38  41
HETATM   41  N12 UNL     1      14.577  -3.702  76.359  1.00  0.00    -0.331 N 
ATOM     42 2H12 UNL     1      15.423  -3.761  75.793  1.00  0.00     0.178 HD
ATOM     43 1H12 UNL     1      13.814  -4.370  76.241  1.00  0.00     0.178 HD
ENDBRANCH  38  41
ENDBRANCH   8  37
BRANCH  12  44
HETATM   44  N15 UNL     1      17.775   0.014  72.133  1.00  0.00    -0.331 N 
ATOM     45 2H15 UNL     1      17.610   0.323  71.175  1.00  0.00     0.177 HD
ATOM     46 1H15 UNL     1      18.675  -0.390  72.388  1.00  0.00     0.177 HD
ENDBRANCH  12  44
TORSDOF 10
ENDMDL
MODEL 5
REMARK VINA RESULT: -9.373119293      4.161      6.713
REMARK  10 active torsions:
REMARK  status: ('A' for Active; 'I' for Inactive)
REMARK    1  A    between atoms: O1_2  and  N1_3 
REMARK       I    between atoms: C2_5  and  N2_6 
REMARK       I    between atoms: C2_5  and  N9_27 
REMARK    2  A    between atoms: N2_6  and  N3_8 
REMARK    3  A    between atoms: N4_10  and  C3_12 
REMARK    4  A    between atoms: C4_17  and  N7_18 
REMARK    5  A    between atoms: N7_18  and  O2_20 
REMARK    6  A    between atoms: O2_20  and  S1_21 
REMARK    7  A    between atoms: C5_28  and  O6_29 
REMARK    8  A    between atoms: C6_31  and  N10_32 
REMARK    9  A    between atoms: N11_34  and  N12_36 
REMARK   10  A    between atoms: N14_42  and  N15_44 
ROOT
HETATM    1  N1  UNL     1      19.531  -1.407  74.217  1.00  0.00    -0.094 N 
ATOM      2  H1  UNL     1      19.533  -0.745  74.993  1.00  0.00     0.213 HD
HETATM    3  C2  UNL     1      18.433  -2.014  73.963  1.00  0.00     0.741 C 
HETATM    4  N2  UNL     1      18.378  -2.942  72.899  1.00  0.00    -0.114 N 
ATOM      5  H2  UNL     1      17.782  -3.761  73.026  1.00  0.00     0.207 HD
HETATM    6  N9  UNL     1      17.292  -1.744  74.762  1.00  0.00     0.052 N 
HETATM    7  C5  UNL     1      16.893  -2.459  75.861  1.00  0.00     0.228 A 
HETATM    8  C6  UNL     1      15.755  -1.924  76.388  1.00  0.00     0.189 A 
HETATM    9  N13 UNL     1      15.434  -0.883  75.638  1.00  0.00    -0.168 N 
ATOM     10  H13 UNL     1      14.629  -0.271  75.777  1.00  0.00     0.186 HD
HETATM   11  C7  UNL     1      16.363  -0.768  74.647  1.00  0.00     0.721 A 
HETATM   12  N14 UNL     1      16.332   0.145  73.752  1.00  0.00    -0.137 N 
ATOM     13  H14 UNL     1      15.575   0.829  73.773  1.00  0.00     0.205 HD
ENDROOT
BRANCH   1  14
HETATM   14  O1  UNL     1      20.691  -1.574  73.538  1.00  0.00    -0.271 OA
HETATM   15  C1  UNL     1      21.749  -0.605  73.542  1.00  0.00     0.238 C 
ENDBRANCH   1  14
BRANCH   4  16
HETATM   16  N3  UNL     1      19.058  -2.840  71.707  1.00  0.00    -0.214 N 
HETATM   17  N4  UNL     1      19.963  -3.592  71.292  1.00  0.00    -0.115 N 
ATOM     18  H4  UNL     1      20.359  -3.366  70.379  1.00  0.00     0.207 HD
ATOM     19  H3  UNL     1      18.793  -2.067  71.098  1.00  0.00     0.209 HD
BRANCH  17  20
HETATM   20  C3  UNL     1      20.494  -4.712  71.945  1.00  0.00     0.727 A 
HETATM   21  N5  UNL     1      20.833  -5.882  71.335  1.00  0.00    -0.116 N 
HETATM   22  N6  UNL     1      21.301  -6.734  72.213  1.00  0.00    -0.115 N 
ATOM     23  H5  UNL     1      20.736  -6.069  70.337  1.00  0.00     0.206 HD
HETATM   24  C4  UNL     1      21.263  -6.107  73.402  1.00  0.00     0.732 A 
ATOM     25  H6  UNL     1      21.629  -7.682  72.031  1.00  0.00     0.206 HD
HETATM   26  N8  UNL     1      20.775  -4.877  73.255  1.00  0.00    -0.017 N 
ATOM     27  H8  UNL     1      20.639  -4.188  73.995  1.00  0.00     0.203 HD
BRANCH  24  28
HETATM   28  N7  UNL     1      21.642  -6.613  74.527  1.00  0.00    -0.075 N 
ATOM     29  H7  UNL     1      21.051  -7.302  74.994  1.00  0.00     0.214 HD
BRANCH  28  30
HETATM   30  O2  UNL     1      22.839  -6.233  75.107  1.00  0.00    -0.117 OA
BRANCH  30  31
HETATM   31  S1  UNL     1      23.914  -5.195  74.267  1.00  0.00     0.274 S 
HETATM   32  O3  UNL     1      23.964  -5.662  72.846  1.00  0.00    -0.571 OA
HETATM   33  O4  UNL     1      25.285  -5.259  74.916  1.00  0.00    -0.571 OA
HETATM   34  O5  UNL     1      23.334  -3.626  74.368  1.00  0.00    -0.571 OA
ENDBRANCH  30  31
ENDBRANCH  28  30
ENDBRANCH  24  28
ENDBRANCH  17  20
ENDBRANCH   4  16
BRANCH   7  35
HETATM   35  O6  UNL     1      17.607  -3.569  76.314  1.00  0.00    -0.342 OA
ATOM     36  H6  UNL     1      18.048  -4.159  75.715  1.00  0.00     0.219 HD
ENDBRANCH   7  35
BRANCH   8  37
HETATM   37  N10 UNL     1      15.095  -2.442  77.534  1.00  0.00    -0.267 N 
HETATM   38  N11 UNL     1      14.587  -3.600  77.552  1.00  0.00    -0.248 N 
ATOM     39  H11 UNL     1      14.120  -3.942  78.392  1.00  0.00     0.207 HD
ATOM     40  H10 UNL     1      15.028  -1.861  78.370  1.00  0.00     0.190 HD
BRANCH  38  41
HETATM   41  N12 UNL     1      14.671  -4.404  76.420  1.00  0.00    -0.331 N 
ATOM     42 2H12 UNL     1      15.342  -4.167  75.689  1.00  0.00     0.178 HD
ATOM     43 1H12 UNL     1      14.062  -5.219  76.335  1.00  0.00     0.178 HD
ENDBRANCH  38  41
ENDBRANCH   8  37
BRANCH  12  44
HETATM   44  N15 UNL     1      17.290   0.240  72.755  1.00  0.00    -0.331 N 
ATOM     45 2H15 UNL     1      18.213   0.589  73.014  1.00  0.00     0.177 HD
ATOM     46 1H15 UNL     1      17.100  -0.024  71.789  1.00  0.00     0.177 HD
ENDBRANCH  12  44
TORSDOF 10
ENDMDL
