MODEL 1
REMARK VINA RESULT: -11.289593871      0.000      0.000
REMARK  9 active torsions:
REMARK  status: ('A' for Active; 'I' for Inactive)
REMARK    1  A    between atoms: N1_1  and  C1_4 
REMARK    2  A    between atoms: C2_7  and  O1_8 
REMARK    3  A    between atoms: C3_10  and  N3_11 
REMARK    4  A    between atoms: N3_11  and  C4_13 
REMARK    5  A    between atoms: C4_13  and  C5_14 
REMARK    6  A    between atoms: N6_19  and  C6_20 
REMARK    7  A    between atoms: N8_23  and  C7_24 
REMARK    8  A    between atoms: C9_34  and  O4_35 
REMARK    9  A    between atoms: C10_37  and  C11_38 
ROOT
HETATM    1  C5  UNL     1      20.185  -4.108  72.116  1.00  0.00     0.099 A 
HETATM    2  N4  UNL     1      19.321  -3.590  71.237  1.00  0.00    -0.282 N 
ATOM      3  H4  UNL     1      18.724  -2.783  71.423  1.00  0.00     0.188 HD
HETATM    4  N5  UNL     1      19.339  -4.243  70.115  1.00  0.00    -0.233 N 
ATOM      5  H5  UNL     1      18.773  -4.045  69.291  1.00  0.00     0.209 HD
HETATM    6  N6  UNL     1      20.231  -5.218  70.241  1.00  0.00    -0.213 N 
HETATM    7  C10 UNL     1      20.779  -5.183  71.444  1.00  0.00     0.154 A 
ENDROOT
BRANCH   1   8
HETATM    8  C4  UNL     1      20.496  -3.688  73.463  1.00  0.00     0.122 C 
BRANCH   8   9
HETATM    9  N3  UNL     1      21.744  -4.083  74.037  1.00  0.00    -0.356 N 
ATOM     10  H3  UNL     1      21.832  -5.068  74.289  1.00  0.00     0.165 HD
BRANCH   9  11
HETATM   11  C3  UNL     1      22.860  -3.279  74.293  1.00  0.00     0.153 A 
HETATM   12  C2  UNL     1      22.933  -1.915  74.239  1.00  0.00     0.188 A 
HETATM   13  N2  UNL     1      24.082  -1.221  74.464  1.00  0.00    -0.168 N 
HETATM   14  C1  UNL     1      25.212  -1.889  74.756  1.00  0.00     0.680 A 
ATOM     15  H2  UNL     1      24.086  -0.202  74.412  1.00  0.00     0.186 HD
HETATM   16  N13 UNL     1      25.191  -3.230  74.821  1.00  0.00    -0.154 N 
HETATM   17  C12 UNL     1      24.063  -3.931  74.600  1.00  0.00     0.290 A 
ATOM     18  H13 UNL     1      26.052  -3.731  75.043  1.00  0.00     0.187 HD
HETATM   19  O6  UNL     1      24.131  -5.183  74.681  1.00  0.00    -0.265 OA
BRANCH  12  20
HETATM   20  O1  UNL     1      21.818  -1.143  73.952  1.00  0.00    -0.344 OA
ATOM     21  H1  UNL     1      21.891  -0.590  73.183  1.00  0.00     0.219 HD
ENDBRANCH  12  20
BRANCH  14  22
HETATM   22  N1  UNL     1      26.321  -1.248  74.975  1.00  0.00    -0.234 N 
ATOM     23  H12 UNL     1      26.296  -0.255  75.209  1.00  0.00     0.174 HD
ATOM     24  H11 UNL     1      27.218  -1.729  74.914  1.00  0.00     0.174 HD
ENDBRANCH  14  22
ENDBRANCH   9  11
ENDBRANCH   8   9
ENDBRANCH   1   8
BRANCH   7  25
HETATM   25  C11 UNL     1      21.780  -6.054  71.998  1.00  0.00     0.285 C 
HETATM   26  N12 UNL     1      23.157  -6.063  71.645  1.00  0.00    -0.056 NA
HETATM   27  O5  UNL     1      21.481  -6.923  72.893  1.00  0.00    -0.269 OA
ENDBRANCH   7  25
BRANCH   6  28
HETATM   28  C6  UNL     1      20.568  -6.182  69.232  1.00  0.00     0.198 A 
HETATM   29  N7  UNL     1      20.943  -7.466  69.368  1.00  0.00    -0.257 N 
HETATM   30  N8  UNL     1      21.170  -8.035  68.209  1.00  0.00    -0.168 N 
ATOM     31  H7  UNL     1      21.039  -7.940  70.267  1.00  0.00     0.191 HD
HETATM   32  N11 UNL     1      20.939  -7.109  67.286  1.00  0.00    -0.253 N 
HETATM   33  C9  UNL     1      20.565  -5.949  67.872  1.00  0.00     0.205 A 
ATOM     34  H11 UNL     1      21.031  -7.251  66.280  1.00  0.00     0.191 HD
BRANCH  30  35
HETATM   35  C7  UNL     1      21.581  -9.386  68.010  1.00  0.00     0.237 A 
HETATM   36  N9  UNL     1      21.181 -10.483  68.681  1.00  0.00    -0.217 N 
HETATM   37  O2  UNL     1      21.797 -11.541  68.192  1.00  0.00    -0.152 OA
ATOM     38  H9  UNL     1      20.508 -10.494  69.447  1.00  0.00     0.199 HD
HETATM   39  N10 UNL     1      22.593 -11.191  67.221  1.00  0.00    -0.203 N 
HETATM   40  C8  UNL     1      22.482  -9.859  67.081  1.00  0.00     0.316 A 
ATOM     41  H10 UNL     1      23.187 -11.811  66.671  1.00  0.00     0.200 HD
HETATM   42  O3  UNL     1      23.103  -9.179  66.240  1.00  0.00    -0.262 OA
ENDBRANCH  30  35
BRANCH  33  43
HETATM   43  O4  UNL     1      20.259  -4.802  67.174  1.00  0.00    -0.342 OA
ATOM     44  H4  UNL     1      20.640  -4.455  66.376  1.00  0.00     0.219 HD
ENDBRANCH  33  43
ENDBRANCH   6  28
TORSDOF 9
ENDMDL
MODEL 2
REMARK VINA RESULT: -11.209013210      0.543      1.525
REMARK  9 active torsions:
REMARK  status: ('A' for Active; 'I' for Inactive)
REMARK    1  A    between atoms: N1_1  and  C1_4 
REMARK    2  A    between atoms: C2_7  and  O1_8 
REMARK    3  A    between atoms: C3_10  and  N3_11 
REMARK    4  A    between atoms: N3_11  and  C4_13 
REMARK    5  A    between atoms: C4_13  and  C5_14 
REMARK    6  A    between atoms: N6_19  and  C6_20 
REMARK    7  A    between atoms: N8_23  and  C7_24 
REMARK    8  A    between atoms: C9_34  and  O4_35 
REMARK    9  A    between atoms: C10_37  and  C11_38 
ROOT
HETATM    1  C5  UNL     1      20.158  -4.237  72.209  1.00  0.00     0.099 A 
HETATM    2  N4  UNL     1      19.357  -3.649  71.313  1.00  0.00    -0.282 N 
ATOM      3  H4  UNL     1      18.786  -2.825  71.505  1.00  0.00     0.188 HD
HETATM    4  N5  UNL     1      19.398  -4.262  70.169  1.00  0.00    -0.233 N 
ATOM      5  H5  UNL     1      18.878  -4.008  69.330  1.00  0.00     0.209 HD
HETATM    6  N6  UNL     1      20.242  -5.277  70.296  1.00  0.00    -0.213 N 
HETATM    7  C10 UNL     1      20.737  -5.310  71.523  1.00  0.00     0.154 A 
ENDROOT
BRANCH   1   8
HETATM    8  C4  UNL     1      20.425  -3.879  73.583  1.00  0.00     0.122 C 
BRANCH   8   9
HETATM    9  N3  UNL     1      21.058  -2.627  73.858  1.00  0.00    -0.356 N 
ATOM     10  H3  UNL     1      20.456  -1.804  73.834  1.00  0.00     0.165 HD
BRANCH   9  11
HETATM   11  C3  UNL     1      22.405  -2.398  74.158  1.00  0.00     0.153 A 
HETATM   12  C2  UNL     1      23.310  -3.292  74.660  1.00  0.00     0.188 A 
HETATM   13  N2  UNL     1      24.596  -2.961  74.960  1.00  0.00    -0.168 N 
HETATM   14  C1  UNL     1      25.018  -1.700  74.760  1.00  0.00     0.680 A 
ATOM     15  H2  UNL     1      25.234  -3.664  75.334  1.00  0.00     0.186 HD
HETATM   16  N13 UNL     1      24.166  -0.786  74.268  1.00  0.00    -0.154 N 
HETATM   17  C12 UNL     1      22.892  -1.097  73.967  1.00  0.00     0.290 A 
ATOM     18  H13 UNL     1      24.493   0.169  74.119  1.00  0.00     0.187 HD
HETATM   19  O6  UNL     1      22.162  -0.182  73.510  1.00  0.00    -0.265 OA
BRANCH  12  20
HETATM   20  O1  UNL     1      22.966  -4.615  74.891  1.00  0.00    -0.344 OA
ATOM     21  H1  UNL     1      22.599  -5.078  74.147  1.00  0.00     0.219 HD
ENDBRANCH  12  20
BRANCH  14  22
HETATM   22  N1  UNL     1      26.241  -1.361  75.040  1.00  0.00    -0.234 N 
ATOM     23  H12 UNL     1      26.549  -1.330  76.012  1.00  0.00     0.174 HD
ATOM     24  H11 UNL     1      26.897  -1.126  74.295  1.00  0.00     0.174 HD
ENDBRANCH  14  22
ENDBRANCH   9  11
ENDBRANCH   8   9
ENDBRANCH   1   8
BRANCH   7  25
HETATM   25  C11 UNL     1      21.674  -6.243  72.086  1.00  0.00     0.285 C 
HETATM   26  N12 UNL     1      23.073  -6.031  72.221  1.00  0.00    -0.056 NA
HETATM   27  O5  UNL     1      21.290  -7.385  72.526  1.00  0.00    -0.269 OA
ENDBRANCH   7  25
BRANCH   6  28
HETATM   28  C6  UNL     1      20.584  -6.218  69.266  1.00  0.00     0.198 A 
HETATM   29  N7  UNL     1      20.954  -7.506  69.374  1.00  0.00    -0.257 N 
HETATM   30  N8  UNL     1      21.188  -8.047  68.203  1.00  0.00    -0.168 N 
ATOM     31  H7  UNL     1      21.042  -8.002  70.261  1.00  0.00     0.191 HD
HETATM   32  N11 UNL     1      20.967  -7.098  67.302  1.00  0.00    -0.253 N 
HETATM   33  C9  UNL     1      20.592  -5.951  67.912  1.00  0.00     0.205 A 
ATOM     34  H11 UNL     1      21.066  -7.216  66.293  1.00  0.00     0.191 HD
BRANCH  30  35
HETATM   35  C7  UNL     1      21.597  -9.394  67.974  1.00  0.00     0.237 A 
HETATM   36  N9  UNL     1      21.188 -10.506  68.615  1.00  0.00    -0.217 N 
HETATM   37  O2  UNL     1      21.805 -11.554  68.105  1.00  0.00    -0.152 OA
ATOM     38  H9  UNL     1      20.509 -10.533  69.376  1.00  0.00     0.199 HD
HETATM   39  N10 UNL     1      22.609 -11.183  67.149  1.00  0.00    -0.203 N 
HETATM   40  C8  UNL     1      22.503  -9.847  67.041  1.00  0.00     0.316 A 
ATOM     41  H10 UNL     1      23.206 -11.791  66.588  1.00  0.00     0.200 HD
HETATM   42  O3  UNL     1      23.133  -9.148  66.221  1.00  0.00    -0.262 OA
ENDBRANCH  30  35
BRANCH  33  43
HETATM   43  O4  UNL     1      20.294  -4.787  67.241  1.00  0.00    -0.342 OA
ATOM     44  H4  UNL     1      20.503  -4.527  66.351  1.00  0.00     0.219 HD
ENDBRANCH  33  43
ENDBRANCH   6  28
TORSDOF 9
ENDMDL
MODEL 3
REMARK VINA RESULT: -10.546662057      2.502      3.809
REMARK  9 active torsions:
REMARK  status: ('A' for Active; 'I' for Inactive)
REMARK    1  A    between atoms: N1_1  and  C1_4 
REMARK    2  A    between atoms: C2_7  and  O1_8 
REMARK    3  A    between atoms: C3_10  and  N3_11 
REMARK    4  A    between atoms: N3_11  and  C4_13 
REMARK    5  A    between atoms: C4_13  and  C5_14 
REMARK    6  A    between atoms: N6_19  and  C6_20 
REMARK    7  A    between atoms: N8_23  and  C7_24 
REMARK    8  A    between atoms: C9_34  and  O4_35 
REMARK    9  A    between atoms: C10_37  and  C11_38 
ROOT
HETATM    1  C5  UNL     1      20.177  -4.215  72.295  1.00  0.00     0.099 A 
HETATM    2  N4  UNL     1      19.357  -3.631  71.415  1.00  0.00    -0.282 N 
ATOM      3  H4  UNL     1      18.788  -2.808  71.616  1.00  0.00     0.188 HD
HETATM    4  N5  UNL     1      19.379  -4.243  70.270  1.00  0.00    -0.233 N 
ATOM      5  H5  UNL     1      18.843  -3.993  69.440  1.00  0.00     0.209 HD
HETATM    6  N6  UNL     1      20.228  -5.257  70.382  1.00  0.00    -0.213 N 
HETATM    7  C10 UNL     1      20.746  -5.287  71.599  1.00  0.00     0.154 A 
ENDROOT
BRANCH   1   8
HETATM    8  C4  UNL     1      20.468  -3.856  73.665  1.00  0.00     0.122 C 
BRANCH   8   9
HETATM    9  N3  UNL     1      19.380  -3.564  74.545  1.00  0.00    -0.356 N 
ATOM     10  H3  UNL     1      19.177  -4.266  75.257  1.00  0.00     0.165 HD
BRANCH   9  11
HETATM   11  C3  UNL     1      18.563  -2.429  74.546  1.00  0.00     0.153 A 
HETATM   12  C2  UNL     1      18.797  -1.234  73.924  1.00  0.00     0.188 A 
HETATM   13  N2  UNL     1      17.957  -0.167  74.019  1.00  0.00    -0.168 N 
HETATM   14  C1  UNL     1      16.835  -0.272  74.754  1.00  0.00     0.680 A 
ATOM     15  H2  UNL     1      18.175   0.705  73.536  1.00  0.00     0.186 HD
HETATM   16  N13 UNL     1      16.561  -1.426  75.384  1.00  0.00    -0.154 N 
HETATM   17  C12 UNL     1      17.382  -2.489  75.300  1.00  0.00     0.290 A 
ATOM     18  H13 UNL     1      15.709  -1.499  75.940  1.00  0.00     0.187 HD
HETATM   19  O6  UNL     1      17.050  -3.531  75.920  1.00  0.00    -0.265 OA
BRANCH  12  20
HETATM   20  O1  UNL     1      19.923  -1.036  73.139  1.00  0.00    -0.344 OA
ATOM     21  H1  UNL     1      20.736  -0.916  73.616  1.00  0.00     0.219 HD
ENDBRANCH  12  20
BRANCH  14  22
HETATM   22  N1  UNL     1      16.018   0.733  74.860  1.00  0.00    -0.234 N 
ATOM     23  H12 UNL     1      16.319   1.664  74.572  1.00  0.00     0.174 HD
ATOM     24  H11 UNL     1      15.077   0.598  75.228  1.00  0.00     0.174 HD
ENDBRANCH  14  22
ENDBRANCH   9  11
ENDBRANCH   8   9
ENDBRANCH   1   8
BRANCH   7  25
HETATM   25  C11 UNL     1      21.697  -6.217  72.145  1.00  0.00     0.285 C 
HETATM   26  N12 UNL     1      23.100  -6.009  72.237  1.00  0.00    -0.056 NA
HETATM   27  O5  UNL     1      21.322  -7.353  72.609  1.00  0.00    -0.269 OA
ENDBRANCH   7  25
BRANCH   6  28
HETATM   28  C6  UNL     1      20.554  -6.197  69.346  1.00  0.00     0.198 A 
HETATM   29  N7  UNL     1      20.942  -7.480  69.449  1.00  0.00    -0.257 N 
HETATM   30  N8  UNL     1      21.151  -8.022  68.273  1.00  0.00    -0.168 N 
ATOM     31  H7  UNL     1      21.060  -7.972  70.335  1.00  0.00     0.191 HD
HETATM   32  N11 UNL     1      20.895  -7.079  67.375  1.00  0.00    -0.253 N 
HETATM   33  C9  UNL     1      20.523  -5.935  67.992  1.00  0.00     0.205 A 
ATOM     34  H11 UNL     1      20.969  -7.200  66.365  1.00  0.00     0.191 HD
BRANCH  30  35
HETATM   35  C7  UNL     1      21.570  -9.366  68.038  1.00  0.00     0.237 A 
HETATM   36  N9  UNL     1      21.173 -10.483  68.677  1.00  0.00    -0.217 N 
HETATM   37  O2  UNL     1      21.796 -11.524  68.160  1.00  0.00    -0.152 OA
ATOM     38  H9  UNL     1      20.498 -10.518  69.441  1.00  0.00     0.199 HD
HETATM   39  N10 UNL     1      22.592 -11.143  67.202  1.00  0.00    -0.203 N 
HETATM   40  C8  UNL     1      22.475  -9.808  67.099  1.00  0.00     0.316 A 
ATOM     41  H10 UNL     1      23.191 -11.744  66.636  1.00  0.00     0.200 HD
HETATM   42  O3  UNL     1      23.095  -9.102  66.279  1.00  0.00    -0.262 OA
ENDBRANCH  30  35
BRANCH  33  43
HETATM   43  O4  UNL     1      20.193  -4.776  67.325  1.00  0.00    -0.342 OA
ATOM     44  H4  UNL     1      19.487  -4.607  66.713  1.00  0.00     0.219 HD
ENDBRANCH  33  43
ENDBRANCH   6  28
TORSDOF 9
ENDMDL
MODEL 4
REMARK VINA RESULT: -10.193296225      2.088      8.092
REMARK  9 active torsions:
REMARK  status: ('A' for Active; 'I' for Inactive)
REMARK    1  A    between atoms: N1_1  and  C1_4 
REMARK    2  A    between atoms: C2_7  and  O1_8 
REMARK    3  A    between atoms: C3_10  and  N3_11 
REMARK    4  A    between atoms: N3_11  and  C4_13 
REMARK    5  A    between atoms: C4_13  and  C5_14 
REMARK    6  A    between atoms: N6_19  and  C6_20 
REMARK    7  A    between atoms: N8_23  and  C7_24 
REMARK    8  A    between atoms: C9_34  and  O4_35 
REMARK    9  A    between atoms: C10_37  and  C11_38 
ROOT
HETATM    1  C5  UNL     1      20.678  -5.512  71.223  1.00  0.00     0.099 A 
HETATM    2  N4  UNL     1      19.880  -4.461  71.004  1.00  0.00    -0.282 N 
ATOM      3  H4  UNL     1      19.072  -4.472  70.381  1.00  0.00     0.188 HD
HETATM    4  N5  UNL     1      20.265  -3.425  71.685  1.00  0.00    -0.233 N 
ATOM      5  H5  UNL     1      19.823  -2.506  71.689  1.00  0.00     0.209 HD
HETATM    6  N6  UNL     1      21.339  -3.785  72.376  1.00  0.00    -0.213 N 
HETATM    7  C10 UNL     1      21.637  -5.050  72.131  1.00  0.00     0.154 A 
ENDROOT
BRANCH   1   8
HETATM    8  C4  UNL     1      20.607  -6.852  70.688  1.00  0.00     0.122 C 
BRANCH   8   9
HETATM    9  N3  UNL     1      20.144  -7.035  69.348  1.00  0.00    -0.356 N 
ATOM     10  H3  UNL     1      19.431  -7.752  69.211  1.00  0.00     0.165 HD
BRANCH   9  11
HETATM   11  C3  UNL     1      20.553  -6.346  68.201  1.00  0.00     0.153 A 
HETATM   12  C2  UNL     1      19.956  -5.258  67.626  1.00  0.00     0.188 A 
HETATM   13  N2  UNL     1      20.408  -4.680  66.479  1.00  0.00    -0.168 N 
HETATM   14  C1  UNL     1      21.492  -5.187  65.866  1.00  0.00     0.680 A 
ATOM     15  H2  UNL     1      19.927  -3.870  66.088  1.00  0.00     0.186 HD
HETATM   16  N13 UNL     1      22.113  -6.255  66.392  1.00  0.00    -0.154 N 
HETATM   17  C12 UNL     1      21.679  -6.837  67.525  1.00  0.00     0.290 A 
ATOM     18  H13 UNL     1      22.936  -6.634  65.922  1.00  0.00     0.187 HD
HETATM   19  O6  UNL     1      22.319  -7.832  67.950  1.00  0.00    -0.265 OA
BRANCH  12  20
HETATM   20  O1  UNL     1      18.838  -4.665  68.192  1.00  0.00    -0.344 OA
ATOM     21  H1  UNL     1      18.009  -4.882  67.781  1.00  0.00     0.219 HD
ENDBRANCH  12  20
BRANCH  14  22
HETATM   22  N1  UNL     1      21.941  -4.652  64.770  1.00  0.00    -0.234 N 
ATOM     23  H12 UNL     1      22.185  -3.662  64.751  1.00  0.00     0.174 HD
ATOM     24  H11 UNL     1      22.051  -5.215  63.926  1.00  0.00     0.174 HD
ENDBRANCH  14  22
ENDBRANCH   9  11
ENDBRANCH   8   9
ENDBRANCH   1   8
BRANCH   7  25
HETATM   25  C11 UNL     1      22.720  -5.834  72.661  1.00  0.00     0.285 C 
HETATM   26  N12 UNL     1      22.782  -6.382  73.971  1.00  0.00    -0.056 NA
HETATM   27  O5  UNL     1      23.753  -6.105  71.950  1.00  0.00    -0.269 OA
ENDBRANCH   7  25
BRANCH   6  28
HETATM   28  C6  UNL     1      22.087  -2.940  73.264  1.00  0.00     0.198 A 
HETATM   29  N7  UNL     1      23.216  -3.204  73.945  1.00  0.00    -0.257 N 
HETATM   30  N8  UNL     1      23.607  -2.176  74.660  1.00  0.00    -0.168 N 
ATOM     31  H7  UNL     1      23.709  -4.096  73.910  1.00  0.00     0.191 HD
HETATM   32  N11 UNL     1      22.719  -1.213  74.448  1.00  0.00    -0.253 N 
HETATM   33  C9  UNL     1      21.762  -1.640  73.592  1.00  0.00     0.205 A 
ATOM     34  H11 UNL     1      22.752  -0.285  74.869  1.00  0.00     0.191 HD
BRANCH  30  35
HETATM   35  C7  UNL     1      24.764  -2.132  75.493  1.00  0.00     0.237 A 
HETATM   36  N9  UNL     1      25.162  -1.137  76.309  1.00  0.00    -0.217 N 
HETATM   37  O2  UNL     1      26.286  -1.487  76.905  1.00  0.00    -0.152 OA
ATOM     38  H9  UNL     1      24.673  -0.252  76.444  1.00  0.00     0.199 HD
HETATM   39  N10 UNL     1      26.650  -2.677  76.518  1.00  0.00    -0.203 N 
HETATM   40  C8  UNL     1      25.726  -3.106  75.641  1.00  0.00     0.316 A 
ATOM     41  H10 UNL     1      27.480  -3.186  76.822  1.00  0.00     0.200 HD
HETATM   42  O3  UNL     1      25.754  -4.213  75.065  1.00  0.00    -0.262 OA
ENDBRANCH  30  35
BRANCH  33  43
HETATM   43  O4  UNL     1      20.702  -0.865  73.178  1.00  0.00    -0.342 OA
ATOM     44  H4  UNL     1      20.679  -0.149  72.554  1.00  0.00     0.219 HD
ENDBRANCH  33  43
ENDBRANCH   6  28
TORSDOF 9
ENDMDL
MODEL 5
REMARK VINA RESULT: -10.189703387      2.263      3.359
REMARK  9 active torsions:
REMARK  status: ('A' for Active; 'I' for Inactive)
REMARK    1  A    between atoms: N1_1  and  C1_4 
REMARK    2  A    between atoms: C2_7  and  O1_8 
REMARK    3  A    between atoms: C3_10  and  N3_11 
REMARK    4  A    between atoms: N3_11  and  C4_13 
REMARK    5  A    between atoms: C4_13  and  C5_14 
REMARK    6  A    between atoms: N6_19  and  C6_20 
REMARK    7  A    between atoms: N8_23  and  C7_24 
REMARK    8  A    between atoms: C9_34  and  O4_35 
REMARK    9  A    between atoms: C10_37  and  C11_38 
ROOT
HETATM    1  C5  UNL     1      20.186  -4.199  72.104  1.00  0.00     0.099 A 
HETATM    2  N4  UNL     1      19.376  -3.635  71.202  1.00  0.00    -0.282 N 
ATOM      3  H4  UNL     1      18.801  -2.811  71.380  1.00  0.00     0.188 HD
HETATM    4  N5  UNL     1      19.413  -4.271  70.071  1.00  0.00    -0.233 N 
ATOM      5  H5  UNL     1      18.886  -4.039  69.229  1.00  0.00     0.209 HD
HETATM    6  N6  UNL     1      20.264  -5.279  70.213  1.00  0.00    -0.213 N 
HETATM    7  C10 UNL     1      20.767  -5.283  71.437  1.00  0.00     0.154 A 
ENDROOT
BRANCH   1   8
HETATM    8  C4  UNL     1      20.460  -3.812  73.469  1.00  0.00     0.122 C 
BRANCH   8   9
HETATM    9  N3  UNL     1      20.790  -2.448  73.744  1.00  0.00    -0.356 N 
ATOM     10  H3  UNL     1      21.764  -2.260  73.985  1.00  0.00     0.165 HD
BRANCH   9  11
HETATM   11  C3  UNL     1      19.936  -1.340  73.722  1.00  0.00     0.153 A 
HETATM   12  C2  UNL     1      18.571  -1.340  73.801  1.00  0.00     0.188 A 
HETATM   13  N2  UNL     1      17.820  -0.207  73.727  1.00  0.00    -0.168 N 
HETATM   14  C1  UNL     1      18.431   0.981  73.569  1.00  0.00     0.680 A 
ATOM     15  H2  UNL     1      16.804  -0.258  73.790  1.00  0.00     0.186 HD
HETATM   16  N13 UNL     1      19.770   1.033  73.487  1.00  0.00    -0.154 N 
HETATM   17  C12 UNL     1      20.526  -0.079  73.558  1.00  0.00     0.290 A 
ATOM     18  H13 UNL     1      20.227   1.937  73.367  1.00  0.00     0.187 HD
HETATM   19  O6  UNL     1      21.772   0.059  73.473  1.00  0.00    -0.265 OA
BRANCH  12  20
HETATM   20  O1  UNL     1      17.857  -2.516  73.971  1.00  0.00    -0.344 OA
ATOM     21  H1  UNL     1      17.698  -3.015  73.178  1.00  0.00     0.219 HD
ENDBRANCH  12  20
BRANCH  14  22
HETATM   22  N1  UNL     1      17.735   2.076  73.496  1.00  0.00    -0.234 N 
ATOM     23  H12 UNL     1      18.192   2.978  73.629  1.00  0.00     0.174 HD
ATOM     24  H11 UNL     1      16.734   2.042  73.305  1.00  0.00     0.174 HD
ENDBRANCH  14  22
ENDBRANCH   9  11
ENDBRANCH   8   9
ENDBRANCH   1   8
BRANCH   7  25
HETATM   25  C11 UNL     1      21.715  -6.198  72.013  1.00  0.00     0.285 C 
HETATM   26  N12 UNL     1      23.116  -5.983  72.117  1.00  0.00    -0.056 NA
HETATM   27  O5  UNL     1      21.338  -7.326  72.496  1.00  0.00    -0.269 OA
ENDBRANCH   7  25
BRANCH   6  28
HETATM   28  C6  UNL     1      20.606  -6.239  69.201  1.00  0.00     0.198 A 
HETATM   29  N7  UNL     1      20.965  -7.527  69.332  1.00  0.00    -0.257 N 
HETATM   30  N8  UNL     1      21.202  -8.089  68.171  1.00  0.00    -0.168 N 
ATOM     31  H7  UNL     1      21.044  -8.010  70.227  1.00  0.00     0.191 HD
HETATM   32  N11 UNL     1      20.995  -7.153  67.253  1.00  0.00    -0.253 N 
HETATM   33  C9  UNL     1      20.625  -5.994  67.843  1.00  0.00     0.205 A 
ATOM     34  H11 UNL     1      21.100  -7.289  66.248  1.00  0.00     0.191 HD
BRANCH  30  35
HETATM   35  C7  UNL     1      21.602  -9.443  67.967  1.00  0.00     0.237 A 
HETATM   36  N9  UNL     1      21.192 -10.539  68.633  1.00  0.00    -0.217 N 
HETATM   37  O2  UNL     1      21.800 -11.601  68.139  1.00  0.00    -0.152 OA
ATOM     38  H9  UNL     1      20.517 -10.548  69.398  1.00  0.00     0.199 HD
HETATM   39  N10 UNL     1      22.599 -11.254  67.171  1.00  0.00    -0.203 N 
HETATM   40  C8  UNL     1      22.500  -9.920  67.037  1.00  0.00     0.316 A 
ATOM     41  H10 UNL     1      23.189 -11.876  66.619  1.00  0.00     0.200 HD
HETATM   42  O3  UNL     1      23.129  -9.241  66.200  1.00  0.00    -0.262 OA
ENDBRANCH  30  35
BRANCH  33  43
HETATM   43  O4  UNL     1      20.340  -4.838  67.151  1.00  0.00    -0.342 OA
ATOM     44  H4  UNL     1      19.655  -4.662  66.518  1.00  0.00     0.219 HD
ENDBRANCH  33  43
ENDBRANCH   6  28
TORSDOF 9
ENDMDL
