MODEL 1
REMARK VINA RESULT: -10.145658196      0.000      0.000
REMARK  6 active torsions:
REMARK  status: ('A' for Active; 'I' for Inactive)
REMARK    1  A    between atoms: N1_1  and  C1_4 
REMARK    2  A    between atoms: C2_10  and  N4_11 
REMARK    3  A    between atoms: C4_13  and  C5_14 
REMARK    4  A    between atoms: N7_18  and  C6_19 
REMARK    5  A    between atoms: C9_26  and  N11_27 
REMARK       I    between atoms: N11_27  and  C10_29 
REMARK    6  A    between atoms: C12_38  and  C13_39 
ROOT
HETATM    1  C5  UNL     1      19.296  -2.504  73.557  1.00  0.00     0.163 A 
HETATM    2  N5  UNL     1      18.698  -2.496  74.757  1.00  0.00    -0.265 N 
ATOM      3  H5  UNL     1      18.719  -3.262  75.430  1.00  0.00     0.186 HD
HETATM    4  N6  UNL     1      18.064  -1.324  74.939  1.00  0.00     0.003 NA
HETATM    5  N7  UNL     1      18.266  -0.600  73.852  1.00  0.00    -0.171 N 
HETATM    6  N12 UNL     1      19.020  -1.314  73.000  1.00  0.00    -0.262 N 
ATOM      7  H12 UNL     1      19.332  -1.002  72.080  1.00  0.00     0.190 HD
ENDROOT
BRANCH   1   8
HETATM    8  C4  UNL     1      20.093  -3.575  72.952  1.00  0.00     0.097 A 
HETATM    9  C3  UNL     1      19.793  -4.326  71.835  1.00  0.00     0.134 A 
HETATM   10  N4  UNL     1      20.784  -5.230  71.581  1.00  0.00    -0.283 N 
HETATM   11  C12 UNL     1      21.702  -5.047  72.533  1.00  0.00     0.180 A 
HETATM   12  N13 UNL     1      21.284  -4.044  73.363  1.00  0.00    -0.334 N 
ATOM     13  H13 UNL     1      21.800  -3.703  74.174  1.00  0.00     0.168 HD
BRANCH  10  14
HETATM   14  C2  UNL     1      20.797  -6.170  70.497  1.00  0.00     0.181 A 
HETATM   15  C1  UNL     1      20.658  -5.846  69.164  1.00  0.00     0.168 A 
HETATM   16  N2  UNL     1      20.729  -6.993  68.472  1.00  0.00    -0.222 N 
HETATM   17  O1  UNL     1      20.901  -7.986  69.310  1.00  0.00    -0.153 OA
ATOM     18  H2  UNL     1      20.659  -7.078  67.458  1.00  0.00     0.198 HD
HETATM   19  N3  UNL     1      20.941  -7.502  70.514  1.00  0.00    -0.221 N 
ATOM     20  H3  UNL     1      21.066  -8.060  71.359  1.00  0.00     0.198 HD
BRANCH  15  21
HETATM   21  N1  UNL     1      20.494  -4.665  68.687  1.00  0.00    -0.381 N 
ATOM     22  H12 UNL     1      19.760  -4.376  68.041  1.00  0.00     0.157 HD
ATOM     23  H11 UNL     1      21.065  -3.841  68.878  1.00  0.00     0.157 HD
ENDBRANCH  15  21
ENDBRANCH  10  14
BRANCH  11  24
HETATM   24  C13 UNL     1      22.953  -5.770  72.697  1.00  0.00     0.299 C 
HETATM   25  N14 UNL     1      23.401  -6.075  74.005  1.00  0.00    -0.054 NA
HETATM   26  O5  UNL     1      23.612  -6.108  71.669  1.00  0.00    -0.268 OA
ENDBRANCH  11  24
ENDBRANCH   1   8
BRANCH   5  27
HETATM   27  C6  UNL     1      17.756   0.712  73.655  1.00  0.00     0.166 A 
HETATM   28  C7  UNL     1      16.482   0.928  73.164  1.00  0.00     0.152 A 
HETATM   29  N8  UNL     1      15.669  -0.194  72.851  1.00  0.00    -0.080 NA
HETATM   30  N9  UNL     1      15.987   2.165  72.973  1.00  0.00    -0.329 N 
HETATM   31  C8  UNL     1      16.741   3.265  73.263  1.00  0.00     0.148 A 
ATOM     32  H9  UNL     1      15.042   2.281  72.608  1.00  0.00     0.168 HD
HETATM   33  N10 UNL     1      16.229   4.575  73.064  1.00  0.00    -0.080 NA
HETATM   34  C9  UNL     1      18.018   3.118  73.755  1.00  0.00     0.132 A 
HETATM   35  C11 UNL     1      18.504   1.853  73.943  1.00  0.00     0.235 A 
HETATM   36  O4  UNL     1      19.674   1.731  74.393  1.00  0.00    -0.283 OA
BRANCH  34  37
HETATM   37  N11 UNL     1      18.764   4.295  74.041  1.00  0.00    -0.294 N 
HETATM   38  C10 UNL     1      19.510   4.946  73.030  1.00  0.00     0.288 C 
HETATM   39  O2  UNL     1      19.523   4.496  71.871  1.00  0.00    -0.629 OA
HETATM   40  O3  UNL     1      20.228   6.087  73.325  1.00  0.00    -0.629 OA
ATOM     41  H11 UNL     1      18.760   4.675  74.988  1.00  0.00     0.172 HD
ENDBRANCH  34  37
ENDBRANCH   5  27
TORSDOF 6
ENDMDL
MODEL 2
REMARK VINA RESULT: -10.066141379      1.605      3.368
REMARK  6 active torsions:
REMARK  status: ('A' for Active; 'I' for Inactive)
REMARK    1  A    between atoms: N1_1  and  C1_4 
REMARK    2  A    between atoms: C2_10  and  N4_11 
REMARK    3  A    between atoms: C4_13  and  C5_14 
REMARK    4  A    between atoms: N7_18  and  C6_19 
REMARK    5  A    between atoms: C9_26  and  N11_27 
REMARK       I    between atoms: N11_27  and  C10_29 
REMARK    6  A    between atoms: C12_38  and  C13_39 
ROOT
HETATM    1  C5  UNL     1      19.549  -2.169  74.006  1.00  0.00     0.163 A 
HETATM    2  N5  UNL     1      18.419  -2.389  74.695  1.00  0.00    -0.265 N 
ATOM      3  H5  UNL     1      18.186  -3.255  75.179  1.00  0.00     0.186 HD
HETATM    4  N6  UNL     1      17.641  -1.293  74.650  1.00  0.00     0.003 NA
HETATM    5  N7  UNL     1      18.284  -0.388  73.933  1.00  0.00    -0.171 N 
HETATM    6  N12 UNL     1      19.454  -0.915  73.534  1.00  0.00    -0.262 N 
ATOM      7  H12 UNL     1      20.155  -0.440  72.966  1.00  0.00     0.190 HD
ENDROOT
BRANCH   1   8
HETATM    8  C4  UNL     1      20.672  -3.087  73.794  1.00  0.00     0.097 A 
HETATM    9  C3  UNL     1      21.873  -3.123  74.469  1.00  0.00     0.134 A 
HETATM   10  N4  UNL     1      22.668  -4.123  73.985  1.00  0.00    -0.283 N 
HETATM   11  C12 UNL     1      21.968  -4.711  73.013  1.00  0.00     0.180 A 
HETATM   12  N13 UNL     1      20.758  -4.084  72.897  1.00  0.00    -0.334 N 
ATOM     13  H13 UNL     1      20.030  -4.337  72.229  1.00  0.00     0.168 HD
BRANCH  10  14
HETATM   14  C2  UNL     1      23.985  -4.443  74.457  1.00  0.00     0.181 A 
HETATM   15  C1  UNL     1      24.948  -3.521  74.808  1.00  0.00     0.168 A 
HETATM   16  N2  UNL     1      26.029  -4.212  75.198  1.00  0.00    -0.222 N 
HETATM   17  O1  UNL     1      25.772  -5.494  75.102  1.00  0.00    -0.153 OA
ATOM     18  H2  UNL     1      26.909  -3.806  75.518  1.00  0.00     0.198 HD
HETATM   19  N3  UNL     1      24.560  -5.636  74.661  1.00  0.00    -0.221 N 
ATOM     20  H3  UNL     1      24.105  -6.534  74.494  1.00  0.00     0.198 HD
BRANCH  15  21
HETATM   21  N1  UNL     1      24.822  -2.243  74.765  1.00  0.00    -0.381 N 
ATOM     22  H12 UNL     1      24.411  -1.706  74.002  1.00  0.00     0.157 HD
ATOM     23  H11 UNL     1      25.108  -1.574  75.480  1.00  0.00     0.157 HD
ENDBRANCH  15  21
ENDBRANCH  10  14
BRANCH  11  24
HETATM   24  C13 UNL     1      22.383  -5.836  72.189  1.00  0.00     0.299 C 
HETATM   25  N14 UNL     1      21.392  -6.617  71.547  1.00  0.00    -0.054 NA
HETATM   26  O5  UNL     1      23.618  -6.090  72.066  1.00  0.00    -0.268 OA
ENDBRANCH  11  24
ENDBRANCH   1   8
BRANCH   5  27
HETATM   27  C6  UNL     1      17.789   0.914  73.652  1.00  0.00     0.166 A 
HETATM   28  C7  UNL     1      16.557   1.109  73.056  1.00  0.00     0.152 A 
HETATM   29  N8  UNL     1      15.772  -0.027  72.719  1.00  0.00    -0.080 NA
HETATM   30  N9  UNL     1      16.077   2.337  72.786  1.00  0.00    -0.329 N 
HETATM   31  C8  UNL     1      16.805   3.449  73.097  1.00  0.00     0.148 A 
ATOM     32  H9  UNL     1      15.163   2.437  72.345  1.00  0.00     0.168 HD
HETATM   33  N10 UNL     1      16.309   4.750  72.815  1.00  0.00    -0.080 NA
HETATM   34  C9  UNL     1      18.040   3.323  73.691  1.00  0.00     0.132 A 
HETATM   35  C11 UNL     1      18.511   2.067  73.959  1.00  0.00     0.235 A 
HETATM   36  O4  UNL     1      19.642   1.965  74.503  1.00  0.00    -0.283 OA
BRANCH  34  37
HETATM   37  N11 UNL     1      18.759   4.511  73.996  1.00  0.00    -0.294 N 
HETATM   38  C10 UNL     1      19.564   5.144  73.018  1.00  0.00     0.288 C 
HETATM   39  O2  UNL     1      19.652   4.667  71.873  1.00  0.00    -0.629 OA
HETATM   40  O3  UNL     1      20.256   6.297  73.329  1.00  0.00    -0.629 OA
ATOM     41  H11 UNL     1      18.694   4.914  74.931  1.00  0.00     0.172 HD
ENDBRANCH  34  37
ENDBRANCH   5  27
TORSDOF 6
ENDMDL
MODEL 3
REMARK VINA RESULT: -9.960561507      2.247      3.649
REMARK  6 active torsions:
REMARK  status: ('A' for Active; 'I' for Inactive)
REMARK    1  A    between atoms: N1_1  and  C1_4 
REMARK    2  A    between atoms: C2_10  and  N4_11 
REMARK    3  A    between atoms: C4_13  and  C5_14 
REMARK    4  A    between atoms: N7_18  and  C6_19 
REMARK    5  A    between atoms: C9_26  and  N11_27 
REMARK       I    between atoms: N11_27  and  C10_29 
REMARK    6  A    between atoms: C12_38  and  C13_39 
ROOT
HETATM    1  C5  UNL     1      18.346  -2.191  73.530  1.00  0.00     0.163 A 
HETATM    2  N5  UNL     1      17.154  -2.479  74.074  1.00  0.00    -0.265 N 
ATOM      3  H5  UNL     1      16.851  -3.408  74.366  1.00  0.00     0.186 HD
HETATM    4  N6  UNL     1      16.419  -1.359  74.173  1.00  0.00     0.003 NA
HETATM    5  N7  UNL     1      17.151  -0.369  73.692  1.00  0.00    -0.171 N 
HETATM    6  N12 UNL     1      18.334  -0.869  73.296  1.00  0.00    -0.262 N 
ATOM      7  H12 UNL     1      19.097  -0.331  72.886  1.00  0.00     0.190 HD
ENDROOT
BRANCH   1   8
HETATM    8  C4  UNL     1      19.453  -3.107  73.241  1.00  0.00     0.097 A 
HETATM    9  C3  UNL     1      20.626  -3.266  73.946  1.00  0.00     0.134 A 
HETATM   10  N4  UNL     1      21.414  -4.219  73.364  1.00  0.00    -0.283 N 
HETATM   11  C12 UNL     1      20.736  -4.656  72.300  1.00  0.00     0.180 A 
HETATM   12  N13 UNL     1      19.548  -3.984  72.225  1.00  0.00    -0.334 N 
ATOM     13  H13 UNL     1      18.840  -4.126  71.506  1.00  0.00     0.168 HD
BRANCH  10  14
HETATM   14  C2  UNL     1      22.703  -4.636  73.835  1.00  0.00     0.181 A 
HETATM   15  C1  UNL     1      23.701  -3.790  74.268  1.00  0.00     0.168 A 
HETATM   16  N2  UNL     1      24.739  -4.559  74.628  1.00  0.00    -0.222 N 
HETATM   17  O1  UNL     1      24.424  -5.817  74.437  1.00  0.00    -0.153 OA
ATOM     18  H2  UNL     1      25.631  -4.220  74.992  1.00  0.00     0.198 HD
HETATM   19  N3  UNL     1      23.215  -5.868  73.965  1.00  0.00    -0.221 N 
ATOM     20  H3  UNL     1      22.722  -6.728  73.726  1.00  0.00     0.198 HD
BRANCH  15  21
HETATM   21  N1  UNL     1      23.638  -2.507  74.315  1.00  0.00    -0.381 N 
ATOM     22  H12 UNL     1      23.690  -1.875  73.517  1.00  0.00     0.157 HD
ATOM     23  H11 UNL     1      23.526  -1.928  75.147  1.00  0.00     0.157 HD
ENDBRANCH  15  21
ENDBRANCH  10  14
BRANCH  11  24
HETATM   24  C13 UNL     1      21.154  -5.677  71.352  1.00  0.00     0.299 C 
HETATM   25  N14 UNL     1      21.293  -5.328  69.988  1.00  0.00    -0.054 NA
HETATM   26  O5  UNL     1      21.383  -6.852  71.769  1.00  0.00    -0.268 OA
ENDBRANCH  11  24
ENDBRANCH   1   8
BRANCH   5  27
HETATM   27  C6  UNL     1      16.725   0.985  73.623  1.00  0.00     0.166 A 
HETATM   28  C7  UNL     1      16.741   1.691  72.434  1.00  0.00     0.152 A 
HETATM   29  N8  UNL     1      17.197   1.038  71.257  1.00  0.00    -0.080 NA
HETATM   30  N9  UNL     1      16.340   2.973  72.356  1.00  0.00    -0.329 N 
HETATM   31  C8  UNL     1      15.897   3.629  73.467  1.00  0.00     0.148 A 
ATOM     32  H9  UNL     1      16.369   3.457  71.458  1.00  0.00     0.168 HD
HETATM   33  N10 UNL     1      15.472   4.983  73.395  1.00  0.00    -0.080 NA
HETATM   34  C9  UNL     1      15.857   2.984  74.682  1.00  0.00     0.132 A 
HETATM   35  C11 UNL     1      16.268   1.680  74.742  1.00  0.00     0.235 A 
HETATM   36  O4  UNL     1      16.226   1.100  75.859  1.00  0.00    -0.283 OA
BRANCH  34  37
HETATM   37  N11 UNL     1      15.387   3.711  75.810  1.00  0.00    -0.294 N 
HETATM   38  C10 UNL     1      16.293   4.343  76.695  1.00  0.00     0.288 C 
HETATM   39  O2  UNL     1      17.518   4.270  76.497  1.00  0.00    -0.629 OA
HETATM   40  O3  UNL     1      15.821   5.044  77.786  1.00  0.00    -0.629 OA
ATOM     41  H11 UNL     1      14.384   3.778  75.983  1.00  0.00     0.172 HD
ENDBRANCH  34  37
ENDBRANCH   5  27
TORSDOF 6
ENDMDL
MODEL 4
REMARK VINA RESULT: -9.898686752      1.913      3.574
REMARK  6 active torsions:
REMARK  status: ('A' for Active; 'I' for Inactive)
REMARK    1  A    between atoms: N1_1  and  C1_4 
REMARK    2  A    between atoms: C2_10  and  N4_11 
REMARK    3  A    between atoms: C4_13  and  C5_14 
REMARK    4  A    between atoms: N7_18  and  C6_19 
REMARK    5  A    between atoms: C9_26  and  N11_27 
REMARK       I    between atoms: N11_27  and  C10_29 
REMARK    6  A    between atoms: C12_38  and  C13_39 
ROOT
HETATM    1  C5  UNL     1      18.990  -2.578  73.673  1.00  0.00     0.163 A 
HETATM    2  N5  UNL     1      17.748  -3.042  73.871  1.00  0.00    -0.265 N 
ATOM      3  H5  UNL     1      17.492  -4.027  73.935  1.00  0.00     0.186 HD
HETATM    4  N6  UNL     1      16.890  -2.012  73.973  1.00  0.00     0.003 NA
HETATM    5  N7  UNL     1      17.596  -0.903  73.838  1.00  0.00    -0.171 N 
HETATM    6  N12 UNL     1      18.884  -1.239  73.654  1.00  0.00    -0.262 N 
ATOM      7  H12 UNL     1      19.655  -0.584  73.522  1.00  0.00     0.190 HD
ENDROOT
BRANCH   1   8
HETATM    8  C4  UNL     1      20.227  -3.347  73.508  1.00  0.00     0.097 A 
HETATM    9  C3  UNL     1      21.397  -3.232  74.227  1.00  0.00     0.134 A 
HETATM   10  N4  UNL     1      22.329  -4.124  73.777  1.00  0.00    -0.283 N 
HETATM   11  C12 UNL     1      21.745  -4.795  72.782  1.00  0.00     0.180 A 
HETATM   12  N13 UNL     1      20.472  -4.325  72.619  1.00  0.00    -0.334 N 
ATOM     13  H13 UNL     1      19.807  -4.667  71.925  1.00  0.00     0.168 HD
BRANCH  10  14
HETATM   14  C2  UNL     1      23.657  -4.276  74.299  1.00  0.00     0.181 A 
HETATM   15  C1  UNL     1      24.478  -3.241  74.693  1.00  0.00     0.168 A 
HETATM   16  N2  UNL     1      25.623  -3.790  75.123  1.00  0.00    -0.222 N 
HETATM   17  O1  UNL     1      25.539  -5.093  75.011  1.00  0.00    -0.153 OA
ATOM     18  H2  UNL     1      26.430  -3.277  75.480  1.00  0.00     0.198 HD
HETATM   19  N3  UNL     1      24.373  -5.387  74.521  1.00  0.00    -0.221 N 
ATOM     20  H3  UNL     1      24.046  -6.334  74.331  1.00  0.00     0.198 HD
BRANCH  15  21
HETATM   21  N1  UNL     1      24.189  -1.990  74.653  1.00  0.00    -0.381 N 
ATOM     22  H12 UNL     1      24.149  -1.410  73.814  1.00  0.00     0.157 HD
ATOM     23  H11 UNL     1      23.956  -1.388  75.442  1.00  0.00     0.157 HD
ENDBRANCH  15  21
ENDBRANCH  10  14
BRANCH  11  24
HETATM   24  C13 UNL     1      22.330  -5.858  71.979  1.00  0.00     0.299 C 
HETATM   25  N14 UNL     1      21.489  -6.611  71.125  1.00  0.00    -0.054 NA
HETATM   26  O5  UNL     1      23.573  -6.085  72.063  1.00  0.00    -0.268 OA
ENDBRANCH  11  24
ENDBRANCH   1   8
BRANCH   5  27
HETATM   27  C6  UNL     1      17.050   0.408  73.886  1.00  0.00     0.166 A 
HETATM   28  C7  UNL     1      16.297   0.841  74.961  1.00  0.00     0.152 A 
HETATM   29  N8  UNL     1      16.068  -0.054  76.041  1.00  0.00    -0.080 NA
HETATM   30  N9  UNL     1      15.775   2.080  75.019  1.00  0.00    -0.329 N 
HETATM   31  C8  UNL     1      15.975   2.964  73.999  1.00  0.00     0.148 A 
ATOM     32  H9  UNL     1      15.224   2.359  75.831  1.00  0.00     0.168 HD
HETATM   33  N10 UNL     1      15.428   4.274  74.049  1.00  0.00    -0.080 NA
HETATM   34  C9  UNL     1      16.716   2.595  72.899  1.00  0.00     0.132 A 
HETATM   35  C11 UNL     1      17.239   1.331  72.858  1.00  0.00     0.235 A 
HETATM   36  O4  UNL     1      17.915   1.006  71.847  1.00  0.00    -0.283 OA
BRANCH  34  37
HETATM   37  N11 UNL     1      16.896   3.552  71.863  1.00  0.00    -0.294 N 
HETATM   38  C10 UNL     1      18.052   4.368  71.822  1.00  0.00     0.288 C 
HETATM   39  O2  UNL     1      18.929   4.259  72.696  1.00  0.00    -0.629 OA
HETATM   40  O3  UNL     1      18.212   5.294  70.810  1.00  0.00    -0.629 OA
ATOM     41  H11 UNL     1      16.184   3.651  71.139  1.00  0.00     0.172 HD
ENDBRANCH  34  37
ENDBRANCH   5  27
TORSDOF 6
ENDMDL
MODEL 5
REMARK VINA RESULT: -9.861104350      2.646      4.498
REMARK  6 active torsions:
REMARK  status: ('A' for Active; 'I' for Inactive)
REMARK    1  A    between atoms: N1_1  and  C1_4 
REMARK    2  A    between atoms: C2_10  and  N4_11 
REMARK    3  A    between atoms: C4_13  and  C5_14 
REMARK    4  A    between atoms: N7_18  and  C6_19 
REMARK    5  A    between atoms: C9_26  and  N11_27 
REMARK       I    between atoms: N11_27  and  C10_29 
REMARK    6  A    between atoms: C12_38  and  C13_39 
ROOT
HETATM    1  C5  UNL     1      20.705  -4.817  71.495  1.00  0.00     0.163 A 
HETATM    2  N5  UNL     1      20.572  -5.241  72.761  1.00  0.00    -0.265 N 
ATOM      3  H5  UNL     1      20.582  -6.216  73.058  1.00  0.00     0.186 HD
HETATM    4  N6  UNL     1      20.423  -4.184  73.579  1.00  0.00     0.003 NA
HETATM    5  N7  UNL     1      20.462  -3.100  72.825  1.00  0.00    -0.171 N 
HETATM    6  N12 UNL     1      20.635  -3.477  71.547  1.00  0.00    -0.262 N 
ATOM      7  H12 UNL     1      20.703  -2.848  70.747  1.00  0.00     0.190 HD
ENDROOT
BRANCH   1   8
HETATM    8  C4  UNL     1      20.891  -5.625  70.287  1.00  0.00     0.097 A 
HETATM    9  C3  UNL     1      21.411  -5.227  69.074  1.00  0.00     0.134 A 
HETATM   10  N4  UNL     1      21.423  -6.266  68.189  1.00  0.00    -0.283 N 
HETATM   11  C12 UNL     1      20.913  -7.312  68.843  1.00  0.00     0.180 A 
HETATM   12  N13 UNL     1      20.592  -6.925  70.114  1.00  0.00    -0.334 N 
ATOM     13  H13 UNL     1      20.185  -7.531  70.826  1.00  0.00     0.168 HD
BRANCH  10  14
HETATM   14  C2  UNL     1      21.897  -6.204  66.836  1.00  0.00     0.181 A 
HETATM   15  C1  UNL     1      21.316  -5.469  65.824  1.00  0.00     0.168 A 
HETATM   16  N2  UNL     1      22.053  -5.668  64.721  1.00  0.00    -0.222 N 
HETATM   17  O1  UNL     1      23.041  -6.480  65.010  1.00  0.00    -0.153 OA
ATOM     18  H2  UNL     1      21.873  -5.256  63.806  1.00  0.00     0.198 HD
HETATM   19  N3  UNL     1      22.952  -6.801  66.265  1.00  0.00    -0.221 N 
ATOM     20  H3  UNL     1      23.598  -7.423  66.751  1.00  0.00     0.198 HD
BRANCH  15  21
HETATM   21  N1  UNL     1      20.268  -4.734  65.931  1.00  0.00    -0.381 N 
ATOM     22  H12 UNL     1      19.321  -5.064  66.115  1.00  0.00     0.157 HD
ATOM     23  H11 UNL     1      20.219  -3.719  65.849  1.00  0.00     0.157 HD
ENDBRANCH  15  21
ENDBRANCH  10  14
BRANCH  11  24
HETATM   24  C13 UNL     1      20.717  -8.659  68.329  1.00  0.00     0.299 C 
HETATM   25  N14 UNL     1      21.848  -9.411  67.933  1.00  0.00    -0.054 NA
HETATM   26  O5  UNL     1      19.541  -9.124  68.247  1.00  0.00    -0.268 OA
ENDBRANCH  11  24
ENDBRANCH   1   8
BRANCH   5  27
HETATM   27  C6  UNL     1      20.339  -1.773  73.318  1.00  0.00     0.166 A 
HETATM   28  C7  UNL     1      21.448  -1.003  73.614  1.00  0.00     0.152 A 
HETATM   29  N8  UNL     1      22.740  -1.561  73.416  1.00  0.00    -0.080 NA
HETATM   30  N9  UNL     1      21.345   0.254  74.082  1.00  0.00    -0.329 N 
HETATM   31  C8  UNL     1      20.120   0.820  74.283  1.00  0.00     0.148 A 
ATOM     32  H9  UNL     1      22.189   0.788  74.288  1.00  0.00     0.168 HD
HETATM   33  N10 UNL     1      19.999   2.146  74.778  1.00  0.00    -0.080 NA
HETATM   34  C9  UNL     1      18.975   0.106  74.009  1.00  0.00     0.132 A 
HETATM   35  C11 UNL     1      19.099  -1.171  73.534  1.00  0.00     0.235 A 
HETATM   36  O4  UNL     1      18.045  -1.813  73.286  1.00  0.00    -0.283 OA
BRANCH  34  37
HETATM   37  N11 UNL     1      17.722   0.740  74.236  1.00  0.00    -0.294 N 
HETATM   38  C10 UNL     1      17.008   1.338  73.170  1.00  0.00     0.288 C 
HETATM   39  O2  UNL     1      17.469   1.318  72.016  1.00  0.00    -0.629 OA
HETATM   40  O3  UNL     1      15.793   1.950  73.407  1.00  0.00    -0.629 OA
ATOM     41  H11 UNL     1      17.333   0.763  75.179  1.00  0.00     0.172 HD
ENDBRANCH  34  37
ENDBRANCH   5  27
TORSDOF 6
ENDMDL
