MODEL 1
REMARK VINA RESULT: -4.383083700      0.000      0.000
REMARK  2 active torsions:
REMARK  status: ('A' for Active; 'I' for Inactive)
REMARK    1  A    between atoms: N1_3  and  C3_4 
REMARK    2  A    between atoms: C3_4  and  C4_5 
ROOT
HETATM    1  C1  UNL     1      18.078   2.033  10.081  1.00  0.00     0.252 C 
HETATM    2  C2  UNL     1      17.794   3.018   8.925  1.00  0.00     0.149 C 
HETATM    3  N1  UNL     1      19.006   3.561   8.520  1.00  0.00    -0.390 N 
HETATM    4  C7  UNL     1      20.002   2.626   8.039  1.00  0.00     0.149 C 
HETATM    5  C8  UNL     1      19.449   1.234   8.263  1.00  0.00     0.252 C 
HETATM    6  N3  UNL     1      19.031   1.066   9.634  1.00  0.00    -0.072 N 
ATOM      7  H31 UNL     1      18.677   0.121   9.785  1.00  0.00     0.277 HD
ATOM      8  H32 UNL     1      19.840   1.049  10.254  1.00  0.00     0.277 HD
ENDROOT
BRANCH   3   9
HETATM    9  C3  UNL     1      19.252   4.894   8.256  1.00  0.00     0.066 C 
BRANCH   9  10
HETATM   10  C4  UNL     1      18.957   5.309   6.848  1.00  0.00     0.075 C 
HETATM   11  C5  UNL     1      18.214   6.670   6.796  1.00  0.00     0.243 C 
HETATM   12  N2  UNL     1      19.500   7.292   6.774  1.00  0.00    -0.074 N 
HETATM   13  C6  UNL     1      19.987   6.106   6.105  1.00  0.00     0.243 C 
ATOM     14  H22 UNL     1      19.630   8.219   6.368  1.00  0.00     0.277 HD
ATOM     15  H21 UNL     1      19.936   7.633   7.630  1.00  0.00     0.277 HD
ENDBRANCH   9  10
ENDBRANCH   3   9
TORSDOF 2
ENDMDL
MODEL 2
REMARK VINA RESULT: -4.338908804      2.120      4.416
REMARK  2 active torsions:
REMARK  status: ('A' for Active; 'I' for Inactive)
REMARK    1  A    between atoms: N1_3  and  C3_4 
REMARK    2  A    between atoms: C3_4  and  C4_5 
ROOT
HETATM    1  C1  UNL     1      18.111   2.534   5.513  1.00  0.00     0.252 C 
HETATM    2  C2  UNL     1      18.212   3.687   6.536  1.00  0.00     0.149 C 
HETATM    3  N1  UNL     1      19.010   3.255   7.588  1.00  0.00    -0.390 N 
HETATM    4  C7  UNL     1      20.365   2.873   7.253  1.00  0.00     0.149 C 
HETATM    5  C8  UNL     1      20.482   2.925   5.744  1.00  0.00     0.252 C 
HETATM    6  N3  UNL     1      19.433   2.151   5.124  1.00  0.00    -0.072 N 
ATOM      7  H31 UNL     1      19.526   2.172   4.109  1.00  0.00     0.277 HD
ATOM      8  H32 UNL     1      19.579   1.155   5.291  1.00  0.00     0.277 HD
ENDROOT
BRANCH   3   9
HETATM    9  C3  UNL     1      18.746   3.428   8.933  1.00  0.00     0.066 C 
BRANCH   9  10
HETATM   10  C4  UNL     1      17.605   2.606   9.448  1.00  0.00     0.075 C 
HETATM   11  C5  UNL     1      17.882   1.087   9.300  1.00  0.00     0.243 C 
HETATM   12  N2  UNL     1      18.501   1.144  10.586  1.00  0.00    -0.074 N 
HETATM   13  C6  UNL     1      17.594   2.226  10.899  1.00  0.00     0.243 C 
ATOM     14  H22 UNL     1      18.561   0.317  11.180  1.00  0.00     0.277 HD
ATOM     15  H21 UNL     1      19.510   1.256  10.682  1.00  0.00     0.277 HD
ENDBRANCH   9  10
ENDBRANCH   3   9
TORSDOF 2
ENDMDL
MODEL 3
REMARK VINA RESULT: -4.225878017      1.625      4.780
REMARK  2 active torsions:
REMARK  status: ('A' for Active; 'I' for Inactive)
REMARK    1  A    between atoms: N1_3  and  C3_4 
REMARK    2  A    between atoms: C3_4  and  C4_5 
ROOT
HETATM    1  C1  UNL     1      19.772   5.849   6.405  1.00  0.00     0.252 C 
HETATM    2  C2  UNL     1      19.869   4.609   7.322  1.00  0.00     0.149 C 
HETATM    3  N1  UNL     1      18.844   3.739   6.972  1.00  0.00    -0.390 N 
HETATM    4  C7  UNL     1      18.850   3.253   5.608  1.00  0.00     0.149 C 
HETATM    5  C8  UNL     1      19.956   3.988   4.879  1.00  0.00     0.252 C 
HETATM    6  N3  UNL     1      19.814   5.415   5.043  1.00  0.00    -0.072 N 
ATOM      7  H31 UNL     1      20.549   5.907   4.535  1.00  0.00     0.277 HD
ATOM      8  H32 UNL     1      18.996   5.753   4.536  1.00  0.00     0.277 HD
ENDROOT
BRANCH   3   9
HETATM    9  C3  UNL     1      18.009   3.072   7.847  1.00  0.00     0.066 C 
BRANCH   9  10
HETATM   10  C4  UNL     1      18.723   2.245   8.870  1.00  0.00     0.075 C 
HETATM   11  C5  UNL     1      17.790   1.172   9.490  1.00  0.00     0.243 C 
HETATM   12  N2  UNL     1      18.189   0.308   8.425  1.00  0.00    -0.074 N 
HETATM   13  C6  UNL     1      19.451   1.015   8.416  1.00  0.00     0.243 C 
ATOM     14  H22 UNL     1      18.153  -0.707   8.527  1.00  0.00     0.277 HD
ATOM     15  H21 UNL     1      17.627   0.218   7.579  1.00  0.00     0.277 HD
ENDBRANCH   9  10
ENDBRANCH   3   9
TORSDOF 2
ENDMDL
MODEL 4
REMARK VINA RESULT: -4.185222809      2.073      2.609
REMARK  2 active torsions:
REMARK  status: ('A' for Active; 'I' for Inactive)
REMARK    1  A    between atoms: N1_3  and  C3_4 
REMARK    2  A    between atoms: C3_4  and  C4_5 
ROOT
HETATM    1  C1  UNL     1      19.336   1.035   8.647  1.00  0.00     0.252 C 
HETATM    2  C2  UNL     1      18.897   2.511   8.776  1.00  0.00     0.149 C 
HETATM    3  N1  UNL     1      18.229   2.860   7.609  1.00  0.00    -0.390 N 
HETATM    4  C7  UNL     1      17.040   2.095   7.296  1.00  0.00     0.149 C 
HETATM    5  C8  UNL     1      16.946   0.981   8.317  1.00  0.00     0.252 C 
HETATM    6  N3  UNL     1      18.181   0.237   8.375  1.00  0.00    -0.072 N 
ATOM      7  H31 UNL     1      18.108  -0.524   9.050  1.00  0.00     0.277 HD
ATOM      8  H32 UNL     1      18.314  -0.302   7.519  1.00  0.00     0.277 HD
ENDROOT
BRANCH   3   9
HETATM    9  C3  UNL     1      18.405   4.024   6.888  1.00  0.00     0.066 C 
BRANCH   9  10
HETATM   10  C4  UNL     1      19.777   4.190   6.311  1.00  0.00     0.075 C 
HETATM   11  C5  UNL     1      20.211   2.942   5.499  1.00  0.00     0.243 C 
HETATM   12  N2  UNL     1      19.594   3.552   4.363  1.00  0.00    -0.074 N 
HETATM   13  C6  UNL     1      19.914   4.829   4.961  1.00  0.00     0.243 C 
ATOM     14  H22 UNL     1      19.891   3.323   3.415  1.00  0.00     0.277 HD
ATOM     15  H21 UNL     1      18.639   3.319   4.093  1.00  0.00     0.277 HD
ENDBRANCH   9  10
ENDBRANCH   3   9
TORSDOF 2
ENDMDL
MODEL 5
REMARK VINA RESULT: -4.180105682      0.905      1.718
REMARK  2 active torsions:
REMARK  status: ('A' for Active; 'I' for Inactive)
REMARK    1  A    between atoms: N1_3  and  C3_4 
REMARK    2  A    between atoms: C3_4  and  C4_5 
ROOT
HETATM    1  C1  UNL     1      20.124   1.700   6.880  1.00  0.00     0.252 C 
HETATM    2  C2  UNL     1      20.560   2.976   7.634  1.00  0.00     0.149 C 
HETATM    3  N1  UNL     1      19.412   3.644   8.042  1.00  0.00    -0.390 N 
HETATM    4  C7  UNL     1      18.525   2.917   8.926  1.00  0.00     0.149 C 
HETATM    5  C8  UNL     1      19.069   1.508   9.042  1.00  0.00     0.252 C 
HETATM    6  N3  UNL     1      19.274   0.932   7.735  1.00  0.00    -0.072 N 
ATOM      7  H31 UNL     1      19.622  -0.024   7.817  1.00  0.00     0.277 HD
ATOM      8  H32 UNL     1      18.379   0.752   7.280  1.00  0.00     0.277 HD
ENDROOT
BRANCH   3   9
HETATM    9  C3  UNL     1      19.179   5.001   7.935  1.00  0.00     0.066 C 
BRANCH   9  10
HETATM   10  C4  UNL     1      18.914   5.472   6.539  1.00  0.00     0.075 C 
HETATM   11  C5  UNL     1      18.358   6.920   6.520  1.00  0.00     0.243 C 
HETATM   12  N2  UNL     1      19.714   7.367   6.478  1.00  0.00    -0.074 N 
HETATM   13  C6  UNL     1      20.027   6.137   5.784  1.00  0.00     0.243 C 
ATOM     14  H22 UNL     1      19.959   8.275   6.081  1.00  0.00     0.277 HD
ATOM     15  H21 UNL     1      20.208   7.634   7.329  1.00  0.00     0.277 HD
ENDBRANCH   9  10
ENDBRANCH   3   9
TORSDOF 2
ENDMDL
