MODEL 1
REMARK VINA RESULT: -4.407298207      0.000      0.000
REMARK  3 active torsions:
REMARK  status: ('A' for Active; 'I' for Inactive)
REMARK    1  A    between atoms: N1_1  and  C1_5 
REMARK    2  A    between atoms: C1_5  and  C2_6 
REMARK    3  A    between atoms: C2_6  and  N2_7 
ROOT
HETATM    1  N2  UNL     1      18.934   4.065   7.355  1.00  0.00     0.090 N 
HETATM    2  C3  UNL     1      18.793   4.009   8.786  1.00  0.00     0.274 C 
HETATM    3  C4  UNL     1      17.591   3.260   9.258  1.00  0.00     0.057 C 
HETATM    4  C5  UNL     1      17.936   2.095  10.151  1.00  0.00     0.234 C 
HETATM    5  N3  UNL     1      19.098   1.365   9.697  1.00  0.00    -0.075 N 
ATOM      6  H31 UNL     1      19.309   0.596  10.333  1.00  0.00     0.277 HD
ATOM      7  H32 UNL     1      19.942   1.924   9.818  1.00  0.00     0.277 HD
HETATM    8  C6  UNL     1      18.998   0.891   8.353  1.00  0.00     0.234 C 
HETATM    9  C7  UNL     1      19.844   1.789   7.459  1.00  0.00     0.057 C 
HETATM   10  C8  UNL     1      18.965   2.781   6.739  1.00  0.00     0.274 C 
ENDROOT
BRANCH   1  11
HETATM   11  C2  UNL     1      20.010   4.939   7.033  1.00  0.00     0.299 C 
BRANCH  11  12
HETATM   12  C1  UNL     1      19.773   5.862   5.888  1.00  0.00     0.259 C 
BRANCH  12  13
HETATM   13  N1  UNL     1      19.849   7.232   6.427  1.00  0.00    -0.078 N 
ATOM     14  H13 UNL     1      18.987   7.535   6.881  1.00  0.00     0.274 HD
ATOM     15  H12 UNL     1      20.458   7.311   7.242  1.00  0.00     0.274 HD
ATOM     16  H11 UNL     1      20.130   7.835   5.654  1.00  0.00     0.274 HD
ENDBRANCH  12  13
ENDBRANCH  11  12
ENDBRANCH   1  11
TORSDOF 3
ENDMDL
MODEL 2
REMARK VINA RESULT: -4.372175763      1.644      4.344
REMARK  3 active torsions:
REMARK  status: ('A' for Active; 'I' for Inactive)
REMARK    1  A    between atoms: N1_1  and  C1_5 
REMARK    2  A    between atoms: C1_5  and  C2_6 
REMARK    3  A    between atoms: C2_6  and  N2_7 
ROOT
HETATM    1  N2  UNL     1      20.060   2.477   7.915  1.00  0.00     0.090 N 
HETATM    2  C3  UNL     1      19.050   3.497   8.019  1.00  0.00     0.274 C 
HETATM    3  C4  UNL     1      19.565   4.890   7.875  1.00  0.00     0.057 C 
HETATM    4  C5  UNL     1      18.924   5.640   6.734  1.00  0.00     0.234 C 
HETATM    5  N3  UNL     1      18.742   4.822   5.556  1.00  0.00    -0.075 N 
ATOM      6  H31 UNL     1      18.293   5.358   4.814  1.00  0.00     0.277 HD
ATOM      7  H32 UNL     1      18.024   4.116   5.718  1.00  0.00     0.277 HD
HETATM    8  C6  UNL     1      19.945   4.215   5.080  1.00  0.00     0.234 C 
HETATM    9  C7  UNL     1      19.936   2.745   5.480  1.00  0.00     0.057 C 
HETATM   10  C8  UNL     1      20.799   2.533   6.699  1.00  0.00     0.274 C 
ENDROOT
BRANCH   1  11
HETATM   11  C2  UNL     1      19.477   1.219   8.235  1.00  0.00     0.299 C 
BRANCH  11  12
HETATM   12  C1  UNL     1      17.990   1.201   8.333  1.00  0.00     0.259 C 
BRANCH  12  13
HETATM   13  N1  UNL     1      17.649   0.269   9.423  1.00  0.00    -0.078 N 
ATOM     14  H13 UNL     1      18.459  -0.025   9.970  1.00  0.00     0.274 HD
ATOM     15  H12 UNL     1      17.134   0.710  10.184  1.00  0.00     0.274 HD
ATOM     16  H11 UNL     1      17.148  -0.510   8.995  1.00  0.00     0.274 HD
ENDBRANCH  12  13
ENDBRANCH  11  12
ENDBRANCH   1  11
TORSDOF 3
ENDMDL
MODEL 3
REMARK VINA RESULT: -4.333036228      1.936      4.301
REMARK  3 active torsions:
REMARK  status: ('A' for Active; 'I' for Inactive)
REMARK    1  A    between atoms: N1_1  and  C1_5 
REMARK    2  A    between atoms: C1_5  and  C2_6 
REMARK    3  A    between atoms: C2_6  and  N2_7 
ROOT
HETATM    1  N2  UNL     1      19.064   3.541   8.071  1.00  0.00     0.090 N 
HETATM    2  C3  UNL     1      17.972   3.591   7.135  1.00  0.00     0.274 C 
HETATM    3  C4  UNL     1      17.995   4.772   6.223  1.00  0.00     0.057 C 
HETATM    4  C5  UNL     1      18.042   4.390   4.765  1.00  0.00     0.234 C 
HETATM    5  N3  UNL     1      18.920   3.271   4.506  1.00  0.00    -0.075 N 
ATOM      6  H31 UNL     1      18.913   3.032   3.514  1.00  0.00     0.277 HD
ATOM      7  H32 UNL     1      18.530   2.412   4.892  1.00  0.00     0.277 HD
HETATM    8  C6  UNL     1      20.259   3.467   4.966  1.00  0.00     0.234 C 
HETATM    9  C7  UNL     1      20.452   2.665   6.247  1.00  0.00     0.057 C 
HETATM   10  C8  UNL     1      20.345   3.572   7.447  1.00  0.00     0.274 C 
ENDROOT
BRANCH   1  11
HETATM   11  C2  UNL     1      18.839   2.474   8.984  1.00  0.00     0.299 C 
BRANCH  11  12
HETATM   12  C1  UNL     1      17.745   1.530   8.619  1.00  0.00     0.259 C 
BRANCH  12  13
HETATM   13  N1  UNL     1      18.371   0.207   8.441  1.00  0.00    -0.078 N 
ATOM     14  H13 UNL     1      19.163   0.219   7.799  1.00  0.00     0.274 HD
ATOM     15  H12 UNL     1      18.879  -0.113   9.265  1.00  0.00     0.274 HD
ATOM     16  H11 UNL     1      17.629  -0.430   8.152  1.00  0.00     0.274 HD
ENDBRANCH  12  13
ENDBRANCH  11  12
ENDBRANCH   1  11
TORSDOF 3
ENDMDL
MODEL 4
REMARK VINA RESULT: -4.272218278      1.325      4.770
REMARK  3 active torsions:
REMARK  status: ('A' for Active; 'I' for Inactive)
REMARK    1  A    between atoms: N1_1  and  C1_5 
REMARK    2  A    between atoms: C1_5  and  C2_6 
REMARK    3  A    between atoms: C2_6  and  N2_7 
ROOT
HETATM    1  N2  UNL     1      19.055   2.934   7.065  1.00  0.00     0.090 N 
HETATM    2  C3  UNL     1      20.055   3.564   6.243  1.00  0.00     0.274 C 
HETATM    3  C4  UNL     1      19.504   4.405   5.140  1.00  0.00     0.057 C 
HETATM    4  C5  UNL     1      19.954   5.842   5.214  1.00  0.00     0.234 C 
HETATM    5  N3  UNL     1      19.968   6.357   6.565  1.00  0.00    -0.075 N 
ATOM      6  H31 UNL     1      20.292   7.324   6.577  1.00  0.00     0.277 HD
ATOM      7  H32 UNL     1      20.712   5.919   7.108  1.00  0.00     0.277 HD
HETATM    8  C6  UNL     1      18.716   6.239   7.244  1.00  0.00     0.234 C 
HETATM    9  C7  UNL     1      18.806   5.080   8.228  1.00  0.00     0.057 C 
HETATM   10  C8  UNL     1      18.140   3.856   7.650  1.00  0.00     0.274 C 
ENDROOT
BRANCH   1  11
HETATM   11  C2  UNL     1      19.697   2.036   7.963  1.00  0.00     0.299 C 
BRANCH  11  12
HETATM   12  C1  UNL     1      18.820   1.417   8.997  1.00  0.00     0.259 C 
BRANCH  12  13
HETATM   13  N1  UNL     1      18.262   0.192   8.398  1.00  0.00    -0.078 N 
ATOM     14  H13 UNL     1      17.473   0.370   7.776  1.00  0.00     0.274 HD
ATOM     15  H12 UNL     1      18.877  -0.236   7.706  1.00  0.00     0.274 HD
ATOM     16  H11 UNL     1      18.031  -0.432   9.172  1.00  0.00     0.274 HD
ENDBRANCH  12  13
ENDBRANCH  11  12
ENDBRANCH   1  11
TORSDOF 3
ENDMDL
MODEL 5
REMARK VINA RESULT: -4.257069507      1.819      4.165
REMARK  3 active torsions:
REMARK  status: ('A' for Active; 'I' for Inactive)
REMARK    1  A    between atoms: N1_1  and  C1_5 
REMARK    2  A    between atoms: C1_5  and  C2_6 
REMARK    3  A    between atoms: C2_6  and  N2_7 
ROOT
HETATM    1  N2  UNL     1      18.518   3.695   8.146  1.00  0.00     0.090 N 
HETATM    2  C3  UNL     1      17.771   2.828   7.273  1.00  0.00     0.274 C 
HETATM    3  C4  UNL     1      17.464   3.416   5.936  1.00  0.00     0.057 C 
HETATM    4  C5  UNL     1      18.014   2.600   4.794  1.00  0.00     0.234 C 
HETATM    5  N3  UNL     1      19.338   2.084   5.059  1.00  0.00    -0.075 N 
ATOM      6  H31 UNL     1      19.669   1.526   4.272  1.00  0.00     0.277 HD
ATOM      7  H32 UNL     1      19.304   1.363   5.779  1.00  0.00     0.277 HD
HETATM    8  C6  UNL     1      20.295   3.089   5.399  1.00  0.00     0.234 C 
HETATM    9  C7  UNL     1      20.530   3.043   6.904  1.00  0.00     0.057 C 
HETATM   10  C8  UNL     1      19.749   4.139   7.584  1.00  0.00     0.274 C 
ENDROOT
BRANCH   1  11
HETATM   11  C2  UNL     1      18.598   3.093   9.433  1.00  0.00     0.299 C 
BRANCH  11  12
HETATM   12  C1  UNL     1      18.197   1.660   9.503  1.00  0.00     0.259 C 
BRANCH  12  13
HETATM   13  N1  UNL     1      18.519   1.197  10.864  1.00  0.00    -0.078 N 
ATOM     14  H13 UNL     1      17.957   1.647  11.587  1.00  0.00     0.274 HD
ATOM     15  H12 UNL     1      18.218   0.239  11.046  1.00  0.00     0.274 HD
ATOM     16  H11 UNL     1      19.522   1.334  10.990  1.00  0.00     0.274 HD
ENDBRANCH  12  13
ENDBRANCH  11  12
ENDBRANCH   1  11
TORSDOF 3
ENDMDL
