MODEL 1
REMARK VINA RESULT: -4.091964337      0.000      0.000
REMARK  2 active torsions:
REMARK  status: ('A' for Active; 'I' for Inactive)
REMARK    1  A    between atoms: N1_2  and  N2_4 
REMARK    2  A    between atoms: C3_6  and  C4_7 
ROOT
HETATM    1  C4  UNL     1      18.423   6.203   7.674  1.00  0.00     0.251 C 
HETATM    2  C5  UNL     1      19.206   4.975   8.071  1.00  0.00     0.270 C 
HETATM    3  N3  UNL     1      19.317   4.172   6.844  1.00  0.00    -0.071 N 
ATOM      4  H31 UNL     1      18.447   3.673   6.656  1.00  0.00     0.277 HD
ATOM      5  H32 UNL     1      19.939   3.376   6.986  1.00  0.00     0.277 HD
HETATM    6  C6  UNL     1      19.717   4.928   5.717  1.00  0.00     0.260 C 
HETATM    7  C7  UNL     1      20.092   6.340   5.961  1.00  0.00     0.260 C 
HETATM    8  N4  UNL     1      19.318   7.046   6.920  1.00  0.00    -0.063 N 
ATOM      9  H41 UNL     1      19.920   7.582   7.545  1.00  0.00     0.278 HD
ATOM     10  H42 UNL     1      18.808   7.810   6.477  1.00  0.00     0.278 HD
ENDROOT
BRANCH   1  11
HETATM   11  C3  UNL     1      17.829   6.912   8.797  1.00  0.00     0.114 C 
HETATM   12  N2  UNL     1      18.287   7.999   9.319  1.00  0.00    -0.317 N 
ATOM     13  H2  UNL     1      19.134   8.407   8.924  1.00  0.00     0.185 HD
BRANCH  12  14
HETATM   14  N1  UNL     1      17.685   8.641  10.395  1.00  0.00    -0.337 N 
HETATM   15  C1  UNL     1      18.485   9.611  11.148  1.00  0.00     0.170 C 
HETATM   16  C2  UNL     1      16.313   8.344  10.739  1.00  0.00     0.170 C 
ENDBRANCH  12  14
ENDBRANCH   1  11
TORSDOF 2
ENDMDL
MODEL 2
REMARK VINA RESULT: -3.972348564      4.386      5.489
REMARK  2 active torsions:
REMARK  status: ('A' for Active; 'I' for Inactive)
REMARK    1  A    between atoms: N1_2  and  N2_4 
REMARK    2  A    between atoms: C3_6  and  C4_7 
ROOT
HETATM    1  C4  UNL     1      18.684   2.345   8.705  1.00  0.00     0.251 C 
HETATM    2  C5  UNL     1      19.640   1.220   8.391  1.00  0.00     0.270 C 
HETATM    3  N3  UNL     1      19.775   1.222   6.927  1.00  0.00    -0.071 N 
ATOM      4  H31 UNL     1      18.966   0.785   6.487  1.00  0.00     0.277 HD
ATOM      5  H32 UNL     1      20.501   0.570   6.628  1.00  0.00     0.277 HD
HETATM    6  C6  UNL     1      20.005   2.511   6.390  1.00  0.00     0.260 C 
HETATM    7  C7  UNL     1      20.212   3.610   7.362  1.00  0.00     0.260 C 
HETATM    8  N4  UNL     1      19.417   3.577   8.537  1.00  0.00    -0.063 N 
ATOM      9  H41 UNL     1      19.983   3.774   9.362  1.00  0.00     0.278 HD
ATOM     10  H42 UNL     1      18.786   4.379   8.567  1.00  0.00     0.278 HD
ENDROOT
BRANCH   1  11
HETATM   11  C3  UNL     1      18.076   2.252  10.024  1.00  0.00     0.114 C 
HETATM   12  N2  UNL     1      18.405   1.403  10.937  1.00  0.00    -0.317 N 
ATOM     13  H2  UNL     1      19.150   0.736  10.734  1.00  0.00     0.185 HD
BRANCH  12  14
HETATM   14  N1  UNL     1      17.794   1.351  12.185  1.00  0.00    -0.337 N 
HETATM   15  C1  UNL     1      16.329   1.362  12.229  1.00  0.00     0.170 C 
HETATM   16  C2  UNL     1      18.599   1.289  13.383  1.00  0.00     0.170 C 
ENDBRANCH  12  14
ENDBRANCH   1  11
TORSDOF 2
ENDMDL
MODEL 3
REMARK VINA RESULT: -3.938861270      4.376      5.362
REMARK  2 active torsions:
REMARK  status: ('A' for Active; 'I' for Inactive)
REMARK    1  A    between atoms: N1_2  and  N2_4 
REMARK    2  A    between atoms: C3_6  and  C4_7 
ROOT
HETATM    1  C4  UNL     1      18.659   2.381   8.739  1.00  0.00     0.251 C 
HETATM    2  C5  UNL     1      19.592   1.233   8.438  1.00  0.00     0.270 C 
HETATM    3  N3  UNL     1      19.733   1.219   6.974  1.00  0.00    -0.071 N 
ATOM      4  H31 UNL     1      18.916   0.796   6.535  1.00  0.00     0.277 HD
ATOM      5  H32 UNL     1      20.446   0.549   6.684  1.00  0.00     0.277 HD
HETATM    6  C6  UNL     1      19.993   2.499   6.428  1.00  0.00     0.260 C 
HETATM    7  C7  UNL     1      20.221   3.601   7.391  1.00  0.00     0.260 C 
HETATM    8  N4  UNL     1      19.419   3.595   8.563  1.00  0.00    -0.063 N 
ATOM      9  H41 UNL     1      19.987   3.787   9.389  1.00  0.00     0.278 HD
ATOM     10  H42 UNL     1      18.807   4.410   8.584  1.00  0.00     0.278 HD
ENDROOT
BRANCH   1  11
HETATM   11  C3  UNL     1      18.044   2.312  10.055  1.00  0.00     0.114 C 
HETATM   12  N2  UNL     1      18.348   1.461  10.976  1.00  0.00    -0.317 N 
ATOM     13  H2  UNL     1      19.076   0.774  10.780  1.00  0.00     0.185 HD
BRANCH  12  14
HETATM   14  N1  UNL     1      17.731   1.433  12.221  1.00  0.00    -0.337 N 
HETATM   15  C1  UNL     1      18.586   1.310  13.405  1.00  0.00     0.170 C 
HETATM   16  C2  UNL     1      16.292   1.524  12.318  1.00  0.00     0.170 C 
ENDBRANCH  12  14
ENDBRANCH   1  11
TORSDOF 2
ENDMDL
MODEL 4
REMARK VINA RESULT: -3.818433212      3.550      5.518
REMARK  2 active torsions:
REMARK  status: ('A' for Active; 'I' for Inactive)
REMARK    1  A    between atoms: N1_2  and  N2_4 
REMARK    2  A    between atoms: C3_6  and  C4_7 
ROOT
HETATM    1  C4  UNL     1      18.583   2.952   9.042  1.00  0.00     0.251 C 
HETATM    2  C5  UNL     1      18.425   1.451   9.025  1.00  0.00     0.270 C 
HETATM    3  N3  UNL     1      18.581   1.028  10.425  1.00  0.00    -0.071 N 
ATOM      4  H31 UNL     1      19.565   1.017  10.693  1.00  0.00     0.277 HD
ATOM      5  H32 UNL     1      18.368   0.036  10.531  1.00  0.00     0.277 HD
HETATM    6  C6  UNL     1      17.821   1.806  11.330  1.00  0.00     0.260 C 
HETATM    7  C7  UNL     1      16.899   2.804  10.740  1.00  0.00     0.260 C 
HETATM    8  N4  UNL     1      17.364   3.495   9.591  1.00  0.00    -0.063 N 
ATOM      9  H41 UNL     1      16.636   3.540   8.878  1.00  0.00     0.278 HD
ATOM     10  H42 UNL     1      17.470   4.491   9.789  1.00  0.00     0.278 HD
ENDROOT
BRANCH   1  11
HETATM   11  C3  UNL     1      18.896   3.527   7.743  1.00  0.00     0.114 C 
HETATM   12  N2  UNL     1      19.613   4.581   7.547  1.00  0.00    -0.317 N 
ATOM     13  H2  UNL     1      20.000   5.062   8.359  1.00  0.00     0.185 HD
BRANCH  12  14
HETATM   14  N1  UNL     1      19.885   5.094   6.284  1.00  0.00    -0.337 N 
HETATM   15  C1  UNL     1      19.977   4.149   5.168  1.00  0.00     0.170 C 
HETATM   16  C2  UNL     1      20.067   6.517   6.105  1.00  0.00     0.170 C 
ENDBRANCH  12  14
ENDBRANCH   1  11
TORSDOF 2
ENDMDL
MODEL 5
REMARK VINA RESULT: -3.811331380      3.566      5.482
REMARK  2 active torsions:
REMARK  status: ('A' for Active; 'I' for Inactive)
REMARK    1  A    between atoms: N1_2  and  N2_4 
REMARK    2  A    between atoms: C3_6  and  C4_7 
ROOT
HETATM    1  C4  UNL     1      18.556   2.949   9.033  1.00  0.00     0.251 C 
HETATM    2  C5  UNL     1      18.412   1.446   9.026  1.00  0.00     0.270 C 
HETATM    3  N3  UNL     1      18.588   1.032  10.426  1.00  0.00    -0.071 N 
ATOM      4  H31 UNL     1      19.574   1.031  10.683  1.00  0.00     0.277 HD
ATOM      5  H32 UNL     1      18.384   0.038  10.539  1.00  0.00     0.277 HD
HETATM    6  C6  UNL     1      17.830   1.807  11.336  1.00  0.00     0.260 C 
HETATM    7  C7  UNL     1      16.893   2.794  10.751  1.00  0.00     0.260 C 
HETATM    8  N4  UNL     1      17.339   3.484   9.593  1.00  0.00    -0.063 N 
ATOM      9  H41 UNL     1      16.602   3.517   8.887  1.00  0.00     0.278 HD
ATOM     10  H42 UNL     1      17.437   4.481   9.784  1.00  0.00     0.278 HD
ENDROOT
BRANCH   1  11
HETATM   11  C3  UNL     1      18.849   3.519   7.727  1.00  0.00     0.114 C 
HETATM   12  N2  UNL     1      19.637   4.517   7.510  1.00  0.00    -0.317 N 
ATOM     13  H2  UNL     1      20.100   4.953   8.308  1.00  0.00     0.185 HD
BRANCH  12  14
HETATM   14  N1  UNL     1      19.886   5.029   6.242  1.00  0.00    -0.337 N 
HETATM   15  C1  UNL     1      20.051   6.479   6.110  1.00  0.00     0.170 C 
HETATM   16  C2  UNL     1      19.974   4.139   5.106  1.00  0.00     0.170 C 
ENDBRANCH  12  14
ENDBRANCH   1  11
TORSDOF 2
ENDMDL
