MODEL 1
REMARK VINA RESULT: -3.901887007      0.000      0.000
REMARK  2 active torsions:
REMARK  status: ('A' for Active; 'I' for Inactive)
REMARK    1  A    between atoms: N1_2  and  C3_4 
REMARK    2  A    between atoms: C3_4  and  C4_5 
ROOT
HETATM    1  C4  UNL     1      19.810   3.927   6.972  1.00  0.00     0.075 C 
HETATM    2  C5  UNL     1      20.547   2.618   7.112  1.00  0.00     0.243 C 
HETATM    3  N2  UNL     1      19.709   1.462   7.110  1.00  0.00    -0.073 N 
ATOM      4  H21 UNL     1      20.130   0.715   6.558  1.00  0.00     0.277 HD
ATOM      5  H22 UNL     1      18.867   1.629   6.559  1.00  0.00     0.277 HD
HETATM    6  C6  UNL     1      19.364   0.984   8.431  1.00  0.00     0.259 C 
HETATM    7  C7  UNL     1      18.394   1.912   9.128  1.00  0.00     0.259 C 
HETATM    8  N3  UNL     1      18.787   3.295   9.018  1.00  0.00    -0.073 N 
ATOM      9  H31 UNL     1      19.767   3.419   9.273  1.00  0.00     0.277 HD
ATOM     10  H32 UNL     1      18.355   3.860   9.750  1.00  0.00     0.277 HD
HETATM   11  C8  UNL     1      18.513   3.848   7.701  1.00  0.00     0.243 C 
ENDROOT
BRANCH   1  12
HETATM   12  C3  UNL     1      19.729   4.326   5.533  1.00  0.00     0.065 C 
BRANCH  12  13
HETATM   13  N1  UNL     1      19.563   5.690   5.249  1.00  0.00    -0.401 N 
HETATM   14  C1  UNL     1      20.134   6.674   6.068  1.00  0.00     0.148 C 
HETATM   15  C2  UNL     1      18.516   6.063   4.361  1.00  0.00     0.148 C 
ENDBRANCH  12  13
ENDBRANCH   1  12
TORSDOF 2
ENDMDL
MODEL 2
REMARK VINA RESULT: -3.833487852      0.999      1.462
REMARK  2 active torsions:
REMARK  status: ('A' for Active; 'I' for Inactive)
REMARK    1  A    between atoms: N1_2  and  C3_4 
REMARK    2  A    between atoms: C3_4  and  C4_5 
ROOT
HETATM    1  C4  UNL     1      20.105   3.867   6.448  1.00  0.00     0.075 C 
HETATM    2  C5  UNL     1      20.682   2.492   6.677  1.00  0.00     0.243 C 
HETATM    3  N2  UNL     1      19.709   1.469   6.897  1.00  0.00    -0.073 N 
ATOM      4  H21 UNL     1      19.970   0.615   6.404  1.00  0.00     0.277 HD
ATOM      5  H22 UNL     1      18.840   1.690   6.411  1.00  0.00     0.277 HD
HETATM    6  C6  UNL     1      19.454   1.192   8.293  1.00  0.00     0.259 C 
HETATM    7  C7  UNL     1      18.691   2.315   8.959  1.00  0.00     0.259 C 
HETATM    8  N3  UNL     1      19.242   3.610   8.643  1.00  0.00    -0.073 N 
ATOM      9  H31 UNL     1      20.252   3.625   8.787  1.00  0.00     0.277 HD
ATOM     10  H32 UNL     1      18.968   4.306   9.337  1.00  0.00     0.277 HD
HETATM   11  C8  UNL     1      18.897   4.048   7.299  1.00  0.00     0.243 C 
ENDROOT
BRANCH   1  12
HETATM   12  C3  UNL     1      19.918   4.114   4.984  1.00  0.00     0.065 C 
BRANCH  12  13
HETATM   13  N1  UNL     1      18.665   4.583   4.563  1.00  0.00    -0.401 N 
HETATM   14  C1  UNL     1      17.713   3.710   4.019  1.00  0.00     0.148 C 
HETATM   15  C2  UNL     1      18.516   5.980   4.343  1.00  0.00     0.148 C 
ENDBRANCH  12  13
ENDBRANCH   1  12
TORSDOF 2
ENDMDL
MODEL 3
REMARK VINA RESULT: -3.826051545      1.543      2.643
REMARK  2 active torsions:
REMARK  status: ('A' for Active; 'I' for Inactive)
REMARK    1  A    between atoms: N1_2  and  C3_4 
REMARK    2  A    between atoms: C3_4  and  C4_5 
ROOT
HETATM    1  C4  UNL     1      19.165   2.122   7.304  1.00  0.00     0.075 C 
HETATM    2  C5  UNL     1      17.770   2.696   7.318  1.00  0.00     0.243 C 
HETATM    3  N2  UNL     1      17.252   2.966   8.621  1.00  0.00    -0.073 N 
ATOM      4  H21 UNL     1      16.749   3.854   8.630  1.00  0.00     0.277 HD
ATOM      5  H22 UNL     1      18.008   3.190   9.268  1.00  0.00     0.277 HD
HETATM    6  C6  UNL     1      16.424   1.908   9.155  1.00  0.00     0.259 C 
HETATM    7  C7  UNL     1      17.240   0.691   9.532  1.00  0.00     0.259 C 
HETATM    8  N3  UNL     1      18.180   0.325   8.501  1.00  0.00    -0.073 N 
ATOM      9  H31 UNL     1      17.725   0.279   7.589  1.00  0.00     0.277 HD
ATOM     10  H32 UNL     1      18.464  -0.651   8.592  1.00  0.00     0.277 HD
HETATM   11  C8  UNL     1      19.338   1.206   8.466  1.00  0.00     0.243 C 
ENDROOT
BRANCH   1  12
HETATM   12  C3  UNL     1      20.176   3.217   7.178  1.00  0.00     0.065 C 
BRANCH  12  13
HETATM   13  N1  UNL     1      19.966   4.181   6.181  1.00  0.00    -0.401 N 
HETATM   14  C1  UNL     1      20.152   3.871   4.826  1.00  0.00     0.148 C 
HETATM   15  C2  UNL     1      19.933   5.548   6.571  1.00  0.00     0.148 C 
ENDBRANCH  12  13
ENDBRANCH   1  12
TORSDOF 2
ENDMDL
MODEL 4
REMARK VINA RESULT: -3.755355976      1.578      2.767
REMARK  2 active torsions:
REMARK  status: ('A' for Active; 'I' for Inactive)
REMARK    1  A    between atoms: N1_2  and  C3_4 
REMARK    2  A    between atoms: C3_4  and  C4_5 
ROOT
HETATM    1  C4  UNL     1      18.909   4.481   5.311  1.00  0.00     0.075 C 
HETATM    2  C5  UNL     1      18.649   4.222   6.774  1.00  0.00     0.243 C 
HETATM    3  N2  UNL     1      19.819   3.945   7.545  1.00  0.00    -0.073 N 
ATOM      4  H21 UNL     1      19.772   4.418   8.449  1.00  0.00     0.277 HD
ATOM      5  H22 UNL     1      20.631   4.416   7.147  1.00  0.00     0.277 HD
HETATM    6  C6  UNL     1      20.086   2.535   7.723  1.00  0.00     0.259 C 
HETATM    7  C7  UNL     1      20.556   1.886   6.440  1.00  0.00     0.259 C 
HETATM    8  N3  UNL     1      19.739   2.258   5.310  1.00  0.00    -0.073 N 
ATOM      9  H31 UNL     1      18.748   2.139   5.520  1.00  0.00     0.277 HD
ATOM     10  H32 UNL     1      19.828   1.579   4.553  1.00  0.00     0.277 HD
HETATM   11  C8  UNL     1      20.019   3.606   4.840  1.00  0.00     0.243 C 
ENDROOT
BRANCH   1  12
HETATM   12  C3  UNL     1      19.082   5.946   5.066  1.00  0.00     0.065 C 
BRANCH  12  13
HETATM   13  N1  UNL     1      17.946   6.676   4.684  1.00  0.00    -0.401 N 
HETATM   14  C1  UNL     1      17.638   6.877   3.331  1.00  0.00     0.148 C 
HETATM   15  C2  UNL     1      17.336   7.516   5.656  1.00  0.00     0.148 C 
ENDBRANCH  12  13
ENDBRANCH   1  12
TORSDOF 2
ENDMDL
MODEL 5
REMARK VINA RESULT: -3.755037078      1.489      2.553
REMARK  2 active torsions:
REMARK  status: ('A' for Active; 'I' for Inactive)
REMARK    1  A    between atoms: N1_2  and  C3_4 
REMARK    2  A    between atoms: C3_4  and  C4_5 
ROOT
HETATM    1  C4  UNL     1      19.002   4.489   5.405  1.00  0.00     0.075 C 
HETATM    2  C5  UNL     1      18.657   4.159   6.836  1.00  0.00     0.243 C 
HETATM    3  N2  UNL     1      19.773   3.788   7.646  1.00  0.00    -0.073 N 
ATOM      4  H21 UNL     1      19.699   4.210   8.572  1.00  0.00     0.277 HD
ATOM      5  H22 UNL     1      20.623   4.245   7.316  1.00  0.00     0.277 HD
HETATM    6  C6  UNL     1      19.972   2.360   7.753  1.00  0.00     0.259 C 
HETATM    7  C7  UNL     1      20.480   1.765   6.459  1.00  0.00     0.259 C 
HETATM    8  N3  UNL     1      19.738   2.235   5.314  1.00  0.00    -0.073 N 
ATOM      9  H31 UNL     1      18.733   2.149   5.468  1.00  0.00     0.277 HD
ATOM     10  H32 UNL     1      19.838   1.597   4.524  1.00  0.00     0.277 HD
HETATM   11  C8  UNL     1      20.097   3.594   4.939  1.00  0.00     0.243 C 
ENDROOT
BRANCH   1  12
HETATM   12  C3  UNL     1      19.247   5.957   5.255  1.00  0.00     0.065 C 
BRANCH  12  13
HETATM   13  N1  UNL     1      18.189   6.744   4.778  1.00  0.00    -0.401 N 
HETATM   14  C1  UNL     1      17.349   7.436   5.661  1.00  0.00     0.148 C 
HETATM   15  C2  UNL     1      17.750   6.533   3.441  1.00  0.00     0.148 C 
ENDBRANCH  12  13
ENDBRANCH   1  12
TORSDOF 2
ENDMDL
