MODEL 1
REMARK VINA RESULT: -4.670855598      0.000      0.000
REMARK  3 active torsions:
REMARK  status: ('A' for Active; 'I' for Inactive)
REMARK    1  A    between atoms: O1_1  and  C1_3 
REMARK    2  A    between atoms: C1_3  and  C2_4 
REMARK    3  A    between atoms: C2_4  and  N1_5 
ROOT
HETATM    1  N1  UNL     1      19.122   4.465   6.545  1.00  0.00    -0.279 N 
HETATM    2  N2  UNL     1      18.338   3.382   6.247  1.00  0.00    -0.130 NA
HETATM    3  C3  UNL     1      18.551   2.417   7.340  1.00  0.00     0.123 C 
HETATM    4  C4  UNL     1      19.911   1.748   7.174  1.00  0.00     0.029 C 
HETATM    5  C5  UNL     1      20.902   2.847   6.879  1.00  0.00     0.057 C 
HETATM    6  C6  UNL     1      20.267   4.169   7.328  1.00  0.00     0.239 C 
HETATM    7  O2  UNL     1      19.819   3.914   8.638  1.00  0.00    -0.364 OA
HETATM    8  C7  UNL     1      18.646   3.180   8.666  1.00  0.00     0.193 C 
ENDROOT
BRANCH   1   9
HETATM    9  C2  UNL     1      19.189   5.519   5.619  1.00  0.00     0.107 C 
BRANCH   9  10
HETATM   10  C1  UNL     1      18.977   6.900   6.195  1.00  0.00     0.210 C 
BRANCH  10  11
HETATM   11  O1  UNL     1      20.238   7.507   6.303  1.00  0.00    -0.396 OA
ATOM     12  H1  UNL     1      20.237   8.266   5.732  1.00  0.00     0.209 HD
ENDBRANCH  10  11
ENDBRANCH   9  10
ENDBRANCH   1   9
TORSDOF 3
ENDMDL
MODEL 2
REMARK VINA RESULT: -4.605512762      1.385      1.875
REMARK  3 active torsions:
REMARK  status: ('A' for Active; 'I' for Inactive)
REMARK    1  A    between atoms: O1_1  and  C1_3 
REMARK    2  A    between atoms: C1_3  and  C2_4 
REMARK    3  A    between atoms: C2_4  and  N1_5 
ROOT
HETATM    1  N1  UNL     1      19.030   4.659   6.646  1.00  0.00    -0.279 N 
HETATM    2  N2  UNL     1      19.928   4.606   5.613  1.00  0.00    -0.130 NA
HETATM    3  C3  UNL     1      20.101   3.175   5.304  1.00  0.00     0.123 C 
HETATM    4  C4  UNL     1      20.969   2.523   6.374  1.00  0.00     0.029 C 
HETATM    5  C5  UNL     1      20.438   2.989   7.707  1.00  0.00     0.057 C 
HETATM    6  C6  UNL     1      19.013   3.509   7.476  1.00  0.00     0.239 C 
HETATM    7  O2  UNL     1      18.381   2.483   6.750  1.00  0.00    -0.364 OA
HETATM    8  C7  UNL     1      18.744   2.473   5.415  1.00  0.00     0.193 C 
ENDROOT
BRANCH   1   9
HETATM    9  C2  UNL     1      18.738   5.909   7.215  1.00  0.00     0.107 C 
BRANCH   9  10
HETATM   10  C1  UNL     1      18.867   7.091   6.281  1.00  0.00     0.210 C 
BRANCH  10  11
HETATM   11  O1  UNL     1      20.190   7.553   6.370  1.00  0.00    -0.396 OA
ATOM     12  H1  UNL     1      20.363   7.742   7.285  1.00  0.00     0.209 HD
ENDBRANCH  10  11
ENDBRANCH   9  10
ENDBRANCH   1   9
TORSDOF 3
ENDMDL
MODEL 3
REMARK VINA RESULT: -4.532433068      1.996      3.917
REMARK  3 active torsions:
REMARK  status: ('A' for Active; 'I' for Inactive)
REMARK    1  A    between atoms: O1_1  and  C1_3 
REMARK    2  A    between atoms: C1_3  and  C2_4 
REMARK    3  A    between atoms: C2_4  and  N1_5 
ROOT
HETATM    1  N1  UNL     1      18.692   2.662   7.764  1.00  0.00    -0.279 N 
HETATM    2  N2  UNL     1      18.439   2.687   6.418  1.00  0.00    -0.130 NA
HETATM    3  C3  UNL     1      19.688   3.142   5.782  1.00  0.00     0.123 C 
HETATM    4  C4  UNL     1      19.854   4.642   5.996  1.00  0.00     0.029 C 
HETATM    5  C5  UNL     1      19.561   4.908   7.452  1.00  0.00     0.057 C 
HETATM    6  C6  UNL     1      19.690   3.573   8.197  1.00  0.00     0.239 C 
HETATM    7  O2  UNL     1      20.931   3.057   7.777  1.00  0.00    -0.364 OA
HETATM    8  C7  UNL     1      20.878   2.505   6.510  1.00  0.00     0.193 C 
ENDROOT
BRANCH   1   9
HETATM    9  C2  UNL     1      17.638   2.348   8.638  1.00  0.00     0.107 C 
BRANCH   9  10
HETATM   10  C1  UNL     1      17.637   0.932   9.166  1.00  0.00     0.210 C 
BRANCH  10  11
HETATM   11  O1  UNL     1      18.501   0.181   8.354  1.00  0.00    -0.396 OA
ATOM     12  H1  UNL     1      17.964  -0.416   7.845  1.00  0.00     0.209 HD
ENDBRANCH  10  11
ENDBRANCH   9  10
ENDBRANCH   1   9
TORSDOF 3
ENDMDL
MODEL 4
REMARK VINA RESULT: -4.497237514      1.414      2.111
REMARK  3 active torsions:
REMARK  status: ('A' for Active; 'I' for Inactive)
REMARK    1  A    between atoms: O1_1  and  C1_3 
REMARK    2  A    between atoms: C1_3  and  C2_4 
REMARK    3  A    between atoms: C2_4  and  N1_5 
ROOT
HETATM    1  N1  UNL     1      19.590   4.558   5.893  1.00  0.00    -0.279 N 
HETATM    2  N2  UNL     1      20.005   4.604   7.198  1.00  0.00    -0.130 NA
HETATM    3  C3  UNL     1      20.308   3.211   7.573  1.00  0.00     0.123 C 
HETATM    4  C4  UNL     1      19.008   2.446   7.790  1.00  0.00     0.029 C 
HETATM    5  C5  UNL     1      18.109   2.778   6.625  1.00  0.00     0.057 C 
HETATM    6  C6  UNL     1      18.998   3.329   5.503  1.00  0.00     0.239 C 
HETATM    7  O2  UNL     1      20.038   2.388   5.386  1.00  0.00    -0.364 OA
HETATM    8  C7  UNL     1      20.984   2.512   6.388  1.00  0.00     0.193 C 
ENDROOT
BRANCH   1   9
HETATM    9  C2  UNL     1      19.143   5.746   5.291  1.00  0.00     0.107 C 
BRANCH   9  10
HETATM   10  C1  UNL     1      19.012   6.931   6.220  1.00  0.00     0.210 C 
BRANCH  10  11
HETATM   11  O1  UNL     1      20.282   7.518   6.332  1.00  0.00    -0.396 OA
ATOM     12  H1  UNL     1      20.912   6.902   5.974  1.00  0.00     0.209 HD
ENDBRANCH  10  11
ENDBRANCH   9  10
ENDBRANCH   1   9
TORSDOF 3
ENDMDL
MODEL 5
REMARK VINA RESULT: -4.433899669      2.042      3.957
REMARK  3 active torsions:
REMARK  status: ('A' for Active; 'I' for Inactive)
REMARK    1  A    between atoms: O1_1  and  C1_3 
REMARK    2  A    between atoms: C1_3  and  C2_4 
REMARK    3  A    between atoms: C2_4  and  N1_5 
ROOT
HETATM    1  N1  UNL     1      18.569   3.044   7.981  1.00  0.00    -0.279 N 
HETATM    2  N2  UNL     1      19.887   2.822   8.282  1.00  0.00    -0.130 NA
HETATM    3  C3  UNL     1      20.662   3.572   7.278  1.00  0.00     0.123 C 
HETATM    4  C4  UNL     1      20.621   2.834   5.945  1.00  0.00     0.029 C 
HETATM    5  C5  UNL     1      19.183   2.443   5.709  1.00  0.00     0.057 C 
HETATM    6  C6  UNL     1      18.314   3.326   6.614  1.00  0.00     0.239 C 
HETATM    7  O2  UNL     1      18.771   4.635   6.369  1.00  0.00    -0.364 OA
HETATM    8  C7  UNL     1      19.965   4.911   7.010  1.00  0.00     0.193 C 
ENDROOT
BRANCH   1   9
HETATM    9  C2  UNL     1      17.589   2.371   8.728  1.00  0.00     0.107 C 
BRANCH   9  10
HETATM   10  C1  UNL     1      18.054   1.106   9.413  1.00  0.00     0.210 C 
BRANCH  10  11
HETATM   11  O1  UNL     1      18.397   0.188   8.407  1.00  0.00    -0.396 OA
ATOM     12  H1  UNL     1      17.589  -0.193   8.083  1.00  0.00     0.209 HD
ENDBRANCH  10  11
ENDBRANCH   9  10
ENDBRANCH   1   9
TORSDOF 3
ENDMDL
