MODEL 1
REMARK VINA RESULT: -4.770324225      0.000      0.000
REMARK  1 active torsions:
REMARK  status: ('A' for Active; 'I' for Inactive)
REMARK    1  A    between atoms: N3_16  and  O2_17 
ROOT
HETATM    1  C1  UNL     1      14.397  18.034 -28.363  1.00  0.00     0.043 C 
HETATM    2  C2  UNL     1      13.009  17.661 -27.940  1.00  0.00     0.092 C 
HETATM    3  C3  UNL     1      12.958  16.162 -27.700  1.00  0.00     0.043 C 
HETATM    4  C4  UNL     1      11.979  17.982 -28.942  1.00  0.00     0.098 C 
HETATM    5  N1  UNL     1      12.048  17.877 -30.247  1.00  0.00    -0.387 N 
ATOM      6  H11 UNL     1      11.335  18.099 -30.942  1.00  0.00     0.157 HD
ATOM      7  H12 UNL     1      12.858  17.545 -30.770  1.00  0.00     0.157 HD
HETATM    8  N2  UNL     1      10.848  18.445 -28.212  1.00  0.00    -0.344 N 
ATOM      9  H2  UNL     1       9.871  18.406 -28.504  1.00  0.00     0.163 HD
HETATM   10  C5  UNL     1      11.365  18.983 -26.972  1.00  0.00     0.183 C 
HETATM   11  C6  UNL     1      10.418  18.683 -25.801  1.00  0.00     0.229 C 
HETATM   12  O1  UNL     1      11.031  19.171 -24.676  1.00  0.00    -0.386 OA
HETATM   13  C7  UNL     1      10.777  20.477 -24.384  1.00  0.00     0.178 C 
HETATM   14  C8  UNL     1      10.515  21.361 -25.550  1.00  0.00     0.104 C 
HETATM   15  S1  UNL     1      11.442  20.813 -27.036  1.00  0.00    -0.116 SA
HETATM   16  N3  UNL     1      12.659  18.410 -26.771  1.00  0.00    -0.142 NA
ENDROOT
BRANCH  16  17
HETATM   17  O2  UNL     1      12.793  17.744 -25.620  1.00  0.00    -0.309 OA
ATOM     18  H2  UNL     1      13.423  18.117 -25.016  1.00  0.00     0.237 HD
ENDBRANCH  16  17
TORSDOF 1
ENDMDL
MODEL 2
REMARK VINA RESULT: -4.597586782      8.775     10.239
REMARK  1 active torsions:
REMARK  status: ('A' for Active; 'I' for Inactive)
REMARK    1  A    between atoms: N3_16  and  O2_17 
ROOT
HETATM    1  C1  UNL     1       7.547  24.735 -31.217  1.00  0.00     0.043 C 
HETATM    2  C2  UNL     1       7.221  25.414 -29.922  1.00  0.00     0.092 C 
HETATM    3  C3  UNL     1       8.399  26.283 -29.516  1.00  0.00     0.043 C 
HETATM    4  C4  UNL     1       6.960  24.480 -28.813  1.00  0.00     0.098 C 
HETATM    5  N1  UNL     1       7.564  23.349 -28.539  1.00  0.00    -0.387 N 
ATOM      6  H11 UNL     1       7.384  22.702 -27.771  1.00  0.00     0.157 HD
ATOM      7  H12 UNL     1       8.329  22.943 -29.077  1.00  0.00     0.157 HD
HETATM    8  N2  UNL     1       5.892  25.047 -28.062  1.00  0.00    -0.344 N 
ATOM      9  H2  UNL     1       5.693  24.900 -27.072  1.00  0.00     0.163 HD
HETATM   10  C5  UNL     1       5.147  25.874 -28.986  1.00  0.00     0.183 C 
HETATM   11  C6  UNL     1       4.634  27.148 -28.299  1.00  0.00     0.229 C 
HETATM   12  O1  UNL     1       4.008  27.884 -29.272  1.00  0.00    -0.386 OA
HETATM   13  C7  UNL     1       2.688  27.607 -29.466  1.00  0.00     0.178 C 
HETATM   14  C8  UNL     1       2.275  26.205 -29.191  1.00  0.00     0.104 C 
HETATM   15  S1  UNL     1       3.627  25.018 -29.550  1.00  0.00    -0.116 SA
HETATM   16  N3  UNL     1       6.017  26.173 -30.080  1.00  0.00    -0.142 NA
ENDROOT
BRANCH  16  17
HETATM   17  O2  UNL     1       6.204  27.479 -30.293  1.00  0.00    -0.309 OA
ATOM     18  H2  UNL     1       6.081  27.756 -31.194  1.00  0.00     0.237 HD
ENDBRANCH  16  17
TORSDOF 1
ENDMDL
MODEL 3
REMARK VINA RESULT: -4.534276134      7.285      8.799
REMARK  1 active torsions:
REMARK  status: ('A' for Active; 'I' for Inactive)
REMARK    1  A    between atoms: N3_16  and  O2_17 
ROOT
HETATM    1  C1  UNL     1       8.403  25.812 -28.022  1.00  0.00     0.043 C 
HETATM    2  C2  UNL     1       7.571  25.454 -29.215  1.00  0.00     0.092 C 
HETATM    3  C3  UNL     1       6.825  26.693 -29.679  1.00  0.00     0.043 C 
HETATM    4  C4  UNL     1       6.567  24.411 -28.944  1.00  0.00     0.098 C 
HETATM    5  N1  UNL     1       5.833  24.243 -27.870  1.00  0.00    -0.387 N 
ATOM      6  H11 UNL     1       5.137  23.521 -27.682  1.00  0.00     0.157 HD
ATOM      7  H12 UNL     1       5.857  24.835 -27.040  1.00  0.00     0.157 HD
HETATM    8  N2  UNL     1       6.533  23.584 -30.102  1.00  0.00    -0.344 N 
ATOM      9  H2  UNL     1       5.749  23.020 -30.431  1.00  0.00     0.163 HD
HETATM   10  C5  UNL     1       7.836  23.706 -30.719  1.00  0.00     0.183 C 
HETATM   11  C6  UNL     1       7.727  23.696 -32.250  1.00  0.00     0.229 C 
HETATM   12  O1  UNL     1       8.998  23.885 -32.728  1.00  0.00    -0.386 OA
HETATM   13  C7  UNL     1       9.739  22.754 -32.898  1.00  0.00     0.178 C 
HETATM   14  C8  UNL     1       9.437  21.637 -31.965  1.00  0.00     0.104 C 
HETATM   15  S1  UNL     1       8.882  22.253 -30.328  1.00  0.00    -0.116 SA
HETATM   16  N3  UNL     1       8.420  24.918 -30.235  1.00  0.00    -0.142 NA
ENDROOT
BRANCH  16  17
HETATM   17  O2  UNL     1       8.759  25.786 -31.193  1.00  0.00    -0.309 OA
ATOM     18  H2  UNL     1       8.032  26.275 -31.561  1.00  0.00     0.237 HD
ENDBRANCH  16  17
TORSDOF 1
ENDMDL
MODEL 4
REMARK VINA RESULT: -4.272226032      2.978      4.976
REMARK  1 active torsions:
REMARK  status: ('A' for Active; 'I' for Inactive)
REMARK    1  A    between atoms: N3_16  and  O2_17 
ROOT
HETATM    1  C1  UNL     1      12.201  22.640 -26.824  1.00  0.00     0.043 C 
HETATM    2  C2  UNL     1      10.951  21.868 -27.120  1.00  0.00     0.092 C 
HETATM    3  C3  UNL     1       9.796  22.844 -27.262  1.00  0.00     0.043 C 
HETATM    4  C4  UNL     1      10.587  20.907 -26.065  1.00  0.00     0.098 C 
HETATM    5  N1  UNL     1      10.682  21.045 -24.765  1.00  0.00    -0.387 N 
ATOM      6  H11 UNL     1      10.430  20.380 -24.034  1.00  0.00     0.157 HD
ATOM      7  H12 UNL     1      11.036  21.872 -24.284  1.00  0.00     0.157 HD
HETATM    8  N2  UNL     1      10.093  19.752 -26.736  1.00  0.00    -0.344 N 
ATOM      9  H2  UNL     1       9.434  19.065 -26.371  1.00  0.00     0.163 HD
HETATM   10  C5  UNL     1      10.717  19.751 -28.042  1.00  0.00     0.183 C 
HETATM   11  C6  UNL     1       9.746  19.245 -29.119  1.00  0.00     0.229 C 
HETATM   12  O1  UNL     1      10.409  19.350 -30.315  1.00  0.00    -0.386 OA
HETATM   13  C7  UNL     1      11.165  18.272 -30.667  1.00  0.00     0.178 C 
HETATM   14  C8  UNL     1      11.748  17.495 -29.541  1.00  0.00     0.104 C 
HETATM   15  S1  UNL     1      12.115  18.567 -28.098  1.00  0.00    -0.116 SA
HETATM   16  N3  UNL     1      11.150  21.088 -28.303  1.00  0.00    -0.142 NA
ENDROOT
BRANCH  16  17
HETATM   17  O2  UNL     1      10.643  21.623 -29.418  1.00  0.00    -0.309 OA
ATOM     18  H2  UNL     1      10.285  20.995 -30.033  1.00  0.00     0.237 HD
ENDBRANCH  16  17
TORSDOF 1
ENDMDL
MODEL 5
REMARK VINA RESULT: -4.093755477     10.723     12.228
REMARK  1 active torsions:
REMARK  status: ('A' for Active; 'I' for Inactive)
REMARK    1  A    between atoms: N3_16  and  O2_17 
ROOT
HETATM    1  C1  UNL     1      11.271  27.577 -23.177  1.00  0.00     0.043 C 
HETATM    2  C2  UNL     1      10.198  28.210 -22.345  1.00  0.00     0.092 C 
HETATM    3  C3  UNL     1       8.860  27.602 -22.730  1.00  0.00     0.043 C 
HETATM    4  C4  UNL     1      10.088  29.667 -22.529  1.00  0.00     0.098 C 
HETATM    5  N1  UNL     1      10.210  30.362 -23.634  1.00  0.00    -0.387 N 
ATOM      6  H11 UNL     1      10.135  31.372 -23.762  1.00  0.00     0.157 HD
ATOM      7  H12 UNL     1      10.405  29.974 -24.556  1.00  0.00     0.157 HD
HETATM    8  N2  UNL     1       9.816  30.209 -21.241  1.00  0.00    -0.344 N 
ATOM      9  H2  UNL     1       9.331  31.082 -21.032  1.00  0.00     0.163 HD
HETATM   10  C5  UNL     1      10.368  29.270 -20.287  1.00  0.00     0.183 C 
HETATM   11  C6  UNL     1       9.477  29.159 -19.042  1.00  0.00     0.229 C 
HETATM   12  O1  UNL     1      10.049  28.202 -18.243  1.00  0.00    -0.386 OA
HETATM   13  C7  UNL     1      10.996  28.650 -17.372  1.00  0.00     0.178 C 
HETATM   14  C8  UNL     1      11.778  29.834 -17.819  1.00  0.00     0.104 C 
HETATM   15  S1  UNL     1      11.978  29.864 -19.642  1.00  0.00    -0.116 SA
HETATM   16  N3  UNL     1      10.502  28.016 -20.959  1.00  0.00    -0.142 NA
ENDROOT
BRANCH  16  17
HETATM   17  O2  UNL     1       9.845  27.007 -20.379  1.00  0.00    -0.309 OA
ATOM     18  H2  UNL     1       9.641  27.142 -19.461  1.00  0.00     0.237 HD
ENDBRANCH  16  17
TORSDOF 1
ENDMDL
