MODEL 1
REMARK VINA RESULT: -5.782000078      0.000      0.000
REMARK  3 active torsions:
REMARK  status: ('A' for Active; 'I' for Inactive)
REMARK    1  A    between atoms: C2_3  and  O1_4 
REMARK    2  A    between atoms: C9_12  and  N2_13 
REMARK    3  A    between atoms: C9_12  and  O2_17 
ROOT
HETATM    1  N1  UNL     1      15.779  27.116 -15.577  1.00  0.00    -0.189 NA
HETATM    2  C1  UNL     1      16.159  28.219 -15.753  1.00  0.00     0.125 C 
HETATM    3  C2  UNL     1      16.648  29.536 -15.958  1.00  0.00     0.155 C 
HETATM    4  C3  UNL     1      15.916  30.470 -16.470  1.00  0.00     0.009 C 
HETATM    5  C4  UNL     1      16.413  31.865 -16.695  1.00  0.00     0.044 C 
HETATM    6  C5  UNL     1      16.212  32.295 -18.126  1.00  0.00     0.006 C 
HETATM    7  C6  UNL     1      15.111  31.615 -18.849  1.00  0.00     0.011 C 
HETATM    8  C7  UNL     1      14.017  31.105 -17.975  1.00  0.00     0.040 C 
HETATM    9  C8  UNL     1      13.033  30.250 -18.721  1.00  0.00     0.080 C 
HETATM   10  C9  UNL     1      11.899  30.002 -17.715  1.00  0.00     0.238 C 
HETATM   11  C10 UNL     1      12.431  29.088 -16.663  1.00  0.00     0.188 C 
HETATM   12  N3  UNL     1      13.802  29.350 -16.302  1.00  0.00    -0.388 N 
ATOM     13  H3  UNL     1      14.212  28.794 -15.552  1.00  0.00     0.159 HD
HETATM   14  C11 UNL     1      14.541  30.238 -16.864  1.00  0.00     0.019 C 
ENDROOT
BRANCH   3  15
HETATM   15  O1  UNL     1      17.982  29.788 -15.577  1.00  0.00    -0.351 OA
ATOM     16  H1  UNL     1      18.645  29.707 -16.253  1.00  0.00     0.218 HD
ENDBRANCH   3  15
BRANCH  10  17
HETATM   17  N2  UNL     1      10.792  29.494 -18.444  1.00  0.00    -0.045 N 
ATOM     18  H23 UNL     1      10.000  30.136 -18.466  1.00  0.00     0.278 HD
ATOM     19  H22 UNL     1      10.960  29.458 -19.449  1.00  0.00     0.278 HD
ATOM     20  H21 UNL     1      10.559  28.585 -18.046  1.00  0.00     0.278 HD
ENDBRANCH  10  17
BRANCH  10  21
HETATM   21  O2  UNL     1      11.555  31.221 -17.095  1.00  0.00    -0.364 OA
ATOM     22  H2  UNL     1      10.638  31.198 -16.849  1.00  0.00     0.212 HD
ENDBRANCH  10  21
TORSDOF 3
ENDMDL
MODEL 2
REMARK VINA RESULT: -5.766069885      2.578      5.600
REMARK  3 active torsions:
REMARK  status: ('A' for Active; 'I' for Inactive)
REMARK    1  A    between atoms: C2_3  and  O1_4 
REMARK    2  A    between atoms: C9_12  and  N2_13 
REMARK    3  A    between atoms: C9_12  and  O2_17 
ROOT
HETATM    1  N1  UNL     1      13.531  29.240 -22.001  1.00  0.00    -0.189 NA
HETATM    2  C1  UNL     1      12.496  29.142 -21.444  1.00  0.00     0.125 C 
HETATM    3  C2  UNL     1      11.238  29.007 -20.800  1.00  0.00     0.155 C 
HETATM    4  C3  UNL     1      11.056  29.350 -19.567  1.00  0.00     0.009 C 
HETATM    5  C4  UNL     1       9.737  29.214 -18.869  1.00  0.00     0.044 C 
HETATM    6  C5  UNL     1       9.871  28.426 -17.591  1.00  0.00     0.006 C 
HETATM    7  C6  UNL     1      11.213  28.454 -16.961  1.00  0.00     0.011 C 
HETATM    8  C7  UNL     1      12.022  29.665 -17.278  1.00  0.00     0.040 C 
HETATM    9  C8  UNL     1      13.439  29.557 -16.792  1.00  0.00     0.080 C 
HETATM   10  C9  UNL     1      14.033  30.954 -17.024  1.00  0.00     0.238 C 
HETATM   11  C10 UNL     1      14.181  31.133 -18.498  1.00  0.00     0.188 C 
HETATM   12  N3  UNL     1      13.101  30.566 -19.265  1.00  0.00    -0.388 N 
ATOM     13  H3  UNL     1      13.114  30.698 -20.276  1.00  0.00     0.159 HD
HETATM   14  C11 UNL     1      12.122  29.904 -18.759  1.00  0.00     0.019 C 
ENDROOT
BRANCH   3  15
HETATM   15  O1  UNL     1      10.182  28.475 -21.568  1.00  0.00    -0.351 OA
ATOM     16  H1  UNL     1       9.977  27.556 -21.440  1.00  0.00     0.218 HD
ENDBRANCH   3  15
BRANCH  10  17
HETATM   17  N2  UNL     1      15.245  31.024 -16.289  1.00  0.00    -0.045 N 
ATOM     18  H23 UNL     1      15.125  30.807 -15.300  1.00  0.00     0.278 HD
ATOM     19  H22 UNL     1      15.891  30.267 -16.513  1.00  0.00     0.278 HD
ATOM     20  H21 UNL     1      15.643  31.949 -16.449  1.00  0.00     0.278 HD
ENDBRANCH  10  17
BRANCH  10  21
HETATM   21  O2  UNL     1      13.125  31.927 -16.559  1.00  0.00    -0.364 OA
ATOM     22  H2  UNL     1      12.594  32.230 -17.286  1.00  0.00     0.212 HD
ENDBRANCH  10  21
TORSDOF 3
ENDMDL
MODEL 3
REMARK VINA RESULT: -5.438173050     13.713     14.922
REMARK  3 active torsions:
REMARK  status: ('A' for Active; 'I' for Inactive)
REMARK    1  A    between atoms: C2_3  and  O1_4 
REMARK    2  A    between atoms: C9_12  and  N2_13 
REMARK    3  A    between atoms: C9_12  and  O2_17 
ROOT
HETATM    1  N1  UNL     1       5.910  15.941 -20.339  1.00  0.00    -0.189 NA
HETATM    2  C1  UNL     1       6.114  16.569 -19.361  1.00  0.00     0.125 C 
HETATM    3  C2  UNL     1       6.327  17.318 -18.174  1.00  0.00     0.155 C 
HETATM    4  C3  UNL     1       7.502  17.724 -17.818  1.00  0.00     0.009 C 
HETATM    5  C4  UNL     1       7.748  18.514 -16.570  1.00  0.00     0.044 C 
HETATM    6  C5  UNL     1       8.802  17.866 -15.709  1.00  0.00     0.006 C 
HETATM    7  C6  UNL     1       9.776  17.010 -16.428  1.00  0.00     0.011 C 
HETATM    8  C7  UNL     1       9.981  17.371 -17.859  1.00  0.00     0.040 C 
HETATM    9  C8  UNL     1      10.813  16.360 -18.596  1.00  0.00     0.080 C 
HETATM   10  C9  UNL     1      11.076  17.004 -19.965  1.00  0.00     0.238 C 
HETATM   11  C10 UNL     1       9.784  17.005 -20.710  1.00  0.00     0.188 C 
HETATM   12  N3  UNL     1       8.635  17.281 -19.885  1.00  0.00    -0.388 N 
ATOM     13  H3  UNL     1       7.725  17.348 -20.341  1.00  0.00     0.159 HD
HETATM   14  C11 UNL     1       8.682  17.448 -18.612  1.00  0.00     0.019 C 
ENDROOT
BRANCH   3  15
HETATM   15  O1  UNL     1       5.193  17.604 -17.388  1.00  0.00    -0.351 OA
ATOM     16  H1  UNL     1       5.293  17.534 -16.446  1.00  0.00     0.218 HD
ENDBRANCH   3  15
BRANCH  10  17
HETATM   17  N2  UNL     1      12.121  16.268 -20.582  1.00  0.00    -0.045 N 
ATOM     18  H23 UNL     1      11.964  15.261 -20.565  1.00  0.00     0.278 HD
ATOM     19  H22 UNL     1      12.144  16.381 -21.595  1.00  0.00     0.278 HD
ATOM     20  H21 UNL     1      12.993  16.544 -20.130  1.00  0.00     0.278 HD
ENDBRANCH  10  17
BRANCH  10  21
HETATM   21  O2  UNL     1      11.469  18.345 -19.778  1.00  0.00    -0.364 OA
ATOM     22  H2  UNL     1      11.925  18.647 -20.554  1.00  0.00     0.212 HD
ENDBRANCH  10  21
TORSDOF 3
ENDMDL
MODEL 4
REMARK VINA RESULT: -5.344477969      2.912      4.853
REMARK  3 active torsions:
REMARK  status: ('A' for Active; 'I' for Inactive)
REMARK    1  A    between atoms: C2_3  and  O1_4 
REMARK    2  A    between atoms: C9_12  and  N2_13 
REMARK    3  A    between atoms: C9_12  and  O2_17 
ROOT
HETATM    1  N1  UNL     1      14.446  31.802 -18.474  1.00  0.00    -0.189 NA
HETATM    2  C1  UNL     1      13.833  31.025 -17.832  1.00  0.00     0.125 C 
HETATM    3  C2  UNL     1      13.108  30.104 -17.031  1.00  0.00     0.155 C 
HETATM    4  C3  UNL     1      12.181  29.347 -17.521  1.00  0.00     0.009 C 
HETATM    5  C4  UNL     1      11.404  28.370 -16.693  1.00  0.00     0.044 C 
HETATM    6  C5  UNL     1       9.919  28.588 -16.835  1.00  0.00     0.006 C 
HETATM    7  C6  UNL     1       9.485  29.224 -18.102  1.00  0.00     0.011 C 
HETATM    8  C7  UNL     1      10.405  29.003 -19.253  1.00  0.00     0.040 C 
HETATM    9  C8  UNL     1      10.037  29.829 -20.453  1.00  0.00     0.080 C 
HETATM   10  C9  UNL     1      10.956  29.314 -21.571  1.00  0.00     0.238 C 
HETATM   11  C10 UNL     1      12.341  29.763 -21.247  1.00  0.00     0.188 C 
HETATM   12  N3  UNL     1      12.657  29.715 -19.842  1.00  0.00    -0.388 N 
ATOM     13  H3  UNL     1      13.605  29.960 -19.558  1.00  0.00     0.159 HD
HETATM   14  C11 UNL     1      11.822  29.383 -18.923  1.00  0.00     0.019 C 
ENDROOT
BRANCH   3  15
HETATM   15  O1  UNL     1      13.443  30.046 -15.663  1.00  0.00    -0.351 OA
ATOM     16  H1  UNL     1      13.686  29.195 -15.315  1.00  0.00     0.218 HD
ENDBRANCH   3  15
BRANCH  10  17
HETATM   17  N2  UNL     1      10.440  29.804 -22.799  1.00  0.00    -0.045 N 
ATOM     18  H23 UNL     1      10.534  30.815 -22.896  1.00  0.00     0.278 HD
ATOM     19  H22 UNL     1      11.008  29.540 -23.603  1.00  0.00     0.278 HD
ATOM     20  H21 UNL     1       9.474  29.484 -22.870  1.00  0.00     0.278 HD
ENDBRANCH  10  17
BRANCH  10  21
HETATM   21  O2  UNL     1      10.946  27.904 -21.565  1.00  0.00    -0.364 OA
ATOM     22  H2  UNL     1      11.810  27.587 -21.331  1.00  0.00     0.212 HD
ENDBRANCH  10  21
TORSDOF 3
ENDMDL
MODEL 5
REMARK VINA RESULT: -4.934156859     13.442     15.912
REMARK  3 active torsions:
REMARK  status: ('A' for Active; 'I' for Inactive)
REMARK    1  A    between atoms: C2_3  and  O1_4 
REMARK    2  A    between atoms: C9_12  and  N2_13 
REMARK    3  A    between atoms: C9_12  and  O2_17 
ROOT
HETATM    1  N1  UNL     1       8.184  24.462 -31.705  1.00  0.00    -0.189 NA
HETATM    2  C1  UNL     1       7.053  24.591 -31.396  1.00  0.00     0.125 C 
HETATM    3  C2  UNL     1       5.683  24.737 -31.056  1.00  0.00     0.155 C 
HETATM    4  C3  UNL     1       5.292  24.915 -29.836  1.00  0.00     0.009 C 
HETATM    5  C4  UNL     1       3.851  25.070 -29.456  1.00  0.00     0.044 C 
HETATM    6  C5  UNL     1       3.456  24.083 -28.387  1.00  0.00     0.006 C 
HETATM    7  C6  UNL     1       4.559  23.604 -27.520  1.00  0.00     0.011 C 
HETATM    8  C7  UNL     1       5.702  24.551 -27.392  1.00  0.00     0.040 C 
HETATM    9  C8  UNL     1       6.877  23.945 -26.678  1.00  0.00     0.080 C 
HETATM   10  C9  UNL     1       7.846  25.118 -26.469  1.00  0.00     0.238 C 
HETATM   11  C10 UNL     1       8.398  25.480 -27.807  1.00  0.00     0.188 C 
HETATM   12  N3  UNL     1       7.437  25.395 -28.877  1.00  0.00    -0.388 N 
ATOM     13  H3  UNL     1       7.735  25.679 -29.810  1.00  0.00     0.159 HD
HETATM   14  C11 UNL     1       6.228  24.985 -28.733  1.00  0.00     0.019 C 
ENDROOT
BRANCH   3  15
HETATM   15  O1  UNL     1       4.753  24.679 -32.113  1.00  0.00    -0.351 OA
ATOM     16  H1  UNL     1       4.881  23.997 -32.762  1.00  0.00     0.218 HD
ENDBRANCH   3  15
BRANCH  10  17
HETATM   17  N2  UNL     1       8.813  24.701 -25.517  1.00  0.00    -0.045 N 
ATOM     18  H23 UNL     1       8.409  24.495 -24.603  1.00  0.00     0.278 HD
ATOM     19  H22 UNL     1       9.186  23.771 -25.709  1.00  0.00     0.278 HD
ATOM     20  H21 UNL     1       9.534  25.421 -25.481  1.00  0.00     0.278 HD
ENDBRANCH  10  17
BRANCH  10  21
HETATM   21  O2  UNL     1       7.130  26.230 -25.981  1.00  0.00    -0.364 OA
ATOM     22  H2  UNL     1       6.995  26.848 -26.689  1.00  0.00     0.212 HD
ENDBRANCH  10  21
TORSDOF 3
ENDMDL
