MODEL 1
REMARK VINA RESULT: -4.868510489      0.000      0.000
REMARK  0 active torsions:
REMARK  status: ('A' for Active; 'I' for Inactive)
ROOT
HETATM    1  C1  UNL     1      10.157  27.659 -21.772  1.00  0.00     0.041 C 
HETATM    2  C2  UNL     1      10.500  29.102 -21.671  1.00  0.00     0.079 C 
HETATM    3  C3  UNL     1       9.235  29.903 -21.569  1.00  0.00     0.041 C 
HETATM    4  N1  UNL     1      11.183  29.492 -22.919  1.00  0.00    -0.113 NA
HETATM    5  N2  UNL     1      12.180  28.601 -23.257  1.00  0.00    -0.238 N 
ATOM      6  H2  UNL     1      12.030  27.836 -23.915  1.00  0.00     0.200 HD
HETATM    7  N3  UNL     1      13.392  28.819 -22.642  1.00  0.00    -0.049 NA
HETATM    8  S1  UNL     1      13.141  29.776 -21.169  1.00  0.00    -0.002 SA
HETATM    9  C4  UNL     1      11.478  29.419 -20.610  1.00  0.00     0.026 C 
HETATM   10  C5  UNL     1      11.236  29.460 -19.310  1.00  0.00    -0.054 C 
HETATM   11  C6  UNL     1      12.217  29.774 -18.301  1.00  0.00     0.046 C 
HETATM   12  C7  UNL     1      11.915  29.152 -17.000  1.00  0.00     0.078 C 
HETATM   13  S2  UNL     1      10.270  28.450 -17.144  1.00  0.00    -0.164 SA
HETATM   14  C8  UNL     1       9.878  29.174 -18.786  1.00  0.00     0.109 C 
ENDROOT
TORSDOF 0
ENDMDL
MODEL 2
REMARK VINA RESULT: -4.746794974     10.703     11.778
REMARK  0 active torsions:
REMARK  status: ('A' for Active; 'I' for Inactive)
ROOT
HETATM    1  C1  UNL     1      10.415  16.910 -18.017  1.00  0.00     0.041 C 
HETATM    2  C2  UNL     1       9.617  16.690 -19.252  1.00  0.00     0.079 C 
HETATM    3  C3  UNL     1       8.613  15.602 -19.002  1.00  0.00     0.041 C 
HETATM    4  N1  UNL     1      10.536  16.221 -20.306  1.00  0.00    -0.113 NA
HETATM    5  N2  UNL     1      11.667  17.008 -20.385  1.00  0.00    -0.238 N 
ATOM      6  H2  UNL     1      12.539  16.762 -19.915  1.00  0.00     0.200 HD
HETATM    7  N3  UNL     1      11.535  18.148 -21.145  1.00  0.00    -0.049 NA
HETATM    8  S1  UNL     1       9.815  18.570 -21.278  1.00  0.00    -0.002 SA
HETATM    9  C4  UNL     1       9.019  17.918 -19.813  1.00  0.00     0.026 C 
HETATM   10  C5  UNL     1       7.967  18.565 -19.337  1.00  0.00    -0.054 C 
HETATM   11  C6  UNL     1       7.409  19.763 -19.912  1.00  0.00     0.046 C 
HETATM   12  C7  UNL     1       6.727  20.608 -18.918  1.00  0.00     0.078 C 
HETATM   13  S2  UNL     1       6.647  19.645 -17.405  1.00  0.00    -0.164 SA
HETATM   14  C8  UNL     1       7.264  18.073 -18.126  1.00  0.00     0.109 C 
ENDROOT
TORSDOF 0
ENDMDL
MODEL 3
REMARK VINA RESULT: -4.611597286      3.472      4.871
REMARK  0 active torsions:
REMARK  status: ('A' for Active; 'I' for Inactive)
ROOT
HETATM    1  C1  UNL     1      11.933  31.678 -16.759  1.00  0.00     0.041 C 
HETATM    2  C2  UNL     1      12.863  30.575 -17.119  1.00  0.00     0.079 C 
HETATM    3  C3  UNL     1      12.457  29.329 -16.387  1.00  0.00     0.041 C 
HETATM    4  N1  UNL     1      14.212  30.952 -16.656  1.00  0.00    -0.113 NA
HETATM    5  N2  UNL     1      14.541  32.239 -17.030  1.00  0.00    -0.238 N 
ATOM      6  H2  UNL     1      14.416  33.038 -16.409  1.00  0.00     0.200 HD
HETATM    7  N3  UNL     1      15.050  32.366 -18.303  1.00  0.00    -0.049 NA
HETATM    8  S1  UNL     1      14.561  30.963 -19.275  1.00  0.00    -0.002 SA
HETATM    9  C4  UNL     1      13.024  30.371 -18.573  1.00  0.00     0.026 C 
HETATM   10  C5  UNL     1      12.149  29.800 -19.385  1.00  0.00    -0.054 C 
HETATM   11  C6  UNL     1      12.340  29.617 -20.802  1.00  0.00     0.046 C 
HETATM   12  C7  UNL     1      11.071  29.579 -21.548  1.00  0.00     0.078 C 
HETATM   13  S2  UNL     1       9.764  29.519 -20.320  1.00  0.00    -0.164 SA
HETATM   14  C8  UNL     1      10.857  29.290 -18.863  1.00  0.00     0.109 C 
ENDROOT
TORSDOF 0
ENDMDL
MODEL 4
REMARK VINA RESULT: -4.433771145      2.880      4.359
REMARK  0 active torsions:
REMARK  status: ('A' for Active; 'I' for Inactive)
ROOT
HETATM    1  C1  UNL     1      12.241  29.656 -21.072  1.00  0.00     0.041 C 
HETATM    2  C2  UNL     1      10.813  29.725 -20.665  1.00  0.00     0.079 C 
HETATM    3  C3  UNL     1      10.050  30.527 -21.680  1.00  0.00     0.041 C 
HETATM    4  N1  UNL     1      10.743  30.441 -19.378  1.00  0.00    -0.113 NA
HETATM    5  N2  UNL     1      11.662  29.955 -18.471  1.00  0.00    -0.238 N 
ATOM      6  H2  UNL     1      12.577  30.385 -18.335  1.00  0.00     0.200 HD
HETATM    7  N3  UNL     1      11.255  28.846 -17.763  1.00  0.00    -0.049 NA
HETATM    8  S1  UNL     1       9.953  28.028 -18.650  1.00  0.00    -0.002 SA
HETATM    9  C4  UNL     1      10.200  28.411 -20.381  1.00  0.00     0.026 C 
HETATM   10  C5  UNL     1       9.827  27.512 -21.277  1.00  0.00    -0.054 C 
HETATM   11  C6  UNL     1       9.230  26.237 -20.963  1.00  0.00     0.046 C 
HETATM   12  C7  UNL     1       9.499  25.215 -21.989  1.00  0.00     0.078 C 
HETATM   13  S2  UNL     1      10.262  26.070 -23.369  1.00  0.00    -0.164 SA
HETATM   14  C8  UNL     1      10.005  27.771 -22.727  1.00  0.00     0.109 C 
ENDROOT
TORSDOF 0
ENDMDL
MODEL 5
REMARK VINA RESULT: -4.334746975     10.887     11.735
REMARK  0 active torsions:
REMARK  status: ('A' for Active; 'I' for Inactive)
ROOT
HETATM    1  C1  UNL     1      11.111  17.191 -19.433  1.00  0.00     0.041 C 
HETATM    2  C2  UNL     1       9.721  17.041 -19.937  1.00  0.00     0.079 C 
HETATM    3  C3  UNL     1       9.297  15.608 -19.792  1.00  0.00     0.041 C 
HETATM    4  N1  UNL     1       9.723  17.369 -21.375  1.00  0.00    -0.113 NA
HETATM    5  N2  UNL     1      10.391  18.548 -21.630  1.00  0.00    -0.238 N 
ATOM      6  H2  UNL     1      11.370  18.573 -21.915  1.00  0.00     0.200 HD
HETATM    7  N3  UNL     1       9.640  19.692 -21.471  1.00  0.00    -0.049 NA
HETATM    8  S1  UNL     1       8.257  19.345 -20.414  1.00  0.00    -0.002 SA
HETATM    9  C4  UNL     1       8.758  17.996 -19.350  1.00  0.00     0.026 C 
HETATM   10  C5  UNL     1       8.246  17.940 -18.132  1.00  0.00    -0.054 C 
HETATM   11  C6  UNL     1       7.306  18.891 -17.591  1.00  0.00     0.046 C 
HETATM   12  C7  UNL     1       7.389  19.003 -16.125  1.00  0.00     0.078 C 
HETATM   13  S2  UNL     1       8.478  17.686 -15.577  1.00  0.00    -0.164 SA
HETATM   14  C8  UNL     1       8.622  16.846 -17.203  1.00  0.00     0.109 C 
ENDROOT
TORSDOF 0
ENDMDL
