MODEL 1
REMARK VINA RESULT: -4.689571922      0.000      0.000
REMARK  1 active torsions:
REMARK  status: ('A' for Active; 'I' for Inactive)
REMARK    1  A    between atoms: C7_16  and  O1_17 
ROOT
HETATM    1  C1  UNL     1      10.552  27.186 -22.609  1.00  0.00     0.043 C 
HETATM    2  C2  UNL     1      10.168  28.209 -21.586  1.00  0.00     0.136 C 
HETATM    3  N1  UNL     1      11.293  28.743 -20.907  1.00  0.00    -0.388 N 
ATOM      4  H1  UNL     1      12.238  28.484 -21.190  1.00  0.00     0.156 HD
HETATM    5  C3  UNL     1      11.092  29.621 -19.853  1.00  0.00     0.128 C 
HETATM    6  C4  UNL     1      10.155  30.719 -19.897  1.00  0.00     0.057 C 
HETATM    7  C5  UNL     1       9.058  30.733 -20.898  1.00  0.00     0.079 C 
HETATM    8  S1  UNL     1       9.413  29.692 -22.361  1.00  0.00    -0.144 SA
HETATM    9  S2  UNL     1      12.748  30.287 -19.357  1.00  0.00    -0.059 SA
HETATM   10  C6  UNL     1      12.442  30.221 -17.568  1.00  0.00     0.138 C 
HETATM   11  N2  UNL     1      13.216  30.579 -16.619  1.00  0.00    -0.380 N 
ATOM     12  H21 UNL     1      13.044  30.542 -15.614  1.00  0.00     0.158 HD
ATOM     13  H22 UNL     1      14.156  30.970 -16.687  1.00  0.00     0.158 HD
HETATM   14  N3  UNL     1      11.131  29.677 -17.472  1.00  0.00    -0.342 N 
ATOM     15  H3  UNL     1      10.471  29.886 -16.724  1.00  0.00     0.164 HD
HETATM   16  C7  UNL     1      10.860  28.784 -18.581  1.00  0.00     0.258 C 
ENDROOT
BRANCH  16  17
HETATM   17  O1  UNL     1       9.577  28.315 -18.495  1.00  0.00    -0.373 OA
ATOM     18  H1  UNL     1       8.973  28.977 -18.178  1.00  0.00     0.212 HD
ENDBRANCH  16  17
TORSDOF 1
ENDMDL
MODEL 2
REMARK VINA RESULT: -4.355887813     10.925     11.719
REMARK  1 active torsions:
REMARK  status: ('A' for Active; 'I' for Inactive)
REMARK    1  A    between atoms: C7_16  and  O1_17 
ROOT
HETATM    1  C1  UNL     1       4.834  23.046 -25.707  1.00  0.00     0.043 C 
HETATM    2  C2  UNL     1       4.626  23.952 -26.880  1.00  0.00     0.136 C 
HETATM    3  N1  UNL     1       5.753  23.992 -27.739  1.00  0.00    -0.388 N 
ATOM      4  H1  UNL     1       6.553  23.382 -27.570  1.00  0.00     0.156 HD
HETATM    5  C3  UNL     1       5.756  24.871 -28.810  1.00  0.00     0.128 C 
HETATM    6  C4  UNL     1       4.631  25.048 -29.700  1.00  0.00     0.057 C 
HETATM    7  C5  UNL     1       3.271  24.619 -29.288  1.00  0.00     0.079 C 
HETATM    8  S1  UNL     1       3.292  23.337 -27.981  1.00  0.00    -0.144 SA
HETATM    9  S2  UNL     1       7.255  24.501 -29.833  1.00  0.00    -0.059 SA
HETATM   10  C6  UNL     1       7.675  26.235 -30.172  1.00  0.00     0.138 C 
HETATM   11  N2  UNL     1       8.637  26.694 -30.876  1.00  0.00    -0.380 N 
ATOM     12  H21 UNL     1       8.873  27.668 -31.066  1.00  0.00     0.158 HD
ATOM     13  H22 UNL     1       9.352  26.171 -31.380  1.00  0.00     0.158 HD
HETATM   14  N3  UNL     1       6.678  26.966 -29.469  1.00  0.00    -0.342 N 
ATOM     15  H3  UNL     1       6.320  27.878 -29.753  1.00  0.00     0.164 HD
HETATM   16  C7  UNL     1       6.237  26.240 -28.295  1.00  0.00     0.258 C 
ENDROOT
BRANCH  16  17
HETATM   17  O1  UNL     1       5.242  26.938 -27.666  1.00  0.00    -0.373 OA
ATOM     18  H1  UNL     1       4.507  26.383 -27.431  1.00  0.00     0.212 HD
ENDBRANCH  16  17
TORSDOF 1
ENDMDL
MODEL 3
REMARK VINA RESULT: -4.190485735     11.853     13.142
REMARK  1 active torsions:
REMARK  status: ('A' for Active; 'I' for Inactive)
REMARK    1  A    between atoms: C7_16  and  O1_17 
ROOT
HETATM    1  C1  UNL     1       6.582  19.789 -18.180  1.00  0.00     0.043 C 
HETATM    2  C2  UNL     1       6.995  18.402 -18.564  1.00  0.00     0.136 C 
HETATM    3  N1  UNL     1       8.401  18.224 -18.512  1.00  0.00    -0.388 N 
ATOM      4  H1  UNL     1       9.003  18.967 -18.159  1.00  0.00     0.156 HD
HETATM    5  C3  UNL     1       8.946  17.026 -18.946  1.00  0.00     0.128 C 
HETATM    6  C4  UNL     1       8.414  15.731 -18.590  1.00  0.00     0.057 C 
HETATM    7  C5  UNL     1       7.024  15.601 -18.085  1.00  0.00     0.079 C 
HETATM    8  S1  UNL     1       6.377  17.156 -17.367  1.00  0.00    -0.144 SA
HETATM    9  S2  UNL     1      10.751  17.050 -18.529  1.00  0.00    -0.059 SA
HETATM   10  C6  UNL     1      11.306  16.289 -20.082  1.00  0.00     0.138 C 
HETATM   11  N2  UNL     1      12.495  15.992 -20.438  1.00  0.00    -0.380 N 
ATOM     12  H21 UNL     1      12.807  15.565 -21.310  1.00  0.00     0.158 HD
ATOM     13  H22 UNL     1      13.360  16.127 -19.914  1.00  0.00     0.158 HD
HETATM   14  N3  UNL     1      10.100  16.100 -20.813  1.00  0.00    -0.342 N 
ATOM     15  H3  UNL     1       9.942  15.349 -21.485  1.00  0.00     0.164 HD
HETATM   16  C7  UNL     1       9.125  17.117 -20.473  1.00  0.00     0.258 C 
ENDROOT
BRANCH  16  17
HETATM   17  O1  UNL     1       7.958  16.882 -21.148  1.00  0.00    -0.373 OA
ATOM     18  H1  UNL     1       7.620  16.008 -20.990  1.00  0.00     0.212 HD
ENDBRANCH  16  17
TORSDOF 1
ENDMDL
MODEL 4
REMARK VINA RESULT: -4.067795742     11.274     12.196
REMARK  1 active torsions:
REMARK  status: ('A' for Active; 'I' for Inactive)
REMARK    1  A    between atoms: C7_16  and  O1_17 
ROOT
HETATM    1  C1  UNL     1       6.784  19.834 -18.113  1.00  0.00     0.043 C 
HETATM    2  C2  UNL     1       7.363  19.231 -19.355  1.00  0.00     0.136 C 
HETATM    3  N1  UNL     1       8.326  18.230 -19.071  1.00  0.00    -0.388 N 
ATOM      4  H1  UNL     1       8.498  17.936 -18.110  1.00  0.00     0.156 HD
HETATM    5  C3  UNL     1       9.032  17.656 -20.117  1.00  0.00     0.128 C 
HETATM    6  C4  UNL     1       8.418  17.213 -21.347  1.00  0.00     0.057 C 
HETATM    7  C5  UNL     1       7.077  17.714 -21.741  1.00  0.00     0.079 C 
HETATM    8  S1  UNL     1       6.095  18.321 -20.320  1.00  0.00    -0.144 SA
HETATM    9  S2  UNL     1      10.020  16.252 -19.420  1.00  0.00    -0.059 SA
HETATM   10  C6  UNL     1      11.516  16.580 -20.396  1.00  0.00     0.138 C 
HETATM   11  N2  UNL     1      12.614  15.929 -20.406  1.00  0.00    -0.380 N 
ATOM     12  H21 UNL     1      13.454  16.113 -20.954  1.00  0.00     0.158 HD
ATOM     13  H22 UNL     1      12.857  15.100 -19.864  1.00  0.00     0.158 HD
HETATM   14  N3  UNL     1      11.176  17.736 -21.152  1.00  0.00    -0.342 N 
ATOM     15  H3  UNL     1      11.546  17.952 -22.078  1.00  0.00     0.164 HD
HETATM   16  C7  UNL     1      10.234  18.567 -20.430  1.00  0.00     0.258 C 
ENDROOT
BRANCH  16  17
HETATM   17  O1  UNL     1       9.883  19.644 -21.198  1.00  0.00    -0.373 OA
ATOM     18  H1  UNL     1      10.176  19.555 -22.097  1.00  0.00     0.212 HD
ENDBRANCH  16  17
TORSDOF 1
ENDMDL
MODEL 5
REMARK VINA RESULT: -3.935536625      9.849     10.738
REMARK  1 active torsions:
REMARK  status: ('A' for Active; 'I' for Inactive)
REMARK    1  A    between atoms: C7_16  and  O1_17 
ROOT
HETATM    1  C1  UNL     1       8.401  21.597 -26.163  1.00  0.00     0.043 C 
HETATM    2  C2  UNL     1       7.418  22.699 -26.408  1.00  0.00     0.136 C 
HETATM    3  N1  UNL     1       7.642  23.357 -27.644  1.00  0.00    -0.388 N 
ATOM      4  H1  UNL     1       8.353  23.016 -28.290  1.00  0.00     0.156 HD
HETATM    5  C3  UNL     1       6.882  24.472 -27.963  1.00  0.00     0.128 C 
HETATM    6  C4  UNL     1       5.450  24.540 -27.783  1.00  0.00     0.057 C 
HETATM    7  C5  UNL     1       4.760  23.592 -26.872  1.00  0.00     0.079 C 
HETATM    8  S1  UNL     1       5.710  22.053 -26.590  1.00  0.00    -0.144 SA
HETATM    9  S2  UNL     1       7.273  24.932 -29.714  1.00  0.00    -0.059 SA
HETATM   10  C6  UNL     1       7.298  26.726 -29.429  1.00  0.00     0.138 C 
HETATM   11  N2  UNL     1       7.498  27.660 -30.276  1.00  0.00    -0.380 N 
ATOM     12  H21 UNL     1       7.512  28.667 -30.116  1.00  0.00     0.158 HD
ATOM     13  H22 UNL     1       7.682  27.572 -31.275  1.00  0.00     0.158 HD
HETATM   14  N3  UNL     1       7.041  26.847 -28.035  1.00  0.00    -0.342 N 
ATOM     15  H3  UNL     1       6.562  27.637 -27.602  1.00  0.00     0.164 HD
HETATM   16  C7  UNL     1       7.550  25.698 -27.314  1.00  0.00     0.258 C 
ENDROOT
BRANCH  16  17
HETATM   17  O1  UNL     1       7.244  25.814 -25.985  1.00  0.00    -0.373 OA
ATOM     18  H1  UNL     1       7.648  25.131 -25.462  1.00  0.00     0.212 HD
ENDBRANCH  16  17
TORSDOF 1
ENDMDL
