MODEL 1
REMARK VINA RESULT: -6.264023056      0.000      0.000
REMARK  8 active torsions:
REMARK  status: ('A' for Active; 'I' for Inactive)
REMARK    1  A    between atoms: N1_1  and  C1_5 
REMARK    2  A    between atoms: C4_8  and  N2_9 
REMARK    3  A    between atoms: C6_14  and  N4_15 
REMARK    4  A    between atoms: N4_15  and  C7_17 
REMARK    5  A    between atoms: C7_17  and  C8_18 
REMARK    6  A    between atoms: C8_18  and  N5_19 
REMARK    7  A    between atoms: N6_29  and  C17_30 
REMARK    8  A    between atoms: C17_30  and  C18_31 
ROOT
HETATM    1  N2  UNL     1      11.301  52.224  86.450  1.00  0.00    -0.221 N 
ATOM      2  H2  UNL     1      10.795  51.342  86.363  1.00  0.00     0.178 HD
HETATM    3  C5  UNL     1      11.670  52.577  87.612  1.00  0.00     0.680 A 
HETATM    4  N3  UNL     1      11.391  51.791  88.700  1.00  0.00    -0.175 N 
ATOM      5  H3  UNL     1      10.885  50.916  88.560  1.00  0.00     0.186 HD
HETATM    6  C6  UNL     1      11.765  52.137  89.947  1.00  0.00     0.146 A 
HETATM    7  C13 UNL     1      12.446  53.318  90.122  1.00  0.00     0.106 A 
HETATM    8  C14 UNL     1      12.742  54.138  89.019  1.00  0.00     0.081 A 
HETATM    9  C15 UNL     1      13.446  55.246  89.449  1.00  0.00     0.050 A 
HETATM   10  C16 UNL     1      13.565  55.088  90.800  1.00  0.00     0.094 A 
HETATM   11  N6  UNL     1      12.952  53.917  91.193  1.00  0.00    -0.351 N 
HETATM   12  N7  UNL     1      12.334  53.722  87.805  1.00  0.00    -0.190 N 
ATOM     13  H7  UNL     1      12.541  54.306  86.995  1.00  0.00     0.184 HD
ENDROOT
BRANCH   1  14
HETATM   14  C4  UNL     1      11.536  52.957  85.273  1.00  0.00     0.099 C 
HETATM   15  C3  UNL     1      12.681  52.443  84.435  1.00  0.00     0.027 C 
HETATM   16  C2  UNL     1      12.471  51.025  83.987  1.00  0.00     0.035 C 
HETATM   17  C1  UNL     1      11.089  50.604  83.724  1.00  0.00     0.183 C 
HETATM   18  C24 UNL     1       9.976  51.554  83.911  1.00  0.00     0.035 C 
HETATM   19  C23 UNL     1      10.359  52.946  84.312  1.00  0.00     0.027 C 
BRANCH  17  20
HETATM   20  N1  UNL     1      10.817  49.385  84.507  1.00  0.00    -0.075 N 
ATOM     21  H13 UNL     1      10.771  48.548  83.926  1.00  0.00     0.274 HD
ATOM     22  H12 UNL     1      11.607  49.108  85.089  1.00  0.00     0.274 HD
ATOM     23  H11 UNL     1       9.965  49.533  85.048  1.00  0.00     0.274 HD
ENDBRANCH  17  20
ENDBRANCH   1  14
BRANCH   6  24
HETATM   24  N4  UNL     1      11.527  51.349  90.942  1.00  0.00    -0.372 N 
ATOM     25  H4  UNL     1      10.685  51.515  91.493  1.00  0.00     0.161 HD
BRANCH  24  26
HETATM   26  C7  UNL     1      12.373  50.261  91.319  1.00  0.00     0.151 C 
BRANCH  26  27
HETATM   27  C8  UNL     1      11.817  48.950  90.814  1.00  0.00     0.292 C 
BRANCH  27  28
HETATM   28  N5  UNL     1      12.781  48.178  90.087  1.00  0.00     0.094 N 
HETATM   29  C9  UNL     1      12.665  48.350  88.651  1.00  0.00     0.298 C 
HETATM   30  C10 UNL     1      13.880  47.718  88.008  1.00  0.00     0.198 C 
HETATM   31  O1  UNL     1      14.550  46.868  88.854  1.00  0.00    -0.388 OA
HETATM   32  C11 UNL     1      13.739  46.012  89.580  1.00  0.00     0.198 C 
HETATM   33  C12 UNL     1      12.663  46.755  90.341  1.00  0.00     0.298 C 
ENDBRANCH  27  28
ENDBRANCH  26  27
ENDBRANCH  24  26
ENDBRANCH   6  24
BRANCH  11  34
HETATM   34  C17 UNL     1      12.858  53.565  92.589  1.00  0.00     0.133 C 
BRANCH  34  35
HETATM   35  C18 UNL     1      11.773  54.404  93.219  1.00  0.00     0.004 C 
HETATM   36  C19 UNL     1      10.638  53.641  93.814  1.00  0.00     0.006 C 
HETATM   37  C20 UNL     1       9.900  54.742  94.568  1.00  0.00     0.000 C 
HETATM   38  C21 UNL     1      10.987  55.707  95.017  1.00  0.00     0.000 C 
HETATM   39  C22 UNL     1      12.287  55.165  94.429  1.00  0.00     0.006 C 
ENDBRANCH  34  35
ENDBRANCH  11  34
TORSDOF 8
ENDMDL
MODEL 2
REMARK VINA RESULT: -6.258597774      2.690      7.533
REMARK  8 active torsions:
REMARK  status: ('A' for Active; 'I' for Inactive)
REMARK    1  A    between atoms: N1_1  and  C1_5 
REMARK    2  A    between atoms: C4_8  and  N2_9 
REMARK    3  A    between atoms: C6_14  and  N4_15 
REMARK    4  A    between atoms: N4_15  and  C7_17 
REMARK    5  A    between atoms: C7_17  and  C8_18 
REMARK    6  A    between atoms: C8_18  and  N5_19 
REMARK    7  A    between atoms: N6_29  and  C17_30 
REMARK    8  A    between atoms: C17_30  and  C18_31 
ROOT
HETATM    1  N2  UNL     1       9.978  52.666  88.371  1.00  0.00    -0.221 N 
ATOM      2  H2  UNL     1       9.263  51.998  88.658  1.00  0.00     0.178 HD
HETATM    3  C5  UNL     1      10.646  52.398  87.324  1.00  0.00     0.680 A 
HETATM    4  N3  UNL     1      10.400  51.249  86.618  1.00  0.00    -0.175 N 
ATOM      5  H3  UNL     1       9.672  50.614  86.946  1.00  0.00     0.186 HD
HETATM    6  C6  UNL     1      11.091  50.932  85.506  1.00  0.00     0.146 A 
HETATM    7  C13 UNL     1      12.071  51.795  85.076  1.00  0.00     0.106 A 
HETATM    8  C14 UNL     1      12.336  52.979  85.786  1.00  0.00     0.081 A 
HETATM    9  C15 UNL     1      13.340  53.680  85.145  1.00  0.00     0.050 A 
HETATM   10  C16 UNL     1      13.670  52.917  84.063  1.00  0.00     0.094 A 
HETATM   11  N6  UNL     1      12.895  51.777  84.036  1.00  0.00    -0.351 N 
HETATM   12  N7  UNL     1      11.602  53.224  86.888  1.00  0.00    -0.190 N 
ATOM     13  H7  UNL     1      11.784  54.079  87.414  1.00  0.00     0.184 HD
ENDROOT
BRANCH   1  14
HETATM   14  C4  UNL     1      10.152  53.814  89.164  1.00  0.00     0.099 C 
HETATM   15  C3  UNL     1       8.965  54.745  89.185  1.00  0.00     0.027 C 
HETATM   16  C2  UNL     1       7.726  54.079  89.712  1.00  0.00     0.035 C 
HETATM   17  C1  UNL     1       7.905  53.054  90.747  1.00  0.00     0.183 C 
HETATM   18  C24 UNL     1       9.259  52.708  91.222  1.00  0.00     0.035 C 
HETATM   19  C23 UNL     1      10.385  53.501  90.633  1.00  0.00     0.027 C 
BRANCH  17  20
HETATM   20  N1  UNL     1       7.221  51.824  90.309  1.00  0.00    -0.075 N 
ATOM     21  H13 UNL     1       6.269  51.755  90.669  1.00  0.00     0.274 HD
ATOM     22  H12 UNL     1       6.993  51.835  89.315  1.00  0.00     0.274 HD
ATOM     23  H11 UNL     1       7.798  51.024  90.570  1.00  0.00     0.274 HD
ENDBRANCH  17  20
ENDBRANCH   1  14
BRANCH   6  24
HETATM   24  N4  UNL     1      10.802  49.865  84.839  1.00  0.00    -0.372 N 
ATOM     25  H4  UNL     1      10.449  49.975  83.888  1.00  0.00     0.161 HD
BRANCH  24  26
HETATM   26  C7  UNL     1      10.944  48.540  85.352  1.00  0.00     0.151 C 
BRANCH  26  27
HETATM   27  C8  UNL     1      12.337  48.012  85.096  1.00  0.00     0.292 C 
BRANCH  27  28
HETATM   28  N5  UNL     1      13.137  47.950  86.283  1.00  0.00     0.094 N 
HETATM   29  C9  UNL     1      14.159  46.923  86.216  1.00  0.00     0.298 C 
HETATM   30  C10 UNL     1      15.099  47.125  87.384  1.00  0.00     0.198 C 
HETATM   31  O1  UNL     1      14.572  47.936  88.359  1.00  0.00    -0.388 OA
HETATM   32  C11 UNL     1      13.253  47.669  88.687  1.00  0.00     0.198 C 
HETATM   33  C12 UNL     1      12.352  47.672  87.471  1.00  0.00     0.298 C 
ENDBRANCH  27  28
ENDBRANCH  26  27
ENDBRANCH  24  26
ENDBRANCH   6  24
BRANCH  11  34
HETATM   34  C17 UNL     1      13.115  50.758  83.038  1.00  0.00     0.133 C 
BRANCH  34  35
HETATM   35  C18 UNL     1      13.939  51.354  81.924  1.00  0.00     0.004 C 
HETATM   36  C19 UNL     1      15.407  51.424  82.178  1.00  0.00     0.006 C 
HETATM   37  C20 UNL     1      15.933  51.806  80.798  1.00  0.00     0.000 C 
HETATM   38  C21 UNL     1      14.974  51.149  79.817  1.00  0.00     0.000 C 
HETATM   39  C22 UNL     1      13.895  50.492  80.673  1.00  0.00     0.006 C 
ENDBRANCH  34  35
ENDBRANCH  11  34
TORSDOF 8
ENDMDL
MODEL 3
REMARK VINA RESULT: -6.197597318      0.935      1.164
REMARK  8 active torsions:
REMARK  status: ('A' for Active; 'I' for Inactive)
REMARK    1  A    between atoms: N1_1  and  C1_5 
REMARK    2  A    between atoms: C4_8  and  N2_9 
REMARK    3  A    between atoms: C6_14  and  N4_15 
REMARK    4  A    between atoms: N4_15  and  C7_17 
REMARK    5  A    between atoms: C7_17  and  C8_18 
REMARK    6  A    between atoms: C8_18  and  N5_19 
REMARK    7  A    between atoms: N6_29  and  C17_30 
REMARK    8  A    between atoms: C17_30  and  C18_31 
ROOT
HETATM    1  N2  UNL     1      11.263  52.242  86.404  1.00  0.00    -0.221 N 
ATOM      2  H2  UNL     1      10.738  51.373  86.318  1.00  0.00     0.178 HD
HETATM    3  C5  UNL     1      11.650  52.582  87.565  1.00  0.00     0.680 A 
HETATM    4  N3  UNL     1      11.363  51.797  88.651  1.00  0.00    -0.175 N 
ATOM      5  H3  UNL     1      10.836  50.935  88.512  1.00  0.00     0.186 HD
HETATM    6  C6  UNL     1      11.755  52.129  89.896  1.00  0.00     0.146 A 
HETATM    7  C13 UNL     1      12.464  53.293  90.071  1.00  0.00     0.106 A 
HETATM    8  C14 UNL     1      12.769  54.111  88.969  1.00  0.00     0.081 A 
HETATM    9  C15 UNL     1      13.501  55.202  89.398  1.00  0.00     0.050 A 
HETATM   10  C16 UNL     1      13.628  55.034  90.747  1.00  0.00     0.094 A 
HETATM   11  N6  UNL     1      12.992  53.875  91.140  1.00  0.00    -0.351 N 
HETATM   12  N7  UNL     1      12.341  53.710  87.757  1.00  0.00    -0.190 N 
ATOM     13  H7  UNL     1      12.555  54.294  86.947  1.00  0.00     0.184 HD
ENDROOT
BRANCH   1  14
HETATM   14  C4  UNL     1      11.505  52.976  85.228  1.00  0.00     0.099 C 
HETATM   15  C3  UNL     1      12.687  52.494  84.423  1.00  0.00     0.027 C 
HETATM   16  C2  UNL     1      12.534  51.067  83.980  1.00  0.00     0.035 C 
HETATM   17  C1  UNL     1      11.174  50.600  83.685  1.00  0.00     0.183 C 
HETATM   18  C24 UNL     1      10.026  51.515  83.836  1.00  0.00     0.035 C 
HETATM   19  C23 UNL     1      10.354  52.921  84.237  1.00  0.00     0.027 C 
BRANCH  17  20
HETATM   20  N1  UNL     1      10.920  49.378  84.469  1.00  0.00    -0.075 N 
ATOM     21  H13 UNL     1      11.527  49.302  85.285  1.00  0.00     0.274 HD
ATOM     22  H12 UNL     1      10.028  49.406  84.961  1.00  0.00     0.274 HD
ATOM     23  H11 UNL     1      10.999  48.574  83.846  1.00  0.00     0.274 HD
ENDBRANCH  17  20
ENDBRANCH   1  14
BRANCH   6  24
HETATM   24  N4  UNL     1      11.508  51.342  90.890  1.00  0.00    -0.372 N 
ATOM     25  H4  UNL     1      10.742  51.588  91.517  1.00  0.00     0.161 HD
BRANCH  24  26
HETATM   26  C7  UNL     1      12.243  50.148  91.165  1.00  0.00     0.151 C 
BRANCH  26  27
HETATM   27  C8  UNL     1      11.410  48.924  90.865  1.00  0.00     0.292 C 
BRANCH  27  28
HETATM   28  N5  UNL     1      11.507  48.504  89.498  1.00  0.00     0.094 N 
HETATM   29  C9  UNL     1      10.978  47.171  89.285  1.00  0.00     0.298 C 
HETATM   30  C10 UNL     1      10.882  46.942  87.792  1.00  0.00     0.198 C 
HETATM   31  O1  UNL     1      11.622  47.843  87.066  1.00  0.00    -0.388 OA
HETATM   32  C11 UNL     1      12.895  48.080  87.558  1.00  0.00     0.198 C 
HETATM   33  C12 UNL     1      12.875  48.486  89.016  1.00  0.00     0.298 C 
ENDBRANCH  27  28
ENDBRANCH  26  27
ENDBRANCH  24  26
ENDBRANCH   6  24
BRANCH  11  34
HETATM   34  C17 UNL     1      12.902  53.519  92.535  1.00  0.00     0.133 C 
BRANCH  34  35
HETATM   35  C18 UNL     1      11.841  54.379  93.178  1.00  0.00     0.004 C 
HETATM   36  C19 UNL     1      10.721  53.638  93.825  1.00  0.00     0.006 C 
HETATM   37  C20 UNL     1      10.012  54.761  94.576  1.00  0.00     0.000 C 
HETATM   38  C21 UNL     1      11.118  55.729  94.968  1.00  0.00     0.000 C 
HETATM   39  C22 UNL     1      12.396  55.165  94.355  1.00  0.00     0.006 C 
ENDBRANCH  34  35
ENDBRANCH  11  34
TORSDOF 8
ENDMDL
MODEL 4
REMARK VINA RESULT: -6.194161296      2.067      2.853
REMARK  8 active torsions:
REMARK  status: ('A' for Active; 'I' for Inactive)
REMARK    1  A    between atoms: N1_1  and  C1_5 
REMARK    2  A    between atoms: C4_8  and  N2_9 
REMARK    3  A    between atoms: C6_14  and  N4_15 
REMARK    4  A    between atoms: N4_15  and  C7_17 
REMARK    5  A    between atoms: C7_17  and  C8_18 
REMARK    6  A    between atoms: C8_18  and  N5_19 
REMARK    7  A    between atoms: N6_29  and  C17_30 
REMARK    8  A    between atoms: C17_30  and  C18_31 
ROOT
HETATM    1  N2  UNL     1      11.269  52.246  86.477  1.00  0.00    -0.221 N 
ATOM      2  H2  UNL     1      10.742  51.377  86.397  1.00  0.00     0.178 HD
HETATM    3  C5  UNL     1      11.659  52.593  87.635  1.00  0.00     0.680 A 
HETATM    4  N3  UNL     1      11.373  51.815  88.726  1.00  0.00    -0.175 N 
ATOM      5  H3  UNL     1      10.844  50.952  88.593  1.00  0.00     0.186 HD
HETATM    6  C6  UNL     1      11.768  52.153  89.968  1.00  0.00     0.146 A 
HETATM    7  C13 UNL     1      12.479  53.318  90.135  1.00  0.00     0.106 A 
HETATM    8  C14 UNL     1      12.783  54.129  89.027  1.00  0.00     0.081 A 
HETATM    9  C15 UNL     1      13.517  55.221  89.448  1.00  0.00     0.050 A 
HETATM   10  C16 UNL     1      13.646  55.062  90.798  1.00  0.00     0.094 A 
HETATM   11  N6  UNL     1      13.010  53.906  91.199  1.00  0.00    -0.351 N 
HETATM   12  N7  UNL     1      12.352  53.721  87.818  1.00  0.00    -0.190 N 
ATOM     13  H7  UNL     1      12.565  54.299  87.005  1.00  0.00     0.184 HD
ENDROOT
BRANCH   1  14
HETATM   14  C4  UNL     1      11.509  52.973  85.296  1.00  0.00     0.099 C 
HETATM   15  C3  UNL     1      12.654  52.450  84.464  1.00  0.00     0.027 C 
HETATM   16  C2  UNL     1      12.440  51.030  84.023  1.00  0.00     0.035 C 
HETATM   17  C1  UNL     1      11.058  50.612  83.760  1.00  0.00     0.183 C 
HETATM   18  C24 UNL     1       9.947  51.567  83.938  1.00  0.00     0.035 C 
HETATM   19  C23 UNL     1      10.335  52.960  84.332  1.00  0.00     0.027 C 
BRANCH  17  20
HETATM   20  N1  UNL     1      10.779  49.398  84.549  1.00  0.00    -0.075 N 
ATOM     21  H13 UNL     1      11.150  48.554  84.113  1.00  0.00     0.274 HD
ATOM     22  H12 UNL     1      11.321  49.359  85.412  1.00  0.00     0.274 HD
ATOM     23  H11 UNL     1       9.774  49.345  84.714  1.00  0.00     0.274 HD
ENDBRANCH  17  20
ENDBRANCH   1  14
BRANCH   6  24
HETATM   24  N4  UNL     1      11.522  51.373  90.968  1.00  0.00    -0.372 N 
ATOM     25  H4  UNL     1      10.938  51.732  91.723  1.00  0.00     0.161 HD
BRANCH  24  26
HETATM   26  C7  UNL     1      12.019  50.038  91.079  1.00  0.00     0.151 C 
BRANCH  26  27
HETATM   27  C8  UNL     1      11.742  49.476  92.454  1.00  0.00     0.292 C 
BRANCH  27  28
HETATM   28  N5  UNL     1      12.480  50.140  93.488  1.00  0.00     0.094 N 
HETATM   29  C9  UNL     1      13.674  49.413  93.876  1.00  0.00     0.298 C 
HETATM   30  C10 UNL     1      14.503  50.320  94.760  1.00  0.00     0.198 C 
HETATM   31  O1  UNL     1      13.790  51.387  95.247  1.00  0.00    -0.388 OA
HETATM   32  C11 UNL     1      12.527  51.074  95.722  1.00  0.00     0.198 C 
HETATM   33  C12 UNL     1      11.701  50.328  94.697  1.00  0.00     0.298 C 
ENDBRANCH  27  28
ENDBRANCH  26  27
ENDBRANCH  24  26
ENDBRANCH   6  24
BRANCH  11  34
HETATM   34  C17 UNL     1      12.922  53.559  92.597  1.00  0.00     0.133 C 
BRANCH  34  35
HETATM   35  C18 UNL     1      11.885  54.444  93.243  1.00  0.00     0.004 C 
HETATM   36  C19 UNL     1      10.681  53.741  93.770  1.00  0.00     0.006 C 
HETATM   37  C20 UNL     1      10.005  54.855  94.563  1.00  0.00     0.000 C 
HETATM   38  C21 UNL     1      11.148  55.712  95.086  1.00  0.00     0.000 C 
HETATM   39  C22 UNL     1      12.420  55.103  94.503  1.00  0.00     0.006 C 
ENDBRANCH  34  35
ENDBRANCH  11  34
TORSDOF 8
ENDMDL
MODEL 5
REMARK VINA RESULT: -6.148941823      1.390      1.738
REMARK  8 active torsions:
REMARK  status: ('A' for Active; 'I' for Inactive)
REMARK    1  A    between atoms: N1_1  and  C1_5 
REMARK    2  A    between atoms: C4_8  and  N2_9 
REMARK    3  A    between atoms: C6_14  and  N4_15 
REMARK    4  A    between atoms: N4_15  and  C7_17 
REMARK    5  A    between atoms: C7_17  and  C8_18 
REMARK    6  A    between atoms: C8_18  and  N5_19 
REMARK    7  A    between atoms: N6_29  and  C17_30 
REMARK    8  A    between atoms: C17_30  and  C18_31 
ROOT
HETATM    1  N2  UNL     1      11.260  52.219  86.472  1.00  0.00    -0.221 N 
ATOM      2  H2  UNL     1      10.715  51.360  86.403  1.00  0.00     0.178 HD
HETATM    3  C5  UNL     1      11.661  52.570  87.624  1.00  0.00     0.680 A 
HETATM    4  N3  UNL     1      11.362  51.811  88.725  1.00  0.00    -0.175 N 
ATOM      5  H3  UNL     1      10.815  50.959  88.604  1.00  0.00     0.186 HD
HETATM    6  C6  UNL     1      11.768  52.157  89.963  1.00  0.00     0.146 A 
HETATM    7  C13 UNL     1      12.503  53.308  90.113  1.00  0.00     0.106 A 
HETATM    8  C14 UNL     1      12.821  54.099  88.995  1.00  0.00     0.081 A 
HETATM    9  C15 UNL     1      13.579  55.180  89.401  1.00  0.00     0.050 A 
HETATM   10  C16 UNL     1      13.709  55.034  90.752  1.00  0.00     0.094 A 
HETATM   11  N6  UNL     1      13.050  53.897  91.169  1.00  0.00    -0.351 N 
HETATM   12  N7  UNL     1      12.378  53.686  87.792  1.00  0.00    -0.190 N 
ATOM     13  H7  UNL     1      12.600  54.250  86.972  1.00  0.00     0.184 HD
ENDROOT
BRANCH   1  14
HETATM   14  C4  UNL     1      11.512  52.926  85.281  1.00  0.00     0.099 C 
HETATM   15  C3  UNL     1      12.640  52.366  84.450  1.00  0.00     0.027 C 
HETATM   16  C2  UNL     1      12.391  50.947  84.027  1.00  0.00     0.035 C 
HETATM   17  C1  UNL     1      10.998  50.560  83.774  1.00  0.00     0.183 C 
HETATM   18  C24 UNL     1       9.911  51.542  83.947  1.00  0.00     0.035 C 
HETATM   19  C23 UNL     1      10.333  52.930  84.323  1.00  0.00     0.027 C 
BRANCH  17  20
HETATM   20  N1  UNL     1      10.694  49.362  84.578  1.00  0.00    -0.075 N 
ATOM     21  H13 UNL     1      10.590  49.571  85.571  1.00  0.00     0.274 HD
ATOM     22  H12 UNL     1       9.753  49.006  84.411  1.00  0.00     0.274 HD
ATOM     23  H11 UNL     1      11.415  48.663  84.399  1.00  0.00     0.274 HD
ENDBRANCH  17  20
ENDBRANCH   1  14
BRANCH   6  24
HETATM   24  N4  UNL     1      11.509  51.393  90.972  1.00  0.00    -0.372 N 
ATOM     25  H4  UNL     1      10.875  51.746  91.689  1.00  0.00     0.161 HD
BRANCH  24  26
HETATM   26  C7  UNL     1      12.057  50.086  91.145  1.00  0.00     0.151 C 
BRANCH  26  27
HETATM   27  C8  UNL     1      12.958  50.038  92.357  1.00  0.00     0.292 C 
BRANCH  27  28
HETATM   28  N5  UNL     1      13.678  48.803  92.467  1.00  0.00     0.094 N 
HETATM   29  C9  UNL     1      12.846  47.646  92.196  1.00  0.00     0.298 C 
HETATM   30  C10 UNL     1      13.753  46.440  92.075  1.00  0.00     0.198 C 
HETATM   31  O1  UNL     1      15.006  46.660  92.592  1.00  0.00    -0.388 OA
HETATM   32  C11 UNL     1      15.023  47.307  93.817  1.00  0.00     0.198 C 
HETATM   33  C12 UNL     1      14.242  48.602  93.789  1.00  0.00     0.298 C 
ENDBRANCH  27  28
ENDBRANCH  26  27
ENDBRANCH  24  26
ENDBRANCH   6  24
BRANCH  11  34
HETATM   34  C17 UNL     1      12.960  53.568  92.571  1.00  0.00     0.133 C 
BRANCH  34  35
HETATM   35  C18 UNL     1      11.885  54.427  93.193  1.00  0.00     0.004 C 
HETATM   36  C19 UNL     1      10.734  53.685  93.783  1.00  0.00     0.006 C 
HETATM   37  C20 UNL     1      10.010  54.801  94.531  1.00  0.00     0.000 C 
HETATM   38  C21 UNL     1      11.111  55.748  94.983  1.00  0.00     0.000 C 
HETATM   39  C22 UNL     1      12.405  55.182  94.404  1.00  0.00     0.006 C 
ENDBRANCH  34  35
ENDBRANCH  11  34
TORSDOF 8
ENDMDL
