MODEL 1
REMARK VINA RESULT: -7.562365260      0.000      0.000
REMARK  9 active torsions:
REMARK  status: ('A' for Active; 'I' for Inactive)
REMARK    1  A    between atoms: C4_5  and  C5_6 
REMARK    2  A    between atoms: C6_7  and  C7_8 
REMARK    3  A    between atoms: C10_11  and  N2_12 
REMARK    4  A    between atoms: N2_12  and  C11_14 
REMARK    5  A    between atoms: C11_14  and  C12_15 
REMARK    6  A    between atoms: C12_15  and  O1_16 
REMARK    7  A    between atoms: O1_16  and  C13_17 
REMARK    8  A    between atoms: C13_17  and  C14_18 
REMARK    9  A    between atoms: C14_18  and  O2_19 
ROOT
HETATM    1  N1  UNL     1      10.595  48.031  78.443  1.00  0.00    -0.190 NA
HETATM    2  C1  UNL     1      11.288  48.651  79.158  1.00  0.00     0.117 C 
HETATM    3  C2  UNL     1      12.117  49.413  80.050  1.00  0.00     0.115 A 
HETATM    4  C3  UNL     1      11.782  49.628  81.381  1.00  0.00     0.062 A 
HETATM    5  C4  UNL     1      12.579  50.359  82.235  1.00  0.00     0.033 A 
HETATM    6  C21 UNL     1      13.749  50.891  81.733  1.00  0.00     0.009 A 
HETATM    7  C22 UNL     1      14.599  51.634  82.524  1.00  0.00     0.015 A 
HETATM    8  C23 UNL     1      15.777  52.181  82.058  1.00  0.00     0.001 A 
HETATM    9  C24 UNL     1      16.104  51.965  80.738  1.00  0.00     0.002 A 
HETATM   10  C25 UNL     1      15.248  51.214  79.934  1.00  0.00     0.030 A 
HETATM   11  C26 UNL     1      14.079  50.673  80.400  1.00  0.00     0.044 A 
HETATM   12  N5  UNL     1      13.266  49.951  79.609  1.00  0.00    -0.347 N 
ATOM     13  H5  UNL     1      13.532  49.807  78.635  1.00  0.00     0.167 HD
ENDROOT
BRANCH   5  14
HETATM   14  C5  UNL     1      12.243  50.588  83.613  1.00  0.00    -0.060 C 
HETATM   15  C6  UNL     1      11.956  50.805  84.787  1.00  0.00    -0.059 C 
BRANCH  15  16
HETATM   16  C7  UNL     1      11.647  51.120  86.175  1.00  0.00     0.046 A 
HETATM   17  C8  UNL     1      11.668  52.507  86.492  1.00  0.00     0.027 A 
HETATM   18  C9  UNL     1      11.264  52.911  87.727  1.00  0.00     0.050 A 
HETATM   19  C10 UNL     1      10.851  51.937  88.615  1.00  0.00     0.101 A 
HETATM   20  N3  UNL     1      10.848  50.649  88.281  1.00  0.00    -0.341 N 
HETATM   21  C15 UNL     1      11.251  50.177  87.039  1.00  0.00     0.068 A 
ATOM     22  H3  UNL     1      10.533  49.972  88.975  1.00  0.00     0.167 HD
HETATM   23  C16 UNL     1      11.135  48.777  86.767  1.00  0.00     0.060 A 
HETATM   24  C17 UNL     1       9.935  48.195  87.240  1.00  0.00     0.021 A 
HETATM   25  C20 UNL     1      12.015  47.902  86.234  1.00  0.00     0.257 A 
HETATM   26  C18 UNL     1       9.652  46.865  87.178  1.00  0.00     0.018 A 
HETATM   27  C19 UNL     1      10.612  46.033  86.610  1.00  0.00     0.091 A 
HETATM   28  N4  UNL     1      11.759  46.549  86.153  1.00  0.00    -0.333 N 
ATOM     29  H4  UNL     1      12.456  45.931  85.738  1.00  0.00     0.168 HD
HETATM   30  O3  UNL     1      13.119  48.262  85.790  1.00  0.00    -0.267 OA
BRANCH  19  31
HETATM   31  N2  UNL     1      10.463  52.327  89.790  1.00  0.00    -0.374 N 
ATOM     32  H2  UNL     1       9.660  51.887  90.240  1.00  0.00     0.161 HD
BRANCH  31  33
HETATM   33  C11 UNL     1      11.198  53.418  90.473  1.00  0.00     0.147 C 
BRANCH  33  34
HETATM   34  C12 UNL     1      12.279  52.790  91.298  1.00  0.00     0.187 C 
BRANCH  34  35
HETATM   35  O1  UNL     1      13.488  53.319  91.221  1.00  0.00    -0.387 OA
BRANCH  35  36
HETATM   36  C13 UNL     1      13.868  54.567  91.042  1.00  0.00     0.193 C 
BRANCH  36  37
HETATM   37  C14 UNL     1      14.640  54.970  89.814  1.00  0.00     0.190 C 
BRANCH  37  38
HETATM   38  O2  UNL     1      15.015  56.302  89.926  1.00  0.00    -0.399 OA
ATOM     39  H2  UNL     1      15.961  56.368  89.862  1.00  0.00     0.209 HD
ENDBRANCH  37  38
ENDBRANCH  36  37
ENDBRANCH  35  36
ENDBRANCH  34  35
ENDBRANCH  33  34
ENDBRANCH  31  33
ENDBRANCH  19  31
ENDBRANCH  15  16
ENDBRANCH   5  14
TORSDOF 9
ENDMDL
MODEL 2
REMARK VINA RESULT: -7.486625682      2.052      2.444
REMARK  9 active torsions:
REMARK  status: ('A' for Active; 'I' for Inactive)
REMARK    1  A    between atoms: C4_5  and  C5_6 
REMARK    2  A    between atoms: C6_7  and  C7_8 
REMARK    3  A    between atoms: C10_11  and  N2_12 
REMARK    4  A    between atoms: N2_12  and  C11_14 
REMARK    5  A    between atoms: C11_14  and  C12_15 
REMARK    6  A    between atoms: C12_15  and  O1_16 
REMARK    7  A    between atoms: O1_16  and  C13_17 
REMARK    8  A    between atoms: C13_17  and  C14_18 
REMARK    9  A    between atoms: C14_18  and  O2_19 
ROOT
HETATM    1  N1  UNL     1      10.210  48.635  78.568  1.00  0.00    -0.190 NA
HETATM    2  C1  UNL     1      10.946  49.189  79.293  1.00  0.00     0.117 C 
HETATM    3  C2  UNL     1      11.829  49.874  80.195  1.00  0.00     0.115 A 
HETATM    4  C3  UNL     1      11.446  50.244  81.478  1.00  0.00     0.062 A 
HETATM    5  C4  UNL     1      12.294  50.901  82.342  1.00  0.00     0.033 A 
HETATM    6  C21 UNL     1      13.568  51.196  81.901  1.00  0.00     0.009 A 
HETATM    7  C22 UNL     1      14.475  51.852  82.706  1.00  0.00     0.015 A 
HETATM    8  C23 UNL     1      15.757  52.164  82.300  1.00  0.00     0.001 A 
HETATM    9  C24 UNL     1      16.131  51.795  81.027  1.00  0.00     0.002 A 
HETATM   10  C25 UNL     1      15.218  51.132  80.208  1.00  0.00     0.030 A 
HETATM   11  C26 UNL     1      13.946  50.824  80.616  1.00  0.00     0.044 A 
HETATM   12  N5  UNL     1      13.079  50.184  79.812  1.00  0.00    -0.347 N 
ATOM     13  H5  UNL     1      13.382  49.922  78.874  1.00  0.00     0.167 HD
ENDROOT
BRANCH   5  14
HETATM   14  C5  UNL     1      11.910  51.289  83.672  1.00  0.00    -0.060 C 
HETATM   15  C6  UNL     1      11.593  51.638  84.806  1.00  0.00    -0.059 C 
BRANCH  15  16
HETATM   16  C7  UNL     1      11.277  52.080  86.157  1.00  0.00     0.046 A 
HETATM   17  C8  UNL     1      12.356  52.694  86.852  1.00  0.00     0.027 A 
HETATM   18  C9  UNL     1      12.126  53.259  88.069  1.00  0.00     0.050 A 
HETATM   19  C10 UNL     1      10.838  53.203  88.564  1.00  0.00     0.101 A 
HETATM   20  N3  UNL     1       9.856  52.618  87.885  1.00  0.00    -0.341 N 
HETATM   21  C15 UNL     1      10.031  52.023  86.642  1.00  0.00     0.068 A 
ATOM     22  H3  UNL     1       8.924  52.605  88.298  1.00  0.00     0.167 HD
HETATM   23  C16 UNL     1       8.886  51.489  85.970  1.00  0.00     0.060 A 
HETATM   24  C17 UNL     1       7.734  52.304  86.059  1.00  0.00     0.021 A 
HETATM   25  C20 UNL     1       8.691  50.299  85.361  1.00  0.00     0.257 A 
HETATM   26  C18 UNL     1       6.508  51.955  85.577  1.00  0.00     0.018 A 
HETATM   27  C19 UNL     1       6.395  50.713  84.960  1.00  0.00     0.091 A 
HETATM   28  N4  UNL     1       7.465  49.915  84.861  1.00  0.00    -0.333 N 
ATOM     29  H4  UNL     1       7.371  49.006  84.407  1.00  0.00     0.168 HD
HETATM   30  O3  UNL     1       9.606  49.469  85.223  1.00  0.00    -0.267 OA
BRANCH  19  31
HETATM   31  N2  UNL     1      10.622  53.746  89.723  1.00  0.00    -0.374 N 
ATOM     32  H2  UNL     1      10.304  54.714  89.787  1.00  0.00     0.161 HD
BRANCH  31  33
HETATM   33  C11 UNL     1      10.841  52.949  90.953  1.00  0.00     0.147 C 
BRANCH  33  34
HETATM   34  C12 UNL     1      11.832  53.686  91.801  1.00  0.00     0.187 C 
BRANCH  34  35
HETATM   35  O1  UNL     1      13.077  53.756  91.361  1.00  0.00    -0.387 OA
BRANCH  35  36
HETATM   36  C13 UNL     1      13.890  54.785  91.250  1.00  0.00     0.193 C 
BRANCH  36  37
HETATM   37  C14 UNL     1      14.613  55.060  89.959  1.00  0.00     0.190 C 
BRANCH  37  38
HETATM   38  O2  UNL     1      14.944  56.407  89.898  1.00  0.00    -0.399 OA
ATOM     39  H2  UNL     1      14.827  56.719  89.008  1.00  0.00     0.209 HD
ENDBRANCH  37  38
ENDBRANCH  36  37
ENDBRANCH  35  36
ENDBRANCH  34  35
ENDBRANCH  33  34
ENDBRANCH  31  33
ENDBRANCH  19  31
ENDBRANCH  15  16
ENDBRANCH   5  14
TORSDOF 9
ENDMDL
MODEL 3
REMARK VINA RESULT: -7.424638306      2.233      3.022
REMARK  9 active torsions:
REMARK  status: ('A' for Active; 'I' for Inactive)
REMARK    1  A    between atoms: C4_5  and  C5_6 
REMARK    2  A    between atoms: C6_7  and  C7_8 
REMARK    3  A    between atoms: C10_11  and  N2_12 
REMARK    4  A    between atoms: N2_12  and  C11_14 
REMARK    5  A    between atoms: C11_14  and  C12_15 
REMARK    6  A    between atoms: C12_15  and  O1_16 
REMARK    7  A    between atoms: O1_16  and  C13_17 
REMARK    8  A    between atoms: C13_17  and  C14_18 
REMARK    9  A    between atoms: C14_18  and  O2_19 
ROOT
HETATM    1  N1  UNL     1       9.408  48.312  80.210  1.00  0.00    -0.190 NA
HETATM    2  C1  UNL     1      10.310  48.937  80.624  1.00  0.00     0.117 C 
HETATM    3  C2  UNL     1      11.399  49.714  81.146  1.00  0.00     0.115 A 
HETATM    4  C3  UNL     1      11.338  50.352  82.379  1.00  0.00     0.062 A 
HETATM    5  C4  UNL     1      12.383  51.096  82.879  1.00  0.00     0.033 A 
HETATM    6  C21 UNL     1      13.527  51.203  82.114  1.00  0.00     0.009 A 
HETATM    7  C22 UNL     1      14.615  51.931  82.545  1.00  0.00     0.015 A 
HETATM    8  C23 UNL     1      15.775  52.060  81.808  1.00  0.00     0.001 A 
HETATM    9  C24 UNL     1      15.830  51.426  80.587  1.00  0.00     0.002 A 
HETATM   10  C25 UNL     1      14.733  50.689  80.146  1.00  0.00     0.030 A 
HETATM   11  C26 UNL     1      13.583  50.563  80.881  1.00  0.00     0.044 A 
HETATM   12  N5  UNL     1      12.533  49.848  80.439  1.00  0.00    -0.347 N 
ATOM     13  H5  UNL     1      12.601  49.389  79.531  1.00  0.00     0.167 HD
ENDROOT
BRANCH   5  14
HETATM   14  C5  UNL     1      12.332  51.760  84.153  1.00  0.00    -0.060 C 
HETATM   15  C6  UNL     1      12.307  52.319  85.246  1.00  0.00    -0.059 C 
BRANCH  15  16
HETATM   16  C7  UNL     1      12.310  52.930  86.568  1.00  0.00     0.046 A 
HETATM   17  C8  UNL     1      13.474  53.688  86.873  1.00  0.00     0.027 A 
HETATM   18  C9  UNL     1      13.514  54.406  88.029  1.00  0.00     0.050 A 
HETATM   19  C10 UNL     1      12.405  54.357  88.850  1.00  0.00     0.101 A 
HETATM   20  N3  UNL     1      11.335  53.634  88.530  1.00  0.00    -0.341 N 
HETATM   21  C15 UNL     1      11.237  52.880  87.368  1.00  0.00     0.068 A 
ATOM     22  H3  UNL     1      10.544  53.633  89.172  1.00  0.00     0.167 HD
HETATM   23  C16 UNL     1      10.008  52.201  87.092  1.00  0.00     0.060 A 
HETATM   24  C17 UNL     1       8.852  52.963  87.380  1.00  0.00     0.021 A 
HETATM   25  C20 UNL     1       9.765  50.930  86.706  1.00  0.00     0.257 A 
HETATM   26  C18 UNL     1       7.578  52.490  87.285  1.00  0.00     0.018 A 
HETATM   27  C19 UNL     1       7.417  51.170  86.877  1.00  0.00     0.091 A 
HETATM   28  N4  UNL     1       8.489  50.419  86.598  1.00  0.00    -0.333 N 
ATOM     29  H4  UNL     1       8.360  49.453  86.299  1.00  0.00     0.168 HD
HETATM   30  O3  UNL     1      10.682  50.135  86.434  1.00  0.00    -0.267 OA
BRANCH  19  31
HETATM   31  N2  UNL     1      12.446  55.045  89.949  1.00  0.00    -0.374 N 
ATOM     32  H2  UNL     1      11.618  55.543  90.276  1.00  0.00     0.161 HD
BRANCH  31  33
HETATM   33  C11 UNL     1      13.708  55.103  90.724  1.00  0.00     0.147 C 
BRANCH  33  34
HETATM   34  C12 UNL     1      13.515  54.289  91.967  1.00  0.00     0.187 C 
BRANCH  34  35
HETATM   35  O1  UNL     1      13.827  53.005  91.907  1.00  0.00    -0.387 OA
BRANCH  35  36
HETATM   36  C13 UNL     1      13.150  51.941  92.281  1.00  0.00     0.193 C 
BRANCH  36  37
HETATM   37  C14 UNL     1      11.974  51.453  91.478  1.00  0.00     0.190 C 
BRANCH  37  38
HETATM   38  O2  UNL     1      12.389  51.169  90.184  1.00  0.00    -0.399 OA
ATOM     39  H2  UNL     1      12.676  50.264  90.138  1.00  0.00     0.209 HD
ENDBRANCH  37  38
ENDBRANCH  36  37
ENDBRANCH  35  36
ENDBRANCH  34  35
ENDBRANCH  33  34
ENDBRANCH  31  33
ENDBRANCH  19  31
ENDBRANCH  15  16
ENDBRANCH   5  14
TORSDOF 9
ENDMDL
MODEL 4
REMARK VINA RESULT: -7.304801388      3.246      8.817
REMARK  9 active torsions:
REMARK  status: ('A' for Active; 'I' for Inactive)
REMARK    1  A    between atoms: C4_5  and  C5_6 
REMARK    2  A    between atoms: C6_7  and  C7_8 
REMARK    3  A    between atoms: C10_11  and  N2_12 
REMARK    4  A    between atoms: N2_12  and  C11_14 
REMARK    5  A    between atoms: C11_14  and  C12_15 
REMARK    6  A    between atoms: C12_15  and  O1_16 
REMARK    7  A    between atoms: O1_16  and  C13_17 
REMARK    8  A    between atoms: C13_17  and  C14_18 
REMARK    9  A    between atoms: C14_18  and  O2_19 
ROOT
HETATM    1  N1  UNL     1       7.388  52.308  89.962  1.00  0.00    -0.190 NA
HETATM    2  C1  UNL     1       8.482  52.651  89.715  1.00  0.00     0.117 C 
HETATM    3  C2  UNL     1       9.822  53.054  89.393  1.00  0.00     0.115 A 
HETATM    4  C3  UNL     1      10.391  52.829  88.146  1.00  0.00     0.062 A 
HETATM    5  C4  UNL     1      11.676  53.217  87.838  1.00  0.00     0.033 A 
HETATM    6  C21 UNL     1      12.413  53.852  88.818  1.00  0.00     0.009 A 
HETATM    7  C22 UNL     1      13.706  54.271  88.588  1.00  0.00     0.015 A 
HETATM    8  C23 UNL     1      14.474  54.908  89.542  1.00  0.00     0.001 A 
HETATM    9  C24 UNL     1      13.904  55.129  90.776  1.00  0.00     0.002 A 
HETATM   10  C25 UNL     1      12.597  54.708  91.014  1.00  0.00     0.030 A 
HETATM   11  C26 UNL     1      11.839  54.075  90.064  1.00  0.00     0.044 A 
HETATM   12  N5  UNL     1      10.579  53.676  90.312  1.00  0.00    -0.347 N 
ATOM     13  H5  UNL     1      10.183  53.852  91.235  1.00  0.00     0.167 HD
ENDROOT
BRANCH   5  14
HETATM   14  C5  UNL     1      12.276  52.990  86.552  1.00  0.00    -0.060 C 
HETATM   15  C6  UNL     1      12.795  52.776  85.460  1.00  0.00    -0.059 C 
BRANCH  15  16
HETATM   16  C7  UNL     1      13.459  52.489  84.196  1.00  0.00     0.046 A 
HETATM   17  C8  UNL     1      14.687  53.179  83.996  1.00  0.00     0.027 A 
HETATM   18  C9  UNL     1      15.447  52.878  82.908  1.00  0.00     0.050 A 
HETATM   19  C10 UNL     1      14.974  51.906  82.048  1.00  0.00     0.101 A 
HETATM   20  N3  UNL     1      13.819  51.285  82.269  1.00  0.00    -0.341 N 
HETATM   21  C15 UNL     1      13.001  51.551  83.358  1.00  0.00     0.068 A 
ATOM     22  H3  UNL     1      13.518  50.575  81.601  1.00  0.00     0.167 HD
HETATM   23  C16 UNL     1      11.816  50.768  83.533  1.00  0.00     0.060 A 
HETATM   24  C17 UNL     1      11.993  49.389  83.271  1.00  0.00     0.021 A 
HETATM   25  C20 UNL     1      10.543  51.133  83.800  1.00  0.00     0.257 A 
HETATM   26  C18 UNL     1      10.986  48.471  83.282  1.00  0.00     0.018 A 
HETATM   27  C19 UNL     1       9.705  48.932  83.570  1.00  0.00     0.091 A 
HETATM   28  N4  UNL     1       9.501  50.230  83.821  1.00  0.00    -0.333 N 
ATOM     29  H4  UNL     1       8.559  50.557  84.032  1.00  0.00     0.168 HD
HETATM   30  O3  UNL     1      10.230  52.313  84.035  1.00  0.00    -0.267 OA
BRANCH  19  31
HETATM   31  N2  UNL     1      15.704  51.620  81.014  1.00  0.00    -0.374 N 
ATOM     32  H2  UNL     1      16.703  51.441  81.122  1.00  0.00     0.161 HD
BRANCH  31  33
HETATM   33  C11 UNL     1      15.074  51.557  79.674  1.00  0.00     0.147 C 
BRANCH  33  34
HETATM   34  C12 UNL     1      14.978  50.113  79.286  1.00  0.00     0.187 C 
BRANCH  34  35
HETATM   35  O1  UNL     1      13.994  49.405  79.816  1.00  0.00    -0.387 OA
BRANCH  35  36
HETATM   36  C13 UNL     1      12.753  49.229  79.416  1.00  0.00     0.193 C 
BRANCH  36  37
HETATM   37  C14 UNL     1      12.305  47.910  78.845  1.00  0.00     0.190 C 
BRANCH  37  38
HETATM   38  O2  UNL     1      12.906  47.719  77.608  1.00  0.00    -0.399 OA
ATOM     39  H2  UNL     1      13.602  47.077  77.694  1.00  0.00     0.209 HD
ENDBRANCH  37  38
ENDBRANCH  36  37
ENDBRANCH  35  36
ENDBRANCH  34  35
ENDBRANCH  33  34
ENDBRANCH  31  33
ENDBRANCH  19  31
ENDBRANCH  15  16
ENDBRANCH   5  14
TORSDOF 9
ENDMDL
MODEL 5
REMARK VINA RESULT: -7.246508699      2.270      3.137
REMARK  9 active torsions:
REMARK  status: ('A' for Active; 'I' for Inactive)
REMARK    1  A    between atoms: C4_5  and  C5_6 
REMARK    2  A    between atoms: C6_7  and  C7_8 
REMARK    3  A    between atoms: C10_11  and  N2_12 
REMARK    4  A    between atoms: N2_12  and  C11_14 
REMARK    5  A    between atoms: C11_14  and  C12_15 
REMARK    6  A    between atoms: C12_15  and  O1_16 
REMARK    7  A    between atoms: O1_16  and  C13_17 
REMARK    8  A    between atoms: C13_17  and  C14_18 
REMARK    9  A    between atoms: C14_18  and  O2_19 
ROOT
HETATM    1  N1  UNL     1       9.113  49.108  80.456  1.00  0.00    -0.190 NA
HETATM    2  C1  UNL     1      10.071  49.628  80.888  1.00  0.00     0.117 C 
HETATM    3  C2  UNL     1      11.229  50.277  81.435  1.00  0.00     0.115 A 
HETATM    4  C3  UNL     1      11.234  50.863  82.694  1.00  0.00     0.062 A 
HETATM    5  C4  UNL     1      12.346  51.485  83.218  1.00  0.00     0.033 A 
HETATM    6  C21 UNL     1      13.491  51.518  82.448  1.00  0.00     0.009 A 
HETATM    7  C22 UNL     1      14.645  52.121  82.901  1.00  0.00     0.015 A 
HETATM    8  C23 UNL     1      15.809  52.174  82.161  1.00  0.00     0.001 A 
HETATM    9  C24 UNL     1      15.799  51.592  80.913  1.00  0.00     0.002 A 
HETATM   10  C25 UNL     1      14.636  50.980  80.450  1.00  0.00     0.030 A 
HETATM   11  C26 UNL     1      13.482  50.930  81.188  1.00  0.00     0.044 A 
HETATM   12  N5  UNL     1      12.368  50.336  80.725  1.00  0.00    -0.347 N 
ATOM     13  H5  UNL     1      12.389  49.913  79.797  1.00  0.00     0.167 HD
ENDROOT
BRANCH   5  14
HETATM   14  C5  UNL     1      12.362  52.094  84.519  1.00  0.00    -0.060 C 
HETATM   15  C6  UNL     1      12.388  52.599  85.638  1.00  0.00    -0.059 C 
BRANCH  15  16
HETATM   16  C7  UNL     1      12.415  53.136  86.991  1.00  0.00     0.046 A 
HETATM   17  C8  UNL     1      13.507  54.006  87.266  1.00  0.00     0.027 A 
HETATM   18  C9  UNL     1      13.549  54.663  88.457  1.00  0.00     0.050 A 
HETATM   19  C10 UNL     1      12.512  54.443  89.344  1.00  0.00     0.101 A 
HETATM   20  N3  UNL     1      11.510  53.620  89.051  1.00  0.00    -0.341 N 
HETATM   21  C15 UNL     1      11.415  52.921  87.854  1.00  0.00     0.068 A 
ATOM     22  H3  UNL     1      10.771  53.494  89.742  1.00  0.00     0.167 HD
HETATM   23  C16 UNL     1      10.253  52.120  87.619  1.00  0.00     0.060 A 
HETATM   24  C17 UNL     1       9.042  52.727  88.026  1.00  0.00     0.021 A 
HETATM   25  C20 UNL     1      10.127  50.851  87.174  1.00  0.00     0.257 A 
HETATM   26  C18 UNL     1       7.826  52.116  87.986  1.00  0.00     0.018 A 
HETATM   27  C19 UNL     1       7.784  50.809  87.511  1.00  0.00     0.091 A 
HETATM   28  N4  UNL     1       8.911  50.202  87.118  1.00  0.00    -0.333 N 
ATOM     29  H4  UNL     1       8.870  49.244  86.772  1.00  0.00     0.168 HD
HETATM   30  O3  UNL     1      11.105  50.182  86.797  1.00  0.00    -0.267 OA
BRANCH  19  31
HETATM   31  N2  UNL     1      12.555  55.074  90.477  1.00  0.00    -0.374 N 
ATOM     32  H2  UNL     1      11.830  55.751  90.717  1.00  0.00     0.161 HD
BRANCH  31  33
HETATM   33  C11 UNL     1      13.665  54.803  91.420  1.00  0.00     0.147 C 
BRANCH  33  34
HETATM   34  C12 UNL     1      13.371  53.504  92.106  1.00  0.00     0.187 C 
BRANCH  34  35
HETATM   35  O1  UNL     1      12.115  53.091  92.114  1.00  0.00    -0.387 OA
BRANCH  35  36
HETATM   36  C13 UNL     1      11.215  53.106  93.074  1.00  0.00     0.193 C 
BRANCH  36  37
HETATM   37  C14 UNL     1       9.821  53.611  92.817  1.00  0.00     0.190 C 
BRANCH  37  38
HETATM   38  O2  UNL     1       9.713  54.001  91.488  1.00  0.00    -0.399 OA
ATOM     39  H2  UNL     1       8.809  54.223  91.299  1.00  0.00     0.209 HD
ENDBRANCH  37  38
ENDBRANCH  36  37
ENDBRANCH  35  36
ENDBRANCH  34  35
ENDBRANCH  33  34
ENDBRANCH  31  33
ENDBRANCH  19  31
ENDBRANCH  15  16
ENDBRANCH   5  14
TORSDOF 9
ENDMDL
