MODEL 1
REMARK VINA RESULT: -3.311790024      0.000      0.000
REMARK  3 active torsions:
REMARK  status: ('A' for Active; 'I' for Inactive)
REMARK    1  A    between atoms: O1_2  and  C2_3 
REMARK    2  A    between atoms: C2_3  and  C3_5 
REMARK    3  A    between atoms: C3_5  and  C4_6 
ROOT
HETATM    1  C3  UNL     1      33.708  10.943   5.131  1.00  0.00     0.170 C 
HETATM    2  C5  UNL     1      33.978  12.419   5.081  1.00  0.00     0.111 C 
HETATM    3  S1  UNL     1      35.614  12.514   4.281  1.00  0.00    -0.157 SA
HETATM    4  C6  UNL     1      36.472  10.998   4.855  1.00  0.00     0.149 C 
HETATM    5  S2  UNL     1      35.199  10.324   5.988  1.00  0.00    -0.132 SA
ENDROOT
BRANCH   1   6
HETATM    6  C2  UNL     1      33.710  10.315   3.788  1.00  0.00     0.284 C 
HETATM    7  O2  UNL     1      34.057   9.133   3.551  1.00  0.00    -0.263 OA
BRANCH   6   8
HETATM    8  O1  UNL     1      33.297  11.085   2.713  1.00  0.00    -0.325 OA
HETATM    9  C1  UNL     1      33.758  10.779   1.409  1.00  0.00     0.213 C 
ENDBRANCH   6   8
ENDBRANCH   1   6
BRANCH   1  10
HETATM   10  C4  UNL     1      32.457  10.590   5.872  1.00  0.00     0.282 C 
HETATM   11  F1  UNL     1      31.648   9.868   5.049  1.00  0.00    -0.205 F 
HETATM   12 CL1  UNL     1      32.939   9.561   7.263  1.00  0.00    -0.064 Cl
HETATM   13 CL2  UNL     1      31.636  12.006   6.505  1.00  0.00    -0.064 Cl
ENDBRANCH   1  10
TORSDOF 3
ENDMDL
MODEL 2
REMARK VINA RESULT: -3.191834312      5.726      7.121
REMARK  3 active torsions:
REMARK  status: ('A' for Active; 'I' for Inactive)
REMARK    1  A    between atoms: O1_2  and  C2_3 
REMARK    2  A    between atoms: C2_3  and  C3_5 
REMARK    3  A    between atoms: C3_5  and  C4_6 
ROOT
HETATM    1  C3  UNL     1      34.051  11.633  -1.559  1.00  0.00     0.170 C 
HETATM    2  C5  UNL     1      34.003  13.122  -1.378  1.00  0.00     0.111 C 
HETATM    3  S1  UNL     1      32.333  13.558  -1.968  1.00  0.00    -0.157 SA
HETATM    4  C6  UNL     1      32.010  12.345  -3.305  1.00  0.00     0.149 C 
HETATM    5  S2  UNL     1      33.616  11.463  -3.327  1.00  0.00    -0.132 SA
ENDROOT
BRANCH   1   6
HETATM    6  C2  UNL     1      32.990  10.929  -0.801  1.00  0.00     0.284 C 
HETATM    7  O2  UNL     1      32.313   9.968  -1.240  1.00  0.00    -0.263 OA
BRANCH   6   8
HETATM    8  O1  UNL     1      32.723  11.358   0.489  1.00  0.00    -0.325 OA
HETATM    9  C1  UNL     1      33.168  10.590   1.593  1.00  0.00     0.213 C 
ENDBRANCH   6   8
ENDBRANCH   1   6
BRANCH   1  10
HETATM   10  C4  UNL     1      35.391  11.039  -1.259  1.00  0.00     0.282 C 
HETATM   11  F1  UNL     1      35.212   9.786  -0.758  1.00  0.00    -0.205 F 
HETATM   12 CL1  UNL     1      36.278  10.920  -2.817  1.00  0.00    -0.064 Cl
HETATM   13 CL2  UNL     1      36.336  12.040  -0.172  1.00  0.00    -0.064 Cl
ENDBRANCH   1  10
TORSDOF 3
ENDMDL
MODEL 3
REMARK VINA RESULT: -3.155500047      2.682      3.489
REMARK  3 active torsions:
REMARK  status: ('A' for Active; 'I' for Inactive)
REMARK    1  A    between atoms: O1_2  and  C2_3 
REMARK    2  A    between atoms: C2_3  and  C3_5 
REMARK    3  A    between atoms: C3_5  and  C4_6 
ROOT
HETATM    1  C3  UNL     1      34.770  10.540   4.891  1.00  0.00     0.170 C 
HETATM    2  C5  UNL     1      34.302   9.666   6.017  1.00  0.00     0.111 C 
HETATM    3  S1  UNL     1      32.618  10.282   6.349  1.00  0.00    -0.157 SA
HETATM    4  C6  UNL     1      32.727  12.076   5.981  1.00  0.00     0.149 C 
HETATM    5  S2  UNL     1      34.512  12.210   5.588  1.00  0.00    -0.132 SA
ENDROOT
BRANCH   1   6
HETATM    6  C2  UNL     1      33.897  10.450   3.696  1.00  0.00     0.284 C 
HETATM    7  O2  UNL     1      33.247   9.431   3.358  1.00  0.00    -0.263 OA
BRANCH   6   8
HETATM    8  O1  UNL     1      33.785  11.572   2.890  1.00  0.00    -0.325 OA
HETATM    9  C1  UNL     1      34.187  11.506   1.533  1.00  0.00     0.213 C 
ENDBRANCH   6   8
ENDBRANCH   1   6
BRANCH   1  10
HETATM   10  C4  UNL     1      36.200  10.313   4.513  1.00  0.00     0.282 C 
HETATM   11  F1  UNL     1      36.240   9.562   3.378  1.00  0.00    -0.205 F 
HETATM   12 CL1  UNL     1      36.918  11.923   4.170  1.00  0.00    -0.064 Cl
HETATM   13 CL2  UNL     1      37.122   9.573   5.809  1.00  0.00    -0.064 Cl
ENDBRANCH   1  10
TORSDOF 3
ENDMDL
MODEL 4
REMARK VINA RESULT: -3.089739355     12.349     13.610
REMARK  3 active torsions:
REMARK  status: ('A' for Active; 'I' for Inactive)
REMARK    1  A    between atoms: O1_2  and  C2_3 
REMARK    2  A    between atoms: C2_3  and  C3_5 
REMARK    3  A    between atoms: C3_5  and  C4_6 
ROOT
HETATM    1  C3  UNL     1      38.857   6.097  -6.881  1.00  0.00     0.170 C 
HETATM    2  C5  UNL     1      39.569   4.966  -7.565  1.00  0.00     0.111 C 
HETATM    3  S1  UNL     1      40.846   5.817  -8.551  1.00  0.00    -0.157 SA
HETATM    4  C6  UNL     1      40.051   7.402  -9.023  1.00  0.00     0.149 C 
HETATM    5  S2  UNL     1      38.387   7.149  -8.299  1.00  0.00    -0.132 SA
ENDROOT
BRANCH   1   6
HETATM    6  C2  UNL     1      39.760   6.916  -6.038  1.00  0.00     0.284 C 
HETATM    7  O2  UNL     1      40.789   6.486  -5.462  1.00  0.00    -0.263 OA
BRANCH   6   8
HETATM    8  O1  UNL     1      39.451   8.256  -5.871  1.00  0.00    -0.325 OA
HETATM    9  C1  UNL     1      39.351   8.799  -4.566  1.00  0.00     0.213 C 
ENDBRANCH   6   8
ENDBRANCH   1   6
BRANCH   1  10
HETATM   10  C4  UNL     1      37.660   5.660  -6.095  1.00  0.00     0.282 C 
HETATM   11  F1  UNL     1      37.964   5.709  -4.769  1.00  0.00    -0.205 F 
HETATM   12 CL1  UNL     1      36.347   6.838  -6.434  1.00  0.00    -0.064 Cl
HETATM   13 CL2  UNL     1      37.096   4.068  -6.570  1.00  0.00    -0.064 Cl
ENDBRANCH   1  10
TORSDOF 3
ENDMDL
MODEL 5
REMARK VINA RESULT: -3.087362046     12.676     13.689
REMARK  3 active torsions:
REMARK  status: ('A' for Active; 'I' for Inactive)
REMARK    1  A    between atoms: O1_2  and  C2_3 
REMARK    2  A    between atoms: C2_3  and  C3_5 
REMARK    3  A    between atoms: C3_5  and  C4_6 
ROOT
HETATM    1  C3  UNL     1      38.799   6.066  -6.966  1.00  0.00     0.170 C 
HETATM    2  C5  UNL     1      39.954   6.069  -6.007  1.00  0.00     0.111 C 
HETATM    3  S1  UNL     1      40.146   7.835  -5.594  1.00  0.00    -0.157 SA
HETATM    4  C6  UNL     1      39.663   8.701  -7.138  1.00  0.00     0.149 C 
HETATM    5  S2  UNL     1      39.365   7.260  -8.229  1.00  0.00    -0.132 SA
ENDROOT
BRANCH   1   6
HETATM    6  C2  UNL     1      37.565   6.639  -6.377  1.00  0.00     0.284 C 
HETATM    7  O2  UNL     1      37.302   6.667  -5.150  1.00  0.00    -0.263 OA
BRANCH   6   8
HETATM    8  O1  UNL     1      36.630   7.188  -7.240  1.00  0.00    -0.325 OA
HETATM    9  C1  UNL     1      35.646   8.076  -6.740  1.00  0.00     0.213 C 
ENDBRANCH   6   8
ENDBRANCH   1   6
BRANCH   1  10
HETATM   10  C4  UNL     1      38.519   4.722  -7.560  1.00  0.00     0.282 C 
HETATM   11  F1  UNL     1      39.653   3.970  -7.497  1.00  0.00    -0.205 F 
HETATM   12 CL1  UNL     1      37.253   3.949  -6.548  1.00  0.00    -0.064 Cl
HETATM   13 CL2  UNL     1      37.909   4.833  -9.201  1.00  0.00    -0.064 Cl
ENDBRANCH   1  10
TORSDOF 3
ENDMDL
