MODEL 1
REMARK VINA RESULT: -9.143257075      0.000      0.000
REMARK  9 active torsions:
REMARK  status: ('A' for Active; 'I' for Inactive)
REMARK    1  A    between atoms: C2_2  and  O1_3 
REMARK    2  A    between atoms: O1_3  and  C3_4 
REMARK    3  A    between atoms: C3_4  and  O2_5 
REMARK    4  A    between atoms: C6_9  and  C7_10 
REMARK    5  A    between atoms: N2_13  and  C8_14 
REMARK    6  A    between atoms: C8_14  and  C9_15 
REMARK    7  A    between atoms: C9_15  and  O3_16 
REMARK    8  A    between atoms: C9_15  and  C10_18 
REMARK    9  A    between atoms: C19_28  and  C20_29 
ROOT
HETATM    1  C7  UNL     1     -77.222 -19.457  85.777  1.00  0.00     0.043 A 
HETATM    2  N1  UNL     1     -78.349 -20.161  86.107  1.00  0.00    -0.300 N 
ATOM      3  H1  UNL     1     -78.496 -20.662  86.983  1.00  0.00     0.187 HD
HETATM    4  N2  UNL     1     -79.207 -20.092  85.125  1.00  0.00    -0.282 N 
HETATM    5  C14 UNL     1     -78.625 -19.332  84.146  1.00  0.00     0.104 A 
HETATM    6  S1  UNL     1     -78.891 -18.681  82.604  1.00  0.00    -0.073 SA
HETATM    7  C15 UNL     1     -77.415 -17.859  82.401  1.00  0.00     0.001 A 
HETATM    8  C16 UNL     1     -76.734 -18.118  83.563  1.00  0.00    -0.028 A 
HETATM    9  C17 UNL     1     -77.381 -18.901  84.489  1.00  0.00     0.031 A 
HETATM   10  C18 UNL     1     -75.341 -17.510  83.732  1.00  0.00     0.065 C 
HETATM   11  C19 UNL     1     -74.480 -17.584  82.573  1.00  0.00     0.159 C 
HETATM   12  S2  UNL     1     -75.241 -17.708  80.950  1.00  0.00    -0.150 SA
HETATM   13  C21 UNL     1     -76.923 -17.027  81.260  1.00  0.00     0.121 C 
ENDROOT
BRANCH   1  14
HETATM   14  C6  UNL     1     -76.053 -19.370  86.677  1.00  0.00     0.038 C 
HETATM   15  C5  UNL     1     -75.808 -17.868  86.963  1.00  0.00     0.016 C 
HETATM   16  C4  UNL     1     -74.453 -17.634  87.535  1.00  0.00     0.069 C 
HETATM   17  C3  UNL     1     -74.267 -18.655  88.663  1.00  0.00     0.161 C 
HETATM   18  C23 UNL     1     -75.583 -19.181  89.129  1.00  0.00     0.069 C 
HETATM   19  C22 UNL     1     -76.348 -19.942  88.052  1.00  0.00     0.016 C 
BRANCH  17  20
HETATM   20  O1  UNL     1     -73.614 -17.996  89.665  1.00  0.00    -0.356 OA
BRANCH  20  21
HETATM   21  C2  UNL     1     -73.555 -16.636  89.570  1.00  0.00     0.167 C 
HETATM   22  C1  UNL     1     -74.394 -16.054  90.697  1.00  0.00     0.033 C 
ENDBRANCH  20  21
ENDBRANCH  17  20
BRANCH  17  23
HETATM   23  O2  UNL     1     -73.440 -19.643  88.144  1.00  0.00    -0.365 OA
ATOM     24  H2  UNL     1     -72.932 -20.029  88.847  1.00  0.00     0.213 HD
ENDBRANCH  17  23
ENDBRANCH   1  14
BRANCH   4  25
HETATM   25  C8  UNL     1     -80.524 -20.666  85.008  1.00  0.00     0.182 C 
BRANCH  25  26
HETATM   26  C9  UNL     1     -81.543 -19.626  85.443  1.00  0.00     0.145 C 
BRANCH  26  27
HETATM   27  O3  UNL     1     -82.244 -19.245  84.314  1.00  0.00    -0.393 OA
ATOM     28  H3  UNL     1     -81.986 -18.353  84.113  1.00  0.00     0.210 HD
ENDBRANCH  26  27
BRANCH  26  29
HETATM   29  C10 UNL     1     -82.458 -20.287  86.456  1.00  0.00    -0.024 C 
HETATM   30  C11 UNL     1     -81.752 -20.487  87.776  1.00  0.00     0.017 C 
HETATM   31  C12 UNL     1     -82.917 -21.636  85.938  1.00  0.00     0.017 C 
HETATM   32  C13 UNL     1     -83.686 -19.450  86.716  1.00  0.00     0.017 C 
ENDBRANCH  26  29
ENDBRANCH  25  26
ENDBRANCH   4  25
BRANCH  11  33
HETATM   33  C20 UNL     1     -73.468 -18.699  82.682  1.00  0.00     0.400 C 
HETATM   34  F1  UNL     1     -73.650 -19.381  83.873  1.00  0.00    -0.170 F 
HETATM   35  F2  UNL     1     -73.616 -19.551  81.601  1.00  0.00    -0.170 F 
HETATM   36  F3  UNL     1     -72.194 -18.187  82.641  1.00  0.00    -0.170 F 
ENDBRANCH  11  33
TORSDOF 9
ENDMDL
MODEL 2
REMARK VINA RESULT: -8.636663631      3.374      5.592
REMARK  9 active torsions:
REMARK  status: ('A' for Active; 'I' for Inactive)
REMARK    1  A    between atoms: C2_2  and  O1_3 
REMARK    2  A    between atoms: O1_3  and  C3_4 
REMARK    3  A    between atoms: C3_4  and  O2_5 
REMARK    4  A    between atoms: C6_9  and  C7_10 
REMARK    5  A    between atoms: N2_13  and  C8_14 
REMARK    6  A    between atoms: C8_14  and  C9_15 
REMARK    7  A    between atoms: C9_15  and  O3_16 
REMARK    8  A    between atoms: C9_15  and  C10_18 
REMARK    9  A    between atoms: C19_28  and  C20_29 
ROOT
HETATM    1  C7  UNL     1     -77.188 -19.172  85.669  1.00  0.00     0.043 A 
HETATM    2  N1  UNL     1     -78.437 -19.728  85.589  1.00  0.00    -0.300 N 
ATOM      3  H1  UNL     1     -79.047 -19.692  84.773  1.00  0.00     0.187 HD
HETATM    4  N2  UNL     1     -78.725 -20.312  86.721  1.00  0.00    -0.282 N 
HETATM    5  C14 UNL     1     -77.645 -20.130  87.544  1.00  0.00     0.104 A 
HETATM    6  S1  UNL     1     -77.051 -20.485  89.091  1.00  0.00    -0.073 SA
HETATM    7  C15 UNL     1     -75.529 -19.735  88.973  1.00  0.00     0.001 A 
HETATM    8  C16 UNL     1     -75.520 -19.213  87.705  1.00  0.00    -0.028 A 
HETATM    9  C17 UNL     1     -76.646 -19.425  86.948  1.00  0.00     0.031 A 
HETATM   10  C18 UNL     1     -74.268 -18.462  87.245  1.00  0.00     0.065 C 
HETATM   11  C19 UNL     1     -73.693 -17.552  88.209  1.00  0.00     0.159 C 
HETATM   12  S2  UNL     1     -73.999 -17.850  89.954  1.00  0.00    -0.150 SA
HETATM   13  C21 UNL     1     -74.419 -19.643  89.971  1.00  0.00     0.121 C 
ENDROOT
BRANCH   1  14
HETATM   14  C6  UNL     1     -76.587 -18.415  84.550  1.00  0.00     0.038 C 
HETATM   15  C5  UNL     1     -75.384 -19.242  84.033  1.00  0.00     0.016 C 
HETATM   16  C4  UNL     1     -74.483 -18.421  83.178  1.00  0.00     0.069 C 
HETATM   17  C3  UNL     1     -75.377 -17.684  82.174  1.00  0.00     0.161 C 
HETATM   18  C23 UNL     1     -76.705 -18.353  82.050  1.00  0.00     0.069 C 
HETATM   19  C22 UNL     1     -77.508 -18.350  83.345  1.00  0.00     0.016 C 
BRANCH  17  20
HETATM   20  O1  UNL     1     -74.702 -17.696  80.987  1.00  0.00    -0.356 OA
BRANCH  20  21
HETATM   21  C2  UNL     1     -73.341 -17.619  81.053  1.00  0.00     0.167 C 
HETATM   22  C1  UNL     1     -72.860 -16.829  79.846  1.00  0.00     0.033 C 
ENDBRANCH  20  21
ENDBRANCH  17  20
BRANCH  17  23
HETATM   23  O2  UNL     1     -75.468 -16.378  82.639  1.00  0.00    -0.365 OA
ATOM     24  H2  UNL     1     -75.662 -16.388  83.569  1.00  0.00     0.213 HD
ENDBRANCH  17  23
ENDBRANCH   1  14
BRANCH   4  25
HETATM   25  C8  UNL     1     -79.912 -21.027  87.114  1.00  0.00     0.182 C 
BRANCH  25  26
HETATM   26  C9  UNL     1     -80.958 -20.862  86.024  1.00  0.00     0.145 C 
BRANCH  26  27
HETATM   27  O3  UNL     1     -81.089 -22.087  85.397  1.00  0.00    -0.393 OA
ATOM     28  H3  UNL     1     -80.307 -22.588  85.596  1.00  0.00     0.210 HD
ENDBRANCH  26  27
BRANCH  26  29
HETATM   29  C10 UNL     1     -82.253 -20.452  86.699  1.00  0.00    -0.024 C 
HETATM   30  C11 UNL     1     -82.730 -19.112  86.191  1.00  0.00     0.017 C 
HETATM   31  C12 UNL     1     -82.051 -20.363  88.198  1.00  0.00     0.017 C 
HETATM   32  C13 UNL     1     -83.349 -21.457  86.439  1.00  0.00     0.017 C 
ENDBRANCH  26  29
ENDBRANCH  25  26
ENDBRANCH   4  25
BRANCH  11  33
HETATM   33  C20 UNL     1     -74.059 -16.115  87.927  1.00  0.00     0.400 C 
HETATM   34  F1  UNL     1     -74.911 -16.053  86.838  1.00  0.00    -0.170 F 
HETATM   35  F2  UNL     1     -74.658 -15.572  89.051  1.00  0.00    -0.170 F 
HETATM   36  F3  UNL     1     -72.927 -15.382  87.661  1.00  0.00    -0.170 F 
ENDBRANCH  11  33
TORSDOF 9
ENDMDL
MODEL 3
REMARK VINA RESULT: -8.601769998      3.302      5.614
REMARK  9 active torsions:
REMARK  status: ('A' for Active; 'I' for Inactive)
REMARK    1  A    between atoms: C2_2  and  O1_3 
REMARK    2  A    between atoms: O1_3  and  C3_4 
REMARK    3  A    between atoms: C3_4  and  O2_5 
REMARK    4  A    between atoms: C6_9  and  C7_10 
REMARK    5  A    between atoms: N2_13  and  C8_14 
REMARK    6  A    between atoms: C8_14  and  C9_15 
REMARK    7  A    between atoms: C9_15  and  O3_16 
REMARK    8  A    between atoms: C9_15  and  C10_18 
REMARK    9  A    between atoms: C19_28  and  C20_29 
ROOT
HETATM    1  C7  UNL     1     -76.357 -18.737  84.633  1.00  0.00     0.043 A 
HETATM    2  N1  UNL     1     -77.526 -19.159  84.059  1.00  0.00    -0.300 N 
ATOM      3  H1  UNL     1     -77.790 -19.013  83.085  1.00  0.00     0.187 HD
HETATM    4  N2  UNL     1     -78.250 -19.777  84.952  1.00  0.00    -0.282 N 
HETATM    5  C14 UNL     1     -77.538 -19.754  86.122  1.00  0.00     0.104 A 
HETATM    6  S1  UNL     1     -77.580 -20.258  87.739  1.00  0.00    -0.073 SA
HETATM    7  C15 UNL     1     -76.071 -19.658  88.246  1.00  0.00     0.001 A 
HETATM    8  C16 UNL     1     -75.560 -19.065  87.121  1.00  0.00    -0.028 A 
HETATM    9  C17 UNL     1     -76.342 -19.118  85.993  1.00  0.00     0.031 A 
HETATM   10  C18 UNL     1     -74.177 -18.418  87.213  1.00  0.00     0.065 C 
HETATM   11  C19 UNL     1     -73.932 -17.628  88.399  1.00  0.00     0.159 C 
HETATM   12  S2  UNL     1     -74.877 -17.998  89.882  1.00  0.00    -0.150 SA
HETATM   13  C21 UNL     1     -75.400 -19.737  89.581  1.00  0.00     0.121 C 
ENDROOT
BRANCH   1  14
HETATM   14  C6  UNL     1     -75.336 -17.978  83.881  1.00  0.00     0.038 C 
HETATM   15  C5  UNL     1     -74.143 -18.936  83.638  1.00  0.00     0.016 C 
HETATM   16  C4  UNL     1     -72.918 -18.192  83.235  1.00  0.00     0.069 C 
HETATM   17  C3  UNL     1     -73.337 -17.216  82.130  1.00  0.00     0.161 C 
HETATM   18  C23 UNL     1     -74.624 -17.638  81.504  1.00  0.00     0.069 C 
HETATM   19  C22 UNL     1     -75.799 -17.636  82.476  1.00  0.00     0.016 C 
BRANCH  17  20
HETATM   20  O1  UNL     1     -72.320 -17.217  81.219  1.00  0.00    -0.356 OA
BRANCH  20  21
HETATM   21  C2  UNL     1     -72.640 -16.863  79.940  1.00  0.00     0.167 C 
HETATM   22  C1  UNL     1     -71.767 -15.680  79.552  1.00  0.00     0.033 C 
ENDBRANCH  20  21
ENDBRANCH  17  20
BRANCH  17  23
HETATM   23  O2  UNL     1     -73.411 -15.968  82.737  1.00  0.00    -0.365 OA
ATOM     24  H2  UNL     1     -72.688 -15.870  83.344  1.00  0.00     0.213 HD
ENDBRANCH  17  23
ENDBRANCH   1  14
BRANCH   4  25
HETATM   25  C8  UNL     1     -79.547 -20.392  84.824  1.00  0.00     0.182 C 
BRANCH  25  26
HETATM   26  C9  UNL     1     -80.593 -19.294  84.721  1.00  0.00     0.145 C 
BRANCH  26  27
HETATM   27  O3  UNL     1     -80.806 -19.060  83.375  1.00  0.00    -0.393 OA
ATOM     28  H3  UNL     1     -81.184 -18.192  83.299  1.00  0.00     0.210 HD
ENDBRANCH  26  27
BRANCH  26  29
HETATM   29  C10 UNL     1     -81.853 -19.808  85.391  1.00  0.00    -0.024 C 
HETATM   30  C11 UNL     1     -82.294 -21.120  84.786  1.00  0.00     0.017 C 
HETATM   31  C12 UNL     1     -82.973 -18.798  85.236  1.00  0.00     0.017 C 
HETATM   32  C13 UNL     1     -81.636 -20.034  86.867  1.00  0.00     0.017 C 
ENDBRANCH  26  29
ENDBRANCH  25  26
ENDBRANCH   4  25
BRANCH  11  33
HETATM   33  C20 UNL     1     -74.065 -16.148  88.138  1.00  0.00     0.400 C 
HETATM   34  F1  UNL     1     -74.678 -15.535  89.217  1.00  0.00    -0.170 F 
HETATM   35  F2  UNL     1     -72.807 -15.612  87.919  1.00  0.00    -0.170 F 
HETATM   36  F3  UNL     1     -74.815 -15.932  87.007  1.00  0.00    -0.170 F 
ENDBRANCH  11  33
TORSDOF 9
ENDMDL
MODEL 4
REMARK VINA RESULT: -8.565134709      1.094      1.911
REMARK  9 active torsions:
REMARK  status: ('A' for Active; 'I' for Inactive)
REMARK    1  A    between atoms: C2_2  and  O1_3 
REMARK    2  A    between atoms: O1_3  and  C3_4 
REMARK    3  A    between atoms: C3_4  and  O2_5 
REMARK    4  A    between atoms: C6_9  and  C7_10 
REMARK    5  A    between atoms: N2_13  and  C8_14 
REMARK    6  A    between atoms: C8_14  and  C9_15 
REMARK    7  A    between atoms: C9_15  and  O3_16 
REMARK    8  A    between atoms: C9_15  and  C10_18 
REMARK    9  A    between atoms: C19_28  and  C20_29 
ROOT
HETATM    1  C7  UNL     1     -77.078 -19.036  86.241  1.00  0.00     0.043 A 
HETATM    2  N1  UNL     1     -78.130 -19.839  86.592  1.00  0.00    -0.300 N 
ATOM      3  H1  UNL     1     -78.293 -20.224  87.523  1.00  0.00     0.187 HD
HETATM    4  N2  UNL     1     -78.891 -20.037  85.550  1.00  0.00    -0.282 N 
HETATM    5  C14 UNL     1     -78.322 -19.351  84.510  1.00  0.00     0.104 A 
HETATM    6  S1  UNL     1     -78.521 -18.976  82.870  1.00  0.00    -0.073 SA
HETATM    7  C15 UNL     1     -77.153 -17.988  82.652  1.00  0.00     0.001 A 
HETATM    8  C16 UNL     1     -76.560 -17.975  83.888  1.00  0.00    -0.028 A 
HETATM    9  C17 UNL     1     -77.184 -18.701  84.874  1.00  0.00     0.031 A 
HETATM   10  C18 UNL     1     -75.280 -17.155  84.064  1.00  0.00     0.065 C 
HETATM   11  C19 UNL     1     -74.310 -17.272  82.999  1.00  0.00     0.159 C 
HETATM   12  S2  UNL     1     -74.888 -17.737  81.363  1.00  0.00    -0.150 SA
HETATM   13  C21 UNL     1     -76.667 -17.267  81.435  1.00  0.00     0.121 C 
ENDROOT
BRANCH   1  14
HETATM   14  C6  UNL     1     -76.022 -18.652  87.202  1.00  0.00     0.038 C 
HETATM   15  C5  UNL     1     -76.207 -19.535  88.460  1.00  0.00     0.016 C 
HETATM   16  C4  UNL     1     -75.459 -18.989  89.626  1.00  0.00     0.069 C 
HETATM   17  C3  UNL     1     -74.044 -18.669  89.133  1.00  0.00     0.161 C 
HETATM   18  C23 UNL     1     -73.734 -19.413  87.878  1.00  0.00     0.069 C 
HETATM   19  C22 UNL     1     -74.637 -19.034  86.710  1.00  0.00     0.016 C 
BRANCH  17  20
HETATM   20  O1  UNL     1     -73.200 -19.029  90.144  1.00  0.00    -0.356 OA
BRANCH  20  21
HETATM   21  C2  UNL     1     -72.556 -20.225  90.010  1.00  0.00     0.167 C 
HETATM   22  C1  UNL     1     -72.621 -20.943  91.349  1.00  0.00     0.033 C 
ENDBRANCH  20  21
ENDBRANCH  17  20
BRANCH  17  23
HETATM   23  O2  UNL     1     -74.005 -17.290  88.970  1.00  0.00    -0.365 OA
ATOM     24  H2  UNL     1     -73.218 -16.946  89.377  1.00  0.00     0.213 HD
ENDBRANCH  17  23
ENDBRANCH   1  14
BRANCH   4  25
HETATM   25  C8  UNL     1     -80.104 -20.806  85.426  1.00  0.00     0.182 C 
BRANCH  25  26
HETATM   26  C9  UNL     1     -81.282 -19.845  85.397  1.00  0.00     0.145 C 
BRANCH  26  27
HETATM   27  O3  UNL     1     -81.826 -19.907  84.127  1.00  0.00    -0.393 OA
ATOM     28  H3  UNL     1     -82.757 -19.739  84.214  1.00  0.00     0.210 HD
ENDBRANCH  26  27
BRANCH  26  29
HETATM   29  C10 UNL     1     -82.275 -20.319  86.440  1.00  0.00    -0.024 C 
HETATM   30  C11 UNL     1     -82.921 -21.620  86.024  1.00  0.00     0.017 C 
HETATM   31  C12 UNL     1     -83.359 -19.277  86.636  1.00  0.00     0.017 C 
HETATM   32  C13 UNL     1     -81.605 -20.546  87.773  1.00  0.00     0.017 C 
ENDBRANCH  26  29
ENDBRANCH  25  26
ENDBRANCH   4  25
BRANCH  11  33
HETATM   33  C20 UNL     1     -73.176 -18.201  83.357  1.00  0.00     0.400 C 
HETATM   34  F1  UNL     1     -72.278 -18.272  82.306  1.00  0.00    -0.170 F 
HETATM   35  F2  UNL     1     -72.554 -17.736  84.504  1.00  0.00    -0.170 F 
HETATM   36  F3  UNL     1     -73.662 -19.458  83.626  1.00  0.00    -0.170 F 
ENDBRANCH  11  33
TORSDOF 9
ENDMDL
MODEL 5
REMARK VINA RESULT: -8.395653584      3.414      7.982
REMARK  9 active torsions:
REMARK  status: ('A' for Active; 'I' for Inactive)
REMARK    1  A    between atoms: C2_2  and  O1_3 
REMARK    2  A    between atoms: O1_3  and  C3_4 
REMARK    3  A    between atoms: C3_4  and  O2_5 
REMARK    4  A    between atoms: C6_9  and  C7_10 
REMARK    5  A    between atoms: N2_13  and  C8_14 
REMARK    6  A    between atoms: C8_14  and  C9_15 
REMARK    7  A    between atoms: C9_15  and  O3_16 
REMARK    8  A    between atoms: C9_15  and  C10_18 
REMARK    9  A    between atoms: C19_28  and  C20_29 
ROOT
HETATM    1  C7  UNL     1     -76.564 -18.114  83.634  1.00  0.00     0.043 A 
HETATM    2  N1  UNL     1     -76.161 -17.954  82.335  1.00  0.00    -0.300 N 
ATOM      3  H1  UNL     1     -76.769 -18.010  81.518  1.00  0.00     0.187 HD
HETATM    4  N2  UNL     1     -74.877 -17.718  82.304  1.00  0.00    -0.282 N 
HETATM    5  C14 UNL     1     -74.444 -17.726  83.603  1.00  0.00     0.104 A 
HETATM    6  S1  UNL     1     -73.067 -17.522  84.570  1.00  0.00    -0.073 SA
HETATM    7  C15 UNL     1     -73.777 -17.743  86.099  1.00  0.00     0.001 A 
HETATM    8  C16 UNL     1     -75.097 -17.977  85.816  1.00  0.00    -0.028 A 
HETATM    9  C17 UNL     1     -75.449 -17.968  84.488  1.00  0.00     0.031 A 
HETATM   10  C18 UNL     1     -76.054 -18.213  86.987  1.00  0.00     0.065 C 
HETATM   11  C19 UNL     1     -75.563 -19.080  88.033  1.00  0.00     0.159 C 
HETATM   12  S2  UNL     1     -73.786 -19.237  88.250  1.00  0.00    -0.150 SA
HETATM   13  C21 UNL     1     -73.165 -17.692  87.464  1.00  0.00     0.121 C 
ENDROOT
BRANCH   1  14
HETATM   14  C6  UNL     1     -77.964 -18.421  83.995  1.00  0.00     0.038 C 
HETATM   15  C5  UNL     1     -78.696 -18.815  82.689  1.00  0.00     0.016 C 
HETATM   16  C4  UNL     1     -80.175 -18.775  82.858  1.00  0.00     0.069 C 
HETATM   17  C3  UNL     1     -80.492 -19.529  84.155  1.00  0.00     0.161 C 
HETATM   18  C23 UNL     1     -79.364 -20.425  84.541  1.00  0.00     0.069 C 
HETATM   19  C22 UNL     1     -78.071 -19.675  84.845  1.00  0.00     0.016 C 
BRANCH  17  20
HETATM   20  O1  UNL     1     -81.630 -20.242  83.909  1.00  0.00    -0.356 OA
BRANCH  20  21
HETATM   21  C2  UNL     1     -82.139 -20.965  84.950  1.00  0.00     0.167 C 
HETATM   22  C1  UNL     1     -82.369 -22.386  84.461  1.00  0.00     0.033 C 
ENDBRANCH  20  21
ENDBRANCH  17  20
BRANCH  17  23
HETATM   23  O2  UNL     1     -80.758 -18.550  85.104  1.00  0.00    -0.365 OA
ATOM     24  H2  UNL     1     -81.442 -18.854  85.688  1.00  0.00     0.213 HD
ENDBRANCH  17  23
ENDBRANCH   1  14
BRANCH   4  25
HETATM   25  C8  UNL     1     -74.009 -17.483  81.179  1.00  0.00     0.182 C 
BRANCH  25  26
HETATM   26  C9  UNL     1     -72.798 -18.394  81.305  1.00  0.00     0.145 C 
BRANCH  26  27
HETATM   27  O3  UNL     1     -73.189 -19.651  80.883  1.00  0.00    -0.393 OA
ATOM     28  H3  UNL     1     -72.910 -20.269  81.549  1.00  0.00     0.210 HD
ENDBRANCH  26  27
BRANCH  26  29
HETATM   29  C10 UNL     1     -71.714 -17.829  80.408  1.00  0.00    -0.024 C 
HETATM   30  C11 UNL     1     -70.648 -17.129  81.219  1.00  0.00     0.017 C 
HETATM   31  C12 UNL     1     -72.312 -16.839  79.429  1.00  0.00     0.017 C 
HETATM   32  C13 UNL     1     -71.040 -18.918  79.610  1.00  0.00     0.017 C 
ENDBRANCH  26  29
ENDBRANCH  25  26
ENDBRANCH   4  25
BRANCH  11  33
HETATM   33  C20 UNL     1     -76.129 -20.476  87.932  1.00  0.00     0.400 C 
HETATM   34  F1  UNL     1     -75.691 -21.075  86.763  1.00  0.00    -0.170 F 
HETATM   35  F2  UNL     1     -75.729 -21.207  89.037  1.00  0.00    -0.170 F 
HETATM   36  F3  UNL     1     -77.503 -20.431  87.933  1.00  0.00    -0.170 F 
ENDBRANCH  11  33
TORSDOF 9
ENDMDL
