MODEL 1
REMARK VINA RESULT: -8.793539497      0.000      0.000
REMARK  6 active torsions:
REMARK  status: ('A' for Active; 'I' for Inactive)
REMARK    1  A    between atoms: C4_4  and  N1_5 
REMARK    2  A    between atoms: N1_5  and  C5_7 
REMARK    3  A    between atoms: C7_9  and  S1_10 
REMARK    4  A    between atoms: S1_10  and  C8_11 
REMARK    5  A    between atoms: C9_12  and  N2_13 
REMARK    6  A    between atoms: C14_25  and  N4_26 
ROOT
HETATM    1  C5  UNL     1     -79.475 -20.391  86.373  1.00  0.00     0.039 A 
HETATM    2  C6  UNL     1     -78.221 -20.377  86.965  1.00  0.00     0.066 A 
HETATM    3  C7  UNL     1     -77.074 -19.936  86.288  1.00  0.00     0.078 A 
HETATM    4  N3  UNL     1     -77.268 -19.529  85.030  1.00  0.00    -0.337 N 
ATOM      5  H3  UNL     1     -76.449 -19.205  84.516  1.00  0.00     0.168 HD
HETATM    6  C14 UNL     1     -78.440 -19.508  84.383  1.00  0.00     0.106 A 
HETATM    7  C19 UNL     1     -79.572 -19.952  85.075  1.00  0.00     0.078 A 
ENDROOT
BRANCH   3   8
HETATM    8  S1  UNL     1     -75.502 -19.930  87.107  1.00  0.00    -0.068 SA
BRANCH   8   9
HETATM    9  C8  UNL     1     -74.874 -18.348  87.549  1.00  0.00     0.063 A 
HETATM   10  C9  UNL     1     -74.470 -17.435  86.618  1.00  0.00     0.123 A 
HETATM   11  C10 UNL     1     -74.054 -16.150  86.976  1.00  0.00     0.063 A 
HETATM   12  C11 UNL     1     -74.029 -15.759  88.278  1.00  0.00     0.059 A 
HETATM   13 CL1  UNL     1     -73.497 -14.132  88.687  1.00  0.00    -0.082 Cl
HETATM   14  C12 UNL     1     -74.422 -16.651  89.243  1.00  0.00     0.079 A 
HETATM   15 CL2  UNL     1     -74.388 -16.147  90.918  1.00  0.00    -0.081 Cl
HETATM   16  C13 UNL     1     -74.840 -17.938  88.869  1.00  0.00     0.077 A 
HETATM   17 CL3  UNL     1     -75.291 -19.027  90.144  1.00  0.00    -0.081 Cl
BRANCH  10  18
HETATM   18  N2  UNL     1     -74.373 -17.760  85.248  1.00  0.00    -0.114 N 
HETATM   19  O1  UNL     1     -75.323 -17.352  84.497  1.00  0.00    -0.532 OA
HETATM   20  O2  UNL     1     -73.352 -18.453  84.712  1.00  0.00    -0.532 OA
ENDBRANCH  10  18
ENDBRANCH   8   9
ENDBRANCH   3   8
BRANCH   1  21
HETATM   21  N1  UNL     1     -80.614 -20.840  87.082  1.00  0.00    -0.341 N 
ATOM     22  H1  UNL     1     -80.489 -21.557  87.796  1.00  0.00     0.167 HD
BRANCH  21  23
HETATM   23  C4  UNL     1     -81.804 -20.386  86.870  1.00  0.00     0.122 A 
HETATM   24  C3  UNL     1     -82.341 -19.308  87.535  1.00  0.00     0.075 A 
HETATM   25  C2  UNL     1     -83.633 -19.096  87.064  1.00  0.00     0.025 A 
HETATM   26  C1  UNL     1     -84.535 -18.018  87.543  1.00  0.00     0.070 C 
HETATM   27  N6  UNL     1     -83.847 -20.041  86.135  1.00  0.00    -0.304 N 
HETATM   28  N5  UNL     1     -82.758 -20.808  86.021  1.00  0.00    -0.285 N 
ATOM     29  H6  UNL     1     -84.708 -20.157  85.600  1.00  0.00     0.186 HD
ATOM     30  H5  UNL     1     -82.664 -21.599  85.384  1.00  0.00     0.188 HD
ENDBRANCH  21  23
ENDBRANCH   1  21
BRANCH   6  31
HETATM   31  N4  UNL     1     -78.574 -19.060  83.042  1.00  0.00    -0.367 N 
HETATM   32  C15 UNL     1     -77.483 -18.776  82.130  1.00  0.00     0.124 C 
HETATM   33  C16 UNL     1     -77.987 -17.695  81.205  1.00  0.00     0.021 C 
HETATM   34  C17 UNL     1     -79.460 -17.943  81.154  1.00  0.00     0.021 C 
HETATM   35  C18 UNL     1     -79.806 -18.807  82.338  1.00  0.00     0.124 C 
ENDBRANCH   6  31
TORSDOF 6
ENDMDL
MODEL 2
REMARK VINA RESULT: -8.725541279      1.562      1.894
REMARK  6 active torsions:
REMARK  status: ('A' for Active; 'I' for Inactive)
REMARK    1  A    between atoms: C4_4  and  N1_5 
REMARK    2  A    between atoms: N1_5  and  C5_7 
REMARK    3  A    between atoms: C7_9  and  S1_10 
REMARK    4  A    between atoms: S1_10  and  C8_11 
REMARK    5  A    between atoms: C9_12  and  N2_13 
REMARK    6  A    between atoms: C14_25  and  N4_26 
ROOT
HETATM    1  C5  UNL     1     -78.397 -20.058  86.392  1.00  0.00     0.039 A 
HETATM    2  C6  UNL     1     -77.187 -20.007  87.070  1.00  0.00     0.066 A 
HETATM    3  C7  UNL     1     -76.006 -19.545  86.470  1.00  0.00     0.078 A 
HETATM    4  N3  UNL     1     -76.121 -19.157  85.196  1.00  0.00    -0.337 N 
ATOM      5  H3  UNL     1     -75.276 -18.818  84.737  1.00  0.00     0.168 HD
HETATM    6  C14 UNL     1     -77.245 -19.172  84.468  1.00  0.00     0.106 A 
HETATM    7  C19 UNL     1     -78.412 -19.636  85.085  1.00  0.00     0.078 A 
ENDROOT
BRANCH   3   8
HETATM    8  S1  UNL     1     -74.497 -19.491  87.398  1.00  0.00    -0.068 SA
BRANCH   8   9
HETATM    9  C8  UNL     1     -73.927 -17.888  87.842  1.00  0.00     0.063 A 
HETATM   10  C9  UNL     1     -73.209 -17.104  86.986  1.00  0.00     0.123 A 
HETATM   11  C10 UNL     1     -72.835 -15.799  87.318  1.00  0.00     0.063 A 
HETATM   12  C11 UNL     1     -73.170 -15.259  88.520  1.00  0.00     0.059 A 
HETATM   13 CL1  UNL     1     -72.679 -13.612  88.900  1.00  0.00    -0.082 Cl
HETATM   14  C12 UNL     1     -73.887 -16.019  89.409  1.00  0.00     0.079 A 
HETATM   15 CL2  UNL     1     -74.316 -15.322  90.956  1.00  0.00    -0.081 Cl
HETATM   16  C13 UNL     1     -74.258 -17.327  89.061  1.00  0.00     0.077 A 
HETATM   17 CL3  UNL     1     -75.133 -18.244  90.248  1.00  0.00    -0.081 Cl
BRANCH  10  18
HETATM   18  N2  UNL     1     -72.733 -17.591  85.750  1.00  0.00    -0.114 N 
HETATM   19  O1  UNL     1     -71.550 -18.075  85.746  1.00  0.00    -0.532 OA
HETATM   20  O2  UNL     1     -73.450 -17.577  84.612  1.00  0.00    -0.532 OA
ENDBRANCH  10  18
ENDBRANCH   8   9
ENDBRANCH   3   8
BRANCH   1  21
HETATM   21  N1  UNL     1     -79.571 -20.528  87.024  1.00  0.00    -0.341 N 
ATOM     22  H1  UNL     1     -79.527 -20.762  88.016  1.00  0.00     0.167 HD
BRANCH  21  23
HETATM   23  C4  UNL     1     -80.696 -20.674  86.408  1.00  0.00     0.122 A 
HETATM   24  C3  UNL     1     -81.075 -21.833  85.772  1.00  0.00     0.075 A 
HETATM   25  C2  UNL     1     -82.336 -21.641  85.215  1.00  0.00     0.025 A 
HETATM   26  C1  UNL     1     -83.080 -22.672  84.446  1.00  0.00     0.070 C 
HETATM   27  N6  UNL     1     -82.688 -20.383  85.523  1.00  0.00    -0.304 N 
HETATM   28  N5  UNL     1     -81.712 -19.809  86.232  1.00  0.00    -0.285 N 
ATOM     29  H6  UNL     1     -83.565 -19.935  85.256  1.00  0.00     0.186 HD
ATOM     30  H5  UNL     1     -81.733 -18.853  86.589  1.00  0.00     0.188 HD
ENDBRANCH  21  23
ENDBRANCH   1  21
BRANCH   6  31
HETATM   31  N4  UNL     1     -77.294 -18.742  83.116  1.00  0.00    -0.367 N 
HETATM   32  C15 UNL     1     -76.156 -18.343  82.311  1.00  0.00     0.124 C 
HETATM   33  C16 UNL     1     -76.680 -17.323  81.329  1.00  0.00     0.021 C 
HETATM   34  C17 UNL     1     -78.106 -17.727  81.139  1.00  0.00     0.021 C 
HETATM   35  C18 UNL     1     -78.472 -18.623  82.293  1.00  0.00     0.124 C 
ENDBRANCH   6  31
TORSDOF 6
ENDMDL
MODEL 3
REMARK VINA RESULT: -8.578059378      2.419      5.618
REMARK  6 active torsions:
REMARK  status: ('A' for Active; 'I' for Inactive)
REMARK    1  A    between atoms: C4_4  and  N1_5 
REMARK    2  A    between atoms: N1_5  and  C5_7 
REMARK    3  A    between atoms: C7_9  and  S1_10 
REMARK    4  A    between atoms: S1_10  and  C8_11 
REMARK    5  A    between atoms: C9_12  and  N2_13 
REMARK    6  A    between atoms: C14_25  and  N4_26 
ROOT
HETATM    1  C5  UNL     1     -78.677 -19.250  84.035  1.00  0.00     0.039 A 
HETATM    2  C6  UNL     1     -77.424 -19.327  84.626  1.00  0.00     0.066 A 
HETATM    3  C7  UNL     1     -77.231 -19.840  85.918  1.00  0.00     0.078 A 
HETATM    4  N3  UNL     1     -78.337 -20.251  86.546  1.00  0.00    -0.337 N 
ATOM      5  H3  UNL     1     -78.223 -20.626  87.487  1.00  0.00     0.168 HD
HETATM    6  C14 UNL     1     -79.581 -20.213  86.052  1.00  0.00     0.106 A 
HETATM    7  C19 UNL     1     -79.753 -19.699  84.762  1.00  0.00     0.078 A 
ENDROOT
BRANCH   3   8
HETATM    8  S1  UNL     1     -75.601 -19.924  86.610  1.00  0.00    -0.068 SA
BRANCH   8   9
HETATM    9  C8  UNL     1     -75.235 -18.740  87.857  1.00  0.00     0.063 A 
HETATM   10  C9  UNL     1     -75.301 -19.036  89.188  1.00  0.00     0.123 A 
HETATM   11  C10 UNL     1     -74.925 -18.114  90.168  1.00  0.00     0.063 A 
HETATM   12  C11 UNL     1     -74.482 -16.873  89.830  1.00  0.00     0.059 A 
HETATM   13 CL1  UNL     1     -74.019 -15.741  91.096  1.00  0.00    -0.082 Cl
HETATM   14  C12 UNL     1     -74.407 -16.538  88.502  1.00  0.00     0.079 A 
HETATM   15 CL2  UNL     1     -73.838 -14.941  88.069  1.00  0.00    -0.081 Cl
HETATM   16  C13 UNL     1     -74.786 -17.475  87.528  1.00  0.00     0.077 A 
HETATM   17 CL3  UNL     1     -74.699 -16.971  85.869  1.00  0.00    -0.081 Cl
BRANCH  10  18
HETATM   18  N2  UNL     1     -75.827 -20.259  89.655  1.00  0.00    -0.114 N 
HETATM   19  O1  UNL     1     -75.012 -21.034  90.263  1.00  0.00    -0.532 OA
HETATM   20  O2  UNL     1     -77.110 -20.632  89.499  1.00  0.00    -0.532 OA
ENDBRANCH  10  18
ENDBRANCH   8   9
ENDBRANCH   3   8
BRANCH   1  21
HETATM   21  N1  UNL     1     -78.840 -18.729  82.730  1.00  0.00    -0.341 N 
ATOM     22  H1  UNL     1     -79.766 -18.767  82.305  1.00  0.00     0.167 HD
BRANCH  21  23
HETATM   23  C4  UNL     1     -77.873 -18.208  82.051  1.00  0.00     0.122 A 
HETATM   24  C3  UNL     1     -76.546 -18.500  82.262  1.00  0.00     0.075 A 
HETATM   25  C2  UNL     1     -75.782 -17.764  81.362  1.00  0.00     0.025 A 
HETATM   26  C1  UNL     1     -74.299 -17.812  81.283  1.00  0.00     0.070 C 
HETATM   27  N6  UNL     1     -76.654 -17.049  80.635  1.00  0.00    -0.304 N 
HETATM   28  N5  UNL     1     -77.898 -17.314  81.046  1.00  0.00    -0.285 N 
ATOM     29  H6  UNL     1     -76.407 -16.403  79.885  1.00  0.00     0.186 HD
ATOM     30  H5  UNL     1     -78.744 -16.898  80.655  1.00  0.00     0.188 HD
ENDBRANCH  21  23
ENDBRANCH   1  21
BRANCH   6  31
HETATM   31  N4  UNL     1     -80.713 -20.670  86.777  1.00  0.00    -0.367 N 
HETATM   32  C15 UNL     1     -81.819 -21.432  86.230  1.00  0.00     0.124 C 
HETATM   33  C16 UNL     1     -83.028 -21.056  87.051  1.00  0.00     0.021 C 
HETATM   34  C17 UNL     1     -82.447 -20.715  88.386  1.00  0.00     0.021 C 
HETATM   35  C18 UNL     1     -80.976 -20.468  88.180  1.00  0.00     0.124 C 
ENDBRANCH   6  31
TORSDOF 6
ENDMDL
MODEL 4
REMARK VINA RESULT: -8.523084649      4.052      5.703
REMARK  6 active torsions:
REMARK  status: ('A' for Active; 'I' for Inactive)
REMARK    1  A    between atoms: C4_4  and  N1_5 
REMARK    2  A    between atoms: N1_5  and  C5_7 
REMARK    3  A    between atoms: C7_9  and  S1_10 
REMARK    4  A    between atoms: S1_10  and  C8_11 
REMARK    5  A    between atoms: C9_12  and  N2_13 
REMARK    6  A    between atoms: C14_25  and  N4_26 
ROOT
HETATM    1  C5  UNL     1     -77.862 -19.455  85.061  1.00  0.00     0.039 A 
HETATM    2  C6  UNL     1     -77.170 -18.510  84.317  1.00  0.00     0.066 A 
HETATM    3  C7  UNL     1     -76.085 -17.789  84.838  1.00  0.00     0.078 A 
HETATM    4  N3  UNL     1     -75.759 -18.071  86.103  1.00  0.00    -0.337 N 
ATOM      5  H3  UNL     1     -74.975 -17.559  86.505  1.00  0.00     0.168 HD
HETATM    6  C14 UNL     1     -76.370 -18.965  86.891  1.00  0.00     0.106 A 
HETATM    7  C19 UNL     1     -77.450 -19.674  86.353  1.00  0.00     0.078 A 
ENDROOT
BRANCH   3   8
HETATM    8  S1  UNL     1     -75.234 -16.605  83.829  1.00  0.00    -0.068 SA
BRANCH   8   9
HETATM    9  C8  UNL     1     -73.676 -17.118  83.194  1.00  0.00     0.063 A 
HETATM   10  C9  UNL     1     -72.495 -16.635  83.678  1.00  0.00     0.123 A 
HETATM   11  C10 UNL     1     -71.262 -17.113  83.226  1.00  0.00     0.063 A 
HETATM   12  C11 UNL     1     -71.192 -18.081  82.273  1.00  0.00     0.059 A 
HETATM   13 CL1  UNL     1     -69.619 -18.654  81.730  1.00  0.00    -0.082 Cl
HETATM   14  C12 UNL     1     -72.359 -18.587  81.759  1.00  0.00     0.079 A 
HETATM   15 CL2  UNL     1     -72.267 -19.831  80.533  1.00  0.00    -0.081 Cl
HETATM   16  C13 UNL     1     -73.591 -18.099  82.224  1.00  0.00     0.077 A 
HETATM   17 CL3  UNL     1     -75.026 -18.759  81.505  1.00  0.00    -0.081 Cl
BRANCH  10  18
HETATM   18  N2  UNL     1     -72.447 -15.571  84.604  1.00  0.00    -0.114 N 
HETATM   19  O1  UNL     1     -72.232 -14.407  84.121  1.00  0.00    -0.532 OA
HETATM   20  O2  UNL     1     -72.621 -15.721  85.929  1.00  0.00    -0.532 OA
ENDBRANCH  10  18
ENDBRANCH   8   9
ENDBRANCH   3   8
BRANCH   1  21
HETATM   21  N1  UNL     1     -78.951 -20.167  84.508  1.00  0.00    -0.341 N 
ATOM     22  H1  UNL     1     -78.773 -21.083  84.097  1.00  0.00     0.167 HD
BRANCH  21  23
HETATM   23  C4  UNL     1     -80.160 -19.714  84.498  1.00  0.00     0.122 A 
HETATM   24  C3  UNL     1     -81.058 -19.908  85.522  1.00  0.00     0.075 A 
HETATM   25  C2  UNL     1     -82.258 -19.292  85.182  1.00  0.00     0.025 A 
HETATM   26  C1  UNL     1     -83.471 -19.283  86.040  1.00  0.00     0.070 C 
HETATM   27  N6  UNL     1     -82.063 -18.746  83.971  1.00  0.00    -0.304 N 
HETATM   28  N5  UNL     1     -80.815 -18.999  83.565  1.00  0.00    -0.285 N 
ATOM     29  H6  UNL     1     -82.759 -18.221  83.442  1.00  0.00     0.186 HD
ATOM     30  H5  UNL     1     -80.415 -18.693  82.678  1.00  0.00     0.188 HD
ENDBRANCH  21  23
ENDBRANCH   1  21
BRANCH   6  31
HETATM   31  N4  UNL     1     -75.969 -19.216  88.229  1.00  0.00    -0.367 N 
HETATM   32  C15 UNL     1     -75.051 -18.404  89.006  1.00  0.00     0.124 C 
HETATM   33  C16 UNL     1     -74.368 -19.351  89.962  1.00  0.00     0.021 C 
HETATM   34  C17 UNL     1     -75.393 -20.417  90.185  1.00  0.00     0.021 C 
HETATM   35  C18 UNL     1     -76.394 -20.312  89.065  1.00  0.00     0.124 C 
ENDBRANCH   6  31
TORSDOF 6
ENDMDL
MODEL 5
REMARK VINA RESULT: -8.514006569      2.083      2.501
REMARK  6 active torsions:
REMARK  status: ('A' for Active; 'I' for Inactive)
REMARK    1  A    between atoms: C4_4  and  N1_5 
REMARK    2  A    between atoms: N1_5  and  C5_7 
REMARK    3  A    between atoms: C7_9  and  S1_10 
REMARK    4  A    between atoms: S1_10  and  C8_11 
REMARK    5  A    between atoms: C9_12  and  N2_13 
REMARK    6  A    between atoms: C14_25  and  N4_26 
ROOT
HETATM    1  C5  UNL     1     -79.345 -20.367  86.358  1.00  0.00     0.039 A 
HETATM    2  C6  UNL     1     -78.063 -20.353  86.890  1.00  0.00     0.066 A 
HETATM    3  C7  UNL     1     -76.950 -19.911  86.159  1.00  0.00     0.078 A 
HETATM    4  N3  UNL     1     -77.204 -19.505  84.911  1.00  0.00    -0.337 N 
ATOM      5  H3  UNL     1     -76.411 -19.181  84.359  1.00  0.00     0.168 HD
HETATM    6  C14 UNL     1     -78.405 -19.485  84.320  1.00  0.00     0.106 A 
HETATM    7  C19 UNL     1     -79.503 -19.929  85.066  1.00  0.00     0.078 A 
ENDROOT
BRANCH   3   8
HETATM    8  S1  UNL     1     -75.341 -19.904  86.903  1.00  0.00    -0.068 SA
BRANCH   8   9
HETATM    9  C8  UNL     1     -75.052 -18.643  88.094  1.00  0.00     0.063 A 
HETATM   10  C9  UNL     1     -75.094 -18.884  89.437  1.00  0.00     0.123 A 
HETATM   11  C10 UNL     1     -74.779 -17.896  90.374  1.00  0.00     0.063 A 
HETATM   12  C11 UNL     1     -74.422 -16.645  89.978  1.00  0.00     0.059 A 
HETATM   13 CL1  UNL     1     -74.033 -15.428  91.190  1.00  0.00    -0.082 Cl
HETATM   14  C12 UNL     1     -74.373 -16.364  88.637  1.00  0.00     0.079 A 
HETATM   15 CL2  UNL     1     -73.914 -14.753  88.130  1.00  0.00    -0.081 Cl
HETATM   16  C13 UNL     1     -74.690 -17.367  87.707  1.00  0.00     0.077 A 
HETATM   17 CL3  UNL     1     -74.643 -16.933  86.027  1.00  0.00    -0.081 Cl
BRANCH  10  18
HETATM   18  N2  UNL     1     -75.535 -20.118  89.961  1.00  0.00    -0.114 N 
HETATM   19  O1  UNL     1     -74.627 -20.929  90.349  1.00  0.00    -0.532 OA
HETATM   20  O2  UNL     1     -76.830 -20.465  90.074  1.00  0.00    -0.532 OA
ENDBRANCH  10  18
ENDBRANCH   8   9
ENDBRANCH   3   8
BRANCH   1  21
HETATM   21  N1  UNL     1     -80.448 -20.817  87.120  1.00  0.00    -0.341 N 
ATOM     22  H1  UNL     1     -80.277 -21.475  87.880  1.00  0.00     0.167 HD
BRANCH  21  23
HETATM   23  C4  UNL     1     -81.662 -20.434  86.902  1.00  0.00     0.122 A 
HETATM   24  C3  UNL     1     -82.242 -19.346  87.510  1.00  0.00     0.075 A 
HETATM   25  C2  UNL     1     -83.549 -19.225  87.049  1.00  0.00     0.025 A 
HETATM   26  C1  UNL     1     -84.497 -18.164  87.479  1.00  0.00     0.070 C 
HETATM   27  N6  UNL     1     -83.730 -20.233  86.182  1.00  0.00    -0.304 N 
HETATM   28  N5  UNL     1     -82.606 -20.952  86.096  1.00  0.00    -0.285 N 
ATOM     29  H6  UNL     1     -84.591 -20.422  85.669  1.00  0.00     0.186 HD
ATOM     30  H5  UNL     1     -82.482 -21.774  85.505  1.00  0.00     0.188 HD
ENDBRANCH  21  23
ENDBRANCH   1  21
BRANCH   6  31
HETATM   31  N4  UNL     1     -78.603 -19.038  82.987  1.00  0.00    -0.367 N 
HETATM   32  C15 UNL     1     -77.556 -18.734  82.031  1.00  0.00     0.124 C 
HETATM   33  C16 UNL     1     -78.116 -17.661  81.130  1.00  0.00     0.021 C 
HETATM   34  C17 UNL     1     -79.586 -17.933  81.141  1.00  0.00     0.021 C 
HETATM   35  C18 UNL     1     -79.868 -18.805  82.336  1.00  0.00     0.124 C 
ENDBRANCH   6  31
TORSDOF 6
ENDMDL
