MODEL 1
REMARK VINA RESULT: -7.833837786      0.000      0.000
REMARK  7 active torsions:
REMARK  status: ('A' for Active; 'I' for Inactive)
REMARK    1  A    between atoms: N1_2  and  C3_4 
REMARK    2  A    between atoms: N2_5  and  C4_7 
REMARK    3  A    between atoms: C5_9  and  C6_10 
REMARK    4  A    between atoms: C6_10  and  C7_11 
REMARK    5  A    between atoms: C13_19  and  N3_20 
REMARK    6  A    between atoms: C14_21  and  O1_22 
REMARK    7  A    between atoms: C17_26  and  O2_27 
ROOT
HETATM    1  C4  UNL     1     -96.204 -15.863  52.400  1.00  0.00     0.098 A 
HETATM    2  S1  UNL     1     -97.178 -17.226  52.426  1.00  0.00    -0.073 SA
HETATM    3  C5  UNL     1     -97.082 -17.675  50.714  1.00  0.00     0.018 A 
HETATM    4  C13 UNL     1     -96.286 -16.716  50.220  1.00  0.00     0.080 A 
HETATM    5  C22 UNL     1     -95.817 -15.757  51.093  1.00  0.00     0.106 A 
HETATM    6  C23 UNL     1     -94.961 -14.625  50.642  1.00  0.00     0.104 C 
HETATM    7  N4  UNL     1     -94.289 -13.710  50.304  1.00  0.00    -0.191 NA
ENDROOT
BRANCH   1   8
HETATM    8  N2  UNL     1     -95.809 -14.944  53.472  1.00  0.00    -0.345 N 
HETATM    9  C3  UNL     1     -95.359 -15.516  54.543  1.00  0.00     0.178 C 
ATOM     10  H2  UNL     1     -95.883 -13.931  53.381  1.00  0.00     0.167 HD
BRANCH   9  11
HETATM   11  N1  UNL     1     -94.941 -14.761  55.655  1.00  0.00    -0.386 N 
HETATM   12  C1  UNL     1     -93.831 -15.173  56.461  1.00  0.00     0.149 C 
HETATM   13  C2  UNL     1     -95.660 -13.546  55.982  1.00  0.00     0.149 C 
ENDBRANCH   9  11
ENDBRANCH   1   8
BRANCH   4  14
HETATM   14  N3  UNL     1     -95.978 -16.571  48.784  1.00  0.00    -0.269 N 
HETATM   15  C14 UNL     1     -94.946 -17.120  48.130  1.00  0.00     0.156 A 
HETATM   16  C15 UNL     1     -95.043 -16.852  46.789  1.00  0.00     0.008 A 
HETATM   17  C16 UNL     1     -96.179 -16.111  46.643  1.00  0.00     0.010 A 
HETATM   18  C21 UNL     1     -94.232 -17.230  45.618  1.00  0.00     0.073 C 
HETATM   19  C17 UNL     1     -96.747 -15.948  47.897  1.00  0.00     0.156 A 
HETATM   20  C18 UNL     1     -96.661 -15.582  45.341  1.00  0.00     0.113 C 
HETATM   21  C19 UNL     1     -95.695 -15.759  44.256  1.00  0.00     0.095 C 
HETATM   22  F1  UNL     1     -95.924 -15.132  43.074  1.00  0.00    -0.211 F 
HETATM   23  C20 UNL     1     -94.609 -16.503  44.401  1.00  0.00     0.016 C 
BRANCH  15  24
HETATM   24  O1  UNL     1     -93.945 -17.847  48.735  1.00  0.00    -0.345 OA
ATOM     25  H1  UNL     1     -93.830 -18.784  48.632  1.00  0.00     0.219 HD
ENDBRANCH  15  24
BRANCH  19  26
HETATM   26  O2  UNL     1     -97.920 -15.246  48.138  1.00  0.00    -0.345 OA
ATOM     27  H2  UNL     1     -98.665 -15.147  47.557  1.00  0.00     0.219 HD
ENDBRANCH  19  26
ENDBRANCH   4  14
BRANCH   3  28
HETATM   28  C6  UNL     1     -97.733 -18.906  50.196  1.00  0.00     0.088 C 
BRANCH  28  29
HETATM   29  C7  UNL     1     -99.126 -18.763  49.782  1.00  0.00    -0.032 A 
HETATM   30  C8  UNL     1     -99.329 -18.447  48.403  1.00  0.00     0.011 A 
HETATM   31  C9  UNL     1    -100.533 -18.237  47.855  1.00  0.00     0.024 A 
HETATM   32  C10 UNL     1    -101.680 -18.320  48.626  1.00  0.00     0.035 A 
HETATM   33 CL1  UNL     1    -103.217 -18.031  47.843  1.00  0.00    -0.084 Cl
HETATM   34  C11 UNL     1    -101.540 -18.619  49.944  1.00  0.00     0.048 A 
HETATM   35  C12 UNL     1    -100.267 -18.838  50.503  1.00  0.00     0.042 A 
HETATM   36 CL2  UNL     1    -100.194 -19.333  52.182  1.00  0.00    -0.084 Cl
ENDBRANCH  28  29
ENDBRANCH   3  28
TORSDOF 7
ENDMDL
MODEL 2
REMARK VINA RESULT: -7.713939781      3.632      6.594
REMARK  7 active torsions:
REMARK  status: ('A' for Active; 'I' for Inactive)
REMARK    1  A    between atoms: N1_2  and  C3_4 
REMARK    2  A    between atoms: N2_5  and  C4_7 
REMARK    3  A    between atoms: C5_9  and  C6_10 
REMARK    4  A    between atoms: C6_10  and  C7_11 
REMARK    5  A    between atoms: C13_19  and  N3_20 
REMARK    6  A    between atoms: C14_21  and  O1_22 
REMARK    7  A    between atoms: C17_26  and  O2_27 
ROOT
HETATM    1  C4  UNL     1     -99.228 -17.996  48.542  1.00  0.00     0.098 A 
HETATM    2  S1  UNL     1     -98.602 -18.242  50.076  1.00  0.00    -0.073 SA
HETATM    3  C5  UNL     1     -97.070 -17.370  49.900  1.00  0.00     0.018 A 
HETATM    4  C13 UNL     1     -97.140 -16.937  48.633  1.00  0.00     0.080 A 
HETATM    5  C22 UNL     1     -98.268 -17.258  47.907  1.00  0.00     0.106 A 
HETATM    6  C23 UNL     1     -98.431 -16.864  46.480  1.00  0.00     0.104 C 
HETATM    7  N4  UNL     1     -98.577 -16.571  45.342  1.00  0.00    -0.191 NA
ENDROOT
BRANCH   1   8
HETATM    8  N2  UNL     1    -100.491 -18.433  47.938  1.00  0.00    -0.345 N 
HETATM    9  C3  UNL     1    -101.497 -18.479  48.752  1.00  0.00     0.178 C 
ATOM     10  H2  UNL     1    -100.571 -18.681  46.952  1.00  0.00     0.167 HD
BRANCH   9  11
HETATM   11  N1  UNL     1    -102.773 -18.879  48.314  1.00  0.00    -0.386 N 
HETATM   12  C1  UNL     1    -103.064 -20.251  48.018  1.00  0.00     0.149 C 
HETATM   13  C2  UNL     1    -103.804 -17.873  48.158  1.00  0.00     0.149 C 
ENDBRANCH   9  11
ENDBRANCH   1   8
BRANCH   4  14
HETATM   14  N3  UNL     1     -96.038 -16.237  47.948  1.00  0.00    -0.269 N 
HETATM   15  C14 UNL     1     -95.917 -14.913  47.778  1.00  0.00     0.156 A 
HETATM   16  C15 UNL     1     -94.714 -14.622  47.189  1.00  0.00     0.008 A 
HETATM   17  C16 UNL     1     -94.097 -15.825  46.999  1.00  0.00     0.010 A 
HETATM   18  C21 UNL     1     -94.045 -13.364  46.813  1.00  0.00     0.073 C 
HETATM   19  C17 UNL     1     -94.938 -16.816  47.480  1.00  0.00     0.156 A 
HETATM   20  C18 UNL     1     -92.763 -15.980  46.364  1.00  0.00     0.113 C 
HETATM   21  C19 UNL     1     -92.258 -14.737  45.776  1.00  0.00     0.095 C 
HETATM   22  F1  UNL     1     -91.157 -14.794  44.986  1.00  0.00    -0.211 F 
HETATM   23  C20 UNL     1     -92.851 -13.572  45.990  1.00  0.00     0.016 C 
BRANCH  15  24
HETATM   24  O1  UNL     1     -96.873 -13.995  48.151  1.00  0.00    -0.345 OA
ATOM     25  H1  UNL     1     -96.690 -13.205  48.646  1.00  0.00     0.219 HD
ENDBRANCH  15  24
BRANCH  19  26
HETATM   26  O2  UNL     1     -94.640 -18.171  47.455  1.00  0.00    -0.345 OA
ATOM     27  H2  UNL     1     -94.305 -18.679  46.724  1.00  0.00     0.219 HD
ENDBRANCH  19  26
ENDBRANCH   4  14
BRANCH   3  28
HETATM   28  C6  UNL     1     -96.130 -17.211  51.041  1.00  0.00     0.088 C 
BRANCH  28  29
HETATM   29  C7  UNL     1     -95.476 -15.910  51.149  1.00  0.00    -0.032 A 
HETATM   30  C8  UNL     1     -96.322 -14.827  51.542  1.00  0.00     0.011 A 
HETATM   31  C9  UNL     1     -95.907 -13.558  51.652  1.00  0.00     0.024 A 
HETATM   32  C10 UNL     1     -94.592 -13.223  51.381  1.00  0.00     0.035 A 
HETATM   33 CL1  UNL     1     -94.122 -11.546  51.544  1.00  0.00    -0.084 Cl
HETATM   34  C11 UNL     1     -93.747 -14.218  51.003  1.00  0.00     0.048 A 
HETATM   35  C12 UNL     1     -94.199 -15.546  50.895  1.00  0.00     0.042 A 
HETATM   36 CL2  UNL     1     -93.011 -16.778  50.517  1.00  0.00    -0.084 Cl
ENDBRANCH  28  29
ENDBRANCH   3  28
TORSDOF 7
ENDMDL
MODEL 3
REMARK VINA RESULT: -7.682218205      3.585      6.413
REMARK  7 active torsions:
REMARK  status: ('A' for Active; 'I' for Inactive)
REMARK    1  A    between atoms: N1_2  and  C3_4 
REMARK    2  A    between atoms: N2_5  and  C4_7 
REMARK    3  A    between atoms: C5_9  and  C6_10 
REMARK    4  A    between atoms: C6_10  and  C7_11 
REMARK    5  A    between atoms: C13_19  and  N3_20 
REMARK    6  A    between atoms: C14_21  and  O1_22 
REMARK    7  A    between atoms: C17_26  and  O2_27 
ROOT
HETATM    1  C4  UNL     1     -99.381 -18.069  48.584  1.00  0.00     0.098 A 
HETATM    2  S1  UNL     1     -98.754 -18.277  50.124  1.00  0.00    -0.073 SA
HETATM    3  C5  UNL     1     -97.222 -17.412  49.925  1.00  0.00     0.018 A 
HETATM    4  C13 UNL     1     -97.292 -17.010  48.648  1.00  0.00     0.080 A 
HETATM    5  C22 UNL     1     -98.421 -17.348  47.930  1.00  0.00     0.106 A 
HETATM    6  C23 UNL     1     -98.585 -16.989  46.494  1.00  0.00     0.104 C 
HETATM    7  N4  UNL     1     -98.731 -16.723  45.349  1.00  0.00    -0.191 NA
ENDROOT
BRANCH   1   8
HETATM    8  N2  UNL     1    -100.645 -18.518  47.992  1.00  0.00    -0.345 N 
HETATM    9  C3  UNL     1    -101.660 -18.502  48.796  1.00  0.00     0.178 C 
ATOM     10  H2  UNL     1    -100.719 -18.821  47.021  1.00  0.00     0.167 HD
BRANCH   9  11
HETATM   11  N1  UNL     1    -102.938 -18.905  48.367  1.00  0.00    -0.386 N 
HETATM   12  C1  UNL     1    -103.197 -20.256  47.964  1.00  0.00     0.149 C 
HETATM   13  C2  UNL     1    -104.005 -17.925  48.332  1.00  0.00     0.149 C 
ENDBRANCH   9  11
ENDBRANCH   1   8
BRANCH   4  14
HETATM   14  N3  UNL     1     -96.190 -16.328  47.944  1.00  0.00    -0.269 N 
HETATM   15  C14 UNL     1     -95.123 -16.910  47.380  1.00  0.00     0.156 A 
HETATM   16  C15 UNL     1     -94.365 -15.972  46.728  1.00  0.00     0.008 A 
HETATM   17  C16 UNL     1     -95.009 -14.784  46.917  1.00  0.00     0.010 A 
HETATM   18  C21 UNL     1     -93.136 -16.044  45.918  1.00  0.00     0.073 C 
HETATM   19  C17 UNL     1     -96.143 -15.028  47.675  1.00  0.00     0.156 A 
HETATM   20  C18 UNL     1     -94.519 -13.483  46.390  1.00  0.00     0.113 C 
HETATM   21  C19 UNL     1     -93.172 -13.565  45.822  1.00  0.00     0.095 C 
HETATM   22  F1  UNL     1     -92.531 -12.412  45.505  1.00  0.00    -0.211 F 
HETATM   23  C20 UNL     1     -92.568 -14.726  45.619  1.00  0.00     0.016 C 
BRANCH  15  24
HETATM   24  O1  UNL     1     -94.847 -18.258  47.454  1.00  0.00    -0.345 OA
ATOM     25  H1  UNL     1     -94.183 -18.695  46.935  1.00  0.00     0.219 HD
ENDBRANCH  15  24
BRANCH  19  26
HETATM   26  O2  UNL     1     -97.048 -14.050  48.064  1.00  0.00    -0.345 OA
ATOM     27  H2  UNL     1     -96.897 -13.115  48.131  1.00  0.00     0.219 HD
ENDBRANCH  19  26
ENDBRANCH   4  14
BRANCH   3  28
HETATM   28  C6  UNL     1     -96.281 -17.225  51.061  1.00  0.00     0.088 C 
BRANCH  28  29
HETATM   29  C7  UNL     1     -95.578 -15.946  51.100  1.00  0.00    -0.032 A 
HETATM   30  C8  UNL     1     -96.368 -14.821  51.488  1.00  0.00     0.011 A 
HETATM   31  C9  UNL     1     -95.905 -13.566  51.540  1.00  0.00     0.024 A 
HETATM   32  C10 UNL     1     -94.590 -13.288  51.209  1.00  0.00     0.035 A 
HETATM   33 CL1  UNL     1     -94.055 -11.625  51.298  1.00  0.00    -0.084 Cl
HETATM   34  C11 UNL     1     -93.796 -14.325  50.833  1.00  0.00     0.048 A 
HETATM   35  C12 UNL     1     -94.299 -15.638  50.787  1.00  0.00     0.042 A 
HETATM   36 CL2  UNL     1     -93.171 -16.925  50.406  1.00  0.00    -0.084 Cl
ENDBRANCH  28  29
ENDBRANCH   3  28
TORSDOF 7
ENDMDL
MODEL 4
REMARK VINA RESULT: -7.445864448      3.088      6.243
REMARK  7 active torsions:
REMARK  status: ('A' for Active; 'I' for Inactive)
REMARK    1  A    between atoms: N1_2  and  C3_4 
REMARK    2  A    between atoms: N2_5  and  C4_7 
REMARK    3  A    between atoms: C5_9  and  C6_10 
REMARK    4  A    between atoms: C6_10  and  C7_11 
REMARK    5  A    between atoms: C13_19  and  N3_20 
REMARK    6  A    between atoms: C14_21  and  O1_22 
REMARK    7  A    between atoms: C17_26  and  O2_27 
ROOT
HETATM    1  C4  UNL     1     -99.248 -17.930  48.597  1.00  0.00     0.098 A 
HETATM    2  S1  UNL     1     -98.591 -18.407  50.062  1.00  0.00    -0.073 SA
HETATM    3  C5  UNL     1     -97.029 -17.579  49.954  1.00  0.00     0.018 A 
HETATM    4  C13 UNL     1     -97.115 -16.974  48.761  1.00  0.00     0.080 A 
HETATM    5  C22 UNL     1     -98.275 -17.150  48.035  1.00  0.00     0.106 A 
HETATM    6  C23 UNL     1     -98.461 -16.559  46.682  1.00  0.00     0.104 C 
HETATM    7  N4  UNL     1     -98.626 -16.108  45.599  1.00  0.00    -0.191 NA
ENDROOT
BRANCH   1   8
HETATM    8  N2  UNL     1    -100.544 -18.231  47.982  1.00  0.00    -0.345 N 
HETATM    9  C3  UNL     1    -101.489 -18.527  48.817  1.00  0.00     0.178 C 
ATOM     10  H2  UNL     1    -100.691 -18.210  46.972  1.00  0.00     0.167 HD
BRANCH   9  11
HETATM   11  N1  UNL     1    -102.787 -18.837  48.372  1.00  0.00    -0.386 N 
HETATM   12  C1  UNL     1    -103.173 -20.187  48.083  1.00  0.00     0.149 C 
HETATM   13  C2  UNL     1    -103.742 -17.761  48.201  1.00  0.00     0.149 C 
ENDBRANCH   9  11
ENDBRANCH   1   8
BRANCH   4  14
HETATM   14  N3  UNL     1     -96.004 -16.230  48.140  1.00  0.00    -0.269 N 
HETATM   15  C14 UNL     1     -95.846 -14.899  48.121  1.00  0.00     0.156 A 
HETATM   16  C15 UNL     1     -94.645 -14.576  47.548  1.00  0.00     0.008 A 
HETATM   17  C16 UNL     1     -94.066 -15.765  47.210  1.00  0.00     0.010 A 
HETATM   18  C21 UNL     1     -93.946 -13.300  47.306  1.00  0.00     0.073 C 
HETATM   19  C17 UNL     1     -94.928 -16.782  47.589  1.00  0.00     0.156 A 
HETATM   20  C18 UNL     1     -92.746 -15.882  46.537  1.00  0.00     0.113 C 
HETATM   21  C19 UNL     1     -92.215 -14.594  46.086  1.00  0.00     0.095 C 
HETATM   22  F1  UNL     1     -91.127 -14.589  45.275  1.00  0.00    -0.211 F 
HETATM   23  C20 UNL     1     -92.770 -13.445  46.443  1.00  0.00     0.016 C 
BRANCH  15  24
HETATM   24  O1  UNL     1     -96.770 -14.004  48.614  1.00  0.00    -0.345 OA
ATOM     25  H1  UNL     1     -97.458 -13.607  48.094  1.00  0.00     0.219 HD
ENDBRANCH  15  24
BRANCH  19  26
HETATM   26  O2  UNL     1     -94.670 -18.132  47.404  1.00  0.00    -0.345 OA
ATOM     27  H2  UNL     1     -95.132 -18.869  47.787  1.00  0.00     0.219 HD
ENDBRANCH  19  26
ENDBRANCH   4  14
BRANCH   3  28
HETATM   28  C6  UNL     1     -96.051 -17.612  51.075  1.00  0.00     0.088 C 
BRANCH  28  29
HETATM   29  C7  UNL     1     -96.302 -16.674  52.165  1.00  0.00    -0.032 A 
HETATM   30  C8  UNL     1     -96.132 -15.293  51.840  1.00  0.00     0.011 A 
HETATM   31  C9  UNL     1     -96.277 -14.295  52.721  1.00  0.00     0.024 A 
HETATM   32  C10 UNL     1     -96.612 -14.564  54.037  1.00  0.00     0.035 A 
HETATM   33 CL1  UNL     1     -96.782 -13.211  55.133  1.00  0.00    -0.084 Cl
HETATM   34  C11 UNL     1     -96.786 -15.862  54.397  1.00  0.00     0.048 A 
HETATM   35  C12 UNL     1     -96.631 -16.898  53.457  1.00  0.00     0.042 A 
HETATM   36 CL2  UNL     1     -96.991 -18.531  53.983  1.00  0.00    -0.084 Cl
ENDBRANCH  28  29
ENDBRANCH   3  28
TORSDOF 7
ENDMDL
MODEL 5
REMARK VINA RESULT: -7.411244034      4.053      6.984
REMARK  7 active torsions:
REMARK  status: ('A' for Active; 'I' for Inactive)
REMARK    1  A    between atoms: N1_2  and  C3_4 
REMARK    2  A    between atoms: N2_5  and  C4_7 
REMARK    3  A    between atoms: C5_9  and  C6_10 
REMARK    4  A    between atoms: C6_10  and  C7_11 
REMARK    5  A    between atoms: C13_19  and  N3_20 
REMARK    6  A    between atoms: C14_21  and  O1_22 
REMARK    7  A    between atoms: C17_26  and  O2_27 
ROOT
HETATM    1  C4  UNL     1     -93.427 -13.573  45.461  1.00  0.00     0.098 A 
HETATM    2  S1  UNL     1     -94.054 -14.898  44.649  1.00  0.00    -0.073 SA
HETATM    3  C5  UNL     1     -94.723 -15.784  46.029  1.00  0.00     0.018 A 
HETATM    4  C13 UNL     1     -94.407 -14.982  47.055  1.00  0.00     0.080 A 
HETATM    5  C22 UNL     1     -93.726 -13.816  46.773  1.00  0.00     0.106 A 
HETATM    6  C23 UNL     1     -93.290 -12.873  47.840  1.00  0.00     0.104 C 
HETATM    7  N4  UNL     1     -92.925 -12.115  48.673  1.00  0.00    -0.191 NA
ENDROOT
BRANCH   1   8
HETATM    8  N2  UNL     1     -92.712 -12.393  44.965  1.00  0.00    -0.345 N 
HETATM    9  C3  UNL     1     -92.399 -12.432  43.709  1.00  0.00     0.178 C 
ATOM     10  H2  UNL     1     -92.479 -11.601  45.564  1.00  0.00     0.167 HD
BRANCH   9  11
HETATM   11  N1  UNL     1     -91.711 -11.369  43.094  1.00  0.00    -0.386 N 
HETATM   12  C1  UNL     1     -91.288 -11.447  41.727  1.00  0.00     0.149 C 
HETATM   13  C2  UNL     1     -91.428 -10.180  43.870  1.00  0.00     0.149 C 
ENDBRANCH   9  11
ENDBRANCH   1   8
BRANCH   4  14
HETATM   14  N3  UNL     1     -94.650 -15.329  48.468  1.00  0.00    -0.269 N 
HETATM   15  C14 UNL     1     -93.876 -16.098  49.246  1.00  0.00     0.156 A 
HETATM   16  C15 UNL     1     -94.362 -16.112  50.527  1.00  0.00     0.008 A 
HETATM   17  C16 UNL     1     -95.472 -15.319  50.508  1.00  0.00     0.010 A 
HETATM   18  C21 UNL     1     -93.903 -16.739  51.780  1.00  0.00     0.073 C 
HETATM   19  C17 UNL     1     -95.633 -14.840  49.217  1.00  0.00     0.156 A 
HETATM   20  C18 UNL     1     -96.330 -15.066  51.695  1.00  0.00     0.113 C 
HETATM   21  C19 UNL     1     -95.988 -15.910  52.841  1.00  0.00     0.095 C 
HETATM   22  F1  UNL     1     -96.827 -15.928  53.907  1.00  0.00    -0.211 F 
HETATM   23  C20 UNL     1     -94.892 -16.655  52.858  1.00  0.00     0.016 C 
BRANCH  15  24
HETATM   24  O1  UNL     1     -92.757 -16.768  48.801  1.00  0.00    -0.345 OA
ATOM     25  H1  UNL     1     -92.768 -17.430  48.121  1.00  0.00     0.219 HD
ENDBRANCH  15  24
BRANCH  19  26
HETATM   26  O2  UNL     1     -96.661 -13.997  48.820  1.00  0.00    -0.345 OA
ATOM     27  H2  UNL     1     -97.471 -14.235  48.384  1.00  0.00     0.219 HD
ENDBRANCH  19  26
ENDBRANCH   4  14
BRANCH   3  28
HETATM   28  C6  UNL     1     -95.486 -17.047  45.846  1.00  0.00     0.088 C 
BRANCH  28  29
HETATM   29  C7  UNL     1     -96.930 -16.951  46.046  1.00  0.00    -0.032 A 
HETATM   30  C8  UNL     1     -97.669 -16.422  44.944  1.00  0.00     0.011 A 
HETATM   31  C9  UNL     1     -98.993 -16.222  44.961  1.00  0.00     0.024 A 
HETATM   32  C10 UNL     1     -99.736 -16.532  46.087  1.00  0.00     0.035 A 
HETATM   33 CL1  UNL     1    -101.461 -16.243  46.037  1.00  0.00    -0.084 Cl
HETATM   34  C11 UNL     1     -99.079 -17.039  47.162  1.00  0.00     0.048 A 
HETATM   35  C12 UNL     1     -97.687 -17.245  47.126  1.00  0.00     0.042 A 
HETATM   36 CL2  UNL     1     -96.945 -18.013  48.516  1.00  0.00    -0.084 Cl
ENDBRANCH  28  29
ENDBRANCH   3  28
TORSDOF 7
ENDMDL
