MODEL 1
REMARK VINA RESULT: -6.953206906      0.000      0.000
REMARK  7 active torsions:
REMARK  status: ('A' for Active; 'I' for Inactive)
REMARK    1  A    between atoms: C2_2  and  C4_4 
REMARK    2  A    between atoms: C2_2  and  S1_6 
REMARK    3  A    between atoms: S1_6  and  C5_7 
REMARK    4  A    between atoms: C6_8  and  C7_9 
REMARK    5  A    between atoms: N1_10  and  C8_12 
REMARK    6  A    between atoms: C9_15  and  O1_16 
REMARK    7  A    between atoms: C13_23  and  O2_24 
ROOT
HETATM    1  C5  UNL     1     -98.066 -17.809  47.811  1.00  0.00     0.033 A 
HETATM    2  C6  UNL     1     -99.401 -17.648  47.520  1.00  0.00    -0.001 A 
HETATM    3  C11 UNL     1     -99.767 -16.984  46.342  1.00  0.00     0.036 A 
HETATM    4  C12 UNL     1     -98.785 -16.508  45.500  1.00  0.00     0.046 A 
HETATM    5 BR1  UNL     1     -99.293 -15.601  43.893  1.00  0.00    -0.048 Br
HETATM    6  C13 UNL     1     -97.448 -16.663  45.778  1.00  0.00     0.101 A 
HETATM    7  C14 UNL     1     -97.101 -17.325  46.952  1.00  0.00     0.063 A 
HETATM    8 BR2  UNL     1     -95.239 -17.533  47.300  1.00  0.00    -0.047 Br
ENDROOT
BRANCH   2   9
HETATM    9  C7  UNL     1    -100.490 -18.155  48.359  1.00  0.00     0.103 C 
HETATM   10  N1  UNL     1    -101.697 -18.055  47.972  1.00  0.00    -0.346 N 
ATOM     11  H1  UNL     1    -101.907 -17.619  47.074  1.00  0.00     0.167 HD
BRANCH  10  12
HETATM   12  C8  UNL     1    -102.773 -18.554  48.796  1.00  0.00     0.150 A 
HETATM   13  N2  UNL     1    -103.116 -18.184  50.021  1.00  0.00    -0.317 N 
HETATM   14  C9  UNL     1    -104.118 -18.750  50.610  1.00  0.00     0.148 A 
ATOM     15  H2  UNL     1    -102.590 -17.452  50.500  1.00  0.00     0.170 HD
HETATM   16  C10 UNL     1    -104.796 -19.726  49.925  1.00  0.00     0.109 A 
HETATM   17  S2  UNL     1    -103.931 -19.771  48.450  1.00  0.00    -0.061 SA
BRANCH  14  18
HETATM   18  O1  UNL     1    -104.524 -18.388  51.921  1.00  0.00    -0.346 OA
ATOM     19  H1  UNL     1    -104.518 -19.009  52.640  1.00  0.00     0.219 HD
ENDBRANCH  14  18
ENDBRANCH  10  12
ENDBRANCH   2   9
BRANCH   1  20
HETATM   20  S1  UNL     1     -97.612 -18.629  49.317  1.00  0.00    -0.117 SA
BRANCH  20  21
HETATM   21  C2  UNL     1     -97.089 -17.538  50.627  1.00  0.00     0.018 C 
HETATM   22  C1  UNL     1     -95.683 -17.789  51.127  1.00  0.00     0.028 C 
HETATM   23  C3  UNL     1     -97.210 -16.078  50.228  1.00  0.00     0.028 C 
BRANCH  21  24
HETATM   24  C4  UNL     1     -98.010 -17.719  51.833  1.00  0.00     0.134 C 
HETATM   25 CL1  UNL     1     -99.046 -19.140  51.503  1.00  0.00    -0.129 Cl
ENDBRANCH  21  24
ENDBRANCH  20  21
ENDBRANCH   1  20
BRANCH   6  26
HETATM   26  O2  UNL     1     -96.529 -16.157  44.881  1.00  0.00    -0.358 OA
ATOM     27  H2  UNL     1     -96.752 -16.156  43.958  1.00  0.00     0.217 HD
ENDBRANCH   6  26
TORSDOF 7
ENDMDL
MODEL 2
REMARK VINA RESULT: -6.875055581      3.959      5.761
REMARK  7 active torsions:
REMARK  status: ('A' for Active; 'I' for Inactive)
REMARK    1  A    between atoms: C2_2  and  C4_4 
REMARK    2  A    between atoms: C2_2  and  S1_6 
REMARK    3  A    between atoms: S1_6  and  C5_7 
REMARK    4  A    between atoms: C6_8  and  C7_9 
REMARK    5  A    between atoms: N1_10  and  C8_12 
REMARK    6  A    between atoms: C9_15  and  O1_16 
REMARK    7  A    between atoms: C13_23  and  O2_24 
ROOT
HETATM    1  C5  UNL     1     -99.123 -18.088  48.628  1.00  0.00     0.033 A 
HETATM    2  C6  UNL     1     -99.504 -18.584  49.852  1.00  0.00    -0.001 A 
HETATM    3  C11 UNL     1    -100.866 -18.772  50.119  1.00  0.00     0.036 A 
HETATM    4  C12 UNL     1    -101.794 -18.456  49.151  1.00  0.00     0.046 A 
HETATM    5 BR1  UNL     1    -103.655 -18.713  49.522  1.00  0.00    -0.048 Br
HETATM    6  C13 UNL     1    -101.428 -17.960  47.923  1.00  0.00     0.101 A 
HETATM    7  C14 UNL     1    -100.070 -17.780  47.674  1.00  0.00     0.063 A 
HETATM    8 BR2  UNL     1     -99.596 -17.103  45.957  1.00  0.00    -0.047 Br
ENDROOT
BRANCH   2   9
HETATM    9  C7  UNL     1     -98.565 -18.965  50.911  1.00  0.00     0.103 C 
HETATM   10  N1  UNL     1     -98.599 -18.379  52.039  1.00  0.00    -0.346 N 
ATOM     11  H1  UNL     1     -99.282 -17.641  52.207  1.00  0.00     0.167 HD
BRANCH  10  12
HETATM   12  C8  UNL     1     -97.674 -18.751  53.084  1.00  0.00     0.150 A 
HETATM   13  N2  UNL     1     -97.932 -19.320  54.253  1.00  0.00    -0.317 N 
HETATM   14  C9  UNL     1     -96.966 -19.581  55.071  1.00  0.00     0.148 A 
ATOM     15  H2  UNL     1     -98.893 -19.550  54.508  1.00  0.00     0.170 HD
HETATM   16  C10 UNL     1     -95.692 -19.254  54.684  1.00  0.00     0.109 A 
HETATM   17  S2  UNL     1     -95.968 -18.576  53.138  1.00  0.00    -0.061 SA
BRANCH  14  18
HETATM   18  O1  UNL     1     -97.191 -20.189  56.334  1.00  0.00    -0.346 OA
ATOM     19  H1  UNL     1     -96.720 -19.921  57.113  1.00  0.00     0.219 HD
ENDBRANCH  14  18
ENDBRANCH  10  12
ENDBRANCH   2   9
BRANCH   1  20
HETATM   20  S1  UNL     1     -97.396 -17.831  48.309  1.00  0.00    -0.117 SA
BRANCH  20  21
HETATM   21  C2  UNL     1     -96.808 -16.191  48.687  1.00  0.00     0.018 C 
HETATM   22  C1  UNL     1     -97.536 -15.082  47.961  1.00  0.00     0.028 C 
HETATM   23  C3  UNL     1     -96.850 -15.905  50.177  1.00  0.00     0.028 C 
BRANCH  21  24
HETATM   24  C4  UNL     1     -95.339 -16.074  48.280  1.00  0.00     0.134 C 
HETATM   25 CL1  UNL     1     -94.917 -17.563  47.381  1.00  0.00    -0.129 Cl
ENDBRANCH  21  24
ENDBRANCH  20  21
ENDBRANCH   1  20
BRANCH   6  26
HETATM   26  O2  UNL     1    -102.421 -17.669  47.009  1.00  0.00    -0.358 OA
ATOM     27  H2  UNL     1    -103.076 -18.333  46.828  1.00  0.00     0.217 HD
ENDBRANCH   6  26
TORSDOF 7
ENDMDL
MODEL 3
REMARK VINA RESULT: -6.823304438      3.914      5.634
REMARK  7 active torsions:
REMARK  status: ('A' for Active; 'I' for Inactive)
REMARK    1  A    between atoms: C2_2  and  C4_4 
REMARK    2  A    between atoms: C2_2  and  S1_6 
REMARK    3  A    between atoms: S1_6  and  C5_7 
REMARK    4  A    between atoms: C6_8  and  C7_9 
REMARK    5  A    between atoms: N1_10  and  C8_12 
REMARK    6  A    between atoms: C9_15  and  O1_16 
REMARK    7  A    between atoms: C13_23  and  O2_24 
ROOT
HETATM    1  C5  UNL     1     -98.981 -17.656  47.904  1.00  0.00     0.033 A 
HETATM    2  C6  UNL     1     -99.368 -18.241  49.087  1.00  0.00    -0.001 A 
HETATM    3  C11 UNL     1    -100.728 -18.485  49.316  1.00  0.00     0.036 A 
HETATM    4  C12 UNL     1    -101.649 -18.133  48.353  1.00  0.00     0.046 A 
HETATM    5 BR1  UNL     1    -103.507 -18.468  48.673  1.00  0.00    -0.048 Br
HETATM    6  C13 UNL     1    -101.277 -17.548  47.167  1.00  0.00     0.101 A 
HETATM    7  C14 UNL     1     -99.922 -17.314  46.955  1.00  0.00     0.063 A 
HETATM    8 BR2  UNL     1     -99.440 -16.512  45.295  1.00  0.00    -0.047 Br
ENDROOT
BRANCH   2   9
HETATM    9  C7  UNL     1     -98.435 -18.663  50.136  1.00  0.00     0.103 C 
HETATM   10  N1  UNL     1     -98.484 -18.130  51.290  1.00  0.00    -0.346 N 
ATOM     11  H1  UNL     1     -99.176 -17.407  51.485  1.00  0.00     0.167 HD
BRANCH  10  12
HETATM   12  C8  UNL     1     -97.566 -18.543  52.325  1.00  0.00     0.150 A 
HETATM   13  N2  UNL     1     -97.825 -19.200  53.447  1.00  0.00    -0.317 N 
HETATM   14  C9  UNL     1     -96.865 -19.485  54.264  1.00  0.00     0.148 A 
ATOM     15  H2  UNL     1     -98.782 -19.480  53.665  1.00  0.00     0.170 HD
HETATM   16  C10 UNL     1     -95.597 -19.089  53.926  1.00  0.00     0.109 A 
HETATM   17  S2  UNL     1     -95.869 -18.314  52.425  1.00  0.00    -0.061 SA
BRANCH  14  18
HETATM   18  O1  UNL     1     -97.092 -20.186  55.477  1.00  0.00    -0.346 OA
ATOM     19  H1  UNL     1     -97.622 -20.973  55.513  1.00  0.00     0.219 HD
ENDBRANCH  14  18
ENDBRANCH  10  12
ENDBRANCH   2   9
BRANCH   1  20
HETATM   20  S1  UNL     1     -97.258 -17.329  47.634  1.00  0.00    -0.117 SA
BRANCH  20  21
HETATM   21  C2  UNL     1     -96.713 -15.723  48.185  1.00  0.00     0.018 C 
HETATM   22  C1  UNL     1     -97.408 -14.561  47.511  1.00  0.00     0.028 C 
HETATM   23  C3  UNL     1     -96.848 -15.565  49.688  1.00  0.00     0.028 C 
BRANCH  21  24
HETATM   24  C4  UNL     1     -95.224 -15.563  47.880  1.00  0.00     0.134 C 
HETATM   25 CL1  UNL     1     -95.016 -13.993  47.048  1.00  0.00    -0.129 Cl
ENDBRANCH  21  24
ENDBRANCH  20  21
ENDBRANCH   1  20
BRANCH   6  26
HETATM   26  O2  UNL     1    -102.264 -17.228  46.256  1.00  0.00    -0.358 OA
ATOM     27  H2  UNL     1    -102.801 -16.462  46.423  1.00  0.00     0.217 HD
ENDBRANCH   6  26
TORSDOF 7
ENDMDL
MODEL 4
REMARK VINA RESULT: -6.790100553      0.622      1.010
REMARK  7 active torsions:
REMARK  status: ('A' for Active; 'I' for Inactive)
REMARK    1  A    between atoms: C2_2  and  C4_4 
REMARK    2  A    between atoms: C2_2  and  S1_6 
REMARK    3  A    between atoms: S1_6  and  C5_7 
REMARK    4  A    between atoms: C6_8  and  C7_9 
REMARK    5  A    between atoms: N1_10  and  C8_12 
REMARK    6  A    between atoms: C9_15  and  O1_16 
REMARK    7  A    between atoms: C13_23  and  O2_24 
ROOT
HETATM    1  C5  UNL     1     -98.076 -17.925  47.752  1.00  0.00     0.033 A 
HETATM    2  C6  UNL     1     -99.403 -17.773  47.425  1.00  0.00    -0.001 A 
HETATM    3  C11 UNL     1     -99.746 -17.052  46.274  1.00  0.00     0.036 A 
HETATM    4  C12 UNL     1     -98.747 -16.511  45.494  1.00  0.00     0.046 A 
HETATM    5 BR1  UNL     1     -99.221 -15.525  43.923  1.00  0.00    -0.048 Br
HETATM    6  C13 UNL     1     -97.417 -16.654  45.808  1.00  0.00     0.101 A 
HETATM    7  C14 UNL     1     -97.094 -17.374  46.955  1.00  0.00     0.063 A 
HETATM    8 BR2  UNL     1     -95.241 -17.565  47.353  1.00  0.00    -0.047 Br
ENDROOT
BRANCH   2   9
HETATM    9  C7  UNL     1    -100.508 -18.349  48.197  1.00  0.00     0.103 C 
HETATM   10  N1  UNL     1    -101.683 -17.874  48.087  1.00  0.00    -0.346 N 
ATOM     11  H1  UNL     1    -101.856 -17.089  47.459  1.00  0.00     0.167 HD
BRANCH  10  12
HETATM   12  C8  UNL     1    -102.774 -18.438  48.847  1.00  0.00     0.150 A 
HETATM   13  N2  UNL     1    -103.221 -18.082  50.042  1.00  0.00    -0.317 N 
HETATM   14  C9  UNL     1    -104.219 -18.711  50.572  1.00  0.00     0.148 A 
ATOM     15  H2  UNL     1    -102.778 -17.312  50.544  1.00  0.00     0.170 HD
HETATM   16  C10 UNL     1    -104.782 -19.737  49.858  1.00  0.00     0.109 A 
HETATM   17  S2  UNL     1    -103.822 -19.735  48.442  1.00  0.00    -0.061 SA
BRANCH  14  18
HETATM   18  O1  UNL     1    -104.733 -18.367  51.849  1.00  0.00    -0.346 OA
ATOM     19  H1  UNL     1    -105.185 -18.997  52.397  1.00  0.00     0.219 HD
ENDBRANCH  14  18
ENDBRANCH  10  12
ENDBRANCH   2   9
BRANCH   1  20
HETATM   20  S1  UNL     1     -97.654 -18.819  49.225  1.00  0.00    -0.117 SA
BRANCH  20  21
HETATM   21  C2  UNL     1     -97.542 -17.815  50.695  1.00  0.00     0.018 C 
HETATM   22  C1  UNL     1     -97.320 -16.342  50.431  1.00  0.00     0.028 C 
HETATM   23  C3  UNL     1     -98.763 -17.973  51.582  1.00  0.00     0.028 C 
BRANCH  21  24
HETATM   24  C4  UNL     1     -96.352 -18.281  51.534  1.00  0.00     0.134 C 
HETATM   25 CL1  UNL     1     -97.009 -18.965  53.053  1.00  0.00    -0.129 Cl
ENDBRANCH  21  24
ENDBRANCH  20  21
ENDBRANCH   1  20
BRANCH   6  26
HETATM   26  O2  UNL     1     -96.480 -16.080  44.972  1.00  0.00    -0.358 OA
ATOM     27  H2  UNL     1     -96.758 -15.795  44.110  1.00  0.00     0.217 HD
ENDBRANCH   6  26
TORSDOF 7
ENDMDL
MODEL 5
REMARK VINA RESULT: -6.755359940      3.172      3.642
REMARK  7 active torsions:
REMARK  status: ('A' for Active; 'I' for Inactive)
REMARK    1  A    between atoms: C2_2  and  C4_4 
REMARK    2  A    between atoms: C2_2  and  S1_6 
REMARK    3  A    between atoms: S1_6  and  C5_7 
REMARK    4  A    between atoms: C6_8  and  C7_9 
REMARK    5  A    between atoms: N1_10  and  C8_12 
REMARK    6  A    between atoms: C9_15  and  O1_16 
REMARK    7  A    between atoms: C13_23  and  O2_24 
ROOT
HETATM    1  C5  UNL     1     -97.165 -16.339  46.484  1.00  0.00     0.033 A 
HETATM    2  C6  UNL     1     -98.352 -16.742  47.051  1.00  0.00    -0.001 A 
HETATM    3  C11 UNL     1     -99.529 -16.669  46.295  1.00  0.00     0.036 A 
HETATM    4  C12 UNL     1     -99.473 -16.196  45.001  1.00  0.00     0.046 A 
HETATM    5 BR1  UNL     1    -101.086 -16.097  43.974  1.00  0.00    -0.048 Br
HETATM    6  C13 UNL     1     -98.294 -15.792  44.422  1.00  0.00     0.101 A 
HETATM    7  C14 UNL     1     -97.134 -15.871  45.187  1.00  0.00     0.063 A 
HETATM    8 BR2  UNL     1     -95.516 -15.314  44.350  1.00  0.00    -0.047 Br
ENDROOT
BRANCH   2   9
HETATM    9  C7  UNL     1     -98.471 -17.279  48.409  1.00  0.00     0.103 C 
HETATM   10  N1  UNL     1     -99.473 -17.995  48.730  1.00  0.00    -0.346 N 
ATOM     11  H1  UNL     1    -100.196 -18.194  48.038  1.00  0.00     0.167 HD
BRANCH  10  12
HETATM   12  C8  UNL     1     -99.594 -18.525  50.067  1.00  0.00     0.150 A 
HETATM   13  N2  UNL     1     -98.633 -18.908  50.895  1.00  0.00    -0.317 N 
HETATM   14  C9  UNL     1     -98.933 -19.364  52.067  1.00  0.00     0.148 A 
ATOM     15  H2  UNL     1     -97.656 -18.844  50.608  1.00  0.00     0.170 HD
HETATM   16  C10 UNL     1    -100.260 -19.430  52.407  1.00  0.00     0.109 A 
HETATM   17  S2  UNL     1    -101.007 -18.823  50.994  1.00  0.00    -0.061 SA
BRANCH  14  18
HETATM   18  O1  UNL     1     -97.941 -19.787  52.988  1.00  0.00    -0.346 OA
ATOM     19  H1  UNL     1     -98.098 -20.484  53.614  1.00  0.00     0.219 HD
ENDBRANCH  14  18
ENDBRANCH  10  12
ENDBRANCH   2   9
BRANCH   1  20
HETATM   20  S1  UNL     1     -95.684 -16.413  47.459  1.00  0.00    -0.117 SA
BRANCH  20  21
HETATM   21  C2  UNL     1     -95.309 -14.915  48.351  1.00  0.00     0.018 C 
HETATM   22  C1  UNL     1     -94.114 -14.153  47.822  1.00  0.00     0.028 C 
HETATM   23  C3  UNL     1     -96.500 -13.976  48.406  1.00  0.00     0.028 C 
BRANCH  21  24
HETATM   24  C4  UNL     1     -94.983 -15.262  49.804  1.00  0.00     0.134 C 
HETATM   25 CL1  UNL     1     -96.539 -15.406  50.678  1.00  0.00    -0.129 Cl
ENDBRANCH  21  24
ENDBRANCH  20  21
ENDBRANCH   1  20
BRANCH   6  26
HETATM   26  O2  UNL     1     -98.326 -15.332  43.121  1.00  0.00    -0.358 OA
ATOM     27  H2  UNL     1     -99.170 -15.120  42.738  1.00  0.00     0.217 HD
ENDBRANCH   6  26
TORSDOF 7
ENDMDL
