MODEL 1
REMARK VINA RESULT: -8.645114843      0.000      0.000
REMARK  8 active torsions:
REMARK  status: ('A' for Active; 'I' for Inactive)
REMARK    1  A    between atoms: O1_2  and  C2_3 
REMARK    2  A    between atoms: C4_6  and  O2_7 
REMARK    3  A    between atoms: C6_9  and  O3_10 
REMARK    4  A    between atoms: C10_16  and  C11_17 
REMARK    5  A    between atoms: C11_17  and  O4_18 
REMARK    6  A    between atoms: C11_17  and  C12_20 
REMARK    7  A    between atoms: C16_25  and  C17_26 
REMARK    8  A    between atoms: C18_28  and  O6_29 
ROOT
HETATM    1  C2  UNL     1     -99.838 -18.689  51.686  1.00  0.00     0.120 A 
HETATM    2  C3  UNL     1    -101.134 -19.154  51.692  1.00  0.00     0.105 A 
HETATM    3 CL1  UNL     1    -101.802 -19.695  53.228  1.00  0.00    -0.078 Cl
HETATM    4  C4  UNL     1    -101.893 -19.204  50.566  1.00  0.00     0.127 A 
HETATM    5  C6  UNL     1    -101.349 -18.771  49.358  1.00  0.00     0.116 A 
HETATM    6  C8  UNL     1    -100.047 -18.300  49.332  1.00  0.00     0.031 A 
HETATM    7  C9  UNL     1     -99.300 -18.260  50.485  1.00  0.00     0.081 A 
HETATM    8  N1  UNL     1     -97.968 -17.804  50.520  1.00  0.00    -0.350 N 
ATOM      9  H1  UNL     1     -97.445 -17.788  51.396  1.00  0.00     0.166 HD
HETATM   10  C10 UNL     1     -97.348 -17.349  49.265  1.00  0.00     0.080 A 
HETATM   11  C16 UNL     1     -98.130 -17.398  48.069  1.00  0.00     0.030 A 
HETATM   12  C21 UNL     1     -99.413 -17.850  48.108  1.00  0.00     0.033 A 
ENDROOT
BRANCH  11  13
HETATM   13  C17 UNL     1     -97.668 -16.939  46.758  1.00  0.00     0.114 A 
HETATM   14  O5  UNL     1     -96.495 -17.010  46.211  1.00  0.00    -0.284 OA
HETATM   15  C18 UNL     1     -96.386 -16.507  45.026  1.00  0.00     0.207 A 
HETATM   16  C19 UNL     1     -97.615 -16.029  44.703  1.00  0.00     0.116 A 
HETATM   17 CL2  UNL     1     -98.076 -15.230  43.201  1.00  0.00    -0.077 Cl
HETATM   18  C20 UNL     1     -98.441 -16.292  45.791  1.00  0.00     0.095 A 
HETATM   19 CL3  UNL     1    -100.099 -15.789  45.853  1.00  0.00    -0.079 Cl
BRANCH  15  20
HETATM   20  O6  UNL     1     -95.228 -16.458  44.215  1.00  0.00    -0.339 OA
ATOM     21  H6  UNL     1     -95.170 -16.616  43.280  1.00  0.00     0.220 HD
ENDBRANCH  15  20
ENDBRANCH  11  13
BRANCH  10  22
HETATM   22  C11 UNL     1     -96.143 -16.860  49.356  1.00  0.00     0.104 C 
BRANCH  22  23
HETATM   23  O4  UNL     1     -95.011 -17.397  48.830  1.00  0.00    -0.357 OA
ATOM     24  H4  UNL     1     -94.330 -17.858  49.306  1.00  0.00     0.217 HD
ENDBRANCH  22  23
BRANCH  22  25
HETATM   25  C12 UNL     1     -95.853 -15.569  50.081  1.00  0.00     0.006 A 
HETATM   26  C13 UNL     1     -96.214 -14.367  49.621  1.00  0.00     0.022 A 
HETATM   27  C14 UNL     1     -95.904 -13.275  50.381  1.00  0.00     0.050 A 
HETATM   28  S1  UNL     1     -95.113 -13.956  51.728  1.00  0.00    -0.113 SA
HETATM   29  C15 UNL     1     -95.199 -15.607  51.284  1.00  0.00     0.063 A 
ENDBRANCH  22  25
ENDBRANCH  10  22
BRANCH   5  30
HETATM   30  O3  UNL     1    -102.093 -18.813  48.200  1.00  0.00    -0.352 OA
HETATM   31  C7  UNL     1    -102.858 -17.746  47.678  1.00  0.00     0.210 C 
ENDBRANCH   5  30
BRANCH   1  32
HETATM   32  O1  UNL     1     -99.060 -18.636  52.830  1.00  0.00    -0.352 OA
HETATM   33  C1  UNL     1     -97.866 -19.404  52.908  1.00  0.00     0.210 C 
ENDBRANCH   1  32
BRANCH   4  34
HETATM   34  O2  UNL     1    -103.202 -19.676  50.584  1.00  0.00    -0.351 OA
HETATM   35  C5  UNL     1    -104.300 -18.857  50.866  1.00  0.00     0.210 C 
ENDBRANCH   4  34
TORSDOF 8
ENDMDL
MODEL 2
REMARK VINA RESULT: -8.151652633      2.931      7.548
REMARK  8 active torsions:
REMARK  status: ('A' for Active; 'I' for Inactive)
REMARK    1  A    between atoms: O1_2  and  C2_3 
REMARK    2  A    between atoms: C4_6  and  O2_7 
REMARK    3  A    between atoms: C6_9  and  O3_10 
REMARK    4  A    between atoms: C10_16  and  C11_17 
REMARK    5  A    between atoms: C11_17  and  O4_18 
REMARK    6  A    between atoms: C11_17  and  C12_20 
REMARK    7  A    between atoms: C16_25  and  C17_26 
REMARK    8  A    between atoms: C18_28  and  O6_29 
ROOT
HETATM    1  C2  UNL     1     -99.649 -17.456  46.909  1.00  0.00     0.120 A 
HETATM    2  C3  UNL     1     -98.786 -16.966  45.954  1.00  0.00     0.105 A 
HETATM    3 CL1  UNL     1     -99.430 -16.679  44.340  1.00  0.00    -0.078 Cl
HETATM    4  C4  UNL     1     -97.480 -16.706  46.221  1.00  0.00     0.127 A 
HETATM    5  C6  UNL     1     -96.986 -16.939  47.502  1.00  0.00     0.116 A 
HETATM    6  C8  UNL     1     -97.839 -17.432  48.477  1.00  0.00     0.031 A 
HETATM    7  C9  UNL     1     -99.157 -17.688  48.181  1.00  0.00     0.081 A 
HETATM    8  N1  UNL     1    -100.068 -18.199  49.125  1.00  0.00    -0.350 N 
ATOM      9  H1  UNL     1    -101.040 -18.376  48.869  1.00  0.00     0.166 HD
HETATM   10  C10 UNL     1     -99.588 -18.473  50.489  1.00  0.00     0.080 A 
HETATM   11  C16 UNL     1     -98.215 -18.209  50.787  1.00  0.00     0.030 A 
HETATM   12  C21 UNL     1     -97.390 -17.713  49.826  1.00  0.00     0.033 A 
ENDROOT
BRANCH  11  13
HETATM   13  C17 UNL     1     -97.604 -18.387  52.106  1.00  0.00     0.114 A 
HETATM   14  O5  UNL     1     -97.590 -19.420  52.890  1.00  0.00    -0.284 OA
HETATM   15  C18 UNL     1     -96.965 -19.277  54.011  1.00  0.00     0.207 A 
HETATM   16  C19 UNL     1     -96.489 -18.006  54.020  1.00  0.00     0.116 A 
HETATM   17 CL2  UNL     1     -95.552 -17.238  55.300  1.00  0.00    -0.077 Cl
HETATM   18  C20 UNL     1     -96.887 -17.426  52.820  1.00  0.00     0.095 A 
HETATM   19 CL3  UNL     1     -96.559 -15.769  52.424  1.00  0.00    -0.079 Cl
BRANCH  15  20
HETATM   20  O6  UNL     1     -96.801 -20.241  55.034  1.00  0.00    -0.339 OA
ATOM     21  H6  UNL     1     -97.217 -20.254  55.887  1.00  0.00     0.220 HD
ENDBRANCH  15  20
ENDBRANCH  11  13
BRANCH  10  22
HETATM   22  C11 UNL     1    -100.482 -18.870  51.351  1.00  0.00     0.104 C 
BRANCH  22  23
HETATM   23  O4  UNL     1    -100.257 -19.231  52.641  1.00  0.00    -0.357 OA
ATOM     24  H4  UNL     1     -99.790 -20.004  52.939  1.00  0.00     0.217 HD
ENDBRANCH  22  23
BRANCH  22  25
HETATM   25  C12 UNL     1    -101.947 -18.967  51.002  1.00  0.00     0.006 A 
HETATM   26  C13 UNL     1    -102.447 -19.883  50.167  1.00  0.00     0.022 A 
HETATM   27  C14 UNL     1    -103.795 -19.873  49.945  1.00  0.00     0.050 A 
HETATM   28  S1  UNL     1    -104.335 -18.580  50.915  1.00  0.00    -0.113 SA
HETATM   29  C15 UNL     1    -102.832 -18.090  51.571  1.00  0.00     0.063 A 
ENDBRANCH  22  25
ENDBRANCH  10  22
BRANCH   5  30
HETATM   30  O3  UNL     1     -95.666 -16.688  47.802  1.00  0.00    -0.352 OA
HETATM   31  C7  UNL     1     -94.580 -17.536  47.494  1.00  0.00     0.210 C 
ENDBRANCH   5  30
BRANCH   1  32
HETATM   32  O1  UNL     1    -100.981 -17.723  46.643  1.00  0.00    -0.352 OA
HETATM   33  C1  UNL     1    -101.904 -16.648  46.513  1.00  0.00     0.210 C 
ENDBRANCH   1  32
BRANCH   4  34
HETATM   34  O2  UNL     1     -96.617 -16.211  45.246  1.00  0.00    -0.351 OA
HETATM   35  C5  UNL     1     -96.415 -14.843  45.036  1.00  0.00     0.210 C 
ENDBRANCH   4  34
TORSDOF 8
ENDMDL
MODEL 3
REMARK VINA RESULT: -8.039470660      2.351      6.401
REMARK  8 active torsions:
REMARK  status: ('A' for Active; 'I' for Inactive)
REMARK    1  A    between atoms: O1_2  and  C2_3 
REMARK    2  A    between atoms: C4_6  and  O2_7 
REMARK    3  A    between atoms: C6_9  and  O3_10 
REMARK    4  A    between atoms: C10_16  and  C11_17 
REMARK    5  A    between atoms: C11_17  and  O4_18 
REMARK    6  A    between atoms: C11_17  and  C12_20 
REMARK    7  A    between atoms: C16_25  and  C17_26 
REMARK    8  A    between atoms: C18_28  and  O6_29 
ROOT
HETATM    1  C2  UNL     1     -95.666 -17.451  47.757  1.00  0.00     0.120 A 
HETATM    2  C3  UNL     1     -95.761 -17.042  46.446  1.00  0.00     0.105 A 
HETATM    3 CL1  UNL     1     -94.266 -16.684  45.589  1.00  0.00    -0.078 Cl
HETATM    4  C4  UNL     1     -96.956 -16.910  45.812  1.00  0.00     0.127 A 
HETATM    5  C6  UNL     1     -98.131 -17.197  46.505  1.00  0.00     0.116 A 
HETATM    6  C8  UNL     1     -98.054 -17.611  47.825  1.00  0.00     0.031 A 
HETATM    7  C9  UNL     1     -96.833 -17.735  48.444  1.00  0.00     0.081 A 
HETATM    8  N1  UNL     1     -96.692 -18.139  49.785  1.00  0.00    -0.350 N 
ATOM      9  H1  UNL     1     -95.768 -18.221  50.211  1.00  0.00     0.166 HD
HETATM   10  C10 UNL     1     -97.907 -18.440  50.560  1.00  0.00     0.080 A 
HETATM   11  C16 UNL     1     -99.173 -18.304  49.911  1.00  0.00     0.030 A 
HETATM   12  C21 UNL     1     -99.236 -17.910  48.610  1.00  0.00     0.033 A 
ENDROOT
BRANCH  11  13
HETATM   13  C17 UNL     1    -100.461 -18.610  50.535  1.00  0.00     0.114 A 
HETATM   14  O5  UNL     1    -100.783 -18.711  51.787  1.00  0.00    -0.284 OA
HETATM   15  C18 UNL     1    -102.016 -19.002  52.038  1.00  0.00     0.207 A 
HETATM   16  C19 UNL     1    -102.630 -19.120  50.833  1.00  0.00     0.116 A 
HETATM   17 CL2  UNL     1    -104.326 -19.507  50.545  1.00  0.00    -0.077 Cl
HETATM   18  C20 UNL     1    -101.658 -18.877  49.868  1.00  0.00     0.095 A 
HETATM   19 CL3  UNL     1    -101.977 -18.990  48.167  1.00  0.00    -0.079 Cl
BRANCH  15  20
HETATM   20  O6  UNL     1    -102.621 -19.166  53.306  1.00  0.00    -0.339 OA
ATOM     21  H6  UNL     1    -103.316 -18.642  53.687  1.00  0.00     0.220 HD
ENDBRANCH  15  20
ENDBRANCH  11  13
BRANCH  10  22
HETATM   22  C11 UNL     1     -97.727 -18.886  51.772  1.00  0.00     0.104 C 
BRANCH  22  23
HETATM   23  O4  UNL     1     -98.290 -19.996  52.317  1.00  0.00    -0.357 OA
ATOM     24  H4  UNL     1     -97.946 -20.508  53.040  1.00  0.00     0.217 HD
ENDBRANCH  22  23
BRANCH  22  25
HETATM   25  C12 UNL     1     -96.816 -18.194  52.756  1.00  0.00     0.006 A 
HETATM   26  C13 UNL     1     -96.894 -16.890  53.042  1.00  0.00     0.022 A 
HETATM   27  C14 UNL     1     -96.020 -16.388  53.963  1.00  0.00     0.050 A 
HETATM   28  S1  UNL     1     -95.106 -17.754  54.412  1.00  0.00    -0.113 SA
HETATM   29  C15 UNL     1     -95.862 -18.922  53.415  1.00  0.00     0.063 A 
ENDBRANCH  22  25
ENDBRANCH  10  22
BRANCH   5  30
HETATM   30  O3  UNL     1     -99.356 -17.071  45.890  1.00  0.00    -0.352 OA
HETATM   31  C7  UNL     1    -100.170 -15.917  45.914  1.00  0.00     0.210 C 
ENDBRANCH   5  30
BRANCH   1  32
HETATM   32  O1  UNL     1     -94.451 -17.587  48.408  1.00  0.00    -0.352 OA
HETATM   33  C1  UNL     1     -93.838 -16.449  49.003  1.00  0.00     0.210 C 
ENDBRANCH   1  32
BRANCH   4  34
HETATM   34  O2  UNL     1     -97.041 -16.495  44.486  1.00  0.00    -0.351 OA
HETATM   35  C5  UNL     1     -97.033 -15.147  44.111  1.00  0.00     0.210 C 
ENDBRANCH   4  34
TORSDOF 8
ENDMDL
MODEL 4
REMARK VINA RESULT: -7.938857408      3.327      6.116
REMARK  8 active torsions:
REMARK  status: ('A' for Active; 'I' for Inactive)
REMARK    1  A    between atoms: O1_2  and  C2_3 
REMARK    2  A    between atoms: C4_6  and  O2_7 
REMARK    3  A    between atoms: C6_9  and  O3_10 
REMARK    4  A    between atoms: C10_16  and  C11_17 
REMARK    5  A    between atoms: C11_17  and  O4_18 
REMARK    6  A    between atoms: C11_17  and  C12_20 
REMARK    7  A    between atoms: C16_25  and  C17_26 
REMARK    8  A    between atoms: C18_28  and  O6_29 
ROOT
HETATM    1  C2  UNL     1     -96.288 -16.054  53.322  1.00  0.00     0.120 A 
HETATM    2  C3  UNL     1     -95.639 -14.968  53.864  1.00  0.00     0.105 A 
HETATM    3 CL1  UNL     1     -95.259 -15.015  55.582  1.00  0.00    -0.078 Cl
HETATM    4  C4  UNL     1     -95.293 -13.884  53.121  1.00  0.00     0.127 A 
HETATM    5  C6  UNL     1     -95.601 -13.863  51.762  1.00  0.00     0.116 A 
HETATM    6  C8  UNL     1     -96.254 -14.947  51.199  1.00  0.00     0.031 A 
HETATM    7  C9  UNL     1     -96.594 -16.031  51.973  1.00  0.00     0.081 A 
HETATM    8  N1  UNL     1     -97.269 -17.156  51.461  1.00  0.00    -0.350 N 
ATOM      9  H1  UNL     1     -97.504 -17.943  52.066  1.00  0.00     0.166 HD
HETATM   10  C10 UNL     1     -97.626 -17.171  50.033  1.00  0.00     0.080 A 
HETATM   11  C16 UNL     1     -97.273 -16.038  49.236  1.00  0.00     0.030 A 
HETATM   12  C21 UNL     1     -96.620 -14.985  49.797  1.00  0.00     0.033 A 
ENDROOT
BRANCH  11  13
HETATM   13  C17 UNL     1     -97.520 -15.928  47.798  1.00  0.00     0.114 A 
HETATM   14  O5  UNL     1     -98.636 -15.934  47.136  1.00  0.00    -0.284 OA
HETATM   15  C18 UNL     1     -98.539 -15.822  45.853  1.00  0.00     0.207 A 
HETATM   16  C19 UNL     1     -97.212 -15.729  45.579  1.00  0.00     0.116 A 
HETATM   17 CL2  UNL     1     -96.471 -15.558  43.990  1.00  0.00    -0.077 Cl
HETATM   18  C20 UNL     1     -96.551 -15.797  46.802  1.00  0.00     0.095 A 
HETATM   19 CL3  UNL     1     -94.822 -15.788  46.934  1.00  0.00    -0.079 Cl
BRANCH  15  20
HETATM   20  O6  UNL     1     -99.593 -15.799  44.909  1.00  0.00    -0.339 OA
ATOM     21  H6  UNL     1    -100.496 -15.545  45.058  1.00  0.00     0.220 HD
ENDBRANCH  15  20
ENDBRANCH  11  13
BRANCH  10  22
HETATM   22  C11 UNL     1     -98.178 -18.264  49.584  1.00  0.00     0.104 C 
BRANCH  22  23
HETATM   23  O4  UNL     1     -97.532 -19.353  49.092  1.00  0.00    -0.357 OA
ATOM     24  H4  UNL     1     -97.794 -19.875  48.342  1.00  0.00     0.217 HD
ENDBRANCH  22  23
BRANCH  22  25
HETATM   25  C12 UNL     1     -99.674 -18.461  49.570  1.00  0.00     0.006 A 
HETATM   26  C13 UNL     1    -100.423 -18.345  48.470  1.00  0.00     0.022 A 
HETATM   27  C14 UNL     1    -101.767 -18.564  48.588  1.00  0.00     0.050 A 
HETATM   28  S1  UNL     1    -101.952 -18.930  50.242  1.00  0.00    -0.113 SA
HETATM   29  C15 UNL     1    -100.318 -18.792  50.733  1.00  0.00     0.063 A 
ENDBRANCH  22  25
ENDBRANCH  10  22
BRANCH   5  30
HETATM   30  O3  UNL     1     -95.265 -12.777  50.984  1.00  0.00    -0.352 OA
HETATM   31  C7  UNL     1     -94.033 -12.596  50.319  1.00  0.00     0.210 C 
ENDBRANCH   5  30
BRANCH   1  32
HETATM   32  O1  UNL     1     -96.644 -17.161  54.075  1.00  0.00    -0.352 OA
HETATM   33  C1  UNL     1     -95.686 -18.182  54.323  1.00  0.00     0.210 C 
ENDBRANCH   1  32
BRANCH   4  34
HETATM   34  O2  UNL     1     -94.636 -12.791  53.680  1.00  0.00    -0.351 OA
HETATM   35  C5  UNL     1     -93.251 -12.755  53.872  1.00  0.00     0.210 C 
ENDBRANCH   4  34
TORSDOF 8
ENDMDL
MODEL 5
REMARK VINA RESULT: -7.882791875      3.096      6.471
REMARK  8 active torsions:
REMARK  status: ('A' for Active; 'I' for Inactive)
REMARK    1  A    between atoms: O1_2  and  C2_3 
REMARK    2  A    between atoms: C4_6  and  O2_7 
REMARK    3  A    between atoms: C6_9  and  O3_10 
REMARK    4  A    between atoms: C10_16  and  C11_17 
REMARK    5  A    between atoms: C11_17  and  O4_18 
REMARK    6  A    between atoms: C11_17  and  C12_20 
REMARK    7  A    between atoms: C16_25  and  C17_26 
REMARK    8  A    between atoms: C18_28  and  O6_29 
ROOT
HETATM    1  C2  UNL     1     -97.026 -17.074  49.609  1.00  0.00     0.120 A 
HETATM    2  C3  UNL     1     -96.404 -17.461  50.775  1.00  0.00     0.105 A 
HETATM    3 CL1  UNL     1     -94.787 -16.839  51.085  1.00  0.00    -0.078 Cl
HETATM    4  C4  UNL     1     -96.996 -18.295  51.670  1.00  0.00     0.127 A 
HETATM    5  C6  UNL     1     -98.276 -18.779  51.409  1.00  0.00     0.116 A 
HETATM    6  C8  UNL     1     -98.917 -18.400  50.241  1.00  0.00     0.031 A 
HETATM    7  C9  UNL     1     -98.297 -17.557  49.350  1.00  0.00     0.081 A 
HETATM    8  N1  UNL     1     -98.892 -17.146  48.142  1.00  0.00    -0.350 N 
ATOM      9  H1  UNL     1     -98.402 -16.518  47.506  1.00  0.00     0.166 HD
HETATM   10  C10 UNL     1    -100.240 -17.643  47.818  1.00  0.00     0.080 A 
HETATM   11  C16 UNL     1    -100.876 -18.524  48.747  1.00  0.00     0.030 A 
HETATM   12  C21 UNL     1    -100.242 -18.879  49.897  1.00  0.00     0.033 A 
ENDROOT
BRANCH  11  13
HETATM   13  C17 UNL     1    -102.227 -19.062  48.586  1.00  0.00     0.114 A 
HETATM   14  O5  UNL     1    -102.679 -19.963  47.769  1.00  0.00    -0.284 OA
HETATM   15  C18 UNL     1    -103.939 -20.233  47.857  1.00  0.00     0.207 A 
HETATM   16  C19 UNL     1    -104.430 -19.436  48.840  1.00  0.00     0.116 A 
HETATM   17 CL2  UNL     1    -106.097 -19.364  49.408  1.00  0.00    -0.077 Cl
HETATM   18  C20 UNL     1    -103.358 -18.685  49.313  1.00  0.00     0.095 A 
HETATM   19 CL3  UNL     1    -103.533 -17.469  50.537  1.00  0.00    -0.079 Cl
BRANCH  15  20
HETATM   20  O6  UNL     1    -104.674 -21.169  47.091  1.00  0.00    -0.339 OA
ATOM     21  H6  UNL     1    -104.968 -21.075  46.193  1.00  0.00     0.220 HD
ENDBRANCH  15  20
ENDBRANCH  11  13
BRANCH  10  22
HETATM   22  C11 UNL     1    -100.785 -17.176  46.730  1.00  0.00     0.104 C 
BRANCH  22  23
HETATM   23  O4  UNL     1    -102.107 -17.195  46.416  1.00  0.00    -0.357 OA
ATOM     24  H4  UNL     1    -102.774 -16.602  46.742  1.00  0.00     0.217 HD
ENDBRANCH  22  23
BRANCH  22  25
HETATM   25  C12 UNL     1     -99.972 -16.515  45.644  1.00  0.00     0.006 A 
HETATM   26  C13 UNL     1     -98.678 -16.209  45.775  1.00  0.00     0.022 A 
HETATM   27  C14 UNL     1     -98.052 -15.625  44.710  1.00  0.00     0.050 A 
HETATM   28  S1  UNL     1     -99.292 -15.517  43.546  1.00  0.00    -0.113 SA
HETATM   29  C15 UNL     1    -100.568 -16.216  44.448  1.00  0.00     0.063 A 
ENDBRANCH  22  25
ENDBRANCH  10  22
BRANCH   5  30
HETATM   30  O3  UNL     1     -98.899 -19.627  52.297  1.00  0.00    -0.352 OA
HETATM   31  C7  UNL     1    -100.186 -19.437  52.845  1.00  0.00     0.210 C 
ENDBRANCH   5  30
BRANCH   1  32
HETATM   32  O1  UNL     1     -96.428 -16.225  48.692  1.00  0.00    -0.352 OA
HETATM   33  C1  UNL     1     -96.580 -14.818  48.831  1.00  0.00     0.210 C 
ENDBRANCH   1  32
BRANCH   4  34
HETATM   34  O2  UNL     1     -96.357 -18.680  52.846  1.00  0.00    -0.351 OA
HETATM   35  C5  UNL     1     -96.467 -17.960  54.040  1.00  0.00     0.210 C 
ENDBRANCH   4  34
TORSDOF 8
ENDMDL
