MODEL 1
REMARK VINA RESULT: -9.199054123      0.000      0.000
REMARK  5 active torsions:
REMARK  status: ('A' for Active; 'I' for Inactive)
REMARK    1  A    between atoms: C2_2  and  C3_3 
REMARK    2  A    between atoms: C4_7  and  C5_8 
REMARK    3  A    between atoms: C5_8  and  N2_9 
REMARK       I    between atoms: N2_9  and  C7_11 
REMARK    4  A    between atoms: C7_11  and  C8_13 
REMARK    5  A    between atoms: C10_18  and  C11_19 
ROOT
HETATM    1  C11 UNL     1      15.737  95.915  10.372  1.00  0.00     0.016 A 
HETATM    2  C12 UNL     1      16.241  96.864  11.237  1.00  0.00     0.040 A 
HETATM    3  C13 UNL     1      15.625  97.179  12.442  1.00  0.00     0.067 A 
HETATM    4  C14 UNL     1      16.188  98.178  13.312  1.00  0.00     0.101 C 
HETATM    5  N4  UNL     1      16.656  98.989  14.005  1.00  0.00    -0.191 NA
HETATM    6  C15 UNL     1      14.477  96.537  12.803  1.00  0.00     0.056 A 
HETATM    7 CL1  UNL     1      13.652  96.898  14.322  1.00  0.00    -0.083 Cl
HETATM    8  C16 UNL     1      13.959  95.589  11.956  1.00  0.00     0.050 A 
HETATM    9  C17 UNL     1      14.590  95.280  10.741  1.00  0.00     0.048 A 
HETATM   10 CL2  UNL     1      13.824  94.093   9.691  1.00  0.00    -0.083 Cl
ENDROOT
BRANCH   1  11
HETATM   11  C10 UNL     1      16.369  95.670   9.088  1.00  0.00     0.068 A 
HETATM   12  N3  UNL     1      17.109  94.596   8.764  1.00  0.00    -0.348 N 
HETATM   13  C9  UNL     1      17.456  94.696   7.440  1.00  0.00     0.089 A 
ATOM     14  H3  UNL     1      17.368  93.838   9.395  1.00  0.00     0.166 HD
HETATM   15  S1  UNL     1      18.284  93.972   6.148  1.00  0.00    -0.064 SA
HETATM   16  C19 UNL     1      16.948  95.831   6.892  1.00  0.00     0.048 A 
HETATM   17  C8  UNL     1      17.974  95.125   4.928  1.00  0.00     0.100 A 
HETATM   18  C20 UNL     1      17.215  96.062   5.582  1.00  0.00     0.083 A 
HETATM   19  N5  UNL     1      16.747  97.235   4.840  1.00  0.00    -0.100 NA
HETATM   20  C18 UNL     1      16.252  96.451   7.954  1.00  0.00     0.076 A 
HETATM   21 CL3  UNL     1      15.339  97.947   7.842  1.00  0.00    -0.081 Cl
BRANCH  17  22
HETATM   22  C7  UNL     1      18.404  95.133   3.514  1.00  0.00     0.262 C 
HETATM   23  N2  UNL     1      19.760  95.063   3.191  1.00  0.00    -0.344 N 
HETATM   24  C6  UNL     1      20.829  94.981   4.141  1.00  0.00     0.153 C 
HETATM   25  O2  UNL     1      17.521  95.204   2.647  1.00  0.00    -0.267 OA
BRANCH  23  26
HETATM   26  C5  UNL     1      20.103  95.078   1.769  1.00  0.00     0.212 C 
BRANCH  26  27
HETATM   27  C4  UNL     1      19.344  93.977   1.096  1.00  0.00     0.166 A 
HETATM   28  O1  UNL     1      19.475  92.690   1.310  1.00  0.00    -0.221 OA
HETATM   29  N1  UNL     1      18.661  92.016   0.556  1.00  0.00    -0.247 N 
HETATM   30  C3  UNL     1      17.955  92.875  -0.192  1.00  0.00     0.103 A 
ATOM     31  H1  UNL     1      18.572  91.000   0.536  1.00  0.00     0.196 HD
HETATM   32  N6  UNL     1      18.391  94.099   0.155  1.00  0.00    -0.325 N 
ATOM     33  H6  UNL     1      18.052  94.979  -0.234  1.00  0.00     0.169 HD
BRANCH  30  34
HETATM   34  C2  UNL     1      16.925  92.477  -1.177  1.00  0.00     0.074 C 
HETATM   35  C1  UNL     1      17.525  91.701  -2.339  1.00  0.00     0.013 C 
ENDBRANCH  30  34
ENDBRANCH  26  27
ENDBRANCH  23  26
ENDBRANCH  17  22
ENDBRANCH   1  11
TORSDOF 5
ENDMDL
MODEL 2
REMARK VINA RESULT: -9.044028960      1.001      1.118
REMARK  5 active torsions:
REMARK  status: ('A' for Active; 'I' for Inactive)
REMARK    1  A    between atoms: C2_2  and  C3_3 
REMARK    2  A    between atoms: C4_7  and  C5_8 
REMARK    3  A    between atoms: C5_8  and  N2_9 
REMARK       I    between atoms: N2_9  and  C7_11 
REMARK    4  A    between atoms: C7_11  and  C8_13 
REMARK    5  A    between atoms: C10_18  and  C11_19 
ROOT
HETATM    1  C11 UNL     1      15.753  95.691  10.102  1.00  0.00     0.016 A 
HETATM    2  C12 UNL     1      16.219  96.608  11.023  1.00  0.00     0.040 A 
HETATM    3  C13 UNL     1      15.529  96.910  12.190  1.00  0.00     0.067 A 
HETATM    4  C14 UNL     1      16.054  97.876  13.121  1.00  0.00     0.101 C 
HETATM    5  N4  UNL     1      16.492  98.659  13.863  1.00  0.00    -0.191 NA
HETATM    6  C15 UNL     1      14.346  96.287  12.457  1.00  0.00     0.056 A 
HETATM    7 CL1  UNL     1      13.428  96.634  13.926  1.00  0.00    -0.083 Cl
HETATM    8  C16 UNL     1      13.865  95.371  11.555  1.00  0.00     0.050 A 
HETATM    9  C17 UNL     1      14.571  95.076  10.378  1.00  0.00     0.048 A 
HETATM   10 CL2  UNL     1      13.851  93.930   9.250  1.00  0.00    -0.083 Cl
ENDROOT
BRANCH   1  11
HETATM   11  C10 UNL     1      16.466  95.460   8.858  1.00  0.00     0.068 A 
HETATM   12  N3  UNL     1      17.290  94.432   8.600  1.00  0.00    -0.348 N 
HETATM   13  C9  UNL     1      17.698  94.524   7.293  1.00  0.00     0.089 A 
ATOM     14  H3  UNL     1      17.566  93.707   9.262  1.00  0.00     0.166 HD
HETATM   15  S1  UNL     1      18.638  93.829   6.063  1.00  0.00    -0.064 SA
HETATM   16  C19 UNL     1      17.146  95.611   6.691  1.00  0.00     0.048 A 
HETATM   17  C8  UNL     1      18.315  94.931   4.799  1.00  0.00     0.100 A 
HETATM   18  C20 UNL     1      17.463  95.829   5.390  1.00  0.00     0.083 A 
HETATM   19  N5  UNL     1      16.958  96.951   4.596  1.00  0.00    -0.100 NA
HETATM   20  C18 UNL     1      16.356  96.206   7.701  1.00  0.00     0.076 A 
HETATM   21 CL3  UNL     1      15.354  97.635   7.504  1.00  0.00    -0.081 Cl
BRANCH  17  22
HETATM   22  C7  UNL     1      18.816  94.936   3.409  1.00  0.00     0.262 C 
HETATM   23  N2  UNL     1      19.297  93.760   2.831  1.00  0.00    -0.344 N 
HETATM   24  C6  UNL     1      19.357  92.487   3.484  1.00  0.00     0.153 C 
HETATM   25  O2  UNL     1      18.789  96.011   2.794  1.00  0.00    -0.267 OA
BRANCH  23  26
HETATM   26  C5  UNL     1      19.776  93.849   1.451  1.00  0.00     0.212 C 
BRANCH  26  27
HETATM   27  C4  UNL     1      18.665  93.419   0.545  1.00  0.00     0.166 A 
HETATM   28  O1  UNL     1      17.399  93.743   0.647  1.00  0.00    -0.221 OA
HETATM   29  N1  UNL     1      16.708  93.196  -0.307  1.00  0.00    -0.247 N 
HETATM   30  C3  UNL     1      17.534  92.479  -1.080  1.00  0.00     0.103 A 
ATOM     31  H1  UNL     1      15.702  93.296  -0.445  1.00  0.00     0.196 HD
HETATM   32  N6  UNL     1      18.756  92.626  -0.538  1.00  0.00    -0.325 N 
ATOM     33  H6  UNL     1      19.614  92.204  -0.892  1.00  0.00     0.169 HD
BRANCH  30  34
HETATM   34  C2  UNL     1      17.109  91.709  -2.270  1.00  0.00     0.074 C 
HETATM   35  C1  UNL     1      16.217  92.533  -3.186  1.00  0.00     0.013 C 
ENDBRANCH  30  34
ENDBRANCH  26  27
ENDBRANCH  23  26
ENDBRANCH  17  22
ENDBRANCH   1  11
TORSDOF 5
ENDMDL
MODEL 3
REMARK VINA RESULT: -8.932729894      4.293     10.439
REMARK  5 active torsions:
REMARK  status: ('A' for Active; 'I' for Inactive)
REMARK    1  A    between atoms: C2_2  and  C3_3 
REMARK    2  A    between atoms: C4_7  and  C5_8 
REMARK    3  A    between atoms: C5_8  and  N2_9 
REMARK       I    between atoms: N2_9  and  C7_11 
REMARK    4  A    between atoms: C7_11  and  C8_13 
REMARK    5  A    between atoms: C10_18  and  C11_19 
ROOT
HETATM    1  C11 UNL     1      18.760  94.820   3.561  1.00  0.00     0.016 A 
HETATM    2  C12 UNL     1      18.021  94.226   2.558  1.00  0.00     0.040 A 
HETATM    3  C13 UNL     1      18.575  93.864   1.337  1.00  0.00     0.067 A 
HETATM    4  C14 UNL     1      17.763  93.248   0.319  1.00  0.00     0.101 C 
HETATM    5  N4  UNL     1      17.094  92.751  -0.494  1.00  0.00    -0.191 NA
HETATM    6  C15 UNL     1      19.898  94.094   1.099  1.00  0.00     0.056 A 
HETATM    7 CL1  UNL     1      20.654  93.654  -0.436  1.00  0.00    -0.083 Cl
HETATM    8  C16 UNL     1      20.651  94.684   2.083  1.00  0.00     0.050 A 
HETATM    9  C17 UNL     1      20.079  95.046   3.313  1.00  0.00     0.048 A 
HETATM   10 CL2  UNL     1      21.107  95.849   4.496  1.00  0.00    -0.083 Cl
ENDROOT
BRANCH   1  11
HETATM   11  C10 UNL     1      18.126  95.253   4.793  1.00  0.00     0.068 A 
HETATM   12  N3  UNL     1      17.291  96.296   4.927  1.00  0.00    -0.348 N 
HETATM   13  C9  UNL     1      16.842  96.325   6.224  1.00  0.00     0.089 A 
ATOM     14  H3  UNL     1      17.034  96.954   4.191  1.00  0.00     0.166 HD
HETATM   15  S1  UNL     1      15.862  97.128   7.353  1.00  0.00    -0.064 SA
HETATM   16  C19 UNL     1      17.380  95.306   6.944  1.00  0.00     0.048 A 
HETATM   17  C8  UNL     1      16.151  96.156   8.725  1.00  0.00     0.100 A 
HETATM   18  C20 UNL     1      17.024  95.211   8.249  1.00  0.00     0.083 A 
HETATM   19  N5  UNL     1      17.513  94.177   9.163  1.00  0.00    -0.100 NA
HETATM   20  C18 UNL     1      18.202  94.621   6.020  1.00  0.00     0.076 A 
HETATM   21 CL3  UNL     1      19.132  93.171   6.359  1.00  0.00    -0.081 Cl
BRANCH  17  22
HETATM   22  C7  UNL     1      15.607  96.280  10.094  1.00  0.00     0.262 C 
HETATM   23  N2  UNL     1      14.579  95.438  10.520  1.00  0.00    -0.344 N 
HETATM   24  C6  UNL     1      13.968  94.416   9.724  1.00  0.00     0.153 C 
HETATM   25  O2  UNL     1      16.097  97.149  10.828  1.00  0.00    -0.267 OA
BRANCH  23  26
HETATM   26  C5  UNL     1      14.095  95.626  11.888  1.00  0.00     0.212 C 
BRANCH  26  27
HETATM   27  C4  UNL     1      13.428  94.359  12.324  1.00  0.00     0.166 A 
HETATM   28  O1  UNL     1      12.156  94.061  12.204  1.00  0.00    -0.221 OA
HETATM   29  N1  UNL     1      11.916  92.880  12.686  1.00  0.00    -0.247 N 
HETATM   30  C3  UNL     1      13.062  92.361  13.147  1.00  0.00     0.103 A 
ATOM     31  H1  UNL     1      11.005  92.422  12.710  1.00  0.00     0.196 HD
HETATM   32  N6  UNL     1      14.001  93.296  12.915  1.00  0.00    -0.325 N 
ATOM     33  H6  UNL     1      14.990  93.211  13.149  1.00  0.00     0.169 HD
BRANCH  30  34
HETATM   34  C2  UNL     1      13.185  91.025  13.771  1.00  0.00     0.074 C 
HETATM   35  C1  UNL     1      12.953  89.909  12.765  1.00  0.00     0.013 C 
ENDBRANCH  30  34
ENDBRANCH  26  27
ENDBRANCH  23  26
ENDBRANCH  17  22
ENDBRANCH   1  11
TORSDOF 5
ENDMDL
MODEL 4
REMARK VINA RESULT: -8.677426923      1.600      2.227
REMARK  5 active torsions:
REMARK  status: ('A' for Active; 'I' for Inactive)
REMARK    1  A    between atoms: C2_2  and  C3_3 
REMARK    2  A    between atoms: C4_7  and  C5_8 
REMARK    3  A    between atoms: C5_8  and  N2_9 
REMARK       I    between atoms: N2_9  and  C7_11 
REMARK    4  A    between atoms: C7_11  and  C8_13 
REMARK    5  A    between atoms: C10_18  and  C11_19 
ROOT
HETATM    1  C11 UNL     1      15.223  95.478  10.692  1.00  0.00     0.016 A 
HETATM    2  C12 UNL     1      14.262  94.547  11.030  1.00  0.00     0.040 A 
HETATM    3  C13 UNL     1      13.617  94.552  12.260  1.00  0.00     0.067 A 
HETATM    4  C14 UNL     1      12.621  93.558  12.569  1.00  0.00     0.101 C 
HETATM    5  N4  UNL     1      11.819  92.748  12.802  1.00  0.00    -0.191 NA
HETATM    6  C15 UNL     1      13.930  95.505  13.184  1.00  0.00     0.056 A 
HETATM    7 CL1  UNL     1      13.141  95.558  14.763  1.00  0.00    -0.083 Cl
HETATM    8  C16 UNL     1      14.883  96.441  12.868  1.00  0.00     0.050 A 
HETATM    9  C17 UNL     1      15.528  96.425  11.621  1.00  0.00     0.048 A 
HETATM   10 CL2  UNL     1      16.778  97.629  11.324  1.00  0.00    -0.083 Cl
ENDROOT
BRANCH   1  11
HETATM   11  C10 UNL     1      15.928  95.392   9.425  1.00  0.00     0.068 A 
HETATM   12  N3  UNL     1      16.749  94.400   9.046  1.00  0.00    -0.348 N 
HETATM   13  C9  UNL     1      17.149  94.642   7.755  1.00  0.00     0.089 A 
ATOM     14  H3  UNL     1      17.028  93.603   9.618  1.00  0.00     0.166 HD
HETATM   15  S1  UNL     1      18.081  94.092   6.447  1.00  0.00    -0.064 SA
HETATM   16  C19 UNL     1      16.595  95.790   7.285  1.00  0.00     0.048 A 
HETATM   17  C8  UNL     1      17.752  95.332   5.321  1.00  0.00     0.100 A 
HETATM   18  C20 UNL     1      16.905  96.156   6.017  1.00  0.00     0.083 A 
HETATM   19  N5  UNL     1      16.396  97.362   5.360  1.00  0.00    -0.100 NA
HETATM   20  C18 UNL     1      15.811  96.266   8.362  1.00  0.00     0.076 A 
HETATM   21 CL3  UNL     1      14.810  97.708   8.337  1.00  0.00    -0.081 Cl
BRANCH  17  22
HETATM   22  C7  UNL     1      18.244  95.496   3.937  1.00  0.00     0.262 C 
HETATM   23  N2  UNL     1      19.526  95.065   3.591  1.00  0.00    -0.344 N 
HETATM   24  C6  UNL     1      20.457  94.450   4.489  1.00  0.00     0.153 C 
HETATM   25  O2  UNL     1      17.481  96.025   3.117  1.00  0.00    -0.267 OA
BRANCH  23  26
HETATM   26  C5  UNL     1      19.938  95.266   2.202  1.00  0.00     0.212 C 
BRANCH  26  27
HETATM   27  C4  UNL     1      19.321  94.184   1.373  1.00  0.00     0.166 A 
HETATM   28  O1  UNL     1      19.748  92.949   1.250  1.00  0.00    -0.221 OA
HETATM   29  N1  UNL     1      18.976  92.276   0.452  1.00  0.00    -0.247 N 
HETATM   30  C3  UNL     1      17.994  93.080   0.022  1.00  0.00     0.103 A 
ATOM     31  H1  UNL     1      19.096  91.296   0.196  1.00  0.00     0.196 HD
HETATM   32  N6  UNL     1      18.220  94.270   0.605  1.00  0.00    -0.325 N 
ATOM     33  H6  UNL     1      17.648  95.106   0.484  1.00  0.00     0.169 HD
BRANCH  30  34
HETATM   34  C2  UNL     1      16.918  92.664  -0.905  1.00  0.00     0.074 C 
HETATM   35  C1  UNL     1      17.466  91.889  -2.094  1.00  0.00     0.013 C 
ENDBRANCH  30  34
ENDBRANCH  26  27
ENDBRANCH  23  26
ENDBRANCH  17  22
ENDBRANCH   1  11
TORSDOF 5
ENDMDL
MODEL 5
REMARK VINA RESULT: -8.642225512      4.003     10.384
REMARK  5 active torsions:
REMARK  status: ('A' for Active; 'I' for Inactive)
REMARK    1  A    between atoms: C2_2  and  C3_3 
REMARK    2  A    between atoms: C4_7  and  C5_8 
REMARK    3  A    between atoms: C5_8  and  N2_9 
REMARK       I    between atoms: N2_9  and  C7_11 
REMARK    4  A    between atoms: C7_11  and  C8_13 
REMARK    5  A    between atoms: C10_18  and  C11_19 
ROOT
HETATM    1  C11 UNL     1      18.984  94.609   3.732  1.00  0.00     0.016 A 
HETATM    2  C12 UNL     1      18.443  93.991   2.623  1.00  0.00     0.040 A 
HETATM    3  C13 UNL     1      19.172  93.773   1.460  1.00  0.00     0.067 A 
HETATM    4  C14 UNL     1      18.564  93.125   0.327  1.00  0.00     0.101 C 
HETATM    5  N4  UNL     1      18.058  92.599  -0.581  1.00  0.00    -0.191 NA
HETATM    6  C15 UNL     1      20.473  94.178   1.391  1.00  0.00     0.056 A 
HETATM    7 CL1  UNL     1      21.444  93.926  -0.063  1.00  0.00    -0.083 Cl
HETATM    8  C16 UNL     1      21.029  94.794   2.483  1.00  0.00     0.050 A 
HETATM    9  C17 UNL     1      20.282  95.009   3.652  1.00  0.00     0.048 A 
HETATM   10 CL2  UNL     1      21.061  95.859   4.984  1.00  0.00    -0.083 Cl
ENDROOT
BRANCH   1  11
HETATM   11  C10 UNL     1      18.167  94.886   4.900  1.00  0.00     0.068 A 
HETATM   12  N3  UNL     1      18.159  94.180   6.043  1.00  0.00    -0.348 N 
HETATM   13  C9  UNL     1      17.318  94.806   6.929  1.00  0.00     0.089 A 
ATOM     14  H3  UNL     1      18.686  93.326   6.221  1.00  0.00     0.166 HD
HETATM   15  S1  UNL     1      16.646  94.776   8.487  1.00  0.00    -0.064 SA
HETATM   16  C19 UNL     1      16.773  95.920   6.373  1.00  0.00     0.048 A 
HETATM   17  C8  UNL     1      15.679  96.180   8.409  1.00  0.00     0.100 A 
HETATM   18  C20 UNL     1      15.917  96.641   7.139  1.00  0.00     0.083 A 
HETATM   19  N5  UNL     1      15.242  97.863   6.694  1.00  0.00    -0.100 NA
HETATM   20  C18 UNL     1      17.322  95.966   5.071  1.00  0.00     0.076 A 
HETATM   21 CL3  UNL     1      17.021  97.219   3.879  1.00  0.00    -0.081 Cl
BRANCH  17  22
HETATM   22  C7  UNL     1      14.799  96.771   9.439  1.00  0.00     0.262 C 
HETATM   23  N2  UNL     1      15.267  96.954  10.742  1.00  0.00    -0.344 N 
HETATM   24  C6  UNL     1      16.578  96.608  11.202  1.00  0.00     0.153 C 
HETATM   25  O2  UNL     1      13.651  97.089   9.098  1.00  0.00    -0.267 OA
BRANCH  23  26
HETATM   26  C5  UNL     1      14.333  97.544  11.701  1.00  0.00     0.212 C 
BRANCH  26  27
HETATM   27  C4  UNL     1      13.852  96.457  12.611  1.00  0.00     0.166 A 
HETATM   28  O1  UNL     1      13.590  96.565  13.891  1.00  0.00    -0.221 OA
HETATM   29  N1  UNL     1      13.191  95.427  14.373  1.00  0.00    -0.247 N 
HETATM   30  C3  UNL     1      13.183  94.520  13.387  1.00  0.00     0.103 A 
ATOM     31  H1  UNL     1      12.927  95.252  15.343  1.00  0.00     0.196 HD
HETATM   32  N6  UNL     1      13.597  95.176  12.289  1.00  0.00    -0.325 N 
ATOM     33  H6  UNL     1      13.702  94.768  11.360  1.00  0.00     0.169 HD
BRANCH  30  34
HETATM   34  C2  UNL     1      12.785  93.105  13.555  1.00  0.00     0.074 C 
HETATM   35  C1  UNL     1      12.766  92.362  12.228  1.00  0.00     0.013 C 
ENDBRANCH  30  34
ENDBRANCH  26  27
ENDBRANCH  23  26
ENDBRANCH  17  22
ENDBRANCH   1  11
TORSDOF 5
ENDMDL
