MODEL 1
REMARK VINA RESULT: -8.147711178      0.000      0.000
REMARK  6 active torsions:
REMARK  status: ('A' for Active; 'I' for Inactive)
REMARK    1  A    between atoms: O1_2  and  C2_3 
REMARK    2  A    between atoms: C4_5  and  C5_6 
REMARK    3  A    between atoms: C9_13  and  O3_14 
REMARK    4  A    between atoms: C18_25  and  O4_26 
REMARK    5  A    between atoms: C21_31  and  O5_32 
REMARK    6  A    between atoms: C23_34  and  O6_35 
ROOT
HETATM    1  C5  UNL     1      18.040  93.804   4.929  1.00  0.00     0.149 C 
HETATM    2  N1  UNL     1      17.367  94.995   5.355  1.00  0.00    -0.376 N 
ATOM      3  H1  UNL     1      17.182  95.750   4.695  1.00  0.00     0.160 HD
HETATM    4  C6  UNL     1      16.966  95.106   6.696  1.00  0.00     0.044 C 
HETATM    5  C7  UNL     1      16.141  96.181   6.937  1.00  0.00     0.087 C 
HETATM    6  C8  UNL     1      16.009  96.892   8.124  1.00  0.00     0.208 C 
HETATM    7  O2  UNL     1      15.524  98.046   8.049  1.00  0.00    -0.285 OA
HETATM    8  C9  UNL     1      16.363  96.457   9.400  1.00  0.00     0.140 C 
HETATM    9  C11 UNL     1      16.578  95.120   9.774  1.00  0.00     0.072 C 
HETATM   10 CL1  UNL     1      16.200  94.819  11.467  1.00  0.00    -0.081 Cl
HETATM   11  C12 UNL     1      16.990  94.085   8.974  1.00  0.00     0.041 C 
HETATM   12  C13 UNL     1      17.441  94.202   7.673  1.00  0.00     0.005 C 
HETATM   13  C14 UNL     1      18.354  93.142   7.317  1.00  0.00     0.010 A 
HETATM   14  C15 UNL     1      18.715  93.028   5.967  1.00  0.00    -0.015 A 
HETATM   15  C16 UNL     1      19.690  92.096   5.623  1.00  0.00     0.055 A 
HETATM   16  C17 UNL     1      20.272  91.319   6.576  1.00  0.00     0.151 A 
HETATM   17  F1  UNL     1      21.210  90.424   6.202  1.00  0.00    -0.203 F 
HETATM   18  C18 UNL     1      19.898  91.451   7.894  1.00  0.00     0.127 A 
HETATM   19  C19 UNL     1      18.933  92.372   8.277  1.00  0.00     0.082 A 
HETATM   20 CL2  UNL     1      18.707  92.534   9.982  1.00  0.00    -0.080 Cl
ENDROOT
BRANCH   1  21
HETATM   21  C4  UNL     1      18.852  94.027   3.719  1.00  0.00    -0.026 A 
HETATM   22  C3  UNL     1      20.012  94.767   3.762  1.00  0.00     0.049 A 
HETATM   23  C2  UNL     1      20.762  94.998   2.632  1.00  0.00     0.104 A 
HETATM   24  C23 UNL     1      20.314  94.457   1.426  1.00  0.00     0.135 A 
HETATM   25  C21 UNL     1      19.161  93.711   1.332  1.00  0.00     0.104 A 
HETATM   26  C20 UNL     1      18.456  93.520   2.512  1.00  0.00     0.049 A 
BRANCH  23  27
HETATM   27  O1  UNL     1      21.918  95.742   2.712  1.00  0.00    -0.353 OA
HETATM   28  C1  UNL     1      21.880  97.115   2.395  1.00  0.00     0.210 C 
ENDBRANCH  23  27
BRANCH  24  29
HETATM   29  O6  UNL     1      21.083  94.701   0.302  1.00  0.00    -0.351 OA
HETATM   30  C24 UNL     1      22.128  93.867  -0.123  1.00  0.00     0.210 C 
ENDBRANCH  24  29
BRANCH  25  31
HETATM   31  O5  UNL     1      18.753  93.194   0.113  1.00  0.00    -0.353 OA
HETATM   32  C22 UNL     1      17.429  92.907  -0.218  1.00  0.00     0.210 C 
ENDBRANCH  25  31
ENDBRANCH   1  21
BRANCH  18  33
HETATM   33  O4  UNL     1      20.492  90.656   8.861  1.00  0.00    -0.356 OA
ATOM     34  H4  UNL     1      20.580  89.722   8.714  1.00  0.00     0.218 HD
ENDBRANCH  18  33
BRANCH   8  35
HETATM   35  O3  UNL     1      16.523  97.383  10.407  1.00  0.00    -0.351 OA
HETATM   36  C10 UNL     1      15.515  97.632  11.368  1.00  0.00     0.210 C 
ENDBRANCH   8  35
TORSDOF 6
ENDMDL
MODEL 2
REMARK VINA RESULT: -8.019621082      0.076      2.156
REMARK  6 active torsions:
REMARK  status: ('A' for Active; 'I' for Inactive)
REMARK    1  A    between atoms: O1_2  and  C2_3 
REMARK    2  A    between atoms: C4_5  and  C5_6 
REMARK    3  A    between atoms: C9_13  and  O3_14 
REMARK    4  A    between atoms: C18_25  and  O4_26 
REMARK    5  A    between atoms: C21_31  and  O5_32 
REMARK    6  A    between atoms: C23_34  and  O6_35 
ROOT
HETATM    1  C5  UNL     1      17.972  93.831   4.898  1.00  0.00     0.149 C 
HETATM    2  N1  UNL     1      17.296  95.019   5.326  1.00  0.00    -0.376 N 
ATOM      3  H1  UNL     1      17.100  95.770   4.665  1.00  0.00     0.160 HD
HETATM    4  C6  UNL     1      16.909  95.132   6.671  1.00  0.00     0.044 C 
HETATM    5  C7  UNL     1      16.080  96.204   6.916  1.00  0.00     0.087 C 
HETATM    6  C8  UNL     1      15.957  96.917   8.102  1.00  0.00     0.208 C 
HETATM    7  O2  UNL     1      15.465  98.069   8.029  1.00  0.00    -0.285 OA
HETATM    8  C9  UNL     1      16.327  96.490   9.376  1.00  0.00     0.140 C 
HETATM    9  C11 UNL     1      16.554  95.155   9.753  1.00  0.00     0.072 C 
HETATM   10 CL1  UNL     1      16.196  94.858  11.451  1.00  0.00    -0.081 Cl
HETATM   11  C12 UNL     1      16.964  94.119   8.952  1.00  0.00     0.041 C 
HETATM   12  C13 UNL     1      17.400  94.235   7.646  1.00  0.00     0.005 C 
HETATM   13  C14 UNL     1      18.316  93.179   7.284  1.00  0.00     0.010 A 
HETATM   14  C15 UNL     1      18.663  93.062   5.931  1.00  0.00    -0.015 A 
HETATM   15  C16 UNL     1      19.640  92.135   5.580  1.00  0.00     0.055 A 
HETATM   16  C17 UNL     1      20.237  91.364   6.529  1.00  0.00     0.151 A 
HETATM   17  F1  UNL     1      21.176  90.474   6.148  1.00  0.00    -0.203 F 
HETATM   18  C18 UNL     1      19.876  91.500   7.850  1.00  0.00     0.127 A 
HETATM   19  C19 UNL     1      18.910  92.415   8.240  1.00  0.00     0.082 A 
HETATM   20 CL2  UNL     1      18.701  92.583   9.947  1.00  0.00    -0.080 Cl
ENDROOT
BRANCH   1  21
HETATM   21  C4  UNL     1      18.770  94.054   3.677  1.00  0.00    -0.026 A 
HETATM   22  C3  UNL     1      18.387  93.527   2.466  1.00  0.00     0.049 A 
HETATM   23  C2  UNL     1      19.139  93.713   1.328  1.00  0.00     0.104 A 
HETATM   24  C23 UNL     1      20.314  94.458   1.434  1.00  0.00     0.135 A 
HETATM   25  C21 UNL     1      20.739  95.005   2.624  1.00  0.00     0.104 A 
HETATM   26  C20 UNL     1      19.930  94.776   3.728  1.00  0.00     0.049 A 
BRANCH  23  27
HETATM   27  O1  UNL     1      18.725  93.170   0.132  1.00  0.00    -0.353 OA
HETATM   28  C1  UNL     1      17.348  92.990  -0.107  1.00  0.00     0.210 C 
ENDBRANCH  23  27
BRANCH  24  29
HETATM   29  O6  UNL     1      21.055  94.632   0.279  1.00  0.00    -0.351 OA
HETATM   30  C24 UNL     1      22.161  93.841  -0.064  1.00  0.00     0.210 C 
ENDBRANCH  24  29
BRANCH  25  31
HETATM   31  O5  UNL     1      21.913  95.738   2.683  1.00  0.00    -0.353 OA
HETATM   32  C22 UNL     1      22.036  97.065   2.272  1.00  0.00     0.210 C 
ENDBRANCH  25  31
ENDBRANCH   1  21
BRANCH  18  33
HETATM   33  O4  UNL     1      20.485  90.711   8.814  1.00  0.00    -0.356 OA
ATOM     34  H4  UNL     1      20.453  90.973   9.726  1.00  0.00     0.218 HD
ENDBRANCH  18  33
BRANCH   8  35
HETATM   35  O3  UNL     1      16.492  97.420  10.378  1.00  0.00    -0.351 OA
HETATM   36  C10 UNL     1      15.527  97.613  11.393  1.00  0.00     0.210 C 
ENDBRANCH   8  35
TORSDOF 6
ENDMDL
MODEL 3
REMARK VINA RESULT: -7.929605060      2.698      7.753
REMARK  6 active torsions:
REMARK  status: ('A' for Active; 'I' for Inactive)
REMARK    1  A    between atoms: O1_2  and  C2_3 
REMARK    2  A    between atoms: C4_5  and  C5_6 
REMARK    3  A    between atoms: C9_13  and  O3_14 
REMARK    4  A    between atoms: C18_25  and  O4_26 
REMARK    5  A    between atoms: C21_31  and  O5_32 
REMARK    6  A    between atoms: C23_34  and  O6_35 
ROOT
HETATM    1  C5  UNL     1      17.586  95.373   7.592  1.00  0.00     0.149 C 
HETATM    2  N1  UNL     1      17.176  95.885   6.319  1.00  0.00    -0.376 N 
ATOM      3  H1  UNL     1      16.437  96.584   6.255  1.00  0.00     0.160 HD
HETATM    4  C6  UNL     1      17.812  95.410   5.160  1.00  0.00     0.044 C 
HETATM    5  C7  UNL     1      17.497  96.127   4.027  1.00  0.00     0.087 C 
HETATM    6  C8  UNL     1      17.474  95.663   2.717  1.00  0.00     0.208 C 
HETATM    7  O2  UNL     1      16.805  96.324   1.888  1.00  0.00    -0.285 OA
HETATM    8  C9  UNL     1      18.118  94.531   2.221  1.00  0.00     0.140 C 
HETATM    9  C11 UNL     1      19.181  93.859   2.848  1.00  0.00     0.072 C 
HETATM   10 CL1  UNL     1      20.256  93.067   1.700  1.00  0.00    -0.081 Cl
HETATM   11  C12 UNL     1      19.460  93.805   4.190  1.00  0.00     0.041 C 
HETATM   12  C13 UNL     1      18.639  94.266   5.202  1.00  0.00     0.005 C 
HETATM   13  C14 UNL     1      18.852  93.553   6.440  1.00  0.00     0.010 A 
HETATM   14  C15 UNL     1      18.237  94.064   7.592  1.00  0.00    -0.015 A 
HETATM   15  C16 UNL     1      18.324  93.324   8.768  1.00  0.00     0.055 A 
HETATM   16  C17 UNL     1      18.991  92.139   8.792  1.00  0.00     0.151 A 
HETATM   17  F1  UNL     1      19.057  91.454   9.952  1.00  0.00    -0.203 F 
HETATM   18  C18 UNL     1      19.586  91.661   7.647  1.00  0.00     0.127 A 
HETATM   19  C19 UNL     1      19.518  92.368   6.455  1.00  0.00     0.082 A 
HETATM   20 CL2  UNL     1      20.163  91.550   5.076  1.00  0.00    -0.080 Cl
ENDROOT
BRANCH   1  21
HETATM   21  C4  UNL     1      16.534  95.523   8.615  1.00  0.00    -0.026 A 
HETATM   22  C3  UNL     1      16.578  96.539   9.542  1.00  0.00     0.049 A 
HETATM   23  C2  UNL     1      15.612  96.671  10.513  1.00  0.00     0.104 A 
HETATM   24  C23 UNL     1      14.575  95.738  10.537  1.00  0.00     0.135 A 
HETATM   25  C21 UNL     1      14.488  94.704   9.633  1.00  0.00     0.104 A 
HETATM   26  C20 UNL     1      15.497  94.635   8.682  1.00  0.00     0.049 A 
BRANCH  23  27
HETATM   27  O1  UNL     1      15.688  97.701  11.425  1.00  0.00    -0.353 OA
HETATM   28  C1  UNL     1      16.460  97.537  12.592  1.00  0.00     0.210 C 
ENDBRANCH  23  27
BRANCH  24  29
HETATM   29  O6  UNL     1      13.615  95.890  11.522  1.00  0.00    -0.351 OA
HETATM   30  C24 UNL     1      13.763  95.414  12.833  1.00  0.00     0.210 C 
ENDBRANCH  24  29
BRANCH  25  31
HETATM   31  O5  UNL     1      13.440  93.800   9.694  1.00  0.00    -0.353 OA
HETATM   32  C22 UNL     1      13.096  93.068  10.829  1.00  0.00     0.210 C 
ENDBRANCH  25  31
ENDBRANCH   1  21
BRANCH  18  33
HETATM   33  O4  UNL     1      20.267  90.454   7.677  1.00  0.00    -0.356 OA
ATOM     34  H4  UNL     1      20.517  90.034   6.863  1.00  0.00     0.218 HD
ENDBRANCH  18  33
BRANCH   8  35
HETATM   35  O3  UNL     1      17.711  93.996   1.019  1.00  0.00    -0.351 OA
HETATM   36  C10 UNL     1      16.821  92.899   0.947  1.00  0.00     0.210 C 
ENDBRANCH   8  35
TORSDOF 6
ENDMDL
MODEL 4
REMARK VINA RESULT: -7.887161355      2.685      7.919
REMARK  6 active torsions:
REMARK  status: ('A' for Active; 'I' for Inactive)
REMARK    1  A    between atoms: O1_2  and  C2_3 
REMARK    2  A    between atoms: C4_5  and  C5_6 
REMARK    3  A    between atoms: C9_13  and  O3_14 
REMARK    4  A    between atoms: C18_25  and  O4_26 
REMARK    5  A    between atoms: C21_31  and  O5_32 
REMARK    6  A    between atoms: C23_34  and  O6_35 
ROOT
HETATM    1  C5  UNL     1      17.704  95.230   7.468  1.00  0.00     0.149 C 
HETATM    2  N1  UNL     1      17.290  95.764   6.205  1.00  0.00    -0.376 N 
ATOM      3  H1  UNL     1      16.550  96.464   6.155  1.00  0.00     0.160 HD
HETATM    4  C6  UNL     1      17.922  95.308   5.036  1.00  0.00     0.044 C 
HETATM    5  C7  UNL     1      17.603  96.044   3.916  1.00  0.00     0.087 C 
HETATM    6  C8  UNL     1      17.576  95.601   2.599  1.00  0.00     0.208 C 
HETATM    7  O2  UNL     1      16.903  96.277   1.783  1.00  0.00    -0.285 OA
HETATM    8  C9  UNL     1      18.218  94.478   2.082  1.00  0.00     0.140 C 
HETATM    9  C11 UNL     1      19.283  93.796   2.694  1.00  0.00     0.072 C 
HETATM   10 CL1  UNL     1      20.355  93.024   1.530  1.00  0.00    -0.081 Cl
HETATM   11  C12 UNL     1      19.567  93.720   4.034  1.00  0.00     0.041 C 
HETATM   12  C13 UNL     1      18.750  94.163   5.057  1.00  0.00     0.005 C 
HETATM   13  C14 UNL     1      18.967  93.431   6.282  1.00  0.00     0.010 A 
HETATM   14  C15 UNL     1      18.356  93.922   7.444  1.00  0.00    -0.015 A 
HETATM   15  C16 UNL     1      18.447  93.163   8.607  1.00  0.00     0.055 A 
HETATM   16  C17 UNL     1      19.115  91.977   8.609  1.00  0.00     0.151 A 
HETATM   17  F1  UNL     1      19.184  91.273   9.757  1.00  0.00    -0.203 F 
HETATM   18  C18 UNL     1      19.706  91.519   7.454  1.00  0.00     0.127 A 
HETATM   19  C19 UNL     1      19.633  92.245   6.274  1.00  0.00     0.082 A 
HETATM   20 CL2  UNL     1      20.274  91.450   4.880  1.00  0.00    -0.080 Cl
ENDROOT
BRANCH   1  21
HETATM   21  C4  UNL     1      16.656  95.363   8.497  1.00  0.00    -0.026 A 
HETATM   22  C3  UNL     1      15.532  94.570   8.480  1.00  0.00     0.049 A 
HETATM   23  C2  UNL     1      14.540  94.705   9.424  1.00  0.00     0.104 A 
HETATM   24  C23 UNL     1      14.704  95.675  10.413  1.00  0.00     0.135 A 
HETATM   25  C21 UNL     1      15.810  96.493  10.472  1.00  0.00     0.104 A 
HETATM   26  C20 UNL     1      16.769  96.300   9.487  1.00  0.00     0.049 A 
BRANCH  23  27
HETATM   27  O1  UNL     1      13.428  93.894   9.376  1.00  0.00    -0.353 OA
HETATM   28  C1  UNL     1      13.294  92.964   8.325  1.00  0.00     0.210 C 
ENDBRANCH  23  27
BRANCH  24  29
HETATM   29  O6  UNL     1      13.695  95.794  11.352  1.00  0.00    -0.351 OA
HETATM   30  C24 UNL     1      13.576  94.963  12.476  1.00  0.00     0.210 C 
ENDBRANCH  24  29
BRANCH  25  31
HETATM   31  O5  UNL     1      15.931  97.444  11.472  1.00  0.00    -0.353 OA
HETATM   32  C22 UNL     1      16.356  97.172  12.772  1.00  0.00     0.210 C 
ENDBRANCH  25  31
ENDBRANCH   1  21
BRANCH  18  33
HETATM   33  O4  UNL     1      20.386  90.312   7.462  1.00  0.00    -0.356 OA
ATOM     34  H4  UNL     1      20.538  89.851   6.645  1.00  0.00     0.218 HD
ENDBRANCH  18  33
BRANCH   8  35
HETATM   35  O3  UNL     1      17.807  93.963   0.873  1.00  0.00    -0.351 OA
HETATM   36  C10 UNL     1      16.901  92.880   0.785  1.00  0.00     0.210 C 
ENDBRANCH   8  35
TORSDOF 6
ENDMDL
MODEL 5
REMARK VINA RESULT: -7.634437272      9.106     13.048
REMARK  6 active torsions:
REMARK  status: ('A' for Active; 'I' for Inactive)
REMARK    1  A    between atoms: O1_2  and  C2_3 
REMARK    2  A    between atoms: C4_5  and  C5_6 
REMARK    3  A    between atoms: C9_13  and  O3_14 
REMARK    4  A    between atoms: C18_25  and  O4_26 
REMARK    5  A    between atoms: C21_31  and  O5_32 
REMARK    6  A    between atoms: C23_34  and  O6_35 
ROOT
HETATM    1  C5  UNL     1      18.805  88.008  -3.225  1.00  0.00     0.149 C 
HETATM    2  N1  UNL     1      19.637  88.071  -2.060  1.00  0.00    -0.376 N 
ATOM      3  H1  UNL     1      19.383  88.668  -1.274  1.00  0.00     0.160 HD
HETATM    4  C6  UNL     1      20.807  87.296  -2.020  1.00  0.00     0.044 C 
HETATM    5  C7  UNL     1      21.403  87.264  -0.779  1.00  0.00     0.087 C 
HETATM    6  C8  UNL     1      22.753  87.094  -0.499  1.00  0.00     0.208 C 
HETATM    7  O2  UNL     1      23.156  87.475   0.627  1.00  0.00    -0.285 OA
HETATM    8  C9  UNL     1      23.718  86.543  -1.340  1.00  0.00     0.140 C 
HETATM    9  C11 UNL     1      23.456  85.743  -2.465  1.00  0.00     0.072 C 
HETATM   10 CL1  UNL     1      24.746  84.592  -2.796  1.00  0.00    -0.081 Cl
HETATM   11  C12 UNL     1      22.332  85.751  -3.252  1.00  0.00     0.041 C 
HETATM   12  C13 UNL     1      21.309  86.678  -3.187  1.00  0.00     0.005 C 
HETATM   13  C14 UNL     1      20.632  86.829  -4.453  1.00  0.00     0.010 A 
HETATM   14  C15 UNL     1      19.447  87.577  -4.465  1.00  0.00    -0.015 A 
HETATM   15  C16 UNL     1      18.848  87.841  -5.694  1.00  0.00     0.055 A 
HETATM   16  C17 UNL     1      19.402  87.381  -6.848  1.00  0.00     0.151 A 
HETATM   17  F1  UNL     1      18.789  87.654  -8.017  1.00  0.00    -0.203 F 
HETATM   18  C18 UNL     1      20.566  86.648  -6.806  1.00  0.00     0.127 A 
HETATM   19  C19 UNL     1      21.195  86.367  -5.602  1.00  0.00     0.082 A 
HETATM   20 CL2  UNL     1      22.732  85.590  -5.738  1.00  0.00    -0.080 Cl
ENDROOT
BRANCH   1  21
HETATM   21  C4  UNL     1      17.960  89.209  -3.369  1.00  0.00    -0.026 A 
HETATM   22  C3  UNL     1      16.950  89.264  -4.302  1.00  0.00     0.049 A 
HETATM   23  C2  UNL     1      16.172  90.389  -4.458  1.00  0.00     0.104 A 
HETATM   24  C23 UNL     1      16.435  91.486  -3.636  1.00  0.00     0.135 A 
HETATM   25  C21 UNL     1      17.435  91.479  -2.689  1.00  0.00     0.104 A 
HETATM   26  C20 UNL     1      18.177  90.310  -2.590  1.00  0.00     0.049 A 
BRANCH  23  27
HETATM   27  O1  UNL     1      15.170  90.409  -5.401  1.00  0.00    -0.353 OA
HETATM   28  C1  UNL     1      13.825  90.348  -4.984  1.00  0.00     0.210 C 
ENDBRANCH  23  27
BRANCH  24  29
HETATM   29  O6  UNL     1      15.642  92.606  -3.809  1.00  0.00    -0.351 OA
HETATM   30  C24 UNL     1      16.044  93.741  -4.528  1.00  0.00     0.210 C 
ENDBRANCH  24  29
BRANCH  25  31
HETATM   31  O5  UNL     1      17.661  92.591  -1.895  1.00  0.00    -0.353 OA
HETATM   32  C22 UNL     1      17.272  92.700  -0.561  1.00  0.00     0.210 C 
ENDBRANCH  25  31
ENDBRANCH   1  21
BRANCH  18  33
HETATM   33  O4  UNL     1      21.126  86.179  -7.984  1.00  0.00    -0.356 OA
ATOM     34  H4  UNL     1      22.068  86.081  -8.053  1.00  0.00     0.218 HD
ENDBRANCH  18  33
BRANCH   8  35
HETATM   35  O3  UNL     1      25.050  86.778  -1.083  1.00  0.00    -0.351 OA
HETATM   36  C10 UNL     1      25.697  87.969  -1.488  1.00  0.00     0.210 C 
ENDBRANCH   8  35
TORSDOF 6
ENDMDL
