MODEL 1
REMARK VINA RESULT: -10.227163272      0.000      0.000
REMARK  7 active torsions:
REMARK  status: ('A' for Active; 'I' for Inactive)
REMARK    1  A    between atoms: C3_4  and  C4_5 
REMARK    2  A    between atoms: C5_9  and  C6_10 
REMARK    3  A    between atoms: C9_13  and  C10_14 
REMARK    4  A    between atoms: C10_14  and  N3_15 
REMARK    5  A    between atoms: N3_15  and  C11_17 
REMARK    6  A    between atoms: C11_17  and  C12_18 
REMARK    7  A    between atoms: C22_35  and  C23_36 
ROOT
HETATM    1  C4  UNL     1      18.460  92.667  -0.089  1.00  0.00     0.139 A 
HETATM    2  N2  UNL     1      19.014  91.731   0.698  1.00  0.00    -0.242 N 
ATOM      3  H2  UNL     1      18.916  90.723   0.573  1.00  0.00     0.196 HD
HETATM    4  O1  UNL     1      19.692  92.306   1.639  1.00  0.00    -0.222 OA
HETATM    5  C5  UNL     1      19.618  93.618   1.516  1.00  0.00     0.152 A 
HETATM    6  N4  UNL     1      18.847  93.841   0.436  1.00  0.00    -0.322 N 
ATOM      7  H4  UNL     1      18.596  94.760   0.072  1.00  0.00     0.169 HD
ENDROOT
BRANCH   5   8
HETATM    8  C6  UNL     1      20.276  94.593   2.425  1.00  0.00     0.063 C 
HETATM    9  C7  UNL     1      19.380  95.802   2.621  1.00  0.00     0.013 C 
HETATM   10  C8  UNL     1      18.170  95.510   3.452  1.00  0.00     0.007 C 
HETATM   11  C9  UNL     1      18.516  94.663   4.650  1.00  0.00     0.003 C 
HETATM   12  C19 UNL     1      19.996  94.611   4.874  1.00  0.00     0.007 C 
HETATM   13  C20 UNL     1      20.679  93.939   3.702  1.00  0.00     0.013 C 
BRANCH  11  14
HETATM   14  C10 UNL     1      17.902  95.361   5.892  1.00  0.00     0.119 C 
BRANCH  14  15
HETATM   15  N3  UNL     1      18.570  94.954   7.060  1.00  0.00    -0.405 N 
ATOM     16  H3  UNL     1      19.519  95.282   7.243  1.00  0.00     0.154 HD
BRANCH  15  17
HETATM   17  C11 UNL     1      17.934  94.094   7.982  1.00  0.00     0.124 C 
HETATM   18  C13 UNL     1      17.458  92.836   7.248  1.00  0.00     0.040 C 
HETATM   19  C14 UNL     1      18.587  92.057   6.640  1.00  0.00     0.003 C 
HETATM   20  C15 UNL     1      18.986  90.888   7.547  1.00  0.00     0.000 C 
HETATM   21  C16 UNL     1      19.804  91.520   8.668  1.00  0.00     0.000 C 
HETATM   22  C17 UNL     1      18.802  92.289   9.525  1.00  0.00     0.003 C 
HETATM   23  C18 UNL     1      18.849  93.729   9.144  1.00  0.00     0.040 C 
BRANCH  17  24
HETATM   24  C12 UNL     1      16.691  94.717   8.559  1.00  0.00     0.412 C 
HETATM   25  F1  UNL     1      16.643  96.084   8.266  1.00  0.00    -0.168 F 
HETATM   26  F2  UNL     1      16.713  94.590   9.920  1.00  0.00    -0.168 F 
HETATM   27  F3  UNL     1      15.525  94.205   7.978  1.00  0.00    -0.168 F 
ENDBRANCH  17  24
ENDBRANCH  15  17
ENDBRANCH  14  15
ENDBRANCH  11  14
ENDBRANCH   5   8
BRANCH   1  28
HETATM   28  C3  UNL     1      17.634  92.372  -1.245  1.00  0.00     0.027 A 
HETATM   29  C2  UNL     1      18.037  91.478  -2.211  1.00  0.00     0.045 A 
HETATM   30  C1  UNL     1      17.223  91.208  -3.303  1.00  0.00     0.070 A 
HETATM   31  N1  UNL     1      17.710  90.278  -4.243  1.00  0.00    -0.100 NA
HETATM   32  C22 UNL     1      15.999  91.818  -3.465  1.00  0.00     0.040 A 
HETATM   33  N5  UNL     1      15.618  92.689  -2.517  1.00  0.00    -0.366 N 
HETATM   34  C21 UNL     1      16.389  92.978  -1.430  1.00  0.00     0.103 A 
ATOM     35  H5  UNL     1      14.715  93.154  -2.613  1.00  0.00     0.165 HD
BRANCH  32  36
HETATM   36  C23 UNL     1      15.180  91.506  -4.638  1.00  0.00     0.063 C 
HETATM   37  C24 UNL     1      14.351  90.238  -4.397  1.00  0.00     0.039 C 
HETATM   38  C25 UNL     1      13.207  90.510  -5.371  1.00  0.00     0.168 C 
HETATM   39  O2  UNL     1      12.950  91.851  -5.286  1.00  0.00    -0.390 OA
HETATM   40  C26 UNL     1      14.076  92.512  -4.869  1.00  0.00     0.178 C 
ENDBRANCH  32  36
ENDBRANCH   1  28
TORSDOF 7
ENDMDL
MODEL 2
REMARK VINA RESULT: -9.670827297      1.729      2.907
REMARK  7 active torsions:
REMARK  status: ('A' for Active; 'I' for Inactive)
REMARK    1  A    between atoms: C3_4  and  C4_5 
REMARK    2  A    between atoms: C5_9  and  C6_10 
REMARK    3  A    between atoms: C9_13  and  C10_14 
REMARK    4  A    between atoms: C10_14  and  N3_15 
REMARK    5  A    between atoms: N3_15  and  C11_17 
REMARK    6  A    between atoms: C11_17  and  C12_18 
REMARK    7  A    between atoms: C22_35  and  C23_36 
ROOT
HETATM    1  C4  UNL     1      18.272  93.411   0.912  1.00  0.00     0.139 A 
HETATM    2  N2  UNL     1      18.298  94.688   1.327  1.00  0.00    -0.242 N 
ATOM      3  H2  UNL     1      17.896  95.479   0.824  1.00  0.00     0.196 HD
HETATM    4  O1  UNL     1      18.911  94.758   2.465  1.00  0.00    -0.222 OA
HETATM    5  C5  UNL     1      19.308  93.557   2.843  1.00  0.00     0.152 A 
HETATM    6  N4  UNL     1      18.907  92.717   1.870  1.00  0.00    -0.322 N 
ATOM      7  H4  UNL     1      19.062  91.709   1.863  1.00  0.00     0.169 HD
ENDROOT
BRANCH   5   8
HETATM    8  C6  UNL     1      20.046  93.263   4.100  1.00  0.00     0.063 C 
HETATM    9  C7  UNL     1      20.178  94.529   4.927  1.00  0.00     0.013 C 
HETATM   10  C8  UNL     1      18.884  94.975   5.531  1.00  0.00     0.007 C 
HETATM   11  C9  UNL     1      18.112  93.813   6.103  1.00  0.00     0.003 C 
HETATM   12  C19 UNL     1      18.969  92.589   6.212  1.00  0.00     0.007 C 
HETATM   13  C20 UNL     1      19.410  92.135   4.837  1.00  0.00     0.013 C 
BRANCH  11  14
HETATM   14  C10 UNL     1      17.709  94.204   7.549  1.00  0.00     0.119 C 
BRANCH  14  15
HETATM   15  N3  UNL     1      16.364  94.612   7.586  1.00  0.00    -0.405 N 
ATOM     16  H3  UNL     1      15.651  94.059   7.108  1.00  0.00     0.154 HD
BRANCH  15  17
HETATM   17  C11 UNL     1      15.993  95.785   8.280  1.00  0.00     0.124 C 
HETATM   18  C13 UNL     1      14.526  95.674   8.705  1.00  0.00     0.040 C 
HETATM   19  C14 UNL     1      14.278  94.525   9.638  1.00  0.00     0.003 C 
HETATM   20  C15 UNL     1      14.245  95.008  11.092  1.00  0.00     0.000 C 
HETATM   21  C16 UNL     1      15.706  95.219  11.471  1.00  0.00     0.000 C 
HETATM   22  C17 UNL     1      16.153  96.464  10.710  1.00  0.00     0.003 C 
HETATM   23  C18 UNL     1      16.888  96.040   9.485  1.00  0.00     0.040 C 
BRANCH  17  24
HETATM   24  C12 UNL     1      16.063  97.002   7.395  1.00  0.00     0.412 C 
HETATM   25  F1  UNL     1      16.073  96.630   6.047  1.00  0.00    -0.168 F 
HETATM   26  F2  UNL     1      17.227  97.673   7.643  1.00  0.00    -0.168 F 
HETATM   27  F3  UNL     1      14.926  97.809   7.516  1.00  0.00    -0.168 F 
ENDBRANCH  17  24
ENDBRANCH  15  17
ENDBRANCH  14  15
ENDBRANCH  11  14
ENDBRANCH   5   8
BRANCH   1  28
HETATM   28  C3  UNL     1      17.657  92.972  -0.327  1.00  0.00     0.027 A 
HETATM   29  C2  UNL     1      18.265  92.048  -1.147  1.00  0.00     0.045 A 
HETATM   30  C1  UNL     1      17.651  91.640  -2.323  1.00  0.00     0.070 A 
HETATM   31  N1  UNL     1      18.340  90.688  -3.101  1.00  0.00    -0.100 NA
HETATM   32  C22 UNL     1      16.428  92.137  -2.714  1.00  0.00     0.040 A 
HETATM   33  N5  UNL     1      15.845  93.038  -1.907  1.00  0.00    -0.366 N 
HETATM   34  C21 UNL     1      16.418  93.462  -0.744  1.00  0.00     0.103 A 
ATOM     35  H5  UNL     1      14.939  93.421  -2.175  1.00  0.00     0.165 HD
BRANCH  32  36
HETATM   36  C23 UNL     1      15.824  91.680  -3.968  1.00  0.00     0.063 C 
HETATM   37  C24 UNL     1      14.896  90.484  -3.717  1.00  0.00     0.039 C 
HETATM   38  C25 UNL     1      13.969  90.643  -4.919  1.00  0.00     0.168 C 
HETATM   39  O2  UNL     1      13.775  91.988  -5.070  1.00  0.00    -0.390 OA
HETATM   40  C26 UNL     1      14.839  92.672  -4.541  1.00  0.00     0.178 C 
ENDBRANCH  32  36
ENDBRANCH   1  28
TORSDOF 7
ENDMDL
MODEL 3
REMARK VINA RESULT: -9.567893773      1.913      2.828
REMARK  7 active torsions:
REMARK  status: ('A' for Active; 'I' for Inactive)
REMARK    1  A    between atoms: C3_4  and  C4_5 
REMARK    2  A    between atoms: C5_9  and  C6_10 
REMARK    3  A    between atoms: C9_13  and  C10_14 
REMARK    4  A    between atoms: C10_14  and  N3_15 
REMARK    5  A    between atoms: N3_15  and  C11_17 
REMARK    6  A    between atoms: C11_17  and  C12_18 
REMARK    7  A    between atoms: C22_35  and  C23_36 
ROOT
HETATM    1  C4  UNL     1      18.129  93.316   0.791  1.00  0.00     0.139 A 
HETATM    2  N2  UNL     1      18.836  92.503   1.592  1.00  0.00    -0.242 N 
ATOM      3  H2  UNL     1      19.020  91.515   1.415  1.00  0.00     0.196 HD
HETATM    4  O1  UNL     1      19.249  93.168   2.623  1.00  0.00    -0.222 OA
HETATM    5  C5  UNL     1      18.841  94.421   2.549  1.00  0.00     0.152 A 
HETATM    6  N4  UNL     1      18.142  94.511   1.404  1.00  0.00    -0.322 N 
ATOM      7  H4  UNL     1      17.691  95.356   1.054  1.00  0.00     0.169 HD
ENDROOT
BRANCH   5   8
HETATM    8  C6  UNL     1      19.131  95.469   3.564  1.00  0.00     0.063 C 
HETATM    9  C7  UNL     1      17.832  96.050   4.091  1.00  0.00     0.013 C 
HETATM   10  C8  UNL     1      17.075  95.101   4.966  1.00  0.00     0.007 C 
HETATM   11  C9  UNL     1      17.991  94.386   5.926  1.00  0.00     0.003 C 
HETATM   12  C19 UNL     1      19.339  95.035   5.981  1.00  0.00     0.007 C 
HETATM   13  C20 UNL     1      20.023  94.938   4.634  1.00  0.00     0.013 C 
BRANCH  11  14
HETATM   14  C10 UNL     1      17.369  94.530   7.340  1.00  0.00     0.119 C 
BRANCH  14  15
HETATM   15  N3  UNL     1      16.135  95.201   7.263  1.00  0.00    -0.405 N 
ATOM     16  H3  UNL     1      15.453  94.929   6.554  1.00  0.00     0.154 HD
BRANCH  15  17
HETATM   17  C11 UNL     1      15.835  96.248   8.162  1.00  0.00     0.124 C 
HETATM   18  C13 UNL     1      14.422  96.043   8.717  1.00  0.00     0.040 C 
HETATM   19  C14 UNL     1      14.281  94.762   9.485  1.00  0.00     0.003 C 
HETATM   20  C15 UNL     1      14.400  95.020  10.991  1.00  0.00     0.000 C 
HETATM   21  C16 UNL     1      15.893  95.202  11.243  1.00  0.00     0.000 C 
HETATM   22  C17 UNL     1      16.250  96.557  10.637  1.00  0.00     0.003 C 
HETATM   23  C18 UNL     1      16.852  96.337   9.291  1.00  0.00     0.040 C 
BRANCH  17  24
HETATM   24  C12 UNL     1      15.805  97.585   7.469  1.00  0.00     0.412 C 
HETATM   25  F1  UNL     1      15.037  97.517   6.302  1.00  0.00    -0.168 F 
HETATM   26  F2  UNL     1      17.075  97.933   7.104  1.00  0.00    -0.168 F 
HETATM   27  F3  UNL     1      15.166  98.564   8.239  1.00  0.00    -0.168 F 
ENDBRANCH  17  24
ENDBRANCH  15  17
ENDBRANCH  14  15
ENDBRANCH  11  14
ENDBRANCH   5   8
BRANCH   1  28
HETATM   28  C3  UNL     1      17.520  92.897  -0.459  1.00  0.00     0.027 A 
HETATM   29  C2  UNL     1      18.117  91.964  -1.275  1.00  0.00     0.045 A 
HETATM   30  C1  UNL     1      17.510  91.576  -2.462  1.00  0.00     0.070 A 
HETATM   31  N1  UNL     1      18.186  90.613  -3.237  1.00  0.00    -0.100 NA
HETATM   32  C22 UNL     1      16.303  92.104  -2.866  1.00  0.00     0.040 A 
HETATM   33  N5  UNL     1      15.731  93.014  -2.061  1.00  0.00    -0.366 N 
HETATM   34  C21 UNL     1      16.298  93.418  -0.889  1.00  0.00     0.103 A 
ATOM     35  H5  UNL     1      14.837  93.419  -2.338  1.00  0.00     0.165 HD
BRANCH  32  36
HETATM   36  C23 UNL     1      15.705  91.667  -4.129  1.00  0.00     0.063 C 
HETATM   37  C24 UNL     1      14.913  90.368  -3.933  1.00  0.00     0.039 C 
HETATM   38  C25 UNL     1      13.933  90.506  -5.095  1.00  0.00     0.168 C 
HETATM   39  O2  UNL     1      13.597  91.831  -5.150  1.00  0.00    -0.390 OA
HETATM   40  C26 UNL     1      14.604  92.586  -4.607  1.00  0.00     0.178 C 
ENDBRANCH  32  36
ENDBRANCH   1  28
TORSDOF 7
ENDMDL
MODEL 4
REMARK VINA RESULT: -9.484578627      1.346      2.598
REMARK  7 active torsions:
REMARK  status: ('A' for Active; 'I' for Inactive)
REMARK    1  A    between atoms: C3_4  and  C4_5 
REMARK    2  A    between atoms: C5_9  and  C6_10 
REMARK    3  A    between atoms: C9_13  and  C10_14 
REMARK    4  A    between atoms: C10_14  and  N3_15 
REMARK    5  A    between atoms: N3_15  and  C11_17 
REMARK    6  A    between atoms: C11_17  and  C12_18 
REMARK    7  A    between atoms: C22_35  and  C23_36 
ROOT
HETATM    1  C4  UNL     1      18.439  92.589   0.013  1.00  0.00     0.139 A 
HETATM    2  N2  UNL     1      19.030  91.623   0.734  1.00  0.00    -0.242 N 
ATOM      3  H2  UNL     1      18.976  90.624   0.536  1.00  0.00     0.196 HD
HETATM    4  O1  UNL     1      19.679  92.156   1.719  1.00  0.00    -0.222 OA
HETATM    5  C5  UNL     1      19.549  93.470   1.691  1.00  0.00     0.152 A 
HETATM    6  N4  UNL     1      18.773  93.737   0.625  1.00  0.00    -0.322 N 
ATOM      7  H4  UNL     1      18.484  94.669   0.327  1.00  0.00     0.169 HD
ENDROOT
BRANCH   5   8
HETATM    8  C6  UNL     1      20.161  94.404   2.673  1.00  0.00     0.063 C 
HETATM    9  C7  UNL     1      19.469  95.752   2.602  1.00  0.00     0.013 C 
HETATM   10  C8  UNL     1      18.079  95.731   3.157  1.00  0.00     0.007 C 
HETATM   11  C9  UNL     1      18.011  94.948   4.444  1.00  0.00     0.003 C 
HETATM   12  C19 UNL     1      19.378  94.681   4.994  1.00  0.00     0.007 C 
HETATM   13  C20 UNL     1      20.165  93.809   4.040  1.00  0.00     0.013 C 
BRANCH  11  14
HETATM   14  C10 UNL     1      17.280  95.842   5.480  1.00  0.00     0.119 C 
BRANCH  14  15
HETATM   15  N3  UNL     1      16.422  95.063   6.276  1.00  0.00    -0.405 N 
ATOM     16  H3  UNL     1      15.646  94.561   5.844  1.00  0.00     0.154 HD
BRANCH  15  17
HETATM   17  C11 UNL     1      16.628  94.973   7.670  1.00  0.00     0.124 C 
HETATM   18  C13 UNL     1      17.105  96.332   8.195  1.00  0.00     0.040 C 
HETATM   19  C14 UNL     1      16.098  97.423   7.978  1.00  0.00     0.003 C 
HETATM   20  C15 UNL     1      15.284  97.668   9.253  1.00  0.00     0.000 C 
HETATM   21  C16 UNL     1      14.280  96.522   9.306  1.00  0.00     0.000 C 
HETATM   22  C17 UNL     1      15.093  95.278   9.656  1.00  0.00     0.003 C 
HETATM   23  C18 UNL     1      15.373  94.521   8.403  1.00  0.00     0.040 C 
BRANCH  17  24
HETATM   24  C12 UNL     1      17.729  94.004   8.009  1.00  0.00     0.412 C 
HETATM   25  F1  UNL     1      18.978  94.543   7.684  1.00  0.00    -0.168 F 
HETATM   26  F2  UNL     1      17.570  92.865   7.269  1.00  0.00    -0.168 F 
HETATM   27  F3  UNL     1      17.813  93.758   9.384  1.00  0.00    -0.168 F 
ENDBRANCH  17  24
ENDBRANCH  15  17
ENDBRANCH  14  15
ENDBRANCH  11  14
ENDBRANCH   5   8
BRANCH   1  28
HETATM   28  C3  UNL     1      17.632  92.344  -1.167  1.00  0.00     0.027 A 
HETATM   29  C2  UNL     1      18.049  91.491  -2.164  1.00  0.00     0.045 A 
HETATM   30  C1  UNL     1      17.253  91.269  -3.279  1.00  0.00     0.070 A 
HETATM   31  N1  UNL     1      17.754  90.378  -4.250  1.00  0.00    -0.100 NA
HETATM   32  C22 UNL     1      16.032  91.886  -3.433  1.00  0.00     0.040 A 
HETATM   33  N5  UNL     1      15.635  92.716  -2.456  1.00  0.00    -0.366 N 
HETATM   34  C21 UNL     1      16.390  92.958  -1.346  1.00  0.00     0.103 A 
ATOM     35  H5  UNL     1      14.734  93.185  -2.547  1.00  0.00     0.165 HD
BRANCH  32  36
HETATM   36  C23 UNL     1      15.231  91.624  -4.632  1.00  0.00     0.063 C 
HETATM   37  C24 UNL     1      14.444  90.316  -4.481  1.00  0.00     0.039 C 
HETATM   38  C25 UNL     1      13.298  90.613  -5.445  1.00  0.00     0.168 C 
HETATM   39  O2  UNL     1      12.995  91.936  -5.274  1.00  0.00    -0.390 OA
HETATM   40  C26 UNL     1      14.095  92.606  -4.805  1.00  0.00     0.178 C 
ENDBRANCH  32  36
ENDBRANCH   1  28
TORSDOF 7
ENDMDL
MODEL 5
REMARK VINA RESULT: -9.167596616      2.663      3.654
REMARK  7 active torsions:
REMARK  status: ('A' for Active; 'I' for Inactive)
REMARK    1  A    between atoms: C3_4  and  C4_5 
REMARK    2  A    between atoms: C5_9  and  C6_10 
REMARK    3  A    between atoms: C9_13  and  C10_14 
REMARK    4  A    between atoms: C10_14  and  N3_15 
REMARK    5  A    between atoms: N3_15  and  C11_17 
REMARK    6  A    between atoms: C11_17  and  C12_18 
REMARK    7  A    between atoms: C22_35  and  C23_36 
ROOT
HETATM    1  C4  UNL     1      17.327  93.817   0.669  1.00  0.00     0.139 A 
HETATM    2  N2  UNL     1      16.196  94.196   1.284  1.00  0.00    -0.242 N 
ATOM      3  H2  UNL     1      15.252  93.951   0.985  1.00  0.00     0.196 HD
HETATM    4  O1  UNL     1      16.489  94.918   2.317  1.00  0.00    -0.222 OA
HETATM    5  C5  UNL     1      17.799  95.046   2.427  1.00  0.00     0.152 A 
HETATM    6  N4  UNL     1      18.320  94.356   1.396  1.00  0.00    -0.322 N 
ATOM      7  H4  UNL     1      19.315  94.259   1.197  1.00  0.00     0.169 HD
ENDROOT
BRANCH   5   8
HETATM    8  C6  UNL     1      18.490  95.812   3.498  1.00  0.00     0.063 C 
HETATM    9  C7  UNL     1      17.471  96.563   4.334  1.00  0.00     0.013 C 
HETATM   10  C8  UNL     1      16.646  95.667   5.203  1.00  0.00     0.007 C 
HETATM   11  C9  UNL     1      17.494  94.612   5.869  1.00  0.00     0.003 C 
HETATM   12  C19 UNL     1      18.952  94.930   5.753  1.00  0.00     0.007 C 
HETATM   13  C20 UNL     1      19.376  94.921   4.299  1.00  0.00     0.013 C 
BRANCH  11  14
HETATM   14  C10 UNL     1      17.150  94.643   7.381  1.00  0.00     0.119 C 
BRANCH  14  15
HETATM   15  N3  UNL     1      15.864  95.176   7.578  1.00  0.00    -0.405 N 
ATOM     16  H3  UNL     1      15.079  94.824   7.030  1.00  0.00     0.154 HD
BRANCH  15  17
HETATM   17  C11 UNL     1      15.654  96.198   8.531  1.00  0.00     0.124 C 
HETATM   18  C13 UNL     1      14.287  95.994   9.191  1.00  0.00     0.040 C 
HETATM   19  C14 UNL     1      14.186  94.690   9.927  1.00  0.00     0.003 C 
HETATM   20  C15 UNL     1      14.430  94.897  11.427  1.00  0.00     0.000 C 
HETATM   21  C16 UNL     1      15.940  95.050  11.563  1.00  0.00     0.000 C 
HETATM   22  C17 UNL     1      16.270  96.419  10.974  1.00  0.00     0.003 C 
HETATM   23  C18 UNL     1      16.759  96.235   9.578  1.00  0.00     0.040 C 
BRANCH  17  24
HETATM   24  C12 UNL     1      15.590  97.557   7.886  1.00  0.00     0.412 C 
HETATM   25  F1  UNL     1      16.857  97.953   7.444  1.00  0.00    -0.168 F 
HETATM   26  F2  UNL     1      15.173  98.474   8.809  1.00  0.00    -0.168 F 
HETATM   27  F3  UNL     1      14.811  97.554   6.724  1.00  0.00    -0.168 F 
ENDBRANCH  17  24
ENDBRANCH  15  17
ENDBRANCH  14  15
ENDBRANCH  11  14
ENDBRANCH   5   8
BRANCH   1  28
HETATM   28  C3  UNL     1      17.367  92.992  -0.525  1.00  0.00     0.027 A 
HETATM   29  C2  UNL     1      16.443  93.140  -1.535  1.00  0.00     0.045 A 
HETATM   30  C1  UNL     1      16.508  92.343  -2.669  1.00  0.00     0.070 A 
HETATM   31  N1  UNL     1      15.525  92.561  -3.656  1.00  0.00    -0.100 NA
HETATM   32  C22 UNL     1      17.484  91.384  -2.828  1.00  0.00     0.040 A 
HETATM   33  N5  UNL     1      18.379  91.249  -1.836  1.00  0.00    -0.366 N 
HETATM   34  C21 UNL     1      18.347  92.015  -0.708  1.00  0.00     0.103 A 
ATOM     35  H5  UNL     1      19.112  90.547  -1.930  1.00  0.00     0.165 HD
BRANCH  32  36
HETATM   36  C23 UNL     1      17.507  90.563  -4.041  1.00  0.00     0.063 C 
HETATM   37  C24 UNL     1      18.928  90.483  -4.613  1.00  0.00     0.039 C 
HETATM   38  C25 UNL     1      18.811  89.159  -5.364  1.00  0.00     0.168 C 
HETATM   39  O2  UNL     1      18.052  88.343  -4.571  1.00  0.00    -0.390 OA
HETATM   40  C26 UNL     1      17.242  89.101  -3.766  1.00  0.00     0.178 C 
ENDBRANCH  32  36
ENDBRANCH   1  28
TORSDOF 7
ENDMDL
