MODEL 1
REMARK VINA RESULT: -7.157778359      0.000      0.000
REMARK  9 active torsions:
REMARK  status: ('A' for Active; 'I' for Inactive)
REMARK    1  A    between atoms: O1_2  and  C2_3 
REMARK    2  A    between atoms: C2_3  and  C3_5 
REMARK    3  A    between atoms: C4_7  and  S2_8 
REMARK    4  A    between atoms: S2_8  and  C5_9 
REMARK    5  A    between atoms: C11_18  and  C12_19 
REMARK    6  A    between atoms: C12_19  and  N1_20 
REMARK       I    between atoms: N1_20  and  C13_22 
REMARK    7  A    between atoms: C13_22  and  O4_24 
REMARK    8  A    between atoms: O4_24  and  C14_25 
REMARK    9  A    between atoms: C18_29  and  C19_30 
ROOT
HETATM    1  C3  UNL     1      -1.395   5.654 110.222  1.00  0.00     0.093 A 
HETATM    2  S1  UNL     1       0.223   6.129 110.031  1.00  0.00    -0.075 SA
HETATM    3  C4  UNL     1       0.076   7.803 110.265  1.00  0.00     0.056 A 
HETATM    4  C11 UNL     1      -1.328   7.986 110.482  1.00  0.00    -0.004 A 
HETATM    5  C18 UNL     1      -2.053   6.870 110.468  1.00  0.00     0.010 A 
ENDROOT
BRANCH   3   6
HETATM    6  S2  UNL     1       1.375   9.029 110.184  1.00  0.00    -0.079 SA
BRANCH   6   7
HETATM    7  C5  UNL     1       1.371   9.924 108.621  1.00  0.00     0.049 A 
HETATM    8  C6  UNL     1       1.918   9.203 107.519  1.00  0.00     0.054 A 
HETATM    9 CL1  UNL     1       2.565   7.632 107.740  1.00  0.00    -0.083 Cl
HETATM   10  C7  UNL     1       1.887   9.890 106.292  1.00  0.00     0.049 A 
HETATM   11  C8  UNL     1       1.386  11.150 106.117  1.00  0.00     0.037 A 
HETATM   12 CL2  UNL     1       1.397  11.914 104.547  1.00  0.00    -0.084 Cl
HETATM   13  C9  UNL     1       0.870  11.813 107.205  1.00  0.00     0.049 A 
HETATM   14  C10 UNL     1       0.873  11.167 108.447  1.00  0.00     0.054 A 
HETATM   15 CL3  UNL     1       0.163  12.039 109.808  1.00  0.00    -0.083 Cl
ENDBRANCH   6   7
ENDBRANCH   3   6
BRANCH   4  16
HETATM   16  C12 UNL     1      -1.756   9.376 110.759  1.00  0.00     0.166 C 
BRANCH  16  17
HETATM   17  N1  UNL     1      -2.645   9.591 111.932  1.00  0.00    -0.333 N 
HETATM   18  C13 UNL     1      -3.462  10.818 111.781  1.00  0.00     0.361 C 
HETATM   19  O3  UNL     1      -3.423  11.511 110.852  1.00  0.00    -0.238 OA
ATOM     20  H1  UNL     1      -2.688   8.970 112.741  1.00  0.00     0.165 HD
BRANCH  18  21
HETATM   21  O4  UNL     1      -4.318  11.117 112.883  1.00  0.00    -0.294 OA
BRANCH  21  22
HETATM   22  C14 UNL     1      -5.697  10.707 112.811  1.00  0.00     0.061 C 
HETATM   23  C15 UNL     1      -6.503  11.969 112.464  1.00  0.00     0.046 C 
HETATM   24  C16 UNL     1      -6.211  10.260 114.187  1.00  0.00     0.046 C 
HETATM   25  C17 UNL     1      -6.016   9.643 111.818  1.00  0.00     0.046 C 
ENDBRANCH  21  22
ENDBRANCH  18  21
ENDBRANCH  16  17
ENDBRANCH   4  16
BRANCH   1  26
HETATM   26  C2  UNL     1      -1.930   4.279 110.171  1.00  0.00     0.300 C 
HETATM   27  O2  UNL     1      -1.740   3.573 111.166  1.00  0.00    -0.259 OA
BRANCH  26  28
HETATM   28  O1  UNL     1      -2.622   3.744 109.096  1.00  0.00    -0.322 OA
HETATM   29  C1  UNL     1      -2.021   2.599 108.504  1.00  0.00     0.213 C 
ENDBRANCH  26  28
ENDBRANCH   1  26
BRANCH   5  30
HETATM   30  C19 UNL     1      -3.507   6.672 110.905  1.00  0.00     0.113 C 
HETATM   31  N2  UNL     1      -3.752   6.693 112.288  1.00  0.00    -0.114 NA
ENDBRANCH   5  30
TORSDOF 9
ENDMDL
MODEL 2
REMARK VINA RESULT: -7.059055531      0.390      1.695
REMARK  9 active torsions:
REMARK  status: ('A' for Active; 'I' for Inactive)
REMARK    1  A    between atoms: O1_2  and  C2_3 
REMARK    2  A    between atoms: C2_3  and  C3_5 
REMARK    3  A    between atoms: C4_7  and  S2_8 
REMARK    4  A    between atoms: S2_8  and  C5_9 
REMARK    5  A    between atoms: C11_18  and  C12_19 
REMARK    6  A    between atoms: C12_19  and  N1_20 
REMARK       I    between atoms: N1_20  and  C13_22 
REMARK    7  A    between atoms: C13_22  and  O4_24 
REMARK    8  A    between atoms: O4_24  and  C14_25 
REMARK    9  A    between atoms: C18_29  and  C19_30 
ROOT
HETATM    1  C3  UNL     1      -1.335   5.679 110.270  1.00  0.00     0.093 A 
HETATM    2  S1  UNL     1       0.253   6.250 110.088  1.00  0.00    -0.075 SA
HETATM    3  C4  UNL     1       0.002   7.914 110.293  1.00  0.00     0.056 A 
HETATM    4  C11 UNL     1      -1.414   8.015 110.493  1.00  0.00    -0.004 A 
HETATM    5  C18 UNL     1      -2.068   6.857 110.489  1.00  0.00     0.010 A 
ENDROOT
BRANCH   3   6
HETATM    6  S2  UNL     1       1.224   9.216 110.204  1.00  0.00    -0.079 SA
BRANCH   6   7
HETATM    7  C5  UNL     1       1.343   9.929 108.554  1.00  0.00     0.049 A 
HETATM    8  C6  UNL     1       0.834  11.256 108.440  1.00  0.00     0.054 A 
HETATM    9 CL1  UNL     1       0.126  12.038 109.790  1.00  0.00    -0.083 Cl
HETATM   10  C7  UNL     1       0.955  11.826 107.159  1.00  0.00     0.049 A 
HETATM   11  C8  UNL     1       1.505  11.197 106.077  1.00  0.00     0.037 A 
HETATM   12 CL2  UNL     1       1.605  11.995 104.527  1.00  0.00    -0.084 Cl
HETATM   13  C9  UNL     1       1.981   9.916 106.227  1.00  0.00     0.049 A 
HETATM   14  C10 UNL     1       1.889   9.310 107.486  1.00  0.00     0.054 A 
HETATM   15 CL3  UNL     1       2.551   7.681 107.644  1.00  0.00    -0.083 Cl
ENDBRANCH   6   7
ENDBRANCH   3   6
BRANCH   4  16
HETATM   16  C12 UNL     1      -1.929   9.381 110.742  1.00  0.00     0.166 C 
BRANCH  16  17
HETATM   17  N1  UNL     1      -2.778   9.574 111.947  1.00  0.00    -0.333 N 
HETATM   18  C13 UNL     1      -3.608  10.798 111.839  1.00  0.00     0.361 C 
HETATM   19  O3  UNL     1      -3.606  11.502 110.917  1.00  0.00    -0.238 OA
ATOM     20  H1  UNL     1      -2.788   8.944 112.749  1.00  0.00     0.165 HD
BRANCH  18  21
HETATM   21  O4  UNL     1      -4.428  11.077 112.973  1.00  0.00    -0.294 OA
BRANCH  21  22
HETATM   22  C14 UNL     1      -5.793  10.617 112.964  1.00  0.00     0.061 C 
HETATM   23  C15 UNL     1      -6.656  11.839 112.610  1.00  0.00     0.046 C 
HETATM   24  C16 UNL     1      -6.241  10.194 114.370  1.00  0.00     0.046 C 
HETATM   25  C17 UNL     1      -6.108   9.513 112.014  1.00  0.00     0.046 C 
ENDBRANCH  21  22
ENDBRANCH  18  21
ENDBRANCH  16  17
ENDBRANCH   4  16
BRANCH   1  26
HETATM   26  C2  UNL     1      -1.784   4.274 110.237  1.00  0.00     0.300 C 
HETATM   27  O2  UNL     1      -1.675   3.631 111.285  1.00  0.00    -0.259 OA
BRANCH  26  28
HETATM   28  O1  UNL     1      -2.313   3.643 109.122  1.00  0.00    -0.322 OA
HETATM   29  C1  UNL     1      -3.693   3.313 109.215  1.00  0.00     0.213 C 
ENDBRANCH  26  28
ENDBRANCH   1  26
BRANCH   5  30
HETATM   30  C19 UNL     1      -3.513   6.576 110.915  1.00  0.00     0.113 C 
HETATM   31  N2  UNL     1      -3.778   6.624 112.293  1.00  0.00    -0.114 NA
ENDBRANCH   5  30
TORSDOF 9
ENDMDL
MODEL 3
REMARK VINA RESULT: -6.905288006      2.063      2.854
REMARK  9 active torsions:
REMARK  status: ('A' for Active; 'I' for Inactive)
REMARK    1  A    between atoms: O1_2  and  C2_3 
REMARK    2  A    between atoms: C2_3  and  C3_5 
REMARK    3  A    between atoms: C4_7  and  S2_8 
REMARK    4  A    between atoms: S2_8  and  C5_9 
REMARK    5  A    between atoms: C11_18  and  C12_19 
REMARK    6  A    between atoms: C12_19  and  N1_20 
REMARK       I    between atoms: N1_20  and  C13_22 
REMARK    7  A    between atoms: C13_22  and  O4_24 
REMARK    8  A    between atoms: O4_24  and  C14_25 
REMARK    9  A    between atoms: C18_29  and  C19_30 
ROOT
HETATM    1  C3  UNL     1      -0.972   7.331 110.632  1.00  0.00     0.093 A 
HETATM    2  S1  UNL     1       0.058   8.539 110.033  1.00  0.00    -0.075 SA
HETATM    3  C4  UNL     1      -0.978   9.880 110.097  1.00  0.00     0.056 A 
HETATM    4  C11 UNL     1      -2.203   9.329 110.599  1.00  0.00    -0.004 A 
HETATM    5  C18 UNL     1      -2.166   8.029 110.876  1.00  0.00     0.010 A 
ENDROOT
BRANCH   3   6
HETATM    6  S2  UNL     1      -0.620  11.556 109.587  1.00  0.00    -0.079 SA
BRANCH   6   7
HETATM    7  C5  UNL     1       1.035  11.718 108.894  1.00  0.00     0.049 A 
HETATM    8  C6  UNL     1       2.080  11.803 109.861  1.00  0.00     0.054 A 
HETATM    9 CL1  UNL     1       1.721  11.801 111.536  1.00  0.00    -0.083 Cl
HETATM   10  C7  UNL     1       3.375  11.899 109.321  1.00  0.00     0.049 A 
HETATM   11  C8  UNL     1       3.662  11.917 107.985  1.00  0.00     0.037 A 
HETATM   12 CL2  UNL     1       5.310  12.041 107.419  1.00  0.00    -0.084 Cl
HETATM   13  C9  UNL     1       2.627  11.837 107.085  1.00  0.00     0.049 A 
HETATM   14  C10 UNL     1       1.319  11.733 107.575  1.00  0.00     0.054 A 
HETATM   15 CL3  UNL     1       0.023  11.590 106.385  1.00  0.00    -0.083 Cl
ENDBRANCH   6   7
ENDBRANCH   3   6
BRANCH   4  16
HETATM   16  C12 UNL     1      -3.304  10.299 110.802  1.00  0.00     0.166 C 
BRANCH  16  17
HETATM   17  N1  UNL     1      -3.729  10.559 112.203  1.00  0.00    -0.333 N 
HETATM   18  C13 UNL     1      -5.176  10.301 112.391  1.00  0.00     0.361 C 
HETATM   19  O3  UNL     1      -5.881   9.924 111.551  1.00  0.00    -0.238 OA
ATOM     20  H1  UNL     1      -3.102  10.876 112.943  1.00  0.00     0.165 HD
BRANCH  18  21
HETATM   21  O4  UNL     1      -5.673  10.562 113.703  1.00  0.00    -0.294 OA
BRANCH  21  22
HETATM   22  C14 UNL     1      -6.435   9.534 114.365  1.00  0.00     0.061 C 
HETATM   23  C15 UNL     1      -6.360   9.845 115.869  1.00  0.00     0.046 C 
HETATM   24  C16 UNL     1      -5.769   8.161 114.199  1.00  0.00     0.046 C 
HETATM   25  C17 UNL     1      -7.866   9.417 113.968  1.00  0.00     0.046 C 
ENDBRANCH  21  22
ENDBRANCH  18  21
ENDBRANCH  16  17
ENDBRANCH   4  16
BRANCH   1  26
HETATM   26  C2  UNL     1      -0.638   5.912 110.862  1.00  0.00     0.300 C 
HETATM   27  O2  UNL     1      -0.405   5.228 109.860  1.00  0.00    -0.259 OA
BRANCH  26  28
HETATM   28  O1  UNL     1      -0.569   5.311 112.109  1.00  0.00    -0.322 OA
HETATM   29  C1  UNL     1      -0.134   3.957 112.102  1.00  0.00     0.213 C 
ENDBRANCH  26  28
ENDBRANCH   1  26
BRANCH   5  30
HETATM   30  C19 UNL     1      -3.189   7.188 111.646  1.00  0.00     0.113 C 
HETATM   31  N2  UNL     1      -4.328   6.782 110.932  1.00  0.00    -0.114 NA
ENDBRANCH   5  30
TORSDOF 9
ENDMDL
MODEL 4
REMARK VINA RESULT: -6.839516944      1.674      2.591
REMARK  9 active torsions:
REMARK  status: ('A' for Active; 'I' for Inactive)
REMARK    1  A    between atoms: O1_2  and  C2_3 
REMARK    2  A    between atoms: C2_3  and  C3_5 
REMARK    3  A    between atoms: C4_7  and  S2_8 
REMARK    4  A    between atoms: S2_8  and  C5_9 
REMARK    5  A    between atoms: C11_18  and  C12_19 
REMARK    6  A    between atoms: C12_19  and  N1_20 
REMARK       I    between atoms: N1_20  and  C13_22 
REMARK    7  A    between atoms: C13_22  and  O4_24 
REMARK    8  A    between atoms: O4_24  and  C14_25 
REMARK    9  A    between atoms: C18_29  and  C19_30 
ROOT
HETATM    1  C3  UNL     1      -2.826   6.218 110.628  1.00  0.00     0.093 A 
HETATM    2  S1  UNL     1      -1.272   6.898 110.676  1.00  0.00    -0.075 SA
HETATM    3  C4  UNL     1      -1.663   8.535 110.882  1.00  0.00     0.056 A 
HETATM    4  C11 UNL     1      -3.096   8.535 110.892  1.00  0.00    -0.004 A 
HETATM    5  C18 UNL     1      -3.662   7.337 110.773  1.00  0.00     0.010 A 
ENDROOT
BRANCH   3   6
HETATM    6  S2  UNL     1      -0.534   9.917 110.990  1.00  0.00    -0.079 SA
BRANCH   6   7
HETATM    7  C5  UNL     1       0.292  10.246 109.424  1.00  0.00     0.049 A 
HETATM    8  C6  UNL     1      -0.129  11.439 108.767  1.00  0.00     0.054 A 
HETATM    9 CL1  UNL     1      -1.367  12.414 109.438  1.00  0.00    -0.083 Cl
HETATM   10  C7  UNL     1       0.538  11.714 107.558  1.00  0.00     0.049 A 
HETATM   11  C8  UNL     1       1.515  10.929 107.013  1.00  0.00     0.037 A 
HETATM   12 CL2  UNL     1       2.279  11.360 105.503  1.00  0.00    -0.084 Cl
HETATM   13  C9  UNL     1       1.890   9.784 107.675  1.00  0.00     0.049 A 
HETATM   14  C10 UNL     1       1.259   9.473 108.886  1.00  0.00     0.054 A 
HETATM   15 CL3  UNL     1       1.802   8.016 109.723  1.00  0.00    -0.083 Cl
ENDBRANCH   6   7
ENDBRANCH   3   6
BRANCH   4  16
HETATM   16  C12 UNL     1      -3.734   9.855 111.101  1.00  0.00     0.166 C 
BRANCH  16  17
HETATM   17  N1  UNL     1      -4.129  10.204 112.491  1.00  0.00    -0.333 N 
HETATM   18  C13 UNL     1      -5.601  10.303 112.632  1.00  0.00     0.361 C 
HETATM   19  O3  UNL     1      -6.349  10.111 111.766  1.00  0.00    -0.238 OA
ATOM     20  H1  UNL     1      -3.469  10.357 113.254  1.00  0.00     0.165 HD
BRANCH  18  21
HETATM   21  O4  UNL     1      -6.063  10.671 113.931  1.00  0.00    -0.294 OA
BRANCH  21  22
HETATM   22  C14 UNL     1      -6.573   9.638 114.796  1.00  0.00     0.061 C 
HETATM   23  C15 UNL     1      -8.099   9.638 114.611  1.00  0.00     0.046 C 
HETATM   24  C16 UNL     1      -6.341   9.992 116.272  1.00  0.00     0.046 C 
HETATM   25  C17 UNL     1      -6.058   8.262 114.552  1.00  0.00     0.046 C 
ENDBRANCH  21  22
ENDBRANCH  18  21
ENDBRANCH  16  17
ENDBRANCH   4  16
BRANCH   1  26
HETATM   26  C2  UNL     1      -3.167   4.788 110.502  1.00  0.00     0.300 C 
HETATM   27  O2  UNL     1      -3.230   4.138 111.550  1.00  0.00    -0.259 OA
BRANCH  26  28
HETATM   28  O1  UNL     1      -3.420   4.142 109.302  1.00  0.00    -0.322 OA
HETATM   29  C1  UNL     1      -4.781   3.791 109.082  1.00  0.00     0.213 C 
ENDBRANCH  26  28
ENDBRANCH   1  26
BRANCH   5  30
HETATM   30  C19 UNL     1      -5.127   6.949 110.993  1.00  0.00     0.113 C 
HETATM   31  N2  UNL     1      -6.028   7.308 109.977  1.00  0.00    -0.114 NA
ENDBRANCH   5  30
TORSDOF 9
ENDMDL
MODEL 5
REMARK VINA RESULT: -6.805011100      3.512      7.032
REMARK  9 active torsions:
REMARK  status: ('A' for Active; 'I' for Inactive)
REMARK    1  A    between atoms: O1_2  and  C2_3 
REMARK    2  A    between atoms: C2_3  and  C3_5 
REMARK    3  A    between atoms: C4_7  and  S2_8 
REMARK    4  A    between atoms: S2_8  and  C5_9 
REMARK    5  A    between atoms: C11_18  and  C12_19 
REMARK    6  A    between atoms: C12_19  and  N1_20 
REMARK       I    between atoms: N1_20  and  C13_22 
REMARK    7  A    between atoms: C13_22  and  O4_24 
REMARK    8  A    between atoms: O4_24  and  C14_25 
REMARK    9  A    between atoms: C18_29  and  C19_30 
ROOT
HETATM    1  C3  UNL     1      -2.770   4.557 110.449  1.00  0.00     0.093 A 
HETATM    2  S1  UNL     1      -4.377   5.076 110.285  1.00  0.00    -0.075 SA
HETATM    3  C4  UNL     1      -4.215   6.705 110.727  1.00  0.00     0.056 A 
HETATM    4  C11 UNL     1      -2.822   6.828 111.037  1.00  0.00    -0.004 A 
HETATM    5  C18 UNL     1      -2.106   5.719 110.874  1.00  0.00     0.010 A 
ENDROOT
BRANCH   3   6
HETATM    6  S2  UNL     1      -5.509   7.935 110.837  1.00  0.00    -0.079 SA
BRANCH   6   7
HETATM    7  C5  UNL     1      -5.847   8.419 112.538  1.00  0.00     0.049 A 
HETATM    8  C6  UNL     1      -5.573   9.787 112.834  1.00  0.00     0.054 A 
HETATM    9 CL1  UNL     1      -4.921  10.825 111.637  1.00  0.00    -0.083 Cl
HETATM   10  C7  UNL     1      -5.866  10.175 114.155  1.00  0.00     0.049 A 
HETATM   11  C8  UNL     1      -6.371   9.343 115.115  1.00  0.00     0.037 A 
HETATM   12 CL2  UNL     1      -6.698   9.926 116.729  1.00  0.00    -0.084 Cl
HETATM   13  C9  UNL     1      -6.618   8.031 114.792  1.00  0.00     0.049 A 
HETATM   14  C10 UNL     1      -6.348   7.600 113.487  1.00  0.00     0.054 A 
HETATM   15 CL3  UNL     1      -6.721   5.918 113.103  1.00  0.00    -0.083 Cl
ENDBRANCH   6   7
ENDBRANCH   3   6
BRANCH   4  16
HETATM   16  C12 UNL     1      -2.371   8.184 111.427  1.00  0.00     0.166 C 
BRANCH  16  17
HETATM   17  N1  UNL     1      -1.576   8.947 110.427  1.00  0.00    -0.333 N 
HETATM   18  C13 UNL     1      -1.207  10.290 110.933  1.00  0.00     0.361 C 
HETATM   19  O3  UNL     1      -1.489  10.685 111.987  1.00  0.00    -0.238 OA
ATOM     20  H1  UNL     1      -1.318   8.590 109.507  1.00  0.00     0.165 HD
BRANCH  18  21
HETATM   21  O4  UNL     1      -0.473  11.103 110.019  1.00  0.00    -0.294 OA
BRANCH  21  22
HETATM   22  C14 UNL     1       0.962  10.978 109.990  1.00  0.00     0.061 C 
HETATM   23  C15 UNL     1       1.454  11.935 108.892  1.00  0.00     0.046 C 
HETATM   24  C16 UNL     1       1.384   9.576 109.529  1.00  0.00     0.046 C 
HETATM   25  C17 UNL     1       1.675  11.294 111.259  1.00  0.00     0.046 C 
ENDBRANCH  21  22
ENDBRANCH  18  21
ENDBRANCH  16  17
ENDBRANCH   4  16
BRANCH   1  26
HETATM   26  C2  UNL     1      -2.238   3.210 110.165  1.00  0.00     0.300 C 
HETATM   27  O2  UNL     1      -2.225   2.409 111.104  1.00  0.00    -0.259 OA
BRANCH  26  28
HETATM   28  O1  UNL     1      -1.763   2.796 108.931  1.00  0.00    -0.322 OA
HETATM   29  C1  UNL     1      -0.409   2.361 108.922  1.00  0.00     0.213 C 
ENDBRANCH  26  28
ENDBRANCH   1  26
BRANCH   5  30
HETATM   30  C19 UNL     1      -0.583   5.559 110.869  1.00  0.00     0.113 C 
HETATM   31  N2  UNL     1       0.111   6.217 109.840  1.00  0.00    -0.114 NA
ENDBRANCH   5  30
TORSDOF 9
ENDMDL
