MODEL 1
REMARK VINA RESULT: -9.625478121      0.000      0.000
REMARK  8 active torsions:
REMARK  status: ('A' for Active; 'I' for Inactive)
REMARK    1  A    between atoms: C9_9  and  C10_10 
REMARK    2  A    between atoms: C10_10  and  C11_11 
REMARK    3  A    between atoms: C11_11  and  C12_12 
REMARK    4  A    between atoms: C12_12  and  S1_15 
REMARK    5  A    between atoms: S1_15  and  C13_16 
REMARK    6  A    between atoms: C14_18  and  N1_19 
REMARK    7  A    between atoms: C17_27  and  O2_28 
REMARK    8  A    between atoms: C18_30  and  O3_31 
ROOT
HETATM    1  C12 UNL     1      -3.129   7.185 110.972  1.00  0.00     0.294 C 
HETATM    2  F1  UNL     1      -2.600   6.357 110.008  1.00  0.00    -0.194 F 
HETATM    3  F2  UNL     1      -4.043   8.035 110.383  1.00  0.00    -0.194 F 
ENDROOT
BRANCH   1   4
HETATM    4  C11 UNL     1      -2.001   8.053 111.494  1.00  0.00     0.092 C 
BRANCH   4   5
HETATM    5  C10 UNL     1      -1.074   8.485 110.383  1.00  0.00     0.012 C 
BRANCH   5   6
HETATM    6  C9  UNL     1      -0.617   9.903 110.645  1.00  0.00    -0.006 C 
HETATM    7  C7  UNL     1       0.700  10.248 110.007  1.00  0.00    -0.036 C 
HETATM    8  C6  UNL     1       1.437  11.157 110.955  1.00  0.00     0.010 C 
HETATM    9  C8  UNL     1       1.483   8.918 110.008  1.00  0.00     0.016 C 
HETATM   10  C22 UNL     1       0.575  10.776 108.629  1.00  0.00     0.002 C 
HETATM   11  C5  UNL     1       2.592  11.866 110.355  1.00  0.00     0.002 C 
HETATM   12  C4  UNL     1       2.442  12.345 108.960  1.00  0.00     0.009 C 
HETATM   13  C2  UNL     1       1.858  11.327 108.037  1.00  0.00    -0.043 C 
HETATM   14  C1  UNL     1       1.442  12.059 106.744  1.00  0.00     0.015 C 
HETATM   15  C3  UNL     1       2.849  10.290 107.624  1.00  0.00     0.015 C 
HETATM   16  C21 UNL     1      -0.516  11.810 108.432  1.00  0.00     0.006 C 
HETATM   17  C20 UNL     1      -1.305  12.128 109.653  1.00  0.00     0.001 C 
HETATM   18  C19 UNL     1      -1.728  10.877 110.383  1.00  0.00     0.005 C 
ENDBRANCH   5   6
ENDBRANCH   4   5
ENDBRANCH   1   4
BRANCH   1  19
HETATM   19  S1  UNL     1      -3.917   6.257 112.315  1.00  0.00    -0.058 SA
BRANCH  19  20
HETATM   20  C13 UNL     1      -5.129   7.250 113.189  1.00  0.00     0.222 C 
HETATM   21  O1  UNL     1      -4.879   8.596 113.095  1.00  0.00    -0.344 OA
HETATM   22  C14 UNL     1      -6.082   9.260 113.264  1.00  0.00     0.279 C 
HETATM   23  C17 UNL     1      -7.033   8.421 112.440  1.00  0.00     0.200 C 
HETATM   24  C18 UNL     1      -6.543   7.014 112.742  1.00  0.00     0.190 C 
BRANCH  22  25
HETATM   25  N1  UNL     1      -5.966  10.595 112.700  1.00  0.00    -0.233 N 
HETATM   26  N2  UNL     1      -5.056  11.044 111.874  1.00  0.00    -0.289 N 
HETATM   27  C15 UNL     1      -5.284  12.353 111.570  1.00  0.00     0.200 A 
ATOM     28  H2  UNL     1      -4.281  10.490 111.509  1.00  0.00     0.188 HD
HETATM   29  N3  UNL     1      -6.392  12.690 112.258  1.00  0.00    -0.326 N 
HETATM   30  C16 UNL     1      -6.820  11.601 112.962  1.00  0.00     0.199 A 
ATOM     31  H3  UNL     1      -6.838  13.607 112.254  1.00  0.00     0.169 HD
HETATM   32 CL1  UNL     1      -8.229  11.585 113.997  1.00  0.00    -0.043 Cl
ENDBRANCH  22  25
BRANCH  23  33
HETATM   33  O2  UNL     1      -6.767   8.684 111.097  1.00  0.00    -0.388 OA
ATOM     34  H2  UNL     1      -5.852   8.480 110.943  1.00  0.00     0.210 HD
ENDBRANCH  23  33
BRANCH  24  35
HETATM   35  O3  UNL     1      -7.347   6.526 113.796  1.00  0.00    -0.389 OA
ATOM     36  H3  UNL     1      -7.688   5.661 113.604  1.00  0.00     0.210 HD
ENDBRANCH  24  35
ENDBRANCH  19  20
ENDBRANCH   1  19
TORSDOF 8
ENDMDL
MODEL 2
REMARK VINA RESULT: -8.873066411      4.906      5.972
REMARK  8 active torsions:
REMARK  status: ('A' for Active; 'I' for Inactive)
REMARK    1  A    between atoms: C9_9  and  C10_10 
REMARK    2  A    between atoms: C10_10  and  C11_11 
REMARK    3  A    between atoms: C11_11  and  C12_12 
REMARK    4  A    between atoms: C12_12  and  S1_15 
REMARK    5  A    between atoms: S1_15  and  C13_16 
REMARK    6  A    between atoms: C14_18  and  N1_19 
REMARK    7  A    between atoms: C17_27  and  O2_28 
REMARK    8  A    between atoms: C18_30  and  O3_31 
ROOT
HETATM    1  C12 UNL     1      -2.324   6.856 111.981  1.00  0.00     0.294 C 
HETATM    2  F1  UNL     1      -2.235   7.518 113.185  1.00  0.00    -0.194 F 
HETATM    3  F2  UNL     1      -1.149   6.170 111.758  1.00  0.00    -0.194 F 
ENDROOT
BRANCH   1   4
HETATM    4  C11 UNL     1      -2.431   7.905 110.892  1.00  0.00     0.092 C 
BRANCH   4   5
HETATM    5  C10 UNL     1      -1.083   8.210 110.284  1.00  0.00     0.012 C 
BRANCH   5   6
HETATM    6  C9  UNL     1      -0.685   9.623 110.649  1.00  0.00    -0.006 C 
HETATM    7  C7  UNL     1       0.618  10.067 110.046  1.00  0.00    -0.036 C 
HETATM    8  C6  UNL     1       1.315  10.935 111.061  1.00  0.00     0.010 C 
HETATM    9  C8  UNL     1       1.455   8.774 109.956  1.00  0.00     0.016 C 
HETATM   10  C22 UNL     1       0.475  10.686 108.708  1.00  0.00     0.002 C 
HETATM   11  C5  UNL     1       2.441  11.732 110.519  1.00  0.00     0.002 C 
HETATM   12  C4  UNL     1       2.276  12.302 109.161  1.00  0.00     0.009 C 
HETATM   13  C2  UNL     1       1.737  11.330 108.164  1.00  0.00    -0.043 C 
HETATM   14  C1  UNL     1       1.294  12.136 106.925  1.00  0.00     0.015 C 
HETATM   15  C3  UNL     1       2.771  10.367 107.684  1.00  0.00     0.015 C 
HETATM   16  C21 UNL     1      -0.656  11.687 108.580  1.00  0.00     0.006 C 
HETATM   17  C20 UNL     1      -1.461  11.884 109.815  1.00  0.00     0.001 C 
HETATM   18  C19 UNL     1      -1.835  10.568 110.451  1.00  0.00     0.005 C 
ENDBRANCH   5   6
ENDBRANCH   4   5
ENDBRANCH   1   4
BRANCH   1  19
HETATM   19  S1  UNL     1      -3.732   5.714 111.931  1.00  0.00    -0.058 SA
BRANCH  19  20
HETATM   20  C13 UNL     1      -3.959   5.009 110.296  1.00  0.00     0.222 C 
HETATM   21  O1  UNL     1      -2.784   4.568 109.741  1.00  0.00    -0.344 OA
HETATM   22  C14 UNL     1      -3.098   3.578 108.826  1.00  0.00     0.279 C 
HETATM   23  C17 UNL     1      -4.149   2.777 109.563  1.00  0.00     0.200 C 
HETATM   24  C18 UNL     1      -4.940   3.874 110.256  1.00  0.00     0.190 C 
BRANCH  22  25
HETATM   25  N1  UNL     1      -1.916   2.764 108.589  1.00  0.00    -0.233 N 
HETATM   26  N2  UNL     1      -0.859   2.640 109.349  1.00  0.00    -0.289 N 
HETATM   27  C15 UNL     1       0.040   1.783 108.787  1.00  0.00     0.200 A 
ATOM     28  H2  UNL     1      -0.725   3.119 110.239  1.00  0.00     0.188 HD
HETATM   29  N3  UNL     1      -0.523   1.384 107.630  1.00  0.00    -0.326 N 
HETATM   30  C16 UNL     1      -1.739   1.991 107.503  1.00  0.00     0.199 A 
ATOM     31  H3  UNL     1      -0.110   0.735 106.961  1.00  0.00     0.169 HD
HETATM   32 CL1  UNL     1      -2.821   1.760 106.147  1.00  0.00    -0.043 Cl
ENDBRANCH  22  25
BRANCH  23  33
HETATM   33  O2  UNL     1      -3.497   2.036 110.547  1.00  0.00    -0.388 OA
ATOM     34  H2  UNL     1      -2.757   2.552 110.847  1.00  0.00     0.210 HD
ENDBRANCH  23  33
BRANCH  24  35
HETATM   35  O3  UNL     1      -6.040   4.166 109.420  1.00  0.00    -0.389 OA
ATOM     36  H3  UNL     1      -6.632   3.427 109.349  1.00  0.00     0.210 HD
ENDBRANCH  24  35
ENDBRANCH  19  20
ENDBRANCH   1  19
TORSDOF 8
ENDMDL
MODEL 3
REMARK VINA RESULT: -8.826987415      4.715      5.901
REMARK  8 active torsions:
REMARK  status: ('A' for Active; 'I' for Inactive)
REMARK    1  A    between atoms: C9_9  and  C10_10 
REMARK    2  A    between atoms: C10_10  and  C11_11 
REMARK    3  A    between atoms: C11_11  and  C12_12 
REMARK    4  A    between atoms: C12_12  and  S1_15 
REMARK    5  A    between atoms: S1_15  and  C13_16 
REMARK    6  A    between atoms: C14_18  and  N1_19 
REMARK    7  A    between atoms: C17_27  and  O2_28 
REMARK    8  A    between atoms: C18_30  and  O3_31 
ROOT
HETATM    1  C12 UNL     1      -2.747   7.270 111.799  1.00  0.00     0.294 C 
HETATM    2  F1  UNL     1      -3.190   7.895 112.943  1.00  0.00    -0.194 F 
HETATM    3  F2  UNL     1      -1.514   6.703 112.046  1.00  0.00    -0.194 F 
ENDROOT
BRANCH   1   4
HETATM    4  C11 UNL     1      -2.531   8.342 110.749  1.00  0.00     0.092 C 
BRANCH   4   5
HETATM    5  C10 UNL     1      -1.072   8.472 110.382  1.00  0.00     0.012 C 
BRANCH   5   6
HETATM    6  C9  UNL     1      -0.623   9.892 110.643  1.00  0.00    -0.006 C 
HETATM    7  C7  UNL     1       0.693  10.244 110.005  1.00  0.00    -0.036 C 
HETATM    8  C6  UNL     1       1.425  11.158 110.952  1.00  0.00     0.010 C 
HETATM    9  C8  UNL     1       1.483   8.919 110.007  1.00  0.00     0.016 C 
HETATM   10  C22 UNL     1       0.565  10.770 108.626  1.00  0.00     0.002 C 
HETATM   11  C5  UNL     1       2.576  11.872 110.351  1.00  0.00     0.002 C 
HETATM   12  C4  UNL     1       2.424  12.349 108.956  1.00  0.00     0.009 C 
HETATM   13  C2  UNL     1       1.846  11.327 108.034  1.00  0.00    -0.043 C 
HETATM   14  C1  UNL     1       1.426  12.056 106.741  1.00  0.00     0.015 C 
HETATM   15  C3  UNL     1       2.842  10.295 107.622  1.00  0.00     0.015 C 
HETATM   16  C21 UNL     1      -0.531  11.799 108.429  1.00  0.00     0.006 C 
HETATM   17  C20 UNL     1      -1.322  12.113 109.649  1.00  0.00     0.001 C 
HETATM   18  C19 UNL     1      -1.739  10.861 110.380  1.00  0.00     0.005 C 
ENDBRANCH   5   6
ENDBRANCH   4   5
ENDBRANCH   1   4
BRANCH   1  19
HETATM   19  S1  UNL     1      -3.909   6.006 111.216  1.00  0.00    -0.058 SA
BRANCH  19  20
HETATM   20  C13 UNL     1      -3.058   4.538 110.633  1.00  0.00     0.222 C 
HETATM   21  O1  UNL     1      -1.873   4.827 110.004  1.00  0.00    -0.344 OA
HETATM   22  C14 UNL     1      -1.058   3.713 110.113  1.00  0.00     0.279 C 
HETATM   23  C17 UNL     1      -1.282   3.286 111.548  1.00  0.00     0.200 C 
HETATM   24  C18 UNL     1      -2.773   3.534 111.711  1.00  0.00     0.190 C 
BRANCH  22  25
HETATM   25  N1  UNL     1       0.325   4.120 109.917  1.00  0.00    -0.233 N 
HETATM   26  N2  UNL     1       0.799   5.335 109.816  1.00  0.00    -0.289 N 
HETATM   27  C15 UNL     1       2.150   5.311 109.638  1.00  0.00     0.200 A 
ATOM     28  H2  UNL     1       0.235   6.184 109.864  1.00  0.00     0.188 HD
HETATM   29  N3  UNL     1       2.486   4.007 109.633  1.00  0.00    -0.326 N 
HETATM   30  C16 UNL     1       1.355   3.262 109.806  1.00  0.00     0.199 A 
ATOM     31  H3  UNL     1       3.429   3.636 109.520  1.00  0.00     0.169 HD
HETATM   32 CL1  UNL     1       1.321   1.514 109.865  1.00  0.00    -0.043 Cl
ENDBRANCH  22  25
BRANCH  23  33
HETATM   33  O2  UNL     1      -0.608   4.193 112.364  1.00  0.00    -0.388 OA
ATOM     34  H2  UNL     1      -1.155   4.966 112.441  1.00  0.00     0.210 HD
ENDBRANCH  23  33
BRANCH  24  35
HETATM   35  O3  UNL     1      -3.415   2.301 111.458  1.00  0.00    -0.389 OA
ATOM     36  H3  UNL     1      -3.401   1.736 112.220  1.00  0.00     0.210 HD
ENDBRANCH  24  35
ENDBRANCH  19  20
ENDBRANCH   1  19
TORSDOF 8
ENDMDL
MODEL 4
REMARK VINA RESULT: -8.812441772      1.638      1.969
REMARK  8 active torsions:
REMARK  status: ('A' for Active; 'I' for Inactive)
REMARK    1  A    between atoms: C9_9  and  C10_10 
REMARK    2  A    between atoms: C10_10  and  C11_11 
REMARK    3  A    between atoms: C11_11  and  C12_12 
REMARK    4  A    between atoms: C12_12  and  S1_15 
REMARK    5  A    between atoms: S1_15  and  C13_16 
REMARK    6  A    between atoms: C14_18  and  N1_19 
REMARK    7  A    between atoms: C17_27  and  O2_28 
REMARK    8  A    between atoms: C18_30  and  O3_31 
ROOT
HETATM    1  C12 UNL     1      -2.040   6.672 111.906  1.00  0.00     0.294 C 
HETATM    2  F1  UNL     1      -2.270   6.798 113.258  1.00  0.00    -0.194 F 
HETATM    3  F2  UNL     1      -0.708   6.377 111.702  1.00  0.00    -0.194 F 
ENDROOT
BRANCH   1   4
HETATM    4  C11 UNL     1      -2.290   8.026 111.274  1.00  0.00     0.092 C 
BRANCH   4   5
HETATM    5  C10 UNL     1      -1.181   8.405 110.321  1.00  0.00     0.012 C 
BRANCH   5   6
HETATM    6  C9  UNL     1      -0.714   9.807 110.640  1.00  0.00    -0.006 C 
HETATM    7  C7  UNL     1       0.610  10.166 110.023  1.00  0.00    -0.036 C 
HETATM    8  C6  UNL     1       1.349  11.032 111.010  1.00  0.00     0.010 C 
HETATM    9  C8  UNL     1       1.382   8.831 109.977  1.00  0.00     0.016 C 
HETATM   10  C22 UNL     1       0.497  10.747 108.666  1.00  0.00     0.002 C 
HETATM   11  C5  UNL     1       2.513  11.754 110.443  1.00  0.00     0.002 C 
HETATM   12  C4  UNL     1       2.375  12.287 109.067  1.00  0.00     0.009 C 
HETATM   13  C2  UNL     1       1.788  11.310 108.103  1.00  0.00    -0.043 C 
HETATM   14  C1  UNL     1       1.386  12.095 106.837  1.00  0.00     0.015 C 
HETATM   15  C3  UNL     1       2.773  10.282 107.656  1.00  0.00     0.015 C 
HETATM   16  C21 UNL     1      -0.584  11.798 108.503  1.00  0.00     0.006 C 
HETATM   17  C20 UNL     1      -1.378  12.075 109.731  1.00  0.00     0.001 C 
HETATM   18  C19 UNL     1      -1.815  10.800 110.410  1.00  0.00     0.005 C 
ENDBRANCH   5   6
ENDBRANCH   4   5
ENDBRANCH   1   4
BRANCH   1  19
HETATM   19  S1  UNL     1      -3.083   5.394 111.152  1.00  0.00    -0.058 SA
BRANCH  19  20
HETATM   20  C13 UNL     1      -4.816   5.623 111.557  1.00  0.00     0.222 C 
HETATM   21  O1  UNL     1      -5.017   6.620 112.479  1.00  0.00    -0.344 OA
HETATM   22  C14 UNL     1      -6.302   7.103 112.301  1.00  0.00     0.279 C 
HETATM   23  C17 UNL     1      -6.414   7.179 110.793  1.00  0.00     0.200 C 
HETATM   24  C18 UNL     1      -5.683   5.916 110.368  1.00  0.00     0.190 C 
BRANCH  22  25
HETATM   25  N1  UNL     1      -6.390   8.433 112.882  1.00  0.00    -0.233 N 
HETATM   26  N2  UNL     1      -5.431   9.311 113.031  1.00  0.00    -0.289 N 
HETATM   27  C15 UNL     1      -5.905  10.446 113.619  1.00  0.00     0.200 A 
ATOM     28  H2  UNL     1      -4.462   9.166 112.747  1.00  0.00     0.188 HD
HETATM   29  N3  UNL     1      -7.216  10.219 113.826  1.00  0.00    -0.326 N 
HETATM   30  C16 UNL     1      -7.523   8.970 113.370  1.00  0.00     0.199 A 
ATOM     31  H3  UNL     1      -7.872  10.873 114.253  1.00  0.00     0.169 HD
HETATM   32 CL1  UNL     1      -9.119   8.256 113.438  1.00  0.00    -0.043 Cl
ENDBRANCH  22  25
BRANCH  23  33
HETATM   33  O2  UNL     1      -5.655   8.271 110.373  1.00  0.00    -0.388 OA
ATOM     34  H2  UNL     1      -5.212   8.017 109.572  1.00  0.00     0.210 HD
ENDBRANCH  23  33
BRANCH  24  35
HETATM   35  O3  UNL     1      -6.671   4.923 110.188  1.00  0.00    -0.389 OA
ATOM     36  H3  UNL     1      -7.498   5.298 109.908  1.00  0.00     0.210 HD
ENDBRANCH  24  35
ENDBRANCH  19  20
ENDBRANCH   1  19
TORSDOF 8
ENDMDL
MODEL 5
REMARK VINA RESULT: -8.792450283      1.705      2.188
REMARK  8 active torsions:
REMARK  status: ('A' for Active; 'I' for Inactive)
REMARK    1  A    between atoms: C9_9  and  C10_10 
REMARK    2  A    between atoms: C10_10  and  C11_11 
REMARK    3  A    between atoms: C11_11  and  C12_12 
REMARK    4  A    between atoms: C12_12  and  S1_15 
REMARK    5  A    between atoms: S1_15  and  C13_16 
REMARK    6  A    between atoms: C14_18  and  N1_19 
REMARK    7  A    between atoms: C17_27  and  O2_28 
REMARK    8  A    between atoms: C18_30  and  O3_31 
ROOT
HETATM    1  C12 UNL     1      -3.105   7.024 111.156  1.00  0.00     0.294 C 
HETATM    2  F1  UNL     1      -1.994   6.216 111.080  1.00  0.00    -0.194 F 
HETATM    3  F2  UNL     1      -4.046   6.582 110.250  1.00  0.00    -0.194 F 
ENDROOT
BRANCH   1   4
HETATM    4  C11 UNL     1      -2.689   8.412 110.711  1.00  0.00     0.092 C 
BRANCH   4   5
HETATM    5  C10 UNL     1      -1.211   8.477 110.408  1.00  0.00     0.012 C 
BRANCH   5   6
HETATM    6  C9  UNL     1      -0.713   9.879 110.677  1.00  0.00    -0.006 C 
HETATM    7  C7  UNL     1       0.604  10.196 110.025  1.00  0.00    -0.036 C 
HETATM    8  C6  UNL     1       1.378  11.077 110.971  1.00  0.00     0.010 C 
HETATM    9  C8  UNL     1       1.352   8.847 110.003  1.00  0.00     0.016 C 
HETATM   10  C22 UNL     1       0.475  10.740 108.653  1.00  0.00     0.002 C 
HETATM   11  C5  UNL     1       2.542  11.761 110.361  1.00  0.00     0.002 C 
HETATM   12  C4  UNL     1       2.387  12.256 108.973  1.00  0.00     0.009 C 
HETATM   13  C2  UNL     1       1.764  11.263 108.049  1.00  0.00    -0.043 C 
HETATM   14  C1  UNL     1       1.350  12.018 106.769  1.00  0.00     0.015 C 
HETATM   15  C3  UNL     1       2.722  10.204 107.614  1.00  0.00     0.015 C 
HETATM   16  C21 UNL     1      -0.591  11.804 108.481  1.00  0.00     0.006 C 
HETATM   17  C20 UNL     1      -1.355  12.131 109.714  1.00  0.00     0.001 C 
HETATM   18  C19 UNL     1      -1.801  10.885 110.439  1.00  0.00     0.005 C 
ENDBRANCH   5   6
ENDBRANCH   4   5
ENDBRANCH   1   4
BRANCH   1  19
HETATM   19  S1  UNL     1      -3.814   7.057 112.825  1.00  0.00    -0.058 SA
BRANCH  19  20
HETATM   20  C13 UNL     1      -5.518   7.619 112.813  1.00  0.00     0.222 C 
HETATM   21  O1  UNL     1      -5.989   7.909 114.069  1.00  0.00    -0.344 OA
HETATM   22  C14 UNL     1      -7.014   8.829 113.931  1.00  0.00     0.279 C 
HETATM   23  C17 UNL     1      -6.458   9.779 112.892  1.00  0.00     0.200 C 
HETATM   24  C18 UNL     1      -5.754   8.821 111.946  1.00  0.00     0.190 C 
BRANCH  22  25
HETATM   25  N1  UNL     1      -7.202   9.519 115.197  1.00  0.00    -0.233 N 
HETATM   26  N2  UNL     1      -6.385   9.563 116.218  1.00  0.00    -0.289 N 
HETATM   27  C15 UNL     1      -6.915  10.313 117.226  1.00  0.00     0.200 A 
ATOM     28  H2  UNL     1      -5.477   9.100 116.255  1.00  0.00     0.188 HD
HETATM   29  N3  UNL     1      -8.111  10.730 116.769  1.00  0.00    -0.326 N 
HETATM   30  C16 UNL     1      -8.294  10.239 115.509  1.00  0.00     0.199 A 
ATOM     31  H3  UNL     1      -8.770  11.316 117.280  1.00  0.00     0.169 HD
HETATM   32 CL1  UNL     1      -9.715  10.533 114.531  1.00  0.00    -0.043 Cl
ENDBRANCH  22  25
BRANCH  23  33
HETATM   33  O2  UNL     1      -5.482  10.555 113.515  1.00  0.00    -0.388 OA
ATOM     34  H2  UNL     1      -4.920  10.906 112.834  1.00  0.00     0.210 HD
ENDBRANCH  23  33
BRANCH  24  35
HETATM   35  O3  UNL     1      -6.668   8.540 110.905  1.00  0.00    -0.389 OA
ATOM     36  H3  UNL     1      -6.300   8.740 110.053  1.00  0.00     0.210 HD
ENDBRANCH  24  35
ENDBRANCH  19  20
ENDBRANCH   1  19
TORSDOF 8
ENDMDL
