MODEL 1
REMARK VINA RESULT: -8.878251991      0.000      0.000
REMARK  6 active torsions:
REMARK  status: ('A' for Active; 'I' for Inactive)
REMARK    1  A    between atoms: O1_2  and  C2_3 
REMARK    2  A    between atoms: C6_9  and  N1_10 
REMARK    3  A    between atoms: N1_10  and  C7_12 
REMARK    4  A    between atoms: C8_15  and  S1_16 
REMARK    5  A    between atoms: S1_16  and  C9_17 
REMARK    6  A    between atoms: C9_17  and  C10_18 
ROOT
HETATM    1  C10 UNL     1       1.221  11.761 108.527  1.00  0.00     0.136 A 
HETATM    2  N3  UNL     1       0.975  11.566 107.234  1.00  0.00    -0.328 N 
ATOM      3  H3  UNL     1       0.050  11.401 106.834  1.00  0.00     0.168 HD
HETATM    4  C11 UNL     1       2.114  11.615 106.534  1.00  0.00     0.164 A 
HETATM    5  C12 UNL     1       2.306  11.458 105.120  1.00  0.00     0.122 C 
HETATM    6  N4  UNL     1       2.475  11.344 103.975  1.00  0.00    -0.190 NA
HETATM    7  C13 UNL     1       3.115  11.856 107.469  1.00  0.00     0.196 A 
HETATM    8  N5  UNL     1       4.505  11.985 107.158  1.00  0.00    -0.071 NA
HETATM    9  O2  UNL     1       2.530  11.932 108.621  1.00  0.00    -0.279 OA
ENDROOT
BRANCH   1  10
HETATM   10  C9  UNL     1       0.261  11.792 109.685  1.00  0.00     0.165 C 
BRANCH  10  11
HETATM   11  S1  UNL     1      -0.393  10.194 110.082  1.00  0.00    -0.104 SA
BRANCH  11  12
HETATM   12  C8  UNL     1      -1.960  10.263 110.887  1.00  0.00     0.072 A 
HETATM   13  N2  UNL     1      -2.547   9.137 111.387  1.00  0.00    -0.337 N 
HETATM   14  C7  UNL     1      -3.710   9.121 112.035  1.00  0.00     0.113 A 
ATOM     15  H2  UNL     1      -2.062   8.249 111.257  1.00  0.00     0.168 HD
HETATM   16  C16 UNL     1      -4.398  10.294 112.234  1.00  0.00    -0.008 A 
HETATM   17  C15 UNL     1      -3.847  11.453 111.749  1.00  0.00    -0.045 A 
HETATM   18  C17 UNL     1      -5.684  10.315 112.948  1.00  0.00     0.043 C 
HETATM   19  C14 UNL     1      -2.643  11.440 111.084  1.00  0.00     0.044 A 
HETATM   20  C20 UNL     1      -4.616  12.710 111.978  1.00  0.00     0.039 C 
HETATM   21  C19 UNL     1      -6.044  12.404 111.575  1.00  0.00     0.005 C 
HETATM   22  C18 UNL     1      -6.629  11.366 112.473  1.00  0.00     0.005 C 
BRANCH  14  23
HETATM   23  N1  UNL     1      -4.237   8.031 112.497  1.00  0.00    -0.339 N 
ATOM     24  H1  UNL     1      -4.732   8.064 113.388  1.00  0.00     0.167 HD
BRANCH  23  25
HETATM   25  C6  UNL     1      -4.152   6.791 111.809  1.00  0.00     0.080 A 
HETATM   26  C5  UNL     1      -3.146   5.897 112.105  1.00  0.00     0.064 A 
HETATM   27  C4  UNL     1      -3.102   4.692 111.404  1.00  0.00     0.053 A 
HETATM   28 CL2  UNL     1      -1.934   6.230 113.323  1.00  0.00    -0.082 Cl
HETATM   29  C3  UNL     1      -4.042   4.404 110.440  1.00  0.00     0.070 A 
HETATM   30  C2  UNL     1      -5.053   5.292 110.136  1.00  0.00     0.114 A 
HETATM   31 CL1  UNL     1      -3.935   2.876 109.594  1.00  0.00    -0.081 Cl
HETATM   32  C21 UNL     1      -5.085   6.487 110.842  1.00  0.00     0.097 A 
HETATM   33 CL3  UNL     1      -6.389   7.593 110.426  1.00  0.00    -0.079 Cl
BRANCH  30  34
HETATM   34  O1  UNL     1      -6.016   5.005 109.153  1.00  0.00    -0.352 OA
HETATM   35  C1  UNL     1      -7.100   4.183 109.572  1.00  0.00     0.210 C 
ENDBRANCH  30  34
ENDBRANCH  23  25
ENDBRANCH  14  23
ENDBRANCH  11  12
ENDBRANCH  10  11
ENDBRANCH   1  10
TORSDOF 6
ENDMDL
MODEL 2
REMARK VINA RESULT: -8.865742038      0.929      2.109
REMARK  6 active torsions:
REMARK  status: ('A' for Active; 'I' for Inactive)
REMARK    1  A    between atoms: O1_2  and  C2_3 
REMARK    2  A    between atoms: C6_9  and  N1_10 
REMARK    3  A    between atoms: N1_10  and  C7_12 
REMARK    4  A    between atoms: C8_15  and  S1_16 
REMARK    5  A    between atoms: S1_16  and  C9_17 
REMARK    6  A    between atoms: C9_17  and  C10_18 
ROOT
HETATM    1  C10 UNL     1       1.234  11.764 108.531  1.00  0.00     0.136 A 
HETATM    2  N3  UNL     1       0.974  11.574 107.240  1.00  0.00    -0.328 N 
ATOM      3  H3  UNL     1       0.045  11.418 106.848  1.00  0.00     0.168 HD
HETATM    4  C11 UNL     1       2.108  11.616 106.529  1.00  0.00     0.164 A 
HETATM    5  C12 UNL     1       2.285  11.461 105.114  1.00  0.00     0.122 C 
HETATM    6  N4  UNL     1       2.442  11.349 103.966  1.00  0.00    -0.190 NA
HETATM    7  C13 UNL     1       3.120  11.846 107.456  1.00  0.00     0.196 A 
HETATM    8  N5  UNL     1       4.507  11.965 107.132  1.00  0.00    -0.071 NA
HETATM    9  O2  UNL     1       2.546  11.924 108.613  1.00  0.00    -0.279 OA
ENDROOT
BRANCH   1  10
HETATM   10  C9  UNL     1       0.285  11.799 109.698  1.00  0.00     0.165 C 
BRANCH  10  11
HETATM   11  S1  UNL     1      -0.390  10.208 110.086  1.00  0.00    -0.104 SA
BRANCH  11  12
HETATM   12  C8  UNL     1      -1.960  10.293 110.884  1.00  0.00     0.072 A 
HETATM   13  N2  UNL     1      -2.551   9.176 111.400  1.00  0.00    -0.337 N 
HETATM   14  C7  UNL     1      -3.717   9.174 112.044  1.00  0.00     0.113 A 
ATOM     15  H2  UNL     1      -2.069   8.285 111.285  1.00  0.00     0.168 HD
HETATM   16  C16 UNL     1      -4.402  10.352 112.223  1.00  0.00    -0.008 A 
HETATM   17  C15 UNL     1      -3.845  11.502 111.722  1.00  0.00    -0.045 A 
HETATM   18  C17 UNL     1      -5.691  10.387 112.932  1.00  0.00     0.043 C 
HETATM   19  C14 UNL     1      -2.639  11.475 111.062  1.00  0.00     0.044 A 
HETATM   20  C20 UNL     1      -4.612  12.764 111.929  1.00  0.00     0.039 C 
HETATM   21  C19 UNL     1      -6.040  12.457 111.526  1.00  0.00     0.005 C 
HETATM   22  C18 UNL     1      -6.631  11.434 112.438  1.00  0.00     0.005 C 
BRANCH  14  23
HETATM   23  N1  UNL     1      -4.249   8.092 112.520  1.00  0.00    -0.339 N 
ATOM     24  H1  UNL     1      -4.665   8.119 113.451  1.00  0.00     0.167 HD
BRANCH  23  25
HETATM   25  C6  UNL     1      -4.274   6.871 111.796  1.00  0.00     0.080 A 
HETATM   26  C5  UNL     1      -5.232   6.653 110.830  1.00  0.00     0.064 A 
HETATM   27  C4  UNL     1      -5.218   5.439 110.144  1.00  0.00     0.053 A 
HETATM   28 CL2  UNL     1      -6.452   7.846 110.444  1.00  0.00    -0.082 Cl
HETATM   29  C3  UNL     1      -4.269   4.481 110.428  1.00  0.00     0.070 A 
HETATM   30  C2  UNL     1      -3.307   4.689 111.393  1.00  0.00     0.114 A 
HETATM   31 CL1  UNL     1      -4.303   2.977 109.534  1.00  0.00    -0.081 Cl
HETATM   32  C21 UNL     1      -3.332   5.903 112.067  1.00  0.00     0.097 A 
HETATM   33 CL3  UNL     1      -2.089   6.131 113.292  1.00  0.00    -0.079 Cl
BRANCH  30  34
HETATM   34  O1  UNL     1      -2.336   3.717 111.688  1.00  0.00    -0.352 OA
HETATM   35  C1  UNL     1      -1.162   3.752 110.883  1.00  0.00     0.210 C 
ENDBRANCH  30  34
ENDBRANCH  23  25
ENDBRANCH  14  23
ENDBRANCH  11  12
ENDBRANCH  10  11
ENDBRANCH   1  10
TORSDOF 6
ENDMDL
MODEL 3
REMARK VINA RESULT: -8.809693383      2.568      3.197
REMARK  6 active torsions:
REMARK  status: ('A' for Active; 'I' for Inactive)
REMARK    1  A    between atoms: O1_2  and  C2_3 
REMARK    2  A    between atoms: C6_9  and  N1_10 
REMARK    3  A    between atoms: N1_10  and  C7_12 
REMARK    4  A    between atoms: C8_15  and  S1_16 
REMARK    5  A    between atoms: S1_16  and  C9_17 
REMARK    6  A    between atoms: C9_17  and  C10_18 
ROOT
HETATM    1  C10 UNL     1       0.968   8.615 109.972  1.00  0.00     0.136 A 
HETATM    2  N3  UNL     1       0.203   7.547 110.183  1.00  0.00    -0.328 N 
ATOM      3  H3  UNL     1      -0.719   7.567 110.619  1.00  0.00     0.168 HD
HETATM    4  C11 UNL     1       0.818   6.444 109.741  1.00  0.00     0.164 A 
HETATM    5  C12 UNL     1       0.355   5.086 109.770  1.00  0.00     0.122 C 
HETATM    6  N4  UNL     1      -0.013   3.982 109.777  1.00  0.00    -0.190 NA
HETATM    7  C13 UNL     1       2.037   6.877 109.230  1.00  0.00     0.196 A 
HETATM    8  N5  UNL     1       3.025   6.022 108.648  1.00  0.00    -0.071 NA
HETATM    9  O2  UNL     1       2.068   8.160 109.393  1.00  0.00    -0.279 OA
ENDROOT
BRANCH   1  10
HETATM   10  C9  UNL     1       0.698  10.059 110.298  1.00  0.00     0.165 C 
BRANCH  10  11
HETATM   11  S1  UNL     1      -0.750  10.689 109.494  1.00  0.00    -0.104 SA
BRANCH  11  12
HETATM   12  C8  UNL     1      -2.189  10.641 110.512  1.00  0.00     0.072 A 
HETATM   13  N2  UNL     1      -2.595   9.481 111.106  1.00  0.00    -0.337 N 
HETATM   14  C7  UNL     1      -3.651   9.381 111.912  1.00  0.00     0.113 A 
ATOM     15  H2  UNL     1      -2.055   8.636 110.920  1.00  0.00     0.168 HD
HETATM   16  C16 UNL     1      -4.407  10.495 112.191  1.00  0.00    -0.008 A 
HETATM   17  C15 UNL     1      -4.035  11.684 111.616  1.00  0.00    -0.045 A 
HETATM   18  C17 UNL     1      -5.577  10.421 113.079  1.00  0.00     0.043 C 
HETATM   19  C14 UNL     1      -2.940  11.759 110.788  1.00  0.00     0.044 A 
HETATM   20  C20 UNL     1      -4.875  12.875 111.935  1.00  0.00     0.039 C 
HETATM   21  C19 UNL     1      -6.312  12.435 111.743  1.00  0.00     0.005 C 
HETATM   22  C18 UNL     1      -6.670  11.374 112.729  1.00  0.00     0.005 C 
BRANCH  14  23
HETATM   23  N1  UNL     1      -4.008   8.261 112.458  1.00  0.00    -0.339 N 
ATOM     24  H1  UNL     1      -4.337   8.269 113.423  1.00  0.00     0.167 HD
BRANCH  23  25
HETATM   25  C6  UNL     1      -3.957   7.023 111.764  1.00  0.00     0.080 A 
HETATM   26  C5  UNL     1      -2.979   6.098 112.057  1.00  0.00     0.064 A 
HETATM   27  C4  UNL     1      -2.968   4.896 111.350  1.00  0.00     0.053 A 
HETATM   28 CL2  UNL     1      -1.761   6.389 113.280  1.00  0.00    -0.082 Cl
HETATM   29  C3  UNL     1      -3.914   4.642 110.382  1.00  0.00     0.070 A 
HETATM   30  C2  UNL     1      -4.897   5.560 110.080  1.00  0.00     0.114 A 
HETATM   31 CL1  UNL     1      -3.850   3.115 109.527  1.00  0.00    -0.081 Cl
HETATM   32  C21 UNL     1      -4.896   6.752 110.792  1.00  0.00     0.097 A 
HETATM   33 CL3  UNL     1      -6.165   7.899 110.379  1.00  0.00    -0.079 Cl
BRANCH  30  34
HETATM   34  O1  UNL     1      -5.866   5.307 109.093  1.00  0.00    -0.352 OA
HETATM   35  C1  UNL     1      -6.931   4.446 109.480  1.00  0.00     0.210 C 
ENDBRANCH  30  34
ENDBRANCH  23  25
ENDBRANCH  14  23
ENDBRANCH  11  12
ENDBRANCH  10  11
ENDBRANCH   1  10
TORSDOF 6
ENDMDL
MODEL 4
REMARK VINA RESULT: -8.745834110      2.806      3.869
REMARK  6 active torsions:
REMARK  status: ('A' for Active; 'I' for Inactive)
REMARK    1  A    between atoms: O1_2  and  C2_3 
REMARK    2  A    between atoms: C6_9  and  N1_10 
REMARK    3  A    between atoms: N1_10  and  C7_12 
REMARK    4  A    between atoms: C8_15  and  S1_16 
REMARK    5  A    between atoms: S1_16  and  C9_17 
REMARK    6  A    between atoms: C9_17  and  C10_18 
ROOT
HETATM    1  C10 UNL     1       1.109   8.443 109.935  1.00  0.00     0.136 A 
HETATM    2  N3  UNL     1       0.273   7.417 110.078  1.00  0.00    -0.328 N 
ATOM      3  H3  UNL     1      -0.683   7.488 110.426  1.00  0.00     0.168 HD
HETATM    4  C11 UNL     1       0.869   6.280 109.700  1.00  0.00     0.164 A 
HETATM    5  C12 UNL     1       0.335   4.948 109.691  1.00  0.00     0.122 C 
HETATM    6  N4  UNL     1      -0.089   3.864 109.668  1.00  0.00    -0.190 NA
HETATM    7  C13 UNL     1       2.151   6.645 109.302  1.00  0.00     0.196 A 
HETATM    8  N5  UNL     1       3.143   5.736 108.819  1.00  0.00    -0.071 NA
HETATM    9  O2  UNL     1       2.233   7.927 109.463  1.00  0.00    -0.279 OA
ENDROOT
BRANCH   1  10
HETATM   10  C9  UNL     1       0.885   9.902 110.229  1.00  0.00     0.165 C 
BRANCH  10  11
HETATM   11  S1  UNL     1      -0.533  10.563 109.398  1.00  0.00    -0.104 SA
BRANCH  11  12
HETATM   12  C8  UNL     1      -1.975  10.612 110.412  1.00  0.00     0.072 A 
HETATM   13  N2  UNL     1      -2.423   9.495 111.056  1.00  0.00    -0.337 N 
HETATM   14  C7  UNL     1      -3.483   9.468 111.863  1.00  0.00     0.113 A 
ATOM     15  H2  UNL     1      -1.913   8.624 110.911  1.00  0.00     0.168 HD
HETATM   16  C16 UNL     1      -4.200  10.619 112.088  1.00  0.00    -0.008 A 
HETATM   17  C15 UNL     1      -3.786  11.768 111.462  1.00  0.00    -0.045 A 
HETATM   18  C17 UNL     1      -5.374  10.627 112.975  1.00  0.00     0.043 C 
HETATM   19  C14 UNL     1      -2.687  11.767 110.635  1.00  0.00     0.044 A 
HETATM   20  C20 UNL     1      -4.584  13.000 111.723  1.00  0.00     0.039 C 
HETATM   21  C19 UNL     1      -6.035  12.603 111.546  1.00  0.00     0.005 C 
HETATM   22  C18 UNL     1      -6.431  11.600 112.578  1.00  0.00     0.005 C 
BRANCH  14  23
HETATM   23  N1  UNL     1      -3.880   8.388 112.458  1.00  0.00    -0.339 N 
ATOM     24  H1  UNL     1      -4.142   8.438 113.443  1.00  0.00     0.167 HD
BRANCH  23  25
HETATM   25  C6  UNL     1      -3.964   7.136 111.792  1.00  0.00     0.080 A 
HETATM   26  C5  UNL     1      -4.910   6.929 110.812  1.00  0.00     0.064 A 
HETATM   27  C4  UNL     1      -4.956   5.684 110.186  1.00  0.00     0.053 A 
HETATM   28 CL2  UNL     1      -6.046   8.174 110.339  1.00  0.00    -0.082 Cl
HETATM   29  C3  UNL     1      -4.074   4.686 110.539  1.00  0.00     0.070 A 
HETATM   30  C2  UNL     1      -3.124   4.883 111.518  1.00  0.00     0.114 A 
HETATM   31 CL1  UNL     1      -4.180   3.144 109.717  1.00  0.00    -0.081 Cl
HETATM   32  C21 UNL     1      -3.090   6.127 112.133  1.00  0.00     0.097 A 
HETATM   33 CL3  UNL     1      -1.863   6.339 113.378  1.00  0.00    -0.079 Cl
BRANCH  30  34
HETATM   34  O1  UNL     1      -2.221   3.869 111.884  1.00  0.00    -0.352 OA
HETATM   35  C1  UNL     1      -2.687   2.953 112.869  1.00  0.00     0.210 C 
ENDBRANCH  30  34
ENDBRANCH  23  25
ENDBRANCH  14  23
ENDBRANCH  11  12
ENDBRANCH  10  11
ENDBRANCH   1  10
TORSDOF 6
ENDMDL
MODEL 5
REMARK VINA RESULT: -8.686457108      2.925      4.812
REMARK  6 active torsions:
REMARK  status: ('A' for Active; 'I' for Inactive)
REMARK    1  A    between atoms: O1_2  and  C2_3 
REMARK    2  A    between atoms: C6_9  and  N1_10 
REMARK    3  A    between atoms: N1_10  and  C7_12 
REMARK    4  A    between atoms: C8_15  and  S1_16 
REMARK    5  A    between atoms: S1_16  and  C9_17 
REMARK    6  A    between atoms: C9_17  and  C10_18 
ROOT
HETATM    1  C10 UNL     1       1.034  11.516 109.194  1.00  0.00     0.136 A 
HETATM    2  N3  UNL     1       0.561  11.436 107.952  1.00  0.00    -0.328 N 
ATOM      3  H3  UNL     1      -0.420  11.293 107.709  1.00  0.00     0.168 HD
HETATM    4  C11 UNL     1       1.558  11.570 107.069  1.00  0.00     0.164 A 
HETATM    5  C12 UNL     1       1.494  11.547 105.636  1.00  0.00     0.122 C 
HETATM    6  N4  UNL     1       1.457  11.541 104.472  1.00  0.00    -0.190 NA
HETATM    7  C13 UNL     1       2.709  11.741 107.830  1.00  0.00     0.196 A 
HETATM    8  N5  UNL     1       4.021  11.923 107.291  1.00  0.00    -0.071 NA
HETATM    9  O2  UNL     1       2.338  11.700 109.070  1.00  0.00    -0.279 OA
ENDROOT
BRANCH   1  10
HETATM   10  C9  UNL     1       0.295  11.423 110.502  1.00  0.00     0.165 C 
BRANCH  10  11
HETATM   11  S1  UNL     1      -1.045  10.265 110.456  1.00  0.00    -0.104 SA
BRANCH  11  12
HETATM   12  C8  UNL     1      -0.514   8.590 110.314  1.00  0.00     0.072 A 
HETATM   13  N2  UNL     1      -1.312   7.560 110.719  1.00  0.00    -0.337 N 
HETATM   14  C7  UNL     1      -0.989   6.272 110.611  1.00  0.00     0.113 A 
ATOM     15  H2  UNL     1      -2.215   7.790 111.133  1.00  0.00     0.168 HD
HETATM   16  C16 UNL     1       0.219   5.915 110.059  1.00  0.00    -0.008 A 
HETATM   17  C15 UNL     1       1.055   6.918 109.636  1.00  0.00    -0.045 A 
HETATM   18  C17 UNL     1       0.608   4.503 109.920  1.00  0.00     0.043 C 
HETATM   19  C14 UNL     1       0.694   8.239 109.760  1.00  0.00     0.044 A 
HETATM   20  C20 UNL     1       2.358   6.500 109.044  1.00  0.00     0.039 C 
HETATM   21  C19 UNL     1       2.939   5.473 109.995  1.00  0.00     0.005 C 
HETATM   22  C18 UNL     1       2.074   4.258 110.043  1.00  0.00     0.005 C 
BRANCH  14  23
HETATM   23  N1  UNL     1      -1.773   5.320 111.007  1.00  0.00    -0.339 N 
ATOM     24  H1  UNL     1      -1.491   4.754 111.809  1.00  0.00     0.167 HD
BRANCH  23  25
HETATM   25  C6  UNL     1      -3.008   5.032 110.370  1.00  0.00     0.080 A 
HETATM   26  C5  UNL     1      -4.138   5.758 110.678  1.00  0.00     0.064 A 
HETATM   27  C4  UNL     1      -5.330   5.441 110.027  1.00  0.00     0.053 A 
HETATM   28 CL2  UNL     1      -4.118   7.054 111.855  1.00  0.00    -0.082 Cl
HETATM   29  C3  UNL     1      -5.374   4.425 109.098  1.00  0.00     0.070 A 
HETATM   30  C2  UNL     1      -4.250   3.693 108.781  1.00  0.00     0.114 A 
HETATM   31 CL1  UNL     1      -6.899   4.073 108.313  1.00  0.00    -0.081 Cl
HETATM   32  C21 UNL     1      -3.070   4.020 109.437  1.00  0.00     0.097 A 
HETATM   33 CL3  UNL     1      -1.657   3.063 109.007  1.00  0.00    -0.079 Cl
BRANCH  30  34
HETATM   34  O1  UNL     1      -4.288   2.655 107.834  1.00  0.00    -0.352 OA
HETATM   35  C1  UNL     1      -4.014   3.035 106.490  1.00  0.00     0.210 C 
ENDBRANCH  30  34
ENDBRANCH  23  25
ENDBRANCH  14  23
ENDBRANCH  11  12
ENDBRANCH  10  11
ENDBRANCH   1  10
TORSDOF 6
ENDMDL
