MODEL 1
REMARK VINA RESULT: -8.470030011      0.000      0.000
REMARK  6 active torsions:
REMARK  status: ('A' for Active; 'I' for Inactive)
REMARK    1  A    between atoms: C2_3  and  C3_4 
REMARK    2  A    between atoms: C6_9  and  C7_10 
REMARK    3  A    between atoms: C14_23  and  N5_24 
REMARK    4  A    between atoms: C19_29  and  C20_30 
REMARK    5  A    between atoms: C20_30  and  C21_31 
REMARK    6  A    between atoms: C21_31  and  O1_32 
ROOT
HETATM    1  N1  UNL     1      -0.688   5.093 110.475  1.00  0.00    -0.197 NA
HETATM    2  C1  UNL     1      -0.408   6.225 110.376  1.00  0.00     0.065 C 
HETATM    3  C2  UNL     1      -0.035   7.626 110.254  1.00  0.00     0.184 C 
ENDROOT
BRANCH   3   4
HETATM    4  C3  UNL     1      -1.171   8.452 110.770  1.00  0.00     0.067 A 
HETATM    5  N2  UNL     1      -2.252   7.848 111.294  1.00  0.00    -0.353 N 
HETATM    6  C4  UNL     1      -3.324   8.545 111.756  1.00  0.00     0.068 A 
ATOM      7  H2  UNL     1      -2.269   6.829 111.347  1.00  0.00     0.166 HD
HETATM    8  C5  UNL     1      -4.450   8.015 112.299  1.00  0.00     0.052 A 
HETATM    9  C13 UNL     1      -3.241   9.893 111.657  1.00  0.00     0.103 A 
HETATM   10  C6  UNL     1      -5.420   8.856 112.707  1.00  0.00     0.023 A 
HETATM   11  S1  UNL     1      -4.717  10.409 112.313  1.00  0.00    -0.069 SA
HETATM   12  N4  UNL     1      -2.156  10.509 111.130  1.00  0.00    -0.333 N 
HETATM   13  C14 UNL     1      -1.076   9.805 110.665  1.00  0.00     0.128 A 
ATOM     14  H4  UNL     1      -2.143  11.528 111.078  1.00  0.00     0.168 HD
BRANCH  10  15
HETATM   15  C7  UNL     1      -6.743   8.694 113.333  1.00  0.00     0.025 A 
HETATM   16  C8  UNL     1      -7.730   7.984 112.634  1.00  0.00     0.049 A 
HETATM   17 CL1  UNL     1      -7.321   7.344 111.057  1.00  0.00    -0.083 Cl
HETATM   18  C9  UNL     1      -8.983   7.778 113.135  1.00  0.00     0.051 A 
HETATM   19  C10 UNL     1      -9.281   8.289 114.371  1.00  0.00     0.049 A 
HETATM   20  N3  UNL     1     -10.590   8.081 114.905  1.00  0.00    -0.102 NA
HETATM   21  C11 UNL     1      -8.368   8.991 115.109  1.00  0.00     0.051 A 
HETATM   22  C12 UNL     1      -7.092   9.174 114.547  1.00  0.00     0.049 A 
HETATM   23 CL2  UNL     1      -5.989  10.066 115.547  1.00  0.00    -0.083 Cl
ENDBRANCH  10  15
BRANCH  13  24
HETATM   24  N5  UNL     1      -0.006  10.574 110.170  1.00  0.00    -0.366 N 
HETATM   25  C15 UNL     1       0.596  11.365 111.212  1.00  0.00     0.124 C 
HETATM   26  C16 UNL     1       2.092  11.459 111.164  1.00  0.00     0.020 C 
HETATM   27  C17 UNL     1       2.507  12.594 110.276  1.00  0.00     0.002 C 
HETATM   28  C18 UNL     1       3.214  12.054 109.043  1.00  0.00     0.005 C 
HETATM   29  C19 UNL     1       2.082  11.795 108.032  1.00  0.00    -0.011 C 
HETATM   30  C22 UNL     1       1.550  10.395 108.240  1.00  0.00     0.024 C 
HETATM   31  C23 UNL     1       0.154  10.364 108.752  1.00  0.00     0.125 C 
BRANCH  29  32
HETATM   32  C20 UNL     1       2.665  12.038 106.682  1.00  0.00     0.030 C 
BRANCH  32  33
HETATM   33  C21 UNL     1       1.801  11.619 105.526  1.00  0.00     0.164 C 
BRANCH  33  34
HETATM   34  O1  UNL     1       2.619  10.861 104.659  1.00  0.00    -0.401 OA
ATOM     35  H1  UNL     1       2.585  11.285 103.809  1.00  0.00     0.209 HD
ENDBRANCH  33  34
ENDBRANCH  32  33
ENDBRANCH  29  32
ENDBRANCH  13  24
ENDBRANCH   3   4
TORSDOF 6
ENDMDL
MODEL 2
REMARK VINA RESULT: -8.440788230      2.677      3.969
REMARK  6 active torsions:
REMARK  status: ('A' for Active; 'I' for Inactive)
REMARK    1  A    between atoms: C2_3  and  C3_4 
REMARK    2  A    between atoms: C6_9  and  C7_10 
REMARK    3  A    between atoms: C14_23  and  N5_24 
REMARK    4  A    between atoms: C19_29  and  C20_30 
REMARK    5  A    between atoms: C20_30  and  C21_31 
REMARK    6  A    between atoms: C21_31  and  O1_32 
ROOT
HETATM    1  N1  UNL     1      -5.162  13.203 111.520  1.00  0.00    -0.197 NA
HETATM    2  C1  UNL     1      -4.112  12.847 111.147  1.00  0.00     0.065 C 
HETATM    3  C2  UNL     1      -2.803  12.425 110.670  1.00  0.00     0.184 C 
ENDROOT
BRANCH   3   4
HETATM    4  C3  UNL     1      -2.754  10.930 110.721  1.00  0.00     0.067 A 
HETATM    5  N2  UNL     1      -3.860  10.236 111.041  1.00  0.00    -0.353 N 
HETATM    6  C4  UNL     1      -3.868   8.879 111.127  1.00  0.00     0.068 A 
ATOM      7  H2  UNL     1      -4.723  10.746 111.227  1.00  0.00     0.166 HD
HETATM    8  C5  UNL     1      -4.938   8.104 111.441  1.00  0.00     0.052 A 
HETATM    9  C13 UNL     1      -2.691   8.262 110.870  1.00  0.00     0.103 A 
HETATM   10  C6  UNL     1      -4.769   6.768 111.481  1.00  0.00     0.023 A 
HETATM   11  S1  UNL     1      -3.076   6.622 111.067  1.00  0.00    -0.069 SA
HETATM   12  N4  UNL     1      -1.573   8.954 110.547  1.00  0.00    -0.333 N 
HETATM   13  C14 UNL     1      -1.565  10.322 110.461  1.00  0.00     0.128 A 
ATOM     14  H4  UNL     1      -0.710   8.442 110.363  1.00  0.00     0.168 HD
BRANCH  10  15
HETATM   15  C7  UNL     1      -5.644   5.616 111.762  1.00  0.00     0.025 A 
HETATM   16  C8  UNL     1      -5.930   5.306 113.099  1.00  0.00     0.049 A 
HETATM   17 CL1  UNL     1      -5.221   6.308 114.346  1.00  0.00    -0.083 Cl
HETATM   18  C9  UNL     1      -6.734   4.261 113.457  1.00  0.00     0.051 A 
HETATM   19  C10 UNL     1      -7.278   3.490 112.463  1.00  0.00     0.049 A 
HETATM   20  N3  UNL     1      -8.118   2.393 112.825  1.00  0.00    -0.102 NA
HETATM   21  C11 UNL     1      -7.041   3.735 111.139  1.00  0.00     0.051 A 
HETATM   22  C12 UNL     1      -6.207   4.823 110.825  1.00  0.00     0.049 A 
HETATM   23 CL2  UNL     1      -5.964   5.073 109.125  1.00  0.00    -0.083 Cl
ENDBRANCH  10  15
BRANCH  13  24
HETATM   24  N5  UNL     1      -0.341  10.909 110.088  1.00  0.00    -0.366 N 
HETATM   25  C15 UNL     1       0.338  11.470 111.228  1.00  0.00     0.124 C 
HETATM   26  C16 UNL     1       1.825  11.273 111.250  1.00  0.00     0.020 C 
HETATM   27  C17 UNL     1       2.501  12.380 110.497  1.00  0.00     0.002 C 
HETATM   28  C18 UNL     1       3.163  11.825 109.246  1.00  0.00     0.005 C 
HETATM   29  C19 UNL     1       2.064  11.884 108.169  1.00  0.00    -0.011 C 
HETATM   30  C22 UNL     1       1.264  10.602 108.215  1.00  0.00     0.024 C 
HETATM   31  C23 UNL     1      -0.141  10.800 108.664  1.00  0.00     0.125 C 
BRANCH  29  32
HETATM   32  C20 UNL     1       2.762  12.129 106.875  1.00  0.00     0.030 C 
BRANCH  32  33
HETATM   33  C21 UNL     1       1.964  11.800 105.645  1.00  0.00     0.164 C 
BRANCH  33  34
HETATM   34  O1  UNL     1       2.715  10.855 104.912  1.00  0.00    -0.401 OA
ATOM     35  H1  UNL     1       2.320  10.799 104.049  1.00  0.00     0.209 HD
ENDBRANCH  33  34
ENDBRANCH  32  33
ENDBRANCH  29  32
ENDBRANCH  13  24
ENDBRANCH   3   4
TORSDOF 6
ENDMDL
MODEL 3
REMARK VINA RESULT: -8.418371664      2.628      3.628
REMARK  6 active torsions:
REMARK  status: ('A' for Active; 'I' for Inactive)
REMARK    1  A    between atoms: C2_3  and  C3_4 
REMARK    2  A    between atoms: C6_9  and  C7_10 
REMARK    3  A    between atoms: C14_23  and  N5_24 
REMARK    4  A    between atoms: C19_29  and  C20_30 
REMARK    5  A    between atoms: C20_30  and  C21_31 
REMARK    6  A    between atoms: C21_31  and  O1_32 
ROOT
HETATM    1  N1  UNL     1      -5.218  13.280 111.542  1.00  0.00    -0.197 NA
HETATM    2  C1  UNL     1      -4.178  12.907 111.156  1.00  0.00     0.065 C 
HETATM    3  C2  UNL     1      -2.883  12.464 110.663  1.00  0.00     0.184 C 
ENDROOT
BRANCH   3   4
HETATM    4  C3  UNL     1      -2.829  10.973 110.782  1.00  0.00     0.067 A 
HETATM    5  N2  UNL     1      -3.934  10.290 111.130  1.00  0.00    -0.353 N 
HETATM    6  C4  UNL     1      -3.939   8.939 111.278  1.00  0.00     0.068 A 
ATOM      7  H2  UNL     1      -4.800  10.806 111.290  1.00  0.00     0.166 HD
HETATM    8  C5  UNL     1      -5.008   8.176 111.624  1.00  0.00     0.052 A 
HETATM    9  C13 UNL     1      -2.759   8.315 111.053  1.00  0.00     0.103 A 
HETATM   10  C6  UNL     1      -4.835   6.844 111.725  1.00  0.00     0.023 A 
HETATM   11  S1  UNL     1      -3.140   6.684 111.323  1.00  0.00    -0.069 SA
HETATM   12  N4  UNL     1      -1.642   8.994 110.703  1.00  0.00    -0.333 N 
HETATM   13  C14 UNL     1      -1.638  10.357 110.554  1.00  0.00     0.128 A 
ATOM     14  H4  UNL     1      -0.777   8.477 110.544  1.00  0.00     0.168 HD
BRANCH  10  15
HETATM   15  C7  UNL     1      -5.707   5.704 112.055  1.00  0.00     0.025 A 
HETATM   16  C8  UNL     1      -6.243   4.947 111.003  1.00  0.00     0.049 A 
HETATM   17 CL1  UNL     1      -5.841   5.414 109.366  1.00  0.00    -0.083 Cl
HETATM   18  C9  UNL     1      -7.057   3.870 111.211  1.00  0.00     0.051 A 
HETATM   19  C10 UNL     1      -7.359   3.522 112.502  1.00  0.00     0.049 A 
HETATM   20  N3  UNL     1      -8.210   2.399 112.731  1.00  0.00    -0.102 NA
HETATM   21  C11 UNL     1      -6.872   4.215 113.576  1.00  0.00     0.051 A 
HETATM   22  C12 UNL     1      -6.037   5.315 113.306  1.00  0.00     0.049 A 
HETATM   23 CL2  UNL     1      -5.454   6.136 114.720  1.00  0.00    -0.083 Cl
ENDBRANCH  10  15
BRANCH  13  24
HETATM   24  N5  UNL     1      -0.414  10.930 110.159  1.00  0.00    -0.366 N 
HETATM   25  C15 UNL     1       0.292  11.483 111.286  1.00  0.00     0.124 C 
HETATM   26  C16 UNL     1       1.777  11.270 111.280  1.00  0.00     0.020 C 
HETATM   27  C17 UNL     1       2.451  12.368 110.514  1.00  0.00     0.002 C 
HETATM   28  C18 UNL     1       3.084  11.806 109.252  1.00  0.00     0.005 C 
HETATM   29  C19 UNL     1       1.966  11.879 108.195  1.00  0.00    -0.011 C 
HETATM   30  C22 UNL     1       1.152  10.606 108.256  1.00  0.00     0.024 C 
HETATM   31  C23 UNL     1      -0.242  10.819 108.731  1.00  0.00     0.125 C 
BRANCH  29  32
HETATM   32  C20 UNL     1       2.642  12.116 106.888  1.00  0.00     0.030 C 
BRANCH  32  33
HETATM   33  C21 UNL     1       1.834  11.757 105.674  1.00  0.00     0.164 C 
BRANCH  33  34
HETATM   34  O1  UNL     1       2.650  10.933 104.869  1.00  0.00    -0.401 OA
ATOM     35  H1  UNL     1       2.075  10.310 104.440  1.00  0.00     0.209 HD
ENDBRANCH  33  34
ENDBRANCH  32  33
ENDBRANCH  29  32
ENDBRANCH  13  24
ENDBRANCH   3   4
TORSDOF 6
ENDMDL
MODEL 4
REMARK VINA RESULT: -8.346468550      4.244      9.983
REMARK  6 active torsions:
REMARK  status: ('A' for Active; 'I' for Inactive)
REMARK    1  A    between atoms: C2_3  and  C3_4 
REMARK    2  A    between atoms: C6_9  and  C7_10 
REMARK    3  A    between atoms: C14_23  and  N5_24 
REMARK    4  A    between atoms: C19_29  and  C20_30 
REMARK    5  A    between atoms: C20_30  and  C21_31 
REMARK    6  A    between atoms: C21_31  and  O1_32 
ROOT
HETATM    1  N1  UNL     1      -5.633  13.258 111.843  1.00  0.00    -0.197 NA
HETATM    2  C1  UNL     1      -5.639  12.089 111.891  1.00  0.00     0.065 C 
HETATM    3  C2  UNL     1      -5.664  10.636 111.969  1.00  0.00     0.184 C 
ENDROOT
BRANCH   3   4
HETATM    4  C3  UNL     1      -4.334  10.126 111.512  1.00  0.00     0.067 A 
HETATM    5  N2  UNL     1      -3.429  10.982 111.003  1.00  0.00    -0.353 N 
HETATM    6  C4  UNL     1      -2.215  10.573 110.550  1.00  0.00     0.068 A 
ATOM      7  H2  UNL     1      -3.664  11.974 110.956  1.00  0.00     0.166 HD
HETATM    8  C5  UNL     1      -1.247  11.369 110.026  1.00  0.00     0.052 A 
HETATM    9  C13 UNL     1      -1.965   9.246 110.639  1.00  0.00     0.103 A 
HETATM   10  C6  UNL     1      -0.096  10.796 109.624  1.00  0.00     0.023 A 
HETATM   11  S1  UNL     1      -0.401   9.114 109.998  1.00  0.00    -0.069 SA
HETATM   12  N4  UNL     1      -2.870   8.377 111.149  1.00  0.00    -0.333 N 
HETATM   13  C14 UNL     1      -4.095   8.791 111.606  1.00  0.00     0.128 A 
ATOM     14  H4  UNL     1      -2.634   7.386 111.194  1.00  0.00     0.168 HD
BRANCH  10  15
HETATM   15  C7  UNL     1       1.160  11.287 109.031  1.00  0.00     0.025 A 
HETATM   16  C8  UNL     1       2.225  11.597 109.888  1.00  0.00     0.049 A 
HETATM   17 CL1  UNL     1       1.987  11.384 111.608  1.00  0.00    -0.083 Cl
HETATM   18  C9  UNL     1       3.429  12.053 109.431  1.00  0.00     0.051 A 
HETATM   19  C10 UNL     1       3.593  12.213 108.080  1.00  0.00     0.049 A 
HETATM   20  N3  UNL     1       4.847  12.691 107.591  1.00  0.00    -0.102 NA
HETATM   21  C11 UNL     1       2.597  11.930 107.187  1.00  0.00     0.051 A 
HETATM   22  C12 UNL     1       1.378  11.462 107.710  1.00  0.00     0.049 A 
HETATM   23 CL2  UNL     1       0.169  11.118 106.512  1.00  0.00    -0.083 Cl
ENDBRANCH  10  15
BRANCH  13  24
HETATM   24  N5  UNL     1      -4.926   7.785 112.136  1.00  0.00    -0.366 N 
HETATM   25  C15 UNL     1      -4.588   7.496 113.506  1.00  0.00     0.124 C 
HETATM   26  C16 UNL     1      -5.754   7.251 114.417  1.00  0.00     0.020 C 
HETATM   27  C17 UNL     1      -6.149   5.806 114.370  1.00  0.00     0.002 C 
HETATM   28  C18 UNL     1      -7.526   5.665 113.740  1.00  0.00     0.005 C 
HETATM   29  C19 UNL     1      -7.249   5.546 112.230  1.00  0.00    -0.011 C 
HETATM   30  C22 UNL     1      -7.205   6.932 111.629  1.00  0.00     0.024 C 
HETATM   31  C23 UNL     1      -5.856   7.319 111.136  1.00  0.00     0.125 C 
BRANCH  29  32
HETATM   32  C20 UNL     1      -8.320   4.669 111.678  1.00  0.00     0.030 C 
BRANCH  32  33
HETATM   33  C21 UNL     1      -8.069   4.147 110.292  1.00  0.00     0.164 C 
BRANCH  33  34
HETATM   34  O1  UNL     1      -9.332   3.847 109.734  1.00  0.00    -0.401 OA
ATOM     35  H1  UNL     1      -9.285   4.070 108.812  1.00  0.00     0.209 HD
ENDBRANCH  33  34
ENDBRANCH  32  33
ENDBRANCH  29  32
ENDBRANCH  13  24
ENDBRANCH   3   4
TORSDOF 6
ENDMDL
MODEL 5
REMARK VINA RESULT: -8.318794712      4.559     10.087
REMARK  6 active torsions:
REMARK  status: ('A' for Active; 'I' for Inactive)
REMARK    1  A    between atoms: C2_3  and  C3_4 
REMARK    2  A    between atoms: C6_9  and  C7_10 
REMARK    3  A    between atoms: C14_23  and  N5_24 
REMARK    4  A    between atoms: C19_29  and  C20_30 
REMARK    5  A    between atoms: C20_30  and  C21_31 
REMARK    6  A    between atoms: C21_31  and  O1_32 
ROOT
HETATM    1  N1  UNL     1      -4.492  13.644 111.126  1.00  0.00    -0.197 NA
HETATM    2  C1  UNL     1      -5.186  12.778 111.497  1.00  0.00     0.065 C 
HETATM    3  C2  UNL     1      -6.065  11.718 111.970  1.00  0.00     0.184 C 
ENDROOT
BRANCH   3   4
HETATM    4  C3  UNL     1      -5.257  10.463 112.075  1.00  0.00     0.067 A 
HETATM    5  N2  UNL     1      -4.125  10.334 111.361  1.00  0.00    -0.353 N 
HETATM    6  C4  UNL     1      -3.365   9.209 111.398  1.00  0.00     0.068 A 
ATOM      7  H2  UNL     1      -3.827  11.110 110.770  1.00  0.00     0.166 HD
HETATM    8  C5  UNL     1      -2.211   8.999 110.711  1.00  0.00     0.052 A 
HETATM    9  C13 UNL     1      -3.815   8.216 112.200  1.00  0.00     0.103 A 
HETATM   10  C6  UNL     1      -1.582   7.818 110.865  1.00  0.00     0.023 A 
HETATM   11  S1  UNL     1      -2.643   7.007 111.996  1.00  0.00    -0.069 SA
HETATM   12  N4  UNL     1      -4.954   8.336 112.922  1.00  0.00    -0.333 N 
HETATM   13  C14 UNL     1      -5.720   9.473 112.884  1.00  0.00     0.128 A 
ATOM     14  H4  UNL     1      -5.251   7.559 113.512  1.00  0.00     0.168 HD
BRANCH  10  15
HETATM   15  C7  UNL     1      -0.348   7.219 110.328  1.00  0.00     0.025 A 
HETATM   16  C8  UNL     1       0.684   8.073 109.915  1.00  0.00     0.049 A 
HETATM   17 CL1  UNL     1       0.432   9.799 110.060  1.00  0.00    -0.083 Cl
HETATM   18  C9  UNL     1       1.865   7.610 109.408  1.00  0.00     0.051 A 
HETATM   19  C10 UNL     1       2.040   6.255 109.303  1.00  0.00     0.049 A 
HETATM   20  N3  UNL     1       3.271   5.759 108.774  1.00  0.00    -0.102 NA
HETATM   21  C11 UNL     1       1.076   5.364 109.687  1.00  0.00     0.051 A 
HETATM   22  C12 UNL     1      -0.120   5.893 110.202  1.00  0.00     0.049 A 
HETATM   23 CL2  UNL     1      -1.288   4.699 110.674  1.00  0.00    -0.083 Cl
ENDBRANCH  10  15
BRANCH  13  24
HETATM   24  N5  UNL     1      -6.863   9.472 113.707  1.00  0.00    -0.366 N 
HETATM   25  C15 UNL     1      -7.901   8.638 113.158  1.00  0.00     0.124 C 
HETATM   26  C16 UNL     1      -8.666   7.823 114.159  1.00  0.00     0.020 C 
HETATM   27  C17 UNL     1      -9.810   8.623 114.707  1.00  0.00     0.002 C 
HETATM   28  C18 UNL     1      -9.581   8.912 116.182  1.00  0.00     0.005 C 
HETATM   29  C19 UNL     1      -8.774  10.223 116.197  1.00  0.00    -0.011 C 
HETATM   30  C22 UNL     1      -7.301   9.893 116.117  1.00  0.00     0.024 C 
HETATM   31  C23 UNL     1      -6.666  10.335 114.846  1.00  0.00     0.125 C 
BRANCH  29  32
HETATM   32  C20 UNL     1      -9.177  10.945 117.437  1.00  0.00     0.030 C 
BRANCH  32  33
HETATM   33  C21 UNL     1      -9.590  12.377 117.240  1.00  0.00     0.164 C 
BRANCH  33  34
HETATM   34  O1  UNL     1      -9.925  12.520 115.875  1.00  0.00    -0.401 OA
ATOM     35  H1  UNL     1     -10.530  13.250 115.816  1.00  0.00     0.209 HD
ENDBRANCH  33  34
ENDBRANCH  32  33
ENDBRANCH  29  32
ENDBRANCH  13  24
ENDBRANCH   3   4
TORSDOF 6
ENDMDL
