MODEL 1
REMARK VINA RESULT: -5.198132953      0.000      0.000
REMARK  5 active torsions:
REMARK  status: ('A' for Active; 'I' for Inactive)
REMARK    1  A    between atoms: C1_2  and  N2_4 
REMARK    2  A    between atoms: N2_4  and  C2_6 
REMARK    3  A    between atoms: C2_6  and  C3_7 
REMARK    4  A    between atoms: C3_7  and  C4_8 
REMARK    5  A    between atoms: C4_8  and  N3_9 
ROOT
HETATM    1  C3  UNL     1       8.714  14.739  15.785  1.00  0.00     0.050 C 
ENDROOT
BRANCH   1   2
HETATM    2  C2  UNL     1       7.399  15.237  15.223  1.00  0.00     0.123 C 
BRANCH   2   3
HETATM    3  N2  UNL     1       7.569  16.029  14.042  1.00  0.00    -0.369 N 
ATOM      4  H2  UNL     1       7.927  15.592  13.193  1.00  0.00     0.161 HD
BRANCH   3   5
HETATM    5  C1  UNL     1       7.250  17.401  14.035  1.00  0.00     0.180 C 
HETATM    6  N1  UNL     1       6.581  18.056  12.978  1.00  0.00    -0.070 NA
HETATM    7  S1  UNL     1       7.651  18.365  15.315  1.00  0.00    -0.044 SA
ENDBRANCH   3   5
ENDBRANCH   2   3
ENDBRANCH   1   2
BRANCH   1   8
HETATM    8  C4  UNL     1       8.473  13.479  16.586  1.00  0.00     0.274 C 
BRANCH   8   9
HETATM    9  N3  UNL     1       9.080  12.305  16.023  1.00  0.00     0.088 N 
HETATM   10  C5  UNL     1       8.229  11.162  15.938  1.00  0.00     0.272 C 
HETATM   11  C6  UNL     1       7.932  10.868  14.504  1.00  0.00     0.032 C 
HETATM   12  C7  UNL     1       8.975  11.630  13.749  1.00  0.00     0.032 C 
HETATM   13  C8  UNL     1       9.652  12.551  14.719  1.00  0.00     0.272 C 
ENDBRANCH   8   9
ENDBRANCH   1   8
TORSDOF 5
ENDMDL
MODEL 2
REMARK VINA RESULT: -4.929146506      1.076      1.260
REMARK  5 active torsions:
REMARK  status: ('A' for Active; 'I' for Inactive)
REMARK    1  A    between atoms: C1_2  and  N2_4 
REMARK    2  A    between atoms: N2_4  and  C2_6 
REMARK    3  A    between atoms: C2_6  and  C3_7 
REMARK    4  A    between atoms: C3_7  and  C4_8 
REMARK    5  A    between atoms: C4_8  and  N3_9 
ROOT
HETATM    1  C3  UNL     1       8.807  15.655  16.412  1.00  0.00     0.050 C 
ENDROOT
BRANCH   1   2
HETATM    2  C2  UNL     1       9.069  16.984  15.738  1.00  0.00     0.123 C 
BRANCH   2   3
HETATM    3  N2  UNL     1       8.448  17.082  14.452  1.00  0.00    -0.369 N 
ATOM      4  H2  UNL     1       8.908  16.672  13.639  1.00  0.00     0.161 HD
BRANCH   3   5
HETATM    5  C1  UNL     1       7.210  17.736  14.291  1.00  0.00     0.180 C 
HETATM    6  N1  UNL     1       6.594  17.976  13.043  1.00  0.00    -0.070 NA
HETATM    7  S1  UNL     1       6.370  18.282  15.604  1.00  0.00    -0.044 SA
ENDBRANCH   3   5
ENDBRANCH   2   3
ENDBRANCH   1   2
BRANCH   1   8
HETATM    8  C4  UNL     1       8.533  14.603  15.360  1.00  0.00     0.274 C 
BRANCH   8   9
HETATM    9  N3  UNL     1       9.095  13.316  15.661  1.00  0.00     0.088 N 
HETATM   10  C5  UNL     1       8.250  12.445  16.412  1.00  0.00     0.272 C 
HETATM   11  C6  UNL     1       7.822  11.302  15.550  1.00  0.00     0.032 C 
HETATM   12  C7  UNL     1       8.783  11.326  14.404  1.00  0.00     0.032 C 
HETATM   13  C8  UNL     1       9.540  12.618  14.476  1.00  0.00     0.272 C 
ENDBRANCH   8   9
ENDBRANCH   1   8
TORSDOF 5
ENDMDL
MODEL 3
REMARK VINA RESULT: -4.928280901      1.043      1.043
REMARK  5 active torsions:
REMARK  status: ('A' for Active; 'I' for Inactive)
REMARK    1  A    between atoms: C1_2  and  N2_4 
REMARK    2  A    between atoms: N2_4  and  C2_6 
REMARK    3  A    between atoms: C2_6  and  C3_7 
REMARK    4  A    between atoms: C3_7  and  C4_8 
REMARK    5  A    between atoms: C4_8  and  N3_9 
ROOT
HETATM    1  C3  UNL     1       8.344  14.805  15.286  1.00  0.00     0.050 C 
ENDROOT
BRANCH   1   2
HETATM    2  C2  UNL     1       6.902  15.232  15.112  1.00  0.00     0.123 C 
BRANCH   2   3
HETATM    3  N2  UNL     1       6.779  16.528  14.515  1.00  0.00    -0.369 N 
ATOM      4  H2  UNL     1       6.793  16.615  13.499  1.00  0.00     0.161 HD
BRANCH   3   5
HETATM    5  C1  UNL     1       6.640  17.683  15.308  1.00  0.00     0.180 C 
HETATM    6  N1  UNL     1       5.403  18.289  15.620  1.00  0.00    -0.070 NA
HETATM    7  S1  UNL     1       7.967  18.429  15.950  1.00  0.00    -0.044 SA
ENDBRANCH   3   5
ENDBRANCH   2   3
ENDBRANCH   1   2
BRANCH   1   8
HETATM    8  C4  UNL     1       8.433  13.777  16.392  1.00  0.00     0.274 C 
BRANCH   8   9
HETATM    9  N3  UNL     1       9.025  12.533  15.986  1.00  0.00     0.088 N 
HETATM   10  C5  UNL     1       8.160  11.399  16.052  1.00  0.00     0.272 C 
HETATM   11  C6  UNL     1       7.856  10.924  14.669  1.00  0.00     0.032 C 
HETATM   12  C7  UNL     1       8.906  11.568  13.820  1.00  0.00     0.032 C 
HETATM   13  C8  UNL     1       9.596  12.599  14.660  1.00  0.00     0.272 C 
ENDBRANCH   8   9
ENDBRANCH   1   8
TORSDOF 5
ENDMDL
MODEL 4
REMARK VINA RESULT: -4.891017720      1.630      1.806
REMARK  5 active torsions:
REMARK  status: ('A' for Active; 'I' for Inactive)
REMARK    1  A    between atoms: C1_2  and  N2_4 
REMARK    2  A    between atoms: N2_4  and  C2_6 
REMARK    3  A    between atoms: C2_6  and  C3_7 
REMARK    4  A    between atoms: C3_7  and  C4_8 
REMARK    5  A    between atoms: C4_8  and  N3_9 
ROOT
HETATM    1  C3  UNL     1       8.466  15.709  16.368  1.00  0.00     0.050 C 
ENDROOT
BRANCH   1   2
HETATM    2  C2  UNL     1       9.163  16.982  15.936  1.00  0.00     0.123 C 
BRANCH   2   3
HETATM    3  N2  UNL     1       8.282  18.111  15.909  1.00  0.00    -0.369 N 
ATOM      4  H2  UNL     1       8.514  18.940  16.455  1.00  0.00     0.161 HD
BRANCH   3   5
HETATM    5  C1  UNL     1       7.102  18.093  15.140  1.00  0.00     0.180 C 
HETATM    6  N1  UNL     1       5.799  18.135  15.682  1.00  0.00    -0.070 NA
HETATM    7  S1  UNL     1       7.173  18.021  13.491  1.00  0.00    -0.044 SA
ENDBRANCH   3   5
ENDBRANCH   2   3
ENDBRANCH   1   2
BRANCH   1   8
HETATM    8  C4  UNL     1       8.513  14.703  15.240  1.00  0.00     0.274 C 
BRANCH   8   9
HETATM    9  N3  UNL     1       9.099  13.443  15.606  1.00  0.00     0.088 N 
HETATM   10  C5  UNL     1       8.284  12.611  16.431  1.00  0.00     0.272 C 
HETATM   11  C6  UNL     1       7.850  11.412  15.654  1.00  0.00     0.032 C 
HETATM   12  C7  UNL     1       8.781  11.375  14.483  1.00  0.00     0.032 C 
HETATM   13  C8  UNL     1       9.523  12.677  14.456  1.00  0.00     0.272 C 
ENDBRANCH   8   9
ENDBRANCH   1   8
TORSDOF 5
ENDMDL
MODEL 5
REMARK VINA RESULT: -4.877836889      3.783      5.038
REMARK  5 active torsions:
REMARK  status: ('A' for Active; 'I' for Inactive)
REMARK    1  A    between atoms: C1_2  and  N2_4 
REMARK    2  A    between atoms: N2_4  and  C2_6 
REMARK    3  A    between atoms: C2_6  and  C3_7 
REMARK    4  A    between atoms: C3_7  and  C4_8 
REMARK    5  A    between atoms: C4_8  and  N3_9 
ROOT
HETATM    1  C3  UNL     1      10.342  18.012  16.300  1.00  0.00     0.050 C 
ENDROOT
BRANCH   1   2
HETATM    2  C2  UNL     1      11.112  18.882  15.329  1.00  0.00     0.123 C 
BRANCH   2   3
HETATM    3  N2  UNL     1      11.130  18.345  14.002  1.00  0.00    -0.369 N 
ATOM      4  H2  UNL     1      10.336  17.797  13.672  1.00  0.00     0.161 HD
BRANCH   3   5
HETATM    5  C1  UNL     1      12.227  18.562  13.145  1.00  0.00     0.180 C 
HETATM    6  N1  UNL     1      12.188  18.389  11.744  1.00  0.00    -0.070 NA
HETATM    7  S1  UNL     1      13.684  19.054  13.751  1.00  0.00    -0.044 SA
ENDBRANCH   3   5
ENDBRANCH   2   3
ENDBRANCH   1   2
BRANCH   1   8
HETATM    8  C4  UNL     1       8.870  18.349  16.217  1.00  0.00     0.274 C 
BRANCH   8   9
HETATM    9  N3  UNL     1       8.001  17.256  16.553  1.00  0.00     0.088 N 
HETATM   10  C5  UNL     1       6.835  17.135  15.739  1.00  0.00     0.272 C 
HETATM   11  C6  UNL     1       6.939  15.904  14.899  1.00  0.00     0.032 C 
HETATM   12  C7  UNL     1       8.016  15.100  15.557  1.00  0.00     0.032 C 
HETATM   13  C8  UNL     1       8.691  15.985  16.561  1.00  0.00     0.272 C 
ENDBRANCH   8   9
ENDBRANCH   1   8
TORSDOF 5
ENDMDL
