MODEL 1
REMARK VINA RESULT: -6.096715968      0.000      0.000
REMARK  4 active torsions:
REMARK  status: ('A' for Active; 'I' for Inactive)
REMARK    1  A    between atoms: C2_2  and  C3_3 
REMARK    2  A    between atoms: C3_3  and  N1_4 
REMARK       I    between atoms: C4_6  and  N2_7 
REMARK       I    between atoms: C4_6  and  N4_11 
REMARK    3  A    between atoms: N4_11  and  C6_13 
REMARK    4  A    between atoms: C6_13  and  C7_14 
ROOT
HETATM    1  N1  UNL     1       8.736  14.728  16.857  1.00  0.00    -0.222 N 
ATOM      2  H1  UNL     1       9.267  14.420  17.672  1.00  0.00     0.178 HD
HETATM    3  C4  UNL     1       8.586  15.976  16.640  1.00  0.00     0.683 C 
HETATM    4  N2  UNL     1       7.855  16.399  15.514  1.00  0.00    -0.126 N 
ATOM      5  H2  UNL     1       8.196  16.128  14.591  1.00  0.00     0.197 HD
HETATM    6  C5  UNL     1       6.691  17.166  15.585  1.00  0.00     0.196 C 
HETATM    7  N3  UNL     1       5.731  17.820  15.657  1.00  0.00    -0.171 NA
HETATM    8  N4  UNL     1       9.142  16.914  17.514  1.00  0.00    -0.225 N 
ATOM      9  H4  UNL     1       8.518  17.370  18.180  1.00  0.00     0.177 HD
ENDROOT
BRANCH   1  10
HETATM   10  C3  UNL     1       8.162  13.734  15.956  1.00  0.00     0.164 C 
BRANCH  10  11
HETATM   11  C2  UNL     1       9.125  12.656  15.604  1.00  0.00    -0.017 C 
HETATM   12  C1  UNL     1       8.752  11.642  14.840  1.00  0.00     0.008 C 
ENDBRANCH  10  11
ENDBRANCH   1  10
BRANCH   8  13
HETATM   13  C6  UNL     1      10.542  17.284  17.542  1.00  0.00     0.147 C 
BRANCH  13  14
HETATM   14  C7  UNL     1      10.795  18.562  18.247  1.00  0.00     0.062 C 
HETATM   15  C8  UNL     1      11.118  18.586  19.681  1.00  0.00     0.132 C 
HETATM   16  C9  UNL     1      12.438  17.971  19.406  1.00  0.00     0.065 C 
HETATM   17  O1  UNL     1      11.758  19.804  19.408  1.00  0.00    -0.379 OA
HETATM   18  C10 UNL     1      12.218  18.991  18.369  1.00  0.00     0.132 C 
ENDBRANCH  13  14
ENDBRANCH   8  13
TORSDOF 4
ENDMDL
MODEL 2
REMARK VINA RESULT: -6.024036986      2.770      5.716
REMARK  4 active torsions:
REMARK  status: ('A' for Active; 'I' for Inactive)
REMARK    1  A    between atoms: C2_2  and  C3_3 
REMARK    2  A    between atoms: C3_3  and  N1_4 
REMARK       I    between atoms: C4_6  and  N2_7 
REMARK       I    between atoms: C4_6  and  N4_11 
REMARK    3  A    between atoms: N4_11  and  C6_13 
REMARK    4  A    between atoms: C6_13  and  C7_14 
ROOT
HETATM    1  N1  UNL     1       9.447  16.872  15.538  1.00  0.00    -0.222 N 
ATOM      2  H1  UNL     1      10.115  16.118  15.700  1.00  0.00     0.178 HD
HETATM    3  C4  UNL     1       8.323  16.610  14.995  1.00  0.00     0.683 C 
HETATM    4  N2  UNL     1       7.403  17.652  14.773  1.00  0.00    -0.126 N 
ATOM      5  H2  UNL     1       7.059  18.170  15.582  1.00  0.00     0.197 HD
HETATM    6  C5  UNL     1       6.933  18.019  13.510  1.00  0.00     0.196 C 
HETATM    7  N3  UNL     1       6.537  18.305  12.455  1.00  0.00    -0.171 NA
HETATM    8  N4  UNL     1       8.009  15.300  14.623  1.00  0.00    -0.225 N 
ATOM      9  H4  UNL     1       8.082  15.057  13.635  1.00  0.00     0.177 HD
ENDROOT
BRANCH   1  10
HETATM   10  C3  UNL     1       9.793  18.234  15.931  1.00  0.00     0.164 C 
BRANCH  10  11
HETATM   11  C2  UNL     1      11.002  18.291  16.796  1.00  0.00    -0.017 C 
HETATM   12  C1  UNL     1      10.948  17.895  18.058  1.00  0.00     0.008 C 
ENDBRANCH  10  11
ENDBRANCH   1  10
BRANCH   8  13
HETATM   13  C6  UNL     1       7.589  14.262  15.542  1.00  0.00     0.147 C 
BRANCH  13  14
HETATM   14  C7  UNL     1       8.696  13.376  15.969  1.00  0.00     0.062 C 
HETATM   15  C8  UNL     1       8.541  11.914  15.969  1.00  0.00     0.132 C 
HETATM   16  C9  UNL     1       8.522  11.905  14.487  1.00  0.00     0.065 C 
HETATM   17  O1  UNL     1       9.936  11.872  15.836  1.00  0.00    -0.379 OA
HETATM   18  C10 UNL     1       9.580  12.841  14.894  1.00  0.00     0.132 C 
ENDBRANCH  13  14
ENDBRANCH   8  13
TORSDOF 4
ENDMDL
MODEL 3
REMARK VINA RESULT: -5.947468014      2.887      6.023
REMARK  4 active torsions:
REMARK  status: ('A' for Active; 'I' for Inactive)
REMARK    1  A    between atoms: C2_2  and  C3_3 
REMARK    2  A    between atoms: C3_3  and  N1_4 
REMARK       I    between atoms: C4_6  and  N2_7 
REMARK       I    between atoms: C4_6  and  N4_11 
REMARK    3  A    between atoms: N4_11  and  C6_13 
REMARK    4  A    between atoms: C6_13  and  C7_14 
ROOT
HETATM    1  N1  UNL     1       9.761  16.671  17.089  1.00  0.00    -0.222 N 
ATOM      2  H1  UNL     1      10.568  16.106  16.825  1.00  0.00     0.178 HD
HETATM    3  C4  UNL     1       8.596  16.320  16.710  1.00  0.00     0.683 C 
HETATM    4  N2  UNL     1       7.484  17.101  17.077  1.00  0.00    -0.126 N 
ATOM      5  H2  UNL     1       7.287  17.219  18.071  1.00  0.00     0.197 HD
HETATM    6  C5  UNL     1       6.635  17.725  16.161  1.00  0.00     0.196 C 
HETATM    7  N3  UNL     1       5.925  18.226  15.388  1.00  0.00    -0.171 NA
HETATM    8  N4  UNL     1       8.425  15.168  15.937  1.00  0.00    -0.225 N 
ATOM      9  H4  UNL     1       8.269  15.288  14.936  1.00  0.00     0.177 HD
ENDROOT
BRANCH   1  10
HETATM   10  C3  UNL     1       9.959  17.871  17.895  1.00  0.00     0.164 C 
BRANCH  10  11
HETATM   11  C2  UNL     1      11.394  18.242  18.028  1.00  0.00    -0.017 C 
HETATM   12  C1  UNL     1      12.094  17.860  19.084  1.00  0.00     0.008 C 
ENDBRANCH  10  11
ENDBRANCH   1  10
BRANCH   8  13
HETATM   13  C6  UNL     1       8.453  13.816  16.457  1.00  0.00     0.147 C 
BRANCH  13  14
HETATM   14  C7  UNL     1       8.018  12.801  15.470  1.00  0.00     0.062 C 
HETATM   15  C8  UNL     1       8.957  12.255  14.480  1.00  0.00     0.132 C 
HETATM   16  C9  UNL     1       9.687  11.537  15.550  1.00  0.00     0.065 C 
HETATM   17  O1  UNL     1       8.116  11.132  14.459  1.00  0.00    -0.379 OA
HETATM   18  C10 UNL     1       8.253  11.373  15.829  1.00  0.00     0.132 C 
ENDBRANCH  13  14
ENDBRANCH   8  13
TORSDOF 4
ENDMDL
MODEL 4
REMARK VINA RESULT: -5.793289265      4.197      6.251
REMARK  4 active torsions:
REMARK  status: ('A' for Active; 'I' for Inactive)
REMARK    1  A    between atoms: C2_2  and  C3_3 
REMARK    2  A    between atoms: C3_3  and  N1_4 
REMARK       I    between atoms: C4_6  and  N2_7 
REMARK       I    between atoms: C4_6  and  N4_11 
REMARK    3  A    between atoms: N4_11  and  C6_13 
REMARK    4  A    between atoms: C6_13  and  C7_14 
ROOT
HETATM    1  N1  UNL     1      11.081  18.511  13.997  1.00  0.00    -0.222 N 
ATOM      2  H1  UNL     1      10.199  18.273  13.544  1.00  0.00     0.178 HD
HETATM    3  C4  UNL     1      11.083  18.868  15.221  1.00  0.00     0.683 C 
HETATM    4  N2  UNL     1      12.302  19.195  15.844  1.00  0.00    -0.126 N 
ATOM      5  H2  UNL     1      13.022  18.474  15.899  1.00  0.00     0.197 HD
HETATM    6  C5  UNL     1      12.584  20.448  16.392  1.00  0.00     0.196 C 
HETATM    7  N3  UNL     1      12.801  21.491  16.859  1.00  0.00    -0.171 NA
HETATM    8  N4  UNL     1       9.885  18.932  15.937  1.00  0.00    -0.225 N 
ATOM      9  H4  UNL     1       9.475  19.854  16.093  1.00  0.00     0.177 HD
ENDROOT
BRANCH   1  10
HETATM   10  C3  UNL     1      12.322  18.439  13.233  1.00  0.00     0.164 C 
BRANCH  10  11
HETATM   11  C2  UNL     1      12.110  18.642  11.774  1.00  0.00    -0.017 C 
HETATM   12  C1  UNL     1      12.359  19.815  11.213  1.00  0.00     0.008 C 
ENDBRANCH  10  11
ENDBRANCH   1  10
BRANCH   8  13
HETATM   13  C6  UNL     1       9.183  17.784  16.472  1.00  0.00     0.147 C 
BRANCH  13  14
HETATM   14  C7  UNL     1       7.710  17.894  16.358  1.00  0.00     0.062 C 
HETATM   15  C8  UNL     1       7.067  18.159  15.063  1.00  0.00     0.132 C 
HETATM   16  C9  UNL     1       7.442  16.807  14.587  1.00  0.00     0.065 C 
HETATM   17  O1  UNL     1       5.941  17.528  15.612  1.00  0.00    -0.379 OA
HETATM   18  C10 UNL     1       6.973  16.656  15.973  1.00  0.00     0.132 C 
ENDBRANCH  13  14
ENDBRANCH   8  13
TORSDOF 4
ENDMDL
MODEL 5
REMARK VINA RESULT: -5.698245477      3.192      6.121
REMARK  4 active torsions:
REMARK  status: ('A' for Active; 'I' for Inactive)
REMARK    1  A    between atoms: C2_2  and  C3_3 
REMARK    2  A    between atoms: C3_3  and  N1_4 
REMARK       I    between atoms: C4_6  and  N2_7 
REMARK       I    between atoms: C4_6  and  N4_11 
REMARK    3  A    between atoms: N4_11  and  C6_13 
REMARK    4  A    between atoms: C6_13  and  C7_14 
ROOT
HETATM    1  N1  UNL     1       6.984  16.901  14.534  1.00  0.00    -0.222 N 
ATOM      2  H1  UNL     1       6.051  16.508  14.408  1.00  0.00     0.178 HD
HETATM    3  C4  UNL     1       7.822  16.302  15.285  1.00  0.00     0.683 C 
HETATM    4  N2  UNL     1       9.109  16.845  15.457  1.00  0.00    -0.126 N 
ATOM      5  H2  UNL     1       9.700  16.951  14.632  1.00  0.00     0.197 HD
HETATM    6  C5  UNL     1       9.625  17.248  16.690  1.00  0.00     0.196 C 
HETATM    7  N3  UNL     1      10.050  17.565  17.725  1.00  0.00    -0.171 NA
HETATM    8  N4  UNL     1       7.464  15.115  15.932  1.00  0.00    -0.225 N 
ATOM      9  H4  UNL     1       7.232  15.168  16.924  1.00  0.00     0.177 HD
ENDROOT
BRANCH   1  10
HETATM   10  C3  UNL     1       7.339  18.141  13.851  1.00  0.00     0.164 C 
BRANCH  10  11
HETATM   11  C2  UNL     1       6.843  18.185  12.450  1.00  0.00    -0.017 C 
HETATM   12  C1  UNL     1       7.690  18.164  11.433  1.00  0.00     0.008 C 
ENDBRANCH  10  11
ENDBRANCH   1  10
BRANCH   8  13
HETATM   13  C6  UNL     1       7.400  13.817  15.294  1.00  0.00     0.147 C 
BRANCH  13  14
HETATM   14  C7  UNL     1       8.360  12.839  15.859  1.00  0.00     0.062 C 
HETATM   15  C8  UNL     1       8.278  11.412  15.518  1.00  0.00     0.132 C 
HETATM   16  C9  UNL     1       8.718  11.705  14.134  1.00  0.00     0.065 C 
HETATM   17  O1  UNL     1       9.646  11.370  15.822  1.00  0.00    -0.379 OA
HETATM   18  C10 UNL     1       9.556  12.518  15.029  1.00  0.00     0.132 C 
ENDBRANCH  13  14
ENDBRANCH   8  13
TORSDOF 4
ENDMDL
