MODEL 1
REMARK VINA RESULT: -5.969581835      0.000      0.000
REMARK  4 active torsions:
REMARK  status: ('A' for Active; 'I' for Inactive)
REMARK    1  A    between atoms: N3_4  and  C2_6 
REMARK    2  A    between atoms: C2_6  and  C3_7 
REMARK    3  A    between atoms: C3_7  and  S1_8 
REMARK    4  A    between atoms: S1_8  and  C4_9 
ROOT
HETATM    1  C3  UNL     1       8.635  16.767  15.948  1.00  0.00     0.118 C 
ENDROOT
BRANCH   1   2
HETATM    2  C2  UNL     1       8.103  17.949  15.181  1.00  0.00     0.073 C 
BRANCH   2   3
HETATM    3  N3  UNL     1       8.008  17.794  13.811  1.00  0.00    -0.346 N 
HETATM    4  C1  UNL     1       7.228  17.956  12.876  1.00  0.00     0.200 C 
HETATM    5  N1  UNL     1       5.915  18.454  12.943  1.00  0.00    -0.067 NA
HETATM    6  N2  UNL     1       7.706  17.612  11.545  1.00  0.00    -0.067 NA
ATOM      7  H3  UNL     1       8.887  17.417  13.454  1.00  0.00     0.167 HD
ENDBRANCH   2   3
ENDBRANCH   1   2
BRANCH   1   8
HETATM    8  S1  UNL     1       7.752  15.293  15.269  1.00  0.00    -0.159 SA
BRANCH   8   9
HETATM    9  C4  UNL     1       8.959  13.971  15.196  1.00  0.00     0.047 C 
HETATM   10  C5  UNL     1       8.756  12.998  14.074  1.00  0.00     0.015 C 
HETATM   11  C6  UNL     1       9.229  11.648  14.585  1.00  0.00     0.001 C 
HETATM   12  C7  UNL     1       8.144  11.127  15.532  1.00  0.00     0.000 C 
HETATM   13  C8  UNL     1       7.795  12.251  16.475  1.00  0.00     0.001 C 
HETATM   14  C9  UNL     1       8.910  13.274  16.552  1.00  0.00     0.015 C 
ENDBRANCH   8   9
ENDBRANCH   1   8
TORSDOF 4
ENDMDL
MODEL 2
REMARK VINA RESULT: -5.839515605      0.841      1.578
REMARK  4 active torsions:
REMARK  status: ('A' for Active; 'I' for Inactive)
REMARK    1  A    between atoms: N3_4  and  C2_6 
REMARK    2  A    between atoms: C2_6  and  C3_7 
REMARK    3  A    between atoms: C3_7  and  S1_8 
REMARK    4  A    between atoms: S1_8  and  C4_9 
ROOT
HETATM    1  C3  UNL     1       7.763  17.163  16.323  1.00  0.00     0.118 C 
ENDROOT
BRANCH   1   2
HETATM    2  C2  UNL     1       8.347  18.192  15.390  1.00  0.00     0.073 C 
BRANCH   2   3
HETATM    3  N3  UNL     1       8.236  17.923  14.039  1.00  0.00    -0.346 N 
HETATM    4  C1  UNL     1       7.427  17.955  13.115  1.00  0.00     0.200 C 
HETATM    5  N1  UNL     1       6.082  18.361  13.178  1.00  0.00    -0.067 NA
HETATM    6  N2  UNL     1       7.901  17.542  11.802  1.00  0.00    -0.067 NA
ATOM      7  H3  UNL     1       9.132  17.583  13.689  1.00  0.00     0.167 HD
ENDBRANCH   2   3
ENDBRANCH   1   2
BRANCH   1   8
HETATM    8  S1  UNL     1       8.969  15.763  16.340  1.00  0.00    -0.159 SA
BRANCH   8   9
HETATM    9  C4  UNL     1       8.024  14.279  16.009  1.00  0.00     0.047 C 
HETATM   10  C5  UNL     1       8.316  13.132  16.930  1.00  0.00     0.015 C 
HETATM   11  C6  UNL     1       8.140  11.866  16.109  1.00  0.00     0.001 C 
HETATM   12  C7  UNL     1       9.372  11.747  15.206  1.00  0.00     0.000 C 
HETATM   13  C8  UNL     1       9.578  13.090  14.553  1.00  0.00     0.001 C 
HETATM   14  C9  UNL     1       8.304  13.909  14.556  1.00  0.00     0.015 C 
ENDBRANCH   8   9
ENDBRANCH   1   8
TORSDOF 4
ENDMDL
MODEL 3
REMARK VINA RESULT: -5.245234658      1.262      1.785
REMARK  4 active torsions:
REMARK  status: ('A' for Active; 'I' for Inactive)
REMARK    1  A    between atoms: N3_4  and  C2_6 
REMARK    2  A    between atoms: C2_6  and  C3_7 
REMARK    3  A    between atoms: C3_7  and  S1_8 
REMARK    4  A    between atoms: S1_8  and  C4_9 
ROOT
HETATM    1  C3  UNL     1       8.745  16.222  16.594  1.00  0.00     0.118 C 
ENDROOT
BRANCH   1   2
HETATM    2  C2  UNL     1       8.506  17.644  16.157  1.00  0.00     0.073 C 
BRANCH   2   3
HETATM    3  N3  UNL     1       7.186  18.035  16.050  1.00  0.00    -0.346 N 
HETATM    4  C1  UNL     1       6.317  18.271  15.215  1.00  0.00     0.200 C 
HETATM    5  N1  UNL     1       6.441  18.194  13.816  1.00  0.00    -0.067 NA
HETATM    6  N2  UNL     1       5.005  18.659  15.712  1.00  0.00    -0.067 NA
ATOM      7  H3  UNL     1       6.801  18.177  16.984  1.00  0.00     0.167 HD
ENDBRANCH   2   3
ENDBRANCH   1   2
BRANCH   1   8
HETATM    8  S1  UNL     1       8.030  15.164  15.259  1.00  0.00    -0.159 SA
BRANCH   8   9
HETATM    9  C4  UNL     1       9.098  13.733  15.122  1.00  0.00     0.047 C 
HETATM   10  C5  UNL     1       8.765  12.808  13.990  1.00  0.00     0.015 C 
HETATM   11  C6  UNL     1       9.119  11.408  14.461  1.00  0.00     0.001 C 
HETATM   12  C7  UNL     1       8.019  10.974  15.435  1.00  0.00     0.000 C 
HETATM   13  C8  UNL     1       7.813  12.107  16.408  1.00  0.00     0.001 C 
HETATM   14  C9  UNL     1       9.024  13.015  16.467  1.00  0.00     0.015 C 
ENDBRANCH   8   9
ENDBRANCH   1   8
TORSDOF 4
ENDMDL
MODEL 4
REMARK VINA RESULT: -5.233102156      1.750      2.444
REMARK  4 active torsions:
REMARK  status: ('A' for Active; 'I' for Inactive)
REMARK    1  A    between atoms: N3_4  and  C2_6 
REMARK    2  A    between atoms: C2_6  and  C3_7 
REMARK    3  A    between atoms: C3_7  and  S1_8 
REMARK    4  A    between atoms: S1_8  and  C4_9 
ROOT
HETATM    1  C3  UNL     1       7.733  16.867  16.270  1.00  0.00     0.118 C 
ENDROOT
BRANCH   1   2
HETATM    2  C2  UNL     1       7.995  18.003  15.316  1.00  0.00     0.073 C 
BRANCH   2   3
HETATM    3  N3  UNL     1       9.265  18.068  14.779  1.00  0.00    -0.346 N 
HETATM    4  C1  UNL     1      10.427  18.329  15.082  1.00  0.00     0.200 C 
HETATM    5  N1  UNL     1      10.905  18.725  16.344  1.00  0.00    -0.067 NA
HETATM    6  N2  UNL     1      11.431  18.205  14.036  1.00  0.00    -0.067 NA
ATOM      7  H3  UNL     1       9.226  17.812  13.792  1.00  0.00     0.167 HD
ENDBRANCH   2   3
ENDBRANCH   1   2
BRANCH   1   8
HETATM    8  S1  UNL     1       7.460  15.378  15.210  1.00  0.00    -0.159 SA
BRANCH   8   9
HETATM    9  C4  UNL     1       8.826  14.268  15.538  1.00  0.00     0.047 C 
HETATM   10  C5  UNL     1       9.201  13.379  14.390  1.00  0.00     0.015 C 
HETATM   11  C6  UNL     1       9.693  12.076  14.998  1.00  0.00     0.001 C 
HETATM   12  C7  UNL     1       8.454  11.313  15.476  1.00  0.00     0.000 C 
HETATM   13  C8  UNL     1       7.608  12.283  16.262  1.00  0.00     0.001 C 
HETATM   14  C9  UNL     1       8.429  13.452  16.765  1.00  0.00     0.015 C 
ENDBRANCH   8   9
ENDBRANCH   1   8
TORSDOF 4
ENDMDL
MODEL 5
REMARK VINA RESULT: -5.217410227      2.515      3.378
REMARK  4 active torsions:
REMARK  status: ('A' for Active; 'I' for Inactive)
REMARK    1  A    between atoms: N3_4  and  C2_6 
REMARK    2  A    between atoms: C2_6  and  C3_7 
REMARK    3  A    between atoms: C3_7  and  S1_8 
REMARK    4  A    between atoms: S1_8  and  C4_9 
ROOT
HETATM    1  C3  UNL     1       7.996  17.111  15.120  1.00  0.00     0.118 C 
ENDROOT
BRANCH   1   2
HETATM    2  C2  UNL     1       7.364  17.981  16.175  1.00  0.00     0.073 C 
BRANCH   2   3
HETATM    3  N3  UNL     1       7.992  18.003  17.405  1.00  0.00    -0.346 N 
HETATM    4  C1  UNL     1       9.101  18.129  17.918  1.00  0.00     0.200 C 
HETATM    5  N1  UNL     1      10.324  18.332  17.254  1.00  0.00    -0.067 NA
HETATM    6  N2  UNL     1       9.171  18.079  19.371  1.00  0.00    -0.067 NA
ATOM      7  H3  UNL     1       7.296  17.868  18.139  1.00  0.00     0.167 HD
ENDBRANCH   2   3
ENDBRANCH   1   2
BRANCH   1   8
HETATM    8  S1  UNL     1       7.347  15.408  15.425  1.00  0.00    -0.159 SA
BRANCH   8   9
HETATM    9  C4  UNL     1       8.778  14.342  15.576  1.00  0.00     0.047 C 
HETATM   10  C5  UNL     1       9.058  13.494  14.371  1.00  0.00     0.015 C 
HETATM   11  C6  UNL     1       9.657  12.197  14.888  1.00  0.00     0.001 C 
HETATM   12  C7  UNL     1       8.503  11.378  15.476  1.00  0.00     0.000 C 
HETATM   13  C8  UNL     1       7.714  12.298  16.373  1.00  0.00     0.001 C 
HETATM   14  C9  UNL     1       8.543  13.485  16.816  1.00  0.00     0.015 C 
ENDBRANCH   8   9
ENDBRANCH   1   8
TORSDOF 4
ENDMDL
