MODEL 1
REMARK VINA RESULT: -4.563134898      0.000      0.000
REMARK  5 active torsions:
REMARK  status: ('A' for Active; 'I' for Inactive)
REMARK    1  A    between atoms: N2_9  and  C6_10 
REMARK    2  A    between atoms: C6_10  and  C7_11 
REMARK    3  A    between atoms: C7_11  and  C8_12 
REMARK    4  A    between atoms: C8_12  and  C9_13 
REMARK    5  A    between atoms: C9_13  and  N3_14 
ROOT
HETATM    1  C1  UNL     1      14.517  19.253  14.423  1.00  0.00     0.014 C 
HETATM    2  C2  UNL     1      13.997  20.102  15.097  1.00  0.00    -0.090 C 
HETATM    3  C3  UNL     1      13.371  21.132  15.883  1.00  0.00     0.183 C 
HETATM    4  C4  UNL     1      14.234  22.403  15.932  1.00  0.00     0.160 C 
HETATM    5  N1  UNL     1      13.549  23.144  16.972  1.00  0.00    -0.364 N 
ATOM      6  H1  UNL     1      13.411  24.153  17.032  1.00  0.00     0.162 HD
HETATM    7  C5  UNL     1      13.108  22.141  17.899  1.00  0.00     0.171 C 
HETATM    8  S1  UNL     1      12.467  22.317  19.392  1.00  0.00    -0.041 SA
HETATM    9  N2  UNL     1      13.318  20.841  17.298  1.00  0.00    -0.342 N 
ENDROOT
BRANCH   9  10
HETATM   10  C6  UNL     1      13.436  19.623  18.023  1.00  0.00     0.127 C 
BRANCH  10  11
HETATM   11  C7  UNL     1      12.195  18.785  18.014  1.00  0.00     0.022 C 
BRANCH  11  12
HETATM   12  C8  UNL     1      11.906  18.239  19.407  1.00  0.00     0.029 C 
BRANCH  12  13
HETATM   13  C9  UNL     1      10.577  18.721  19.940  1.00  0.00     0.229 C 
BRANCH  13  14
HETATM   14  N3  UNL     1       9.529  18.392  18.966  1.00  0.00    -0.079 N 
ATOM     15  H33 UNL     1       8.717  19.004  19.046  1.00  0.00     0.274 HD
ATOM     16  H32 UNL     1       9.794  18.635  18.011  1.00  0.00     0.274 HD
ATOM     17  H31 UNL     1       9.286  17.407  19.063  1.00  0.00     0.274 HD
ENDBRANCH  13  14
ENDBRANCH  12  13
ENDBRANCH  11  12
ENDBRANCH  10  11
ENDBRANCH   9  10
TORSDOF 5
ENDMDL
MODEL 2
REMARK VINA RESULT: -4.538885690      2.292      3.844
REMARK  5 active torsions:
REMARK  status: ('A' for Active; 'I' for Inactive)
REMARK    1  A    between atoms: N2_9  and  C6_10 
REMARK    2  A    between atoms: C6_10  and  C7_11 
REMARK    3  A    between atoms: C7_11  and  C8_12 
REMARK    4  A    between atoms: C8_12  and  C9_13 
REMARK    5  A    between atoms: C9_13  and  N3_14 
ROOT
HETATM    1  C1  UNL     1      12.134  22.882  22.169  1.00  0.00     0.014 C 
HETATM    2  C2  UNL     1      12.545  22.650  21.064  1.00  0.00    -0.090 C 
HETATM    3  C3  UNL     1      13.042  22.397  19.737  1.00  0.00     0.183 C 
HETATM    4  C4  UNL     1      12.166  23.073  18.671  1.00  0.00     0.160 C 
HETATM    5  N1  UNL     1      12.690  22.453  17.470  1.00  0.00    -0.364 N 
ATOM      6  H1  UNL     1      12.806  22.875  16.549  1.00  0.00     0.162 HD
HETATM    7  C5  UNL     1      13.009  21.111  17.868  1.00  0.00     0.171 C 
HETATM    8  S1  UNL     1      13.433  19.828  16.947  1.00  0.00    -0.041 SA
HETATM    9  N2  UNL     1      12.900  21.024  19.308  1.00  0.00    -0.342 N 
ENDROOT
BRANCH   9  10
HETATM   10  C6  UNL     1      12.696  19.818  20.034  1.00  0.00     0.127 C 
BRANCH  10  11
HETATM   11  C7  UNL     1      11.302  19.278  19.943  1.00  0.00     0.022 C 
BRANCH  11  12
HETATM   12  C8  UNL     1      10.745  18.994  21.333  1.00  0.00     0.029 C 
BRANCH  12  13
HETATM   13  C9  UNL     1       9.241  18.847  21.320  1.00  0.00     0.229 C 
BRANCH  13  14
HETATM   14  N3  UNL     1       8.833  18.265  20.036  1.00  0.00    -0.079 N 
ATOM     15  H33 UNL     1       8.245  18.896  19.491  1.00  0.00     0.274 HD
ATOM     16  H32 UNL     1       9.608  18.191  19.378  1.00  0.00     0.274 HD
ATOM     17  H31 UNL     1       8.383  17.366  20.210  1.00  0.00     0.274 HD
ENDBRANCH  13  14
ENDBRANCH  12  13
ENDBRANCH  11  12
ENDBRANCH  10  11
ENDBRANCH   9  10
TORSDOF 5
ENDMDL
MODEL 3
REMARK VINA RESULT: -4.522361337      2.069      3.898
REMARK  5 active torsions:
REMARK  status: ('A' for Active; 'I' for Inactive)
REMARK    1  A    between atoms: N2_9  and  C6_10 
REMARK    2  A    between atoms: C6_10  and  C7_11 
REMARK    3  A    between atoms: C7_11  and  C8_12 
REMARK    4  A    between atoms: C8_12  and  C9_13 
REMARK    5  A    between atoms: C9_13  and  N3_14 
ROOT
HETATM    1  C1  UNL     1      11.840  18.301  18.544  1.00  0.00     0.014 C 
HETATM    2  C2  UNL     1      12.445  19.336  18.634  1.00  0.00    -0.090 C 
HETATM    3  C3  UNL     1      13.174  20.569  18.766  1.00  0.00     0.183 C 
HETATM    4  C4  UNL     1      12.438  21.562  19.679  1.00  0.00     0.160 C 
HETATM    5  N1  UNL     1      13.201  22.768  19.425  1.00  0.00    -0.364 N 
ATOM      6  H1  UNL     1      13.435  23.509  20.085  1.00  0.00     0.162 HD
HETATM    7  C5  UNL     1      13.553  22.684  18.036  1.00  0.00     0.171 C 
HETATM    8  S1  UNL     1      14.223  23.816  17.065  1.00  0.00    -0.041 SA
HETATM    9  N2  UNL     1      13.214  21.362  17.558  1.00  0.00    -0.342 N 
ENDROOT
BRANCH   9  10
HETATM   10  C6  UNL     1      12.988  21.026  16.194  1.00  0.00     0.127 C 
BRANCH  10  11
HETATM   11  C7  UNL     1      14.083  20.213  15.576  1.00  0.00     0.022 C 
BRANCH  11  12
HETATM   12  C8  UNL     1      13.548  19.390  14.409  1.00  0.00     0.029 C 
BRANCH  12  13
HETATM   13  C9  UNL     1      12.101  19.002  14.608  1.00  0.00     0.229 C 
BRANCH  13  14
HETATM   14  N3  UNL     1      11.603  18.384  13.373  1.00  0.00    -0.079 N 
ATOM     15  H33 UNL     1      12.109  18.701  12.547  1.00  0.00     0.274 HD
ATOM     16  H32 UNL     1      11.837  17.393  13.311  1.00  0.00     0.274 HD
ATOM     17  H31 UNL     1      10.599  18.551  13.303  1.00  0.00     0.274 HD
ENDBRANCH  13  14
ENDBRANCH  12  13
ENDBRANCH  11  12
ENDBRANCH  10  11
ENDBRANCH   9  10
TORSDOF 5
ENDMDL
MODEL 4
REMARK VINA RESULT: -4.483429111      2.307      4.284
REMARK  5 active torsions:
REMARK  status: ('A' for Active; 'I' for Inactive)
REMARK    1  A    between atoms: N2_9  and  C6_10 
REMARK    2  A    between atoms: C6_10  and  C7_11 
REMARK    3  A    between atoms: C7_11  and  C8_12 
REMARK    4  A    between atoms: C8_12  and  C9_13 
REMARK    5  A    between atoms: C9_13  and  N3_14 
ROOT
HETATM    1  C1  UNL     1      11.747  18.138  18.457  1.00  0.00     0.014 C 
HETATM    2  C2  UNL     1      12.472  19.089  18.336  1.00  0.00    -0.090 C 
HETATM    3  C3  UNL     1      13.344  20.227  18.214  1.00  0.00     0.183 C 
HETATM    4  C4  UNL     1      12.771  21.454  18.942  1.00  0.00     0.160 C 
HETATM    5  N1  UNL     1      13.655  22.489  18.445  1.00  0.00    -0.364 N 
ATOM      6  H1  UNL     1      14.004  23.306  18.948  1.00  0.00     0.162 HD
HETATM    7  C5  UNL     1      13.929  22.109  17.089  1.00  0.00     0.171 C 
HETATM    8  S1  UNL     1      14.680  22.952  15.906  1.00  0.00    -0.041 SA
HETATM    9  N2  UNL     1      13.417  20.772  16.878  1.00  0.00    -0.342 N 
ENDROOT
BRANCH   9  10
HETATM   10  C6  UNL     1      13.090  20.221  15.607  1.00  0.00     0.127 C 
BRANCH  10  11
HETATM   11  C7  UNL     1      14.166  19.363  15.019  1.00  0.00     0.022 C 
BRANCH  11  12
HETATM   12  C8  UNL     1      13.839  19.009  13.572  1.00  0.00     0.029 C 
BRANCH  12  13
HETATM   13  C9  UNL     1      12.386  18.634  13.397  1.00  0.00     0.229 C 
BRANCH  13  14
HETATM   14  N3  UNL     1      12.125  18.403  11.971  1.00  0.00    -0.079 N 
ATOM     15  H33 UNL     1      12.746  17.700  11.570  1.00  0.00     0.274 HD
ATOM     16  H32 UNL     1      11.242  17.920  11.809  1.00  0.00     0.274 HD
ATOM     17  H31 UNL     1      12.177  19.294  11.478  1.00  0.00     0.274 HD
ENDBRANCH  13  14
ENDBRANCH  12  13
ENDBRANCH  11  12
ENDBRANCH  10  11
ENDBRANCH   9  10
TORSDOF 5
ENDMDL
MODEL 5
REMARK VINA RESULT: -4.467882094      2.483      4.221
REMARK  5 active torsions:
REMARK  status: ('A' for Active; 'I' for Inactive)
REMARK    1  A    between atoms: N2_9  and  C6_10 
REMARK    2  A    between atoms: C6_10  and  C7_11 
REMARK    3  A    between atoms: C7_11  and  C8_12 
REMARK    4  A    between atoms: C8_12  and  C9_13 
REMARK    5  A    between atoms: C9_13  and  N3_14 
ROOT
HETATM    1  C1  UNL     1      12.261  18.975  17.735  1.00  0.00     0.014 C 
HETATM    2  C2  UNL     1      12.950  19.952  17.857  1.00  0.00    -0.090 C 
HETATM    3  C3  UNL     1      13.773  21.121  18.027  1.00  0.00     0.183 C 
HETATM    4  C4  UNL     1      12.974  22.287  18.630  1.00  0.00     0.160 C 
HETATM    5  N1  UNL     1      13.914  23.374  18.438  1.00  0.00    -0.364 N 
ATOM      6  H1  UNL     1      14.080  24.171  19.052  1.00  0.00     0.162 HD
HETATM    7  C5  UNL     1      14.556  23.079  17.189  1.00  0.00     0.171 C 
HETATM    8  S1  UNL     1      15.558  24.008  16.292  1.00  0.00    -0.041 SA
HETATM    9  N2  UNL     1      14.177  21.742  16.786  1.00  0.00    -0.342 N 
ENDROOT
BRANCH   9  10
HETATM   10  C6  UNL     1      14.225  21.253  15.451  1.00  0.00     0.127 C 
BRANCH  10  11
HETATM   11  C7  UNL     1      15.355  20.307  15.187  1.00  0.00     0.022 C 
BRANCH  11  12
HETATM   12  C8  UNL     1      14.871  19.103  14.387  1.00  0.00     0.029 C 
BRANCH  12  13
HETATM   13  C9  UNL     1      13.412  19.222  14.013  1.00  0.00     0.229 C 
BRANCH  13  14
HETATM   14  N3  UNL     1      13.267  18.954  12.577  1.00  0.00    -0.079 N 
ATOM     15  H33 UNL     1      12.292  18.872  12.292  1.00  0.00     0.274 HD
ATOM     16  H32 UNL     1      13.515  19.759  12.003  1.00  0.00     0.274 HD
ATOM     17  H31 UNL     1      13.813  18.125  12.341  1.00  0.00     0.274 HD
ENDBRANCH  13  14
ENDBRANCH  12  13
ENDBRANCH  11  12
ENDBRANCH  10  11
ENDBRANCH   9  10
TORSDOF 5
ENDMDL
