MODEL 1
REMARK VINA RESULT: -6.648796404      0.000      0.000
REMARK  4 active torsions:
REMARK  status: ('A' for Active; 'I' for Inactive)
REMARK       I    between atoms: C1_4  and  N3_6 
REMARK    1  A    between atoms: N4_9  and  C4_10 
REMARK    2  A    between atoms: C4_10  and  C5_11 
REMARK    3  A    between atoms: C5_11  and  C6_12 
REMARK    4  A    between atoms: C6_12  and  C7_13 
ROOT
HETATM    1  N1  UNL     1       6.110  18.724  13.523  1.00  0.00    -0.374 N 
ATOM      2  H11 UNL     1       5.750  19.229  14.334  1.00  0.00     0.158 HD
ATOM      3  H12 UNL     1       5.665  18.839  12.613  1.00  0.00     0.158 HD
HETATM    4  C1  UNL     1       7.131  17.967  13.764  1.00  0.00     0.185 C 
HETATM    5  N2  UNL     1       7.636  17.258  12.627  1.00  0.00    -0.064 NA
HETATM    6  N3  UNL     1       7.741  17.810  15.012  1.00  0.00    -0.328 N 
HETATM    7  C2  UNL     1       7.083  17.902  16.303  1.00  0.00     0.157 C 
HETATM    8  C3  UNL     1       8.280  17.986  17.239  1.00  0.00     0.294 C 
HETATM    9  N4  UNL     1       9.214  17.061  16.618  1.00  0.00     0.107 N 
HETATM   10  C10 UNL     1       9.166  17.515  15.244  1.00  0.00     0.400 C 
ENDROOT
BRANCH   9  11
HETATM   11  C4  UNL     1       8.745  15.700  16.685  1.00  0.00     0.274 C 
BRANCH  11  12
HETATM   12  C5  UNL     1       9.146  14.860  15.518  1.00  0.00     0.031 C 
BRANCH  12  13
HETATM   13  C6  UNL     1       8.209  13.667  15.331  1.00  0.00     0.006 C 
BRANCH  13  14
HETATM   14  C7  UNL     1       9.055  12.450  15.164  1.00  0.00    -0.014 A 
HETATM   15  C8  UNL     1       8.820  11.479  14.068  1.00  0.00     0.005 A 
HETATM   16  C9  UNL     1       8.379  11.131  15.491  1.00  0.00     0.005 A 
ENDBRANCH  13  14
ENDBRANCH  12  13
ENDBRANCH  11  12
ENDBRANCH   9  11
TORSDOF 4
ENDMDL
MODEL 2
REMARK VINA RESULT: -6.103166945      1.692      3.349
REMARK  4 active torsions:
REMARK  status: ('A' for Active; 'I' for Inactive)
REMARK       I    between atoms: C1_4  and  N3_6 
REMARK    1  A    between atoms: N4_9  and  C4_10 
REMARK    2  A    between atoms: C4_10  and  C5_11 
REMARK    3  A    between atoms: C5_11  and  C6_12 
REMARK    4  A    between atoms: C6_12  and  C7_13 
ROOT
HETATM    1  N1  UNL     1      11.773  19.227  17.294  1.00  0.00    -0.374 N 
ATOM      2  H11 UNL     1      11.485  19.832  16.526  1.00  0.00     0.158 HD
ATOM      3  H12 UNL     1      12.601  19.459  17.842  1.00  0.00     0.158 HD
HETATM    4  C1  UNL     1      11.019  18.193  17.485  1.00  0.00     0.185 C 
HETATM    5  N2  UNL     1      11.424  17.342  18.564  1.00  0.00    -0.064 NA
HETATM    6  N3  UNL     1       9.883  17.875  16.734  1.00  0.00    -0.328 N 
HETATM    7  C2  UNL     1       9.669  18.191  15.332  1.00  0.00     0.157 C 
HETATM    8  C3  UNL     1       8.179  17.913  15.192  1.00  0.00     0.294 C 
HETATM    9  N4  UNL     1       8.012  16.733  16.023  1.00  0.00     0.107 N 
HETATM   10  C10 UNL     1       8.696  17.155  17.227  1.00  0.00     0.400 C 
ENDROOT
BRANCH   9  11
HETATM   11  C4  UNL     1       8.689  15.587  15.470  1.00  0.00     0.274 C 
BRANCH  11  12
HETATM   12  C5  UNL     1       7.975  14.294  15.689  1.00  0.00     0.031 C 
BRANCH  12  13
HETATM   13  C6  UNL     1       8.759  13.364  16.616  1.00  0.00     0.006 C 
BRANCH  13  14
HETATM   14  C7  UNL     1       9.300  12.251  15.786  1.00  0.00    -0.014 A 
HETATM   15  C8  UNL     1       8.892  12.059  14.374  1.00  0.00     0.005 A 
HETATM   16  C9  UNL     1       8.317  11.142  15.454  1.00  0.00     0.005 A 
ENDBRANCH  13  14
ENDBRANCH  12  13
ENDBRANCH  11  12
ENDBRANCH   9  11
TORSDOF 4
ENDMDL
MODEL 3
REMARK VINA RESULT: -5.285223669      6.731      8.634
REMARK  4 active torsions:
REMARK  status: ('A' for Active; 'I' for Inactive)
REMARK       I    between atoms: C1_4  and  N3_6 
REMARK    1  A    between atoms: N4_9  and  C4_10 
REMARK    2  A    between atoms: C4_10  and  C5_11 
REMARK    3  A    between atoms: C5_11  and  C6_12 
REMARK    4  A    between atoms: C6_12  and  C7_13 
ROOT
HETATM    1  N1  UNL     1      12.040  23.632  18.069  1.00  0.00    -0.374 N 
ATOM      2  H11 UNL     1      11.733  24.458  18.584  1.00  0.00     0.158 HD
ATOM      3  H12 UNL     1      12.050  23.642  17.049  1.00  0.00     0.158 HD
HETATM    4  C1  UNL     1      12.394  22.631  18.808  1.00  0.00     0.185 C 
HETATM    5  N2  UNL     1      12.825  21.472  18.086  1.00  0.00    -0.064 NA
HETATM    6  N3  UNL     1      12.381  22.618  20.206  1.00  0.00    -0.328 N 
HETATM    7  C2  UNL     1      11.467  23.357  21.060  1.00  0.00     0.157 C 
HETATM    8  C3  UNL     1      12.148  23.213  22.413  1.00  0.00     0.294 C 
HETATM    9  N4  UNL     1      12.638  21.846  22.363  1.00  0.00     0.107 N 
HETATM   10  C10 UNL     1      13.290  21.845  21.070  1.00  0.00     0.400 C 
ENDROOT
BRANCH   9  11
HETATM   11  C4  UNL     1      11.560  20.890  22.352  1.00  0.00     0.274 C 
BRANCH  11  12
HETATM   12  C5  UNL     1      11.961  19.516  22.775  1.00  0.00     0.031 C 
BRANCH  12  13
HETATM   13  C6  UNL     1      11.734  18.491  21.663  1.00  0.00     0.006 C 
BRANCH  13  14
HETATM   14  C7  UNL     1      10.947  19.159  20.588  1.00  0.00    -0.014 A 
HETATM   15  C8  UNL     1       9.687  18.577  20.066  1.00  0.00     0.005 A 
HETATM   16  C9  UNL     1      10.966  18.469  19.236  1.00  0.00     0.005 A 
ENDBRANCH  13  14
ENDBRANCH  12  13
ENDBRANCH  11  12
ENDBRANCH   9  11
TORSDOF 4
ENDMDL
MODEL 4
REMARK VINA RESULT: -5.275239763      1.371      3.035
REMARK  4 active torsions:
REMARK  status: ('A' for Active; 'I' for Inactive)
REMARK       I    between atoms: C1_4  and  N3_6 
REMARK    1  A    between atoms: N4_9  and  C4_10 
REMARK    2  A    between atoms: C4_10  and  C5_11 
REMARK    3  A    between atoms: C5_11  and  C6_12 
REMARK    4  A    between atoms: C6_12  and  C7_13 
ROOT
HETATM    1  N1  UNL     1       9.018  18.632  18.241  1.00  0.00    -0.374 N 
ATOM      2  H11 UNL     1       9.280  19.322  17.537  1.00  0.00     0.158 HD
ATOM      3  H12 UNL     1       9.283  18.773  19.216  1.00  0.00     0.158 HD
HETATM    4  C1  UNL     1       8.352  17.619  17.789  1.00  0.00     0.185 C 
HETATM    5  N2  UNL     1       7.985  16.650  18.777  1.00  0.00    -0.064 NA
HETATM    6  N3  UNL     1       7.989  17.426  16.453  1.00  0.00    -0.328 N 
HETATM    7  C2  UNL     1       8.728  17.887  15.290  1.00  0.00     0.157 C 
HETATM    8  C3  UNL     1       7.696  17.689  14.188  1.00  0.00     0.294 C 
HETATM    9  N4  UNL     1       7.065  16.442  14.585  1.00  0.00     0.107 N 
HETATM   10  C10 UNL     1       6.789  16.714  15.980  1.00  0.00     0.400 C 
ENDROOT
BRANCH   9  11
HETATM   11  C4  UNL     1       7.974  15.328  14.489  1.00  0.00     0.274 C 
BRANCH  11  12
HETATM   12  C5  UNL     1       7.663  14.207  15.426  1.00  0.00     0.031 C 
BRANCH  12  13
HETATM   13  C6  UNL     1       8.903  13.751  16.196  1.00  0.00     0.006 C 
BRANCH  13  14
HETATM   14  C7  UNL     1       9.205  12.352  15.779  1.00  0.00    -0.014 A 
HETATM   15  C8  UNL     1       8.859  11.848  14.428  1.00  0.00     0.005 A 
HETATM   16  C9  UNL     1       8.002  11.439  15.626  1.00  0.00     0.005 A 
ENDBRANCH  13  14
ENDBRANCH  12  13
ENDBRANCH  11  12
ENDBRANCH   9  11
TORSDOF 4
ENDMDL
MODEL 5
REMARK VINA RESULT: -5.189832805      3.176      5.694
REMARK  4 active torsions:
REMARK  status: ('A' for Active; 'I' for Inactive)
REMARK       I    between atoms: C1_4  and  N3_6 
REMARK    1  A    between atoms: N4_9  and  C4_10 
REMARK    2  A    between atoms: C4_10  and  C5_11 
REMARK    3  A    between atoms: C5_11  and  C6_12 
REMARK    4  A    between atoms: C6_12  and  C7_13 
ROOT
HETATM    1  N1  UNL     1       6.570  18.264  13.951  1.00  0.00    -0.374 N 
ATOM      2  H11 UNL     1       7.328  18.752  13.475  1.00  0.00     0.158 HD
ATOM      3  H12 UNL     1       5.632  18.264  13.550  1.00  0.00     0.158 HD
HETATM    4  C1  UNL     1       6.908  17.680  15.056  1.00  0.00     0.185 C 
HETATM    5  N2  UNL     1       5.844  16.994  15.725  1.00  0.00    -0.064 NA
HETATM    6  N3  UNL     1       8.193  17.679  15.605  1.00  0.00    -0.328 N 
HETATM    7  C2  UNL     1       9.182  18.734  15.469  1.00  0.00     0.157 C 
HETATM    8  C3  UNL     1      10.436  18.029  15.966  1.00  0.00     0.294 C 
HETATM    9  N4  UNL     1       9.919  17.232  17.066  1.00  0.00     0.107 N 
HETATM   10  C10 UNL     1       8.778  16.607  16.429  1.00  0.00     0.400 C 
ENDROOT
BRANCH   9  11
HETATM   11  C4  UNL     1       9.462  18.055  18.156  1.00  0.00     0.274 C 
BRANCH  11  12
HETATM   12  C5  UNL     1      10.536  18.442  19.119  1.00  0.00     0.031 C 
BRANCH  12  13
HETATM   13  C6  UNL     1       9.972  18.739  20.508  1.00  0.00     0.006 C 
BRANCH  13  14
HETATM   14  C7  UNL     1      11.083  19.280  21.342  1.00  0.00    -0.014 A 
HETATM   15  C8  UNL     1      12.122  18.398  21.926  1.00  0.00     0.005 A 
HETATM   16  C9  UNL     1      11.014  18.951  22.822  1.00  0.00     0.005 A 
ENDBRANCH  13  14
ENDBRANCH  12  13
ENDBRANCH  11  12
ENDBRANCH   9  11
TORSDOF 4
ENDMDL
