MODEL 1
REMARK VINA RESULT: -5.368962598      0.000      0.000
REMARK  5 active torsions:
REMARK  status: ('A' for Active; 'I' for Inactive)
REMARK    1  A    between atoms: N1_1  and  C1_5 
REMARK    2  A    between atoms: N2_9  and  C5_10 
REMARK    3  A    between atoms: C5_10  and  C6_11 
REMARK    4  A    between atoms: C6_11  and  C7_12 
REMARK    5  A    between atoms: C7_12  and  C8_13 
ROOT
HETATM    1  C1  UNL     1       6.663  17.363  14.895  1.00  0.00     0.201 C 
HETATM    2  C2  UNL     1       7.294  18.131  16.020  1.00  0.00     0.039 C 
HETATM    3  C3  UNL     1       8.726  17.804  16.240  1.00  0.00     0.046 C 
HETATM    4  C4  UNL     1       9.031  16.332  16.239  1.00  0.00     0.058 C 
HETATM    5  N2  UNL     1       8.261  15.538  15.368  1.00  0.00    -0.391 N 
HETATM    6  C9  UNL     1       7.473  16.221  14.392  1.00  0.00     0.154 C 
ENDROOT
BRANCH   5   7
HETATM    7  C5  UNL     1       7.651  14.373  15.932  1.00  0.00     0.122 C 
BRANCH   7   8
HETATM    8  C6  UNL     1       8.745  13.343  16.126  1.00  0.00     0.022 C 
BRANCH   8   9
HETATM    9  C7  UNL     1       9.200  12.766  14.805  1.00  0.00     0.033 C 
BRANCH   9  10
HETATM   10  C8  UNL     1       8.653  11.357  14.704  1.00  0.00     0.222 C 
HETATM   11  F1  UNL     1       8.631  11.017  13.368  1.00  0.00    -0.255 F 
ENDBRANCH   9  10
ENDBRANCH   8   9
ENDBRANCH   7   8
ENDBRANCH   5   7
BRANCH   1  12
HETATM   12  N1  UNL     1       6.389  18.232  13.738  1.00  0.00    -0.073 N 
ATOM     13  H13 UNL     1       6.935  17.953  12.923  1.00  0.00     0.274 HD
ATOM     14  H12 UNL     1       5.454  18.071  13.363  1.00  0.00     0.274 HD
ATOM     15  H11 UNL     1       6.535  19.215  13.966  1.00  0.00     0.274 HD
ENDBRANCH   1  12
TORSDOF 5
ENDMDL
MODEL 2
REMARK VINA RESULT: -5.343245069      1.345      2.150
REMARK  5 active torsions:
REMARK  status: ('A' for Active; 'I' for Inactive)
REMARK    1  A    between atoms: N1_1  and  C1_5 
REMARK    2  A    between atoms: N2_9  and  C5_10 
REMARK    3  A    between atoms: C5_10  and  C6_11 
REMARK    4  A    between atoms: C6_11  and  C7_12 
REMARK    5  A    between atoms: C7_12  and  C8_13 
ROOT
HETATM    1  C1  UNL     1       8.956  17.439  16.516  1.00  0.00     0.201 C 
HETATM    2  C2  UNL     1       8.155  18.224  15.519  1.00  0.00     0.039 C 
HETATM    3  C3  UNL     1       6.753  17.756  15.375  1.00  0.00     0.046 C 
HETATM    4  C4  UNL     1       6.607  16.265  15.259  1.00  0.00     0.058 C 
HETATM    5  N2  UNL     1       7.528  15.492  15.991  1.00  0.00    -0.391 N 
HETATM    6  C9  UNL     1       8.319  16.172  16.966  1.00  0.00     0.154 C 
ENDROOT
BRANCH   5   7
HETATM    7  C5  UNL     1       8.209  14.457  15.275  1.00  0.00     0.122 C 
BRANCH   7   8
HETATM    8  C6  UNL     1       8.573  13.382  16.279  1.00  0.00     0.022 C 
BRANCH   8   9
HETATM    9  C7  UNL     1       9.285  12.226  15.615  1.00  0.00     0.033 C 
BRANCH   9  10
HETATM   10  C8  UNL     1       8.248  11.172  15.286  1.00  0.00     0.222 C 
HETATM   11  F1  UNL     1       8.528  10.697  14.023  1.00  0.00    -0.255 F 
ENDBRANCH   9  10
ENDBRANCH   8   9
ENDBRANCH   7   8
ENDBRANCH   5   7
BRANCH   1  12
HETATM   12  N1  UNL     1       9.233  18.230  17.727  1.00  0.00    -0.073 N 
ATOM     13  H13 UNL     1       8.595  19.022  17.811  1.00  0.00     0.274 HD
ATOM     14  H12 UNL     1       8.968  17.724  18.572  1.00  0.00     0.274 HD
ATOM     15  H11 UNL     1      10.207  18.529  17.763  1.00  0.00     0.274 HD
ENDBRANCH   1  12
TORSDOF 5
ENDMDL
MODEL 3
REMARK VINA RESULT: -4.575247028      3.555      5.014
REMARK  5 active torsions:
REMARK  status: ('A' for Active; 'I' for Inactive)
REMARK    1  A    between atoms: N1_1  and  C1_5 
REMARK    2  A    between atoms: N2_9  and  C5_10 
REMARK    3  A    between atoms: C5_10  and  C6_11 
REMARK    4  A    between atoms: C6_11  and  C7_12 
REMARK    5  A    between atoms: C7_12  and  C8_13 
ROOT
HETATM    1  C1  UNL     1       7.352  17.623  14.476  1.00  0.00     0.201 C 
HETATM    2  C2  UNL     1       7.277  16.125  14.429  1.00  0.00     0.039 C 
HETATM    3  C3  UNL     1       7.169  15.488  15.766  1.00  0.00     0.046 C 
HETATM    4  C4  UNL     1       8.123  16.035  16.791  1.00  0.00     0.058 C 
HETATM    5  N2  UNL     1       8.417  17.408  16.695  1.00  0.00    -0.391 N 
HETATM    6  C9  UNL     1       7.594  18.191  15.829  1.00  0.00     0.154 C 
ENDROOT
BRANCH   5   7
HETATM    7  C5  UNL     1       9.802  17.770  16.704  1.00  0.00     0.122 C 
BRANCH   7   8
HETATM    8  C6  UNL     1      10.222  17.902  18.154  1.00  0.00     0.022 C 
BRANCH   8   9
HETATM    9  C7  UNL     1      11.668  18.325  18.273  1.00  0.00     0.033 C 
BRANCH   9  10
HETATM   10  C8  UNL     1      12.106  18.075  19.701  1.00  0.00     0.222 C 
HETATM   11  F1  UNL     1      13.189  17.224  19.658  1.00  0.00    -0.255 F 
ENDBRANCH   9  10
ENDBRANCH   8   9
ENDBRANCH   7   8
ENDBRANCH   5   7
BRANCH   1  12
HETATM   12  N1  UNL     1       6.112  18.240  13.972  1.00  0.00    -0.073 N 
ATOM     13  H13 UNL     1       6.105  19.248  14.129  1.00  0.00     0.274 HD
ATOM     14  H12 UNL     1       6.082  18.239  12.953  1.00  0.00     0.274 HD
ATOM     15  H11 UNL     1       5.286  17.794  14.370  1.00  0.00     0.274 HD
ENDBRANCH   1  12
TORSDOF 5
ENDMDL
MODEL 4
REMARK VINA RESULT: -4.426675833      3.800      5.432
REMARK  5 active torsions:
REMARK  status: ('A' for Active; 'I' for Inactive)
REMARK    1  A    between atoms: N1_1  and  C1_5 
REMARK    2  A    between atoms: N2_9  and  C5_10 
REMARK    3  A    between atoms: C5_10  and  C6_11 
REMARK    4  A    between atoms: C6_11  and  C7_12 
REMARK    5  A    between atoms: C7_12  and  C8_13 
ROOT
HETATM    1  C1  UNL     1       8.076  15.409  15.804  1.00  0.00     0.201 C 
HETATM    2  C2  UNL     1       6.682  15.939  15.643  1.00  0.00     0.039 C 
HETATM    3  C3  UNL     1       6.626  17.362  15.220  1.00  0.00     0.046 C 
HETATM    4  C4  UNL     1       7.557  18.268  15.977  1.00  0.00     0.058 C 
HETATM    5  N2  UNL     1       8.784  17.706  16.375  1.00  0.00    -0.391 N 
HETATM    6  C9  UNL     1       9.141  16.448  15.800  1.00  0.00     0.154 C 
ENDROOT
BRANCH   5   7
HETATM    7  C5  UNL     1       9.151  17.869  17.749  1.00  0.00     0.122 C 
BRANCH   7   8
HETATM    8  C6  UNL     1      10.662  17.801  17.821  1.00  0.00     0.022 C 
BRANCH   8   9
HETATM    9  C7  UNL     1      11.172  18.275  19.163  1.00  0.00     0.033 C 
BRANCH   9  10
HETATM   10  C8  UNL     1       9.970  18.527  20.051  1.00  0.00     0.222 C 
HETATM   11  F1  UNL     1      10.384  18.380  21.357  1.00  0.00    -0.255 F 
ENDBRANCH   9  10
ENDBRANCH   8   9
ENDBRANCH   7   8
ENDBRANCH   5   7
BRANCH   1  12
HETATM   12  N1  UNL     1       8.415  14.450  14.737  1.00  0.00    -0.073 N 
ATOM     13  H13 UNL     1       7.850  13.603  14.803  1.00  0.00     0.274 HD
ATOM     14  H12 UNL     1       8.100  14.779  13.825  1.00  0.00     0.274 HD
ATOM     15  H11 UNL     1       9.412  14.235  14.732  1.00  0.00     0.274 HD
ENDBRANCH   1  12
TORSDOF 5
ENDMDL
MODEL 5
REMARK VINA RESULT: -4.398908848      3.553      5.250
REMARK  5 active torsions:
REMARK  status: ('A' for Active; 'I' for Inactive)
REMARK    1  A    between atoms: N1_1  and  C1_5 
REMARK    2  A    between atoms: N2_9  and  C5_10 
REMARK    3  A    between atoms: C5_10  and  C6_11 
REMARK    4  A    between atoms: C6_11  and  C7_12 
REMARK    5  A    between atoms: C7_12  and  C8_13 
ROOT
HETATM    1  C1  UNL     1       8.020  15.350  15.781  1.00  0.00     0.201 C 
HETATM    2  C2  UNL     1       6.621  15.858  15.583  1.00  0.00     0.039 C 
HETATM    3  C3  UNL     1       6.556  17.277  15.147  1.00  0.00     0.046 C 
HETATM    4  C4  UNL     1       7.454  18.203  15.918  1.00  0.00     0.058 C 
HETATM    5  N2  UNL     1       8.681  17.663  16.349  1.00  0.00    -0.391 N 
HETATM    6  C9  UNL     1       9.068  16.405  15.793  1.00  0.00     0.154 C 
ENDROOT
BRANCH   5   7
HETATM    7  C5  UNL     1       9.012  17.842  17.729  1.00  0.00     0.122 C 
BRANCH   7   8
HETATM    8  C6  UNL     1      10.523  17.799  17.837  1.00  0.00     0.022 C 
BRANCH   8   9
HETATM    9  C7  UNL     1      10.997  18.352  19.161  1.00  0.00     0.033 C 
BRANCH   9  10
HETATM   10  C8  UNL     1      12.511  18.415  19.120  1.00  0.00     0.222 C 
HETATM   11  F1  UNL     1      12.987  17.194  19.545  1.00  0.00    -0.255 F 
ENDBRANCH   9  10
ENDBRANCH   8   9
ENDBRANCH   7   8
ENDBRANCH   5   7
BRANCH   1  12
HETATM   12  N1  UNL     1       8.397  14.388  14.731  1.00  0.00    -0.073 N 
ATOM     13  H13 UNL     1       7.631  14.231  14.075  1.00  0.00     0.274 HD
ATOM     14  H12 UNL     1       9.078  14.787  14.086  1.00  0.00     0.274 HD
ATOM     15  H11 UNL     1       8.731  13.511  15.131  1.00  0.00     0.274 HD
ENDBRANCH   1  12
TORSDOF 5
ENDMDL
