MODEL 1
REMARK VINA RESULT: -3.724965243      0.000      0.000
REMARK  4 active torsions:
REMARK  status: ('A' for Active; 'I' for Inactive)
REMARK    1  A    between atoms: N1_1  and  N2_4 
REMARK    2  A    between atoms: N2_4  and  C1_5 
REMARK    3  A    between atoms: C1_5  and  C2_6 
REMARK    4  A    between atoms: C2_6  and  C3_7 
ROOT
HETATM    1  N2  UNL     1       7.612  15.829  14.092  1.00  0.00    -0.148 NA
ENDROOT
BRANCH   1   2
HETATM    2  N1  UNL     1       6.527  16.692  14.154  1.00  0.00    -0.348 N 
ATOM      3  H12 UNL     1       6.224  17.204  14.982  1.00  0.00     0.172 HD
ATOM      4  H11 UNL     1       6.100  16.712  13.228  1.00  0.00     0.172 HD
ENDBRANCH   1   2
BRANCH   1   5
HETATM    5  C1  UNL     1       7.612  15.047  15.307  1.00  0.00     0.135 C 
BRANCH   5   6
HETATM    6  C2  UNL     1       8.620  13.944  15.137  1.00  0.00     0.028 C 
BRANCH   6   7
HETATM    7  C3  UNL     1       8.286  12.906  16.204  1.00  0.00     0.086 C 
HETATM    8 BR1  UNL     1       8.173  11.136  15.478  1.00  0.00    -0.096 Br
ENDBRANCH   6   7
ENDBRANCH   5   6
ENDBRANCH   1   5
TORSDOF 4
ENDMDL
MODEL 2
REMARK VINA RESULT: -3.689726348      0.981      1.000
REMARK  4 active torsions:
REMARK  status: ('A' for Active; 'I' for Inactive)
REMARK    1  A    between atoms: N1_1  and  N2_4 
REMARK    2  A    between atoms: N2_4  and  C1_5 
REMARK    3  A    between atoms: C1_5  and  C2_6 
REMARK    4  A    between atoms: C2_6  and  C3_7 
ROOT
HETATM    1  N2  UNL     1       7.512  15.859  14.141  1.00  0.00    -0.148 NA
ENDROOT
BRANCH   1   2
HETATM    2  N1  UNL     1       6.627  16.905  13.923  1.00  0.00    -0.348 N 
ATOM      3  H12 UNL     1       6.139  17.096  13.048  1.00  0.00     0.172 HD
ATOM      4  H11 UNL     1       6.561  17.436  14.792  1.00  0.00     0.172 HD
ENDBRANCH   1   2
BRANCH   1   5
HETATM    5  C1  UNL     1       7.179  15.271  15.418  1.00  0.00     0.135 C 
BRANCH   5   6
HETATM    6  C2  UNL     1       8.468  14.986  16.138  1.00  0.00     0.028 C 
BRANCH   6   7
HETATM    7  C3  UNL     1       8.466  13.487  16.420  1.00  0.00     0.086 C 
HETATM    8 BR1  UNL     1       9.193  12.477  14.962  1.00  0.00    -0.096 Br
ENDBRANCH   6   7
ENDBRANCH   5   6
ENDBRANCH   1   5
TORSDOF 4
ENDMDL
MODEL 3
REMARK VINA RESULT: -3.671666808      2.224      2.756
REMARK  4 active torsions:
REMARK  status: ('A' for Active; 'I' for Inactive)
REMARK    1  A    between atoms: N1_1  and  N2_4 
REMARK    2  A    between atoms: N2_4  and  C1_5 
REMARK    3  A    between atoms: C1_5  and  C2_6 
REMARK    4  A    between atoms: C2_6  and  C3_7 
ROOT
HETATM    1  N2  UNL     1       6.623  17.694  12.893  1.00  0.00    -0.148 NA
ENDROOT
BRANCH   1   2
HETATM    2  N1  UNL     1       7.705  17.716  12.025  1.00  0.00    -0.348 N 
ATOM      3  H12 UNL     1       7.801  18.326  11.213  1.00  0.00     0.172 HD
ATOM      4  H11 UNL     1       8.373  17.017  12.351  1.00  0.00     0.172 HD
ENDBRANCH   1   2
BRANCH   1   5
HETATM    5  C1  UNL     1       7.148  17.599  14.236  1.00  0.00     0.135 C 
BRANCH   5   6
HETATM    6  C2  UNL     1       6.892  16.200  14.725  1.00  0.00     0.028 C 
BRANCH   6   7
HETATM    7  C3  UNL     1       8.149  15.787  15.484  1.00  0.00     0.086 C 
HETATM    8 BR1  UNL     1       8.474  13.901  15.368  1.00  0.00    -0.096 Br
ENDBRANCH   6   7
ENDBRANCH   5   6
ENDBRANCH   1   5
TORSDOF 4
ENDMDL
MODEL 4
REMARK VINA RESULT: -3.666851827      1.204      1.471
REMARK  4 active torsions:
REMARK  status: ('A' for Active; 'I' for Inactive)
REMARK    1  A    between atoms: N1_1  and  N2_4 
REMARK    2  A    between atoms: N2_4  and  C1_5 
REMARK    3  A    between atoms: C1_5  and  C2_6 
REMARK    4  A    between atoms: C2_6  and  C3_7 
ROOT
HETATM    1  N2  UNL     1       6.395  16.824  14.422  1.00  0.00    -0.148 NA
ENDROOT
BRANCH   1   2
HETATM    2  N1  UNL     1       5.820  17.868  15.133  1.00  0.00    -0.348 N 
ATOM      3  H12 UNL     1       4.831  17.949  15.370  1.00  0.00     0.172 HD
ATOM      4  H11 UNL     1       6.564  18.524  15.369  1.00  0.00     0.172 HD
ENDBRANCH   1   2
BRANCH   1   5
HETATM    5  C1  UNL     1       6.550  15.714  15.333  1.00  0.00     0.135 C 
BRANCH   5   6
HETATM    6  C2  UNL     1       7.900  15.102  15.078  1.00  0.00     0.028 C 
BRANCH   6   7
HETATM    7  C3  UNL     1       7.869  13.732  15.748  1.00  0.00     0.086 C 
HETATM    8 BR1  UNL     1       9.114  12.511  14.950  1.00  0.00    -0.096 Br
ENDBRANCH   6   7
ENDBRANCH   5   6
ENDBRANCH   1   5
TORSDOF 4
ENDMDL
MODEL 5
REMARK VINA RESULT: -3.618089350      1.058      1.268
REMARK  4 active torsions:
REMARK  status: ('A' for Active; 'I' for Inactive)
REMARK    1  A    between atoms: N1_1  and  N2_4 
REMARK    2  A    between atoms: N2_4  and  C1_5 
REMARK    3  A    between atoms: C1_5  and  C2_6 
REMARK    4  A    between atoms: C2_6  and  C3_7 
ROOT
HETATM    1  N2  UNL     1       6.474  15.918  14.649  1.00  0.00    -0.148 NA
ENDROOT
BRANCH   1   2
HETATM    2  N1  UNL     1       5.724  15.944  15.816  1.00  0.00    -0.348 N 
ATOM      3  H12 UNL     1       5.884  16.564  16.610  1.00  0.00     0.172 HD
ATOM      4  H11 UNL     1       4.995  15.236  15.727  1.00  0.00     0.172 HD
ENDBRANCH   1   2
BRANCH   1   5
HETATM    5  C1  UNL     1       7.848  15.678  15.023  1.00  0.00     0.135 C 
BRANCH   5   6
HETATM    6  C2  UNL     1       7.892  14.376  15.775  1.00  0.00     0.028 C 
BRANCH   6   7
HETATM    7  C3  UNL     1       8.766  13.443  14.943  1.00  0.00     0.086 C 
HETATM    8 BR1  UNL     1       8.455  11.599  15.362  1.00  0.00    -0.096 Br
ENDBRANCH   6   7
ENDBRANCH   5   6
ENDBRANCH   1   5
TORSDOF 4
ENDMDL
