MODEL 1
REMARK VINA RESULT: -5.546263870      0.000      0.000
REMARK  5 active torsions:
REMARK  status: ('A' for Active; 'I' for Inactive)
REMARK    1  A    between atoms: C2_2  and  N1_3 
REMARK    2  A    between atoms: N1_3  and  C3_6 
REMARK    3  A    between atoms: C3_6  and  C4_7 
REMARK    4  A    between atoms: C4_7  and  C5_8 
REMARK    5  A    between atoms: C7_10  and  N2_11 
ROOT
HETATM    1  C5  UNL     1       8.189  15.473  16.446  1.00  0.00    -0.008 C 
HETATM    2  C6  UNL     1       9.159  16.570  16.647  1.00  0.00     0.040 C 
HETATM    3  C7  UNL     1       9.125  17.425  15.367  1.00  0.00     0.217 C 
HETATM    4  C8  UNL     1       7.709  17.161  14.893  1.00  0.00     0.200 C 
HETATM    5  F1  UNL     1       7.467  17.601  13.614  1.00  0.00    -0.247 F 
HETATM    6  C9  UNL     1       7.636  15.666  15.052  1.00  0.00     0.044 C 
ENDROOT
BRANCH   1   7
HETATM    7  C4  UNL     1       8.647  14.091  16.705  1.00  0.00     0.032 C 
BRANCH   7   8
HETATM    8  C3  UNL     1       8.308  13.203  15.531  1.00  0.00     0.232 C 
BRANCH   8   9
HETATM    9  N1  UNL     1       7.478  12.082  15.902  1.00  0.00    -0.075 N 
ATOM     10  H12 UNL     1       6.541  12.164  15.505  1.00  0.00     0.277 HD
ATOM     11  H11 UNL     1       7.235  12.111  16.893  1.00  0.00     0.277 HD
BRANCH   9  12
HETATM   12  C2  UNL     1       8.095  10.818  15.546  1.00  0.00     0.228 C 
HETATM   13  C1  UNL     1       8.663  11.006  14.138  1.00  0.00     0.034 C 
ENDBRANCH   9  12
ENDBRANCH   8   9
ENDBRANCH   7   8
ENDBRANCH   1   7
BRANCH   3  14
HETATM   14  N2  UNL     1       9.316  18.817  15.660  1.00  0.00    -0.072 N 
ATOM     15  H23 UNL     1       9.642  19.330  14.841  1.00  0.00     0.274 HD
ATOM     16  H22 UNL     1       8.426  19.295  15.801  1.00  0.00     0.274 HD
ATOM     17  H21 UNL     1       9.940  18.948  16.456  1.00  0.00     0.274 HD
ENDBRANCH   3  14
TORSDOF 5
ENDMDL
MODEL 2
REMARK VINA RESULT: -5.541694790      1.452      1.779
REMARK  5 active torsions:
REMARK  status: ('A' for Active; 'I' for Inactive)
REMARK    1  A    between atoms: C2_2  and  N1_3 
REMARK    2  A    between atoms: N1_3  and  C3_6 
REMARK    3  A    between atoms: C3_6  and  C4_7 
REMARK    4  A    between atoms: C4_7  and  C5_8 
REMARK    5  A    between atoms: C7_10  and  N2_11 
ROOT
HETATM    1  C5  UNL     1       8.168  15.407  15.593  1.00  0.00    -0.008 C 
HETATM    2  C6  UNL     1       6.774  15.898  15.619  1.00  0.00     0.040 C 
HETATM    3  C7  UNL     1       6.850  17.419  15.845  1.00  0.00     0.217 C 
HETATM    4  C8  UNL     1       8.207  17.724  15.243  1.00  0.00     0.200 C 
HETATM    5  F1  UNL     1       8.664  18.987  15.529  1.00  0.00    -0.247 F 
HETATM    6  C9  UNL     1       9.034  16.620  15.845  1.00  0.00     0.044 C 
ENDROOT
BRANCH   1   7
HETATM    7  C4  UNL     1       8.511  14.256  16.456  1.00  0.00     0.032 C 
BRANCH   7   8
HETATM    8  C3  UNL     1       8.636  13.001  15.625  1.00  0.00     0.232 C 
BRANCH   8   9
HETATM    9  N1  UNL     1       7.705  11.974  16.025  1.00  0.00    -0.075 N 
ATOM     10  H12 UNL     1       6.743  12.239  15.812  1.00  0.00     0.277 HD
ATOM     11  H11 UNL     1       7.633  11.913  17.041  1.00  0.00     0.277 HD
BRANCH   9  12
HETATM   12  C2  UNL     1       8.042  10.689  15.441  1.00  0.00     0.228 C 
HETATM   13  C1  UNL     1       8.679  10.995  14.084  1.00  0.00     0.034 C 
ENDBRANCH   9  12
ENDBRANCH   8   9
ENDBRANCH   7   8
ENDBRANCH   1   7
BRANCH   3  14
HETATM   14  N2  UNL     1       5.809  18.107  15.137  1.00  0.00    -0.072 N 
ATOM     15  H23 UNL     1       5.623  19.023  15.544  1.00  0.00     0.274 HD
ATOM     16  H22 UNL     1       6.120  18.406  14.212  1.00  0.00     0.274 HD
ATOM     17  H21 UNL     1       4.960  17.544  15.082  1.00  0.00     0.274 HD
ENDBRANCH   3  14
TORSDOF 5
ENDMDL
MODEL 3
REMARK VINA RESULT: -5.527033318      1.541      1.868
REMARK  5 active torsions:
REMARK  status: ('A' for Active; 'I' for Inactive)
REMARK    1  A    between atoms: C2_2  and  N1_3 
REMARK    2  A    between atoms: N1_3  and  C3_6 
REMARK    3  A    between atoms: C3_6  and  C4_7 
REMARK    4  A    between atoms: C4_7  and  C5_8 
REMARK    5  A    between atoms: C7_10  and  N2_11 
ROOT
HETATM    1  C5  UNL     1       8.561  15.483  15.989  1.00  0.00    -0.008 C 
HETATM    2  C6  UNL     1       7.729  15.490  14.767  1.00  0.00     0.040 C 
HETATM    3  C7  UNL     1       6.772  16.690  14.896  1.00  0.00     0.217 C 
HETATM    4  C8  UNL     1       7.592  17.607  15.781  1.00  0.00     0.200 C 
HETATM    5  F1  UNL     1       6.880  18.670  16.280  1.00  0.00    -0.247 F 
HETATM    6  C9  UNL     1       8.062  16.636  16.831  1.00  0.00     0.044 C 
ENDROOT
BRANCH   1   7
HETATM    7  C4  UNL     1       8.671  14.216  16.743  1.00  0.00     0.032 C 
BRANCH   7   8
HETATM    8  C3  UNL     1       8.696  13.044  15.789  1.00  0.00     0.232 C 
BRANCH   8   9
HETATM    9  N1  UNL     1       7.658  12.081  16.064  1.00  0.00    -0.075 N 
ATOM     10  H12 UNL     1       6.752  12.401  15.720  1.00  0.00     0.277 HD
ATOM     11  H11 UNL     1       7.444  12.038  17.060  1.00  0.00     0.277 HD
BRANCH   9  12
HETATM   12  C2  UNL     1       7.991  10.770  15.537  1.00  0.00     0.228 C 
HETATM   13  C1  UNL     1       8.697  11.017  14.202  1.00  0.00     0.034 C 
ENDBRANCH   9  12
ENDBRANCH   8   9
ENDBRANCH   7   8
ENDBRANCH   1   7
BRANCH   3  14
HETATM   14  N2  UNL     1       6.520  17.298  13.621  1.00  0.00    -0.072 N 
ATOM     15  H23 UNL     1       6.994  16.800  12.869  1.00  0.00     0.274 HD
ATOM     16  H22 UNL     1       5.555  17.154  13.323  1.00  0.00     0.274 HD
ATOM     17  H21 UNL     1       6.765  18.288  13.626  1.00  0.00     0.274 HD
ENDBRANCH   3  14
TORSDOF 5
ENDMDL
MODEL 4
REMARK VINA RESULT: -5.170613472      1.582      1.831
REMARK  5 active torsions:
REMARK  status: ('A' for Active; 'I' for Inactive)
REMARK    1  A    between atoms: C2_2  and  N1_3 
REMARK    2  A    between atoms: N1_3  and  C3_6 
REMARK    3  A    between atoms: C3_6  and  C4_7 
REMARK    4  A    between atoms: C4_7  and  C5_8 
REMARK    5  A    between atoms: C7_10  and  N2_11 
ROOT
HETATM    1  C5  UNL     1       7.363  15.499  15.224  1.00  0.00    -0.008 C 
HETATM    2  C6  UNL     1       6.421  16.358  15.972  1.00  0.00     0.040 C 
HETATM    3  C7  UNL     1       6.468  17.744  15.302  1.00  0.00     0.217 C 
HETATM    4  C8  UNL     1       6.863  17.359  13.890  1.00  0.00     0.200 C 
HETATM    5  F1  UNL     1       7.232  18.429  13.112  1.00  0.00    -0.247 F 
HETATM    6  C9  UNL     1       7.978  16.387  14.167  1.00  0.00     0.044 C 
ENDROOT
BRANCH   1   7
HETATM    7  C4  UNL     1       8.365  14.736  16.000  1.00  0.00     0.032 C 
BRANCH   7   8
HETATM    8  C3  UNL     1       8.542  13.358  15.407  1.00  0.00     0.232 C 
BRANCH   8   9
HETATM    9  N1  UNL     1       7.625  12.391  15.960  1.00  0.00    -0.075 N 
ATOM     10  H12 UNL     1       6.661  12.600  15.698  1.00  0.00     0.277 HD
ATOM     11  H11 UNL     1       7.541  12.495  16.971  1.00  0.00     0.277 HD
BRANCH   9  12
HETATM   12  C2  UNL     1       7.991  11.035  15.595  1.00  0.00     0.228 C 
HETATM   13  C1  UNL     1       8.709  11.139  14.248  1.00  0.00     0.034 C 
ENDBRANCH   9  12
ENDBRANCH   8   9
ENDBRANCH   7   8
ENDBRANCH   1   7
BRANCH   3  14
HETATM   14  N2  UNL     1       5.181  18.379  15.320  1.00  0.00    -0.072 N 
ATOM     15  H23 UNL     1       4.429  17.703  15.189  1.00  0.00     0.274 HD
ATOM     16  H22 UNL     1       4.938  18.705  16.255  1.00  0.00     0.274 HD
ATOM     17  H21 UNL     1       5.128  19.133  14.636  1.00  0.00     0.274 HD
ENDBRANCH   3  14
TORSDOF 5
ENDMDL
MODEL 5
REMARK VINA RESULT: -5.001775378      1.702      2.007
REMARK  5 active torsions:
REMARK  status: ('A' for Active; 'I' for Inactive)
REMARK    1  A    between atoms: C2_2  and  N1_3 
REMARK    2  A    between atoms: N1_3  and  C3_6 
REMARK    3  A    between atoms: C3_6  and  C4_7 
REMARK    4  A    between atoms: C4_7  and  C5_8 
REMARK    5  A    between atoms: C7_10  and  N2_11 
ROOT
HETATM    1  C5  UNL     1       8.722  15.713  16.047  1.00  0.00    -0.008 C 
HETATM    2  C6  UNL     1       9.159  16.809  15.156  1.00  0.00     0.040 C 
HETATM    3  C7  UNL     1       9.076  18.105  15.983  1.00  0.00     0.217 C 
HETATM    4  C8  UNL     1       9.277  17.558  17.382  1.00  0.00     0.200 C 
HETATM    5  F1  UNL     1       8.997  18.466  18.373  1.00  0.00    -0.247 F 
HETATM    6  C9  UNL     1       8.348  16.373  17.355  1.00  0.00     0.044 C 
ENDROOT
BRANCH   1   7
HETATM    7  C4  UNL     1       7.684  14.787  15.545  1.00  0.00     0.032 C 
BRANCH   7   8
HETATM    8  C3  UNL     1       8.277  13.418  15.312  1.00  0.00     0.232 C 
BRANCH   8   9
HETATM    9  N1  UNL     1       7.594  12.382  16.048  1.00  0.00    -0.075 N 
ATOM     10  H12 UNL     1       6.581  12.505  16.011  1.00  0.00     0.277 HD
ATOM     11  H11 UNL     1       7.730  12.489  17.054  1.00  0.00     0.277 HD
BRANCH   9  12
HETATM   12  C2  UNL     1       7.984  11.059  15.599  1.00  0.00     0.228 C 
HETATM   13  C1  UNL     1       8.721  11.262  14.273  1.00  0.00     0.034 C 
ENDBRANCH   9  12
ENDBRANCH   8   9
ENDBRANCH   7   8
ENDBRANCH   1   7
BRANCH   3  14
HETATM   14  N2  UNL     1      10.125  19.019  15.634  1.00  0.00    -0.072 N 
ATOM     15  H23 UNL     1      10.698  18.656  14.871  1.00  0.00     0.274 HD
ATOM     16  H22 UNL     1       9.758  19.851  15.173  1.00  0.00     0.274 HD
ATOM     17  H21 UNL     1      10.694  19.260  16.445  1.00  0.00     0.274 HD
ENDBRANCH   3  14
TORSDOF 5
ENDMDL
