MODEL 1
REMARK VINA RESULT: -4.607032895      0.000      0.000
REMARK  4 active torsions:
REMARK  status: ('A' for Active; 'I' for Inactive)
REMARK    1  A    between atoms: N2_4  and  N3_6 
REMARK    2  A    between atoms: N3_6  and  C2_8 
REMARK    3  A    between atoms: C2_8  and  C3_9 
REMARK    4  A    between atoms: C3_9  and  C4_10 
ROOT
HETATM    1  N3  UNL     1       7.461  16.031  14.056  1.00  0.00    -0.322 N 
ATOM      2  H3  UNL     1       8.079  15.855  13.263  1.00  0.00     0.181 HD
ENDROOT
BRANCH   1   3
HETATM    3  N2  UNL     1       6.520  17.041  13.961  1.00  0.00    -0.252 N 
HETATM    4  N1  UNL     1       6.514  17.892  13.029  1.00  0.00    -0.327 N 
HETATM    5  C1  UNL     1       7.541  17.803  12.015  1.00  0.00     0.169 C 
ATOM      6  H1  UNL     1       5.803  18.622  12.993  1.00  0.00     0.181 HD
ATOM      7  H2  UNL     1       5.797  17.101  14.678  1.00  0.00     0.207 HD
ENDBRANCH   1   3
BRANCH   1   8
HETATM    8  C2  UNL     1       7.595  15.218  15.240  1.00  0.00     0.141 C 
BRANCH   8   9
HETATM    9  C3  UNL     1       8.502  14.055  15.070  1.00  0.00     0.032 C 
BRANCH   9  10
HETATM   10  C4  UNL     1       8.350  13.005  16.145  1.00  0.00     0.086 C 
HETATM   11 BR1  UNL     1       8.252  11.233  15.445  1.00  0.00    -0.096 Br
ENDBRANCH   9  10
ENDBRANCH   8   9
ENDBRANCH   1   8
TORSDOF 4
ENDMDL
MODEL 2
REMARK VINA RESULT: -4.580368238      1.983      2.155
REMARK  4 active torsions:
REMARK  status: ('A' for Active; 'I' for Inactive)
REMARK    1  A    between atoms: N2_4  and  N3_6 
REMARK    2  A    between atoms: N3_6  and  C2_8 
REMARK    3  A    between atoms: C2_8  and  C3_9 
REMARK    4  A    between atoms: C3_9  and  C4_10 
ROOT
HETATM    1  N3  UNL     1       7.294  15.334  16.246  1.00  0.00    -0.322 N 
ATOM      2  H3  UNL     1       7.709  15.660  17.119  1.00  0.00     0.181 HD
ENDROOT
BRANCH   1   3
HETATM    3  N2  UNL     1       6.081  15.863  15.842  1.00  0.00    -0.252 N 
HETATM    4  N1  UNL     1       5.928  17.076  15.531  1.00  0.00    -0.327 N 
HETATM    5  C1  UNL     1       7.077  17.951  15.602  1.00  0.00     0.169 C 
ATOM      6  H1  UNL     1       5.017  17.430  15.237  1.00  0.00     0.181 HD
ATOM      7  H2  UNL     1       5.272  15.244  15.793  1.00  0.00     0.207 HD
ENDBRANCH   1   3
BRANCH   1   8
HETATM    8  C2  UNL     1       7.990  14.335  15.472  1.00  0.00     0.141 C 
BRANCH   8   9
HETATM    9  C3  UNL     1       8.490  13.193  16.277  1.00  0.00     0.032 C 
BRANCH   9  10
HETATM   10  C4  UNL     1       7.910  11.860  15.864  1.00  0.00     0.086 C 
HETATM   11 BR1  UNL     1       8.707  11.163  14.277  1.00  0.00    -0.096 Br
ENDBRANCH   9  10
ENDBRANCH   8   9
ENDBRANCH   1   8
TORSDOF 4
ENDMDL
MODEL 3
REMARK VINA RESULT: -4.545516543      2.066      2.066
REMARK  4 active torsions:
REMARK  status: ('A' for Active; 'I' for Inactive)
REMARK    1  A    between atoms: N2_4  and  N3_6 
REMARK    2  A    between atoms: N3_6  and  C2_8 
REMARK    3  A    between atoms: C2_8  and  C3_9 
REMARK    4  A    between atoms: C3_9  and  C4_10 
ROOT
HETATM    1  N3  UNL     1       6.459  15.956  16.145  1.00  0.00    -0.322 N 
ATOM      2  H3  UNL     1       6.424  15.866  17.160  1.00  0.00     0.181 HD
ENDROOT
BRANCH   1   3
HETATM    3  N2  UNL     1       5.864  17.053  15.548  1.00  0.00    -0.252 N 
HETATM    4  N1  UNL     1       6.405  18.193  15.507  1.00  0.00    -0.327 N 
HETATM    5  C1  UNL     1       7.707  18.354  16.115  1.00  0.00     0.169 C 
ATOM      6  H1  UNL     1       5.935  18.979  15.057  1.00  0.00     0.181 HD
ATOM      7  H2  UNL     1       4.946  16.936  15.120  1.00  0.00     0.207 HD
ENDBRANCH   1   3
BRANCH   1   8
HETATM    8  C2  UNL     1       7.127  14.934  15.376  1.00  0.00     0.141 C 
BRANCH   8   9
HETATM    9  C3  UNL     1       8.429  14.508  15.948  1.00  0.00     0.032 C 
BRANCH   9  10
HETATM   10  C4  UNL     1       8.468  13.052  16.349  1.00  0.00     0.086 C 
HETATM   11 BR1  UNL     1       8.841  11.887  14.884  1.00  0.00    -0.096 Br
ENDBRANCH   9  10
ENDBRANCH   8   9
ENDBRANCH   1   8
TORSDOF 4
ENDMDL
MODEL 4
REMARK VINA RESULT: -4.512243761      1.609      1.820
REMARK  4 active torsions:
REMARK  status: ('A' for Active; 'I' for Inactive)
REMARK    1  A    between atoms: N2_4  and  N3_6 
REMARK    2  A    between atoms: N3_6  and  C2_8 
REMARK    3  A    between atoms: C2_8  and  C3_9 
REMARK    4  A    between atoms: C3_9  and  C4_10 
ROOT
HETATM    1  N3  UNL     1       8.281  15.523  15.089  1.00  0.00    -0.322 N 
ATOM      2  H3  UNL     1       8.886  16.229  15.508  1.00  0.00     0.181 HD
ENDROOT
BRANCH   1   3
HETATM    3  N2  UNL     1       7.519  15.863  13.985  1.00  0.00    -0.252 N 
HETATM    4  N1  UNL     1       6.727  16.845  13.970  1.00  0.00    -0.327 N 
HETATM    5  C1  UNL     1       6.613  17.650  15.166  1.00  0.00     0.169 C 
ATOM      6  H1  UNL     1       6.181  17.064  13.137  1.00  0.00     0.181 HD
ATOM      7  H2  UNL     1       7.601  15.293  13.143  1.00  0.00     0.207 HD
ENDBRANCH   1   3
BRANCH   1   8
HETATM    8  C2  UNL     1       8.247  14.200  15.665  1.00  0.00     0.141 C 
BRANCH   8   9
HETATM    9  C3  UNL     1       9.047  13.199  14.915  1.00  0.00     0.032 C 
BRANCH   9  10
HETATM   10  C4  UNL     1       8.603  11.774  15.144  1.00  0.00     0.086 C 
HETATM   11 BR1  UNL     1       8.652  10.716  13.556  1.00  0.00    -0.096 Br
ENDBRANCH   9  10
ENDBRANCH   8   9
ENDBRANCH   1   8
TORSDOF 4
ENDMDL
MODEL 5
REMARK VINA RESULT: -4.477461662      3.138      3.369
REMARK  4 active torsions:
REMARK  status: ('A' for Active; 'I' for Inactive)
REMARK    1  A    between atoms: N2_4  and  N3_6 
REMARK    2  A    between atoms: N3_6  and  C2_8 
REMARK    3  A    between atoms: C2_8  and  C3_9 
REMARK    4  A    between atoms: C3_9  and  C4_10 
ROOT
HETATM    1  N3  UNL     1       7.756  14.152  16.261  1.00  0.00    -0.322 N 
ATOM      2  H3  UNL     1       6.747  14.099  16.126  1.00  0.00     0.181 HD
ENDROOT
BRANCH   1   3
HETATM    3  N2  UNL     1       8.252  14.858  17.343  1.00  0.00    -0.252 N 
HETATM    4  N1  UNL     1       8.173  16.113  17.442  1.00  0.00    -0.327 N 
HETATM    5  C1  UNL     1       7.532  16.844  16.371  1.00  0.00     0.169 C 
ATOM      6  H1  UNL     1       8.550  16.598  18.256  1.00  0.00     0.181 HD
ATOM      7  H2  UNL     1       8.703  14.338  18.096  1.00  0.00     0.207 HD
ENDBRANCH   1   3
BRANCH   1   8
HETATM    8  C2  UNL     1       8.624  13.489  15.317  1.00  0.00     0.141 C 
BRANCH   8   9
HETATM    9  C3  UNL     1       9.142  12.182  15.795  1.00  0.00     0.032 C 
BRANCH   9  10
HETATM   10  C4  UNL     1       8.357  10.996  15.285  1.00  0.00     0.086 C 
HETATM   11 BR1  UNL     1       8.637  10.663  13.427  1.00  0.00    -0.096 Br
ENDBRANCH   9  10
ENDBRANCH   8   9
ENDBRANCH   1   8
TORSDOF 4
ENDMDL
