MODEL 1
REMARK VINA RESULT: -5.119895366      0.000      0.000
REMARK  3 active torsions:
REMARK  status: ('A' for Active; 'I' for Inactive)
REMARK    1  A    between atoms: C2_2  and  C3_3 
REMARK    2  A    between atoms: C3_3  and  C4_4 
REMARK    3  A    between atoms: C4_4  and  N1_5 
ROOT
HETATM    1  C4  UNL     1       8.518  15.452  16.059  1.00  0.00     0.225 C 
HETATM    2  C6  UNL     1       8.374  14.728  14.763  1.00  0.00     0.071 C 
HETATM    3  C7  UNL     1       9.014  13.345  14.803  1.00  0.00     0.044 C 
HETATM    4  C8  UNL     1       8.336  12.550  15.904  1.00  0.00     0.194 C 
HETATM    5  F1  UNL     1       8.975  11.376  16.171  1.00  0.00    -0.247 F 
HETATM    6  C9  UNL     1       8.376  13.418  17.148  1.00  0.00     0.208 C 
HETATM    7  O1  UNL     1       9.123  14.578  16.963  1.00  0.00    -0.351 OA
ENDROOT
BRANCH   1   8
HETATM    8  C3  UNL     1       9.213  16.759  15.998  1.00  0.00     0.068 C 
BRANCH   8   9
HETATM    9  C2  UNL     1       9.226  17.594  17.218  1.00  0.00     0.000 C 
HETATM   10  C1  UNL     1      10.558  17.797  17.863  1.00  0.00     0.005 C 
ENDBRANCH   8   9
ENDBRANCH   1   8
BRANCH   1  11
HETATM   11  N1  UNL     1       7.182  15.699  16.608  1.00  0.00    -0.047 N 
HETATM   12  C5  UNL     1       6.199  15.916  15.591  1.00  0.00     0.270 C 
ATOM     13  H12 UNL     1       6.899  14.947  17.236  1.00  0.00     0.280 HD
ATOM     14  H11 UNL     1       7.196  16.471  17.274  1.00  0.00     0.280 HD
ENDBRANCH   1  11
TORSDOF 3
ENDMDL
MODEL 2
REMARK VINA RESULT: -4.830427355      2.839      4.445
REMARK  3 active torsions:
REMARK  status: ('A' for Active; 'I' for Inactive)
REMARK    1  A    between atoms: C2_2  and  C3_3 
REMARK    2  A    between atoms: C3_3  and  C4_4 
REMARK    3  A    between atoms: C4_4  and  N1_5 
ROOT
HETATM    1  C4  UNL     1       8.221  17.018  15.326  1.00  0.00     0.225 C 
HETATM    2  C6  UNL     1       8.115  17.186  16.804  1.00  0.00     0.071 C 
HETATM    3  C7  UNL     1       9.481  17.184  17.482  1.00  0.00     0.044 C 
HETATM    4  C8  UNL     1      10.290  18.329  16.900  1.00  0.00     0.194 C 
HETATM    5  F1  UNL     1      11.599  18.288  17.276  1.00  0.00    -0.247 F 
HETATM    6  C9  UNL     1      10.213  18.186  15.391  1.00  0.00     0.208 C 
HETATM    7  O1  UNL     1       9.577  17.011  15.000  1.00  0.00    -0.351 OA
ENDROOT
BRANCH   1   8
HETATM    8  C3  UNL     1       7.504  15.855  14.753  1.00  0.00     0.068 C 
BRANCH   8   9
HETATM    9  C2  UNL     1       7.589  14.566  15.472  1.00  0.00     0.000 C 
HETATM   10  C1  UNL     1       8.677  13.639  15.037  1.00  0.00     0.005 C 
ENDBRANCH   8   9
ENDBRANCH   1   8
BRANCH   1  11
HETATM   11  N1  UNL     1       7.682  18.218  14.679  1.00  0.00    -0.047 N 
HETATM   12  C5  UNL     1       6.958  17.923  13.481  1.00  0.00     0.270 C 
ATOM     13  H12 UNL     1       7.110  18.758  15.328  1.00  0.00     0.280 HD
ATOM     14  H11 UNL     1       8.418  18.901  14.502  1.00  0.00     0.280 HD
ENDBRANCH   1  11
TORSDOF 3
ENDMDL
MODEL 3
REMARK VINA RESULT: -4.792336135      1.202      1.387
REMARK  3 active torsions:
REMARK  status: ('A' for Active; 'I' for Inactive)
REMARK    1  A    between atoms: C2_2  and  C3_3 
REMARK    2  A    between atoms: C3_3  and  C4_4 
REMARK    3  A    between atoms: C4_4  and  N1_5 
ROOT
HETATM    1  C4  UNL     1       8.155  14.388  16.072  1.00  0.00     0.225 C 
HETATM    2  C6  UNL     1       8.754  14.100  14.737  1.00  0.00     0.071 C 
HETATM    3  C7  UNL     1       9.440  12.739  14.696  1.00  0.00     0.044 C 
HETATM    4  C8  UNL     1       8.398  11.684  15.021  1.00  0.00     0.194 C 
HETATM    5  F1  UNL     1       8.946  10.453  15.225  1.00  0.00    -0.247 F 
HETATM    6  C9  UNL     1       7.718  12.131  16.302  1.00  0.00     0.208 C 
HETATM    7  O1  UNL     1       8.325  13.251  16.863  1.00  0.00    -0.351 OA
ENDROOT
BRANCH   1   8
HETATM    8  C3  UNL     1       8.638  15.614  16.748  1.00  0.00     0.068 C 
BRANCH   8   9
HETATM    9  C2  UNL     1       9.372  16.610  15.937  1.00  0.00     0.000 C 
HETATM   10  C1  UNL     1       9.050  18.044  16.204  1.00  0.00     0.005 C 
ENDBRANCH   8   9
ENDBRANCH   1   8
BRANCH   1  11
HETATM   11  N1  UNL     1       6.704  14.526  15.913  1.00  0.00    -0.047 N 
HETATM   12  C5  UNL     1       6.337  15.711  15.201  1.00  0.00     0.270 C 
ATOM     13  H12 UNL     1       6.303  13.698  15.475  1.00  0.00     0.280 HD
ATOM     14  H11 UNL     1       6.231  14.480  16.816  1.00  0.00     0.280 HD
ENDBRANCH   1  11
TORSDOF 3
ENDMDL
MODEL 4
REMARK VINA RESULT: -4.737780539      2.626      3.552
REMARK  3 active torsions:
REMARK  status: ('A' for Active; 'I' for Inactive)
REMARK    1  A    between atoms: C2_2  and  C3_3 
REMARK    2  A    between atoms: C3_3  and  C4_4 
REMARK    3  A    between atoms: C4_4  and  N1_5 
ROOT
HETATM    1  C4  UNL     1       9.010  17.762  16.862  1.00  0.00     0.225 C 
HETATM    2  C6  UNL     1       9.345  16.379  16.418  1.00  0.00     0.071 C 
HETATM    3  C7  UNL     1       8.103  15.507  16.264  1.00  0.00     0.044 C 
HETATM    4  C8  UNL     1       7.200  16.163  15.235  1.00  0.00     0.194 C 
HETATM    5  F1  UNL     1       5.967  15.586  15.178  1.00  0.00    -0.247 F 
HETATM    6  C9  UNL     1       7.040  17.610  15.664  1.00  0.00     0.208 C 
HETATM    7  O1  UNL     1       7.619  17.864  16.903  1.00  0.00    -0.351 OA
ENDROOT
BRANCH   1   8
HETATM    8  C3  UNL     1       9.639  18.208  18.126  1.00  0.00     0.068 C 
BRANCH   8   9
HETATM    9  C2  UNL     1      10.981  17.681  18.455  1.00  0.00     0.000 C 
HETATM   10  C1  UNL     1      12.105  18.665  18.412  1.00  0.00     0.005 C 
ENDBRANCH   8   9
ENDBRANCH   1   8
BRANCH   1  11
HETATM   11  N1  UNL     1       9.427  18.702  15.817  1.00  0.00    -0.047 N 
HETATM   12  C5  UNL     1      10.531  18.217  15.047  1.00  0.00     0.270 C 
ATOM     13  H12 UNL     1       8.643  18.952  15.214  1.00  0.00     0.280 HD
ATOM     14  H11 UNL     1       9.631  19.621  16.210  1.00  0.00     0.280 HD
ENDBRANCH   1  11
TORSDOF 3
ENDMDL
MODEL 5
REMARK VINA RESULT: -4.663267793      2.583      4.294
REMARK  3 active torsions:
REMARK  status: ('A' for Active; 'I' for Inactive)
REMARK    1  A    between atoms: C2_2  and  C3_3 
REMARK    2  A    between atoms: C3_3  and  C4_4 
REMARK    3  A    between atoms: C4_4  and  N1_5 
ROOT
HETATM    1  C4  UNL     1       8.160  16.080  15.527  1.00  0.00     0.225 C 
HETATM    2  C6  UNL     1       8.023  16.638  16.903  1.00  0.00     0.071 C 
HETATM    3  C7  UNL     1       9.361  17.098  17.472  1.00  0.00     0.044 C 
HETATM    4  C8  UNL     1       9.918  18.166  16.547  1.00  0.00     0.194 C 
HETATM    5  F1  UNL     1      11.208  18.492  16.842  1.00  0.00    -0.247 F 
HETATM    6  C9  UNL     1       9.871  17.586  15.145  1.00  0.00     0.208 C 
HETATM    7  O1  UNL     1       9.489  16.248  15.136  1.00  0.00    -0.351 OA
ENDROOT
BRANCH   1   8
HETATM    8  C3  UNL     1       7.697  14.685  15.344  1.00  0.00     0.068 C 
BRANCH   8   9
HETATM    9  C2  UNL     1       8.530  13.600  15.905  1.00  0.00     0.000 C 
HETATM   10  C1  UNL     1       9.200  12.704  14.914  1.00  0.00     0.005 C 
ENDBRANCH   8   9
ENDBRANCH   1   8
BRANCH   1  11
HETATM   11  N1  UNL     1       7.386  16.916  14.604  1.00  0.00    -0.047 N 
HETATM   12  C5  UNL     1       6.363  17.667  15.265  1.00  0.00     0.270 C 
ATOM     13  H12 UNL     1       7.997  17.528  14.064  1.00  0.00     0.280 HD
ATOM     14  H11 UNL     1       6.997  16.359  13.844  1.00  0.00     0.280 HD
ENDBRANCH   1  11
TORSDOF 3
ENDMDL
