MODEL 1
REMARK VINA RESULT: -6.572024831      0.000      0.000
REMARK  3 active torsions:
REMARK  status: ('A' for Active; 'I' for Inactive)
REMARK       I    between atoms: C1_2  and  N3_7 
REMARK    1  A    between atoms: N2_3  and  C2_5 
REMARK    2  A    between atoms: N3_7  and  C3_9 
REMARK    3  A    between atoms: C3_9  and  C4_10 
ROOT
HETATM    1  N1  UNL     1       6.308  16.269  15.063  1.00  0.00    -0.064 NA
HETATM    2  C1  UNL     1       7.689  16.483  14.761  1.00  0.00     0.185 C 
HETATM    3  N2  UNL     1       7.926  17.335  13.812  1.00  0.00    -0.339 N 
ATOM      4  H2  UNL     1       8.900  17.513  13.571  1.00  0.00     0.164 HD
HETATM    5  N3  UNL     1       8.725  15.804  15.444  1.00  0.00    -0.364 N 
ATOM      6  H3  UNL     1       9.672  16.182  15.452  1.00  0.00     0.162 HD
ENDROOT
BRANCH   5   7
HETATM    7  C3  UNL     1       8.429  14.589  16.118  1.00  0.00     0.126 C 
BRANCH   7   8
HETATM    8  C4  UNL     1       8.211  13.389  15.276  1.00  0.00     0.003 C 
HETATM    9  C5  UNL     1       7.782  12.264  16.233  1.00  0.00     0.006 C 
HETATM   10  C6  UNL     1       8.209  10.984  15.536  1.00  0.00     0.000 C 
HETATM   11  C7  UNL     1       8.885  11.423  14.240  1.00  0.00     0.000 C 
HETATM   12  C8  UNL     1       9.454  12.775  14.688  1.00  0.00     0.006 C 
ENDBRANCH   7   8
ENDBRANCH   5   7
BRANCH   3  13
HETATM   13  C2  UNL     1       6.920  18.046  13.076  1.00  0.00     0.347 C 
HETATM   14  F1  UNL     1       7.191  18.071  11.717  1.00  0.00    -0.234 F 
ENDBRANCH   3  13
TORSDOF 3
ENDMDL
MODEL 2
REMARK VINA RESULT: -6.544591178      1.348      2.011
REMARK  3 active torsions:
REMARK  status: ('A' for Active; 'I' for Inactive)
REMARK       I    between atoms: C1_2  and  N3_7 
REMARK    1  A    between atoms: N2_3  and  C2_5 
REMARK    2  A    between atoms: N3_7  and  C3_9 
REMARK    3  A    between atoms: C3_9  and  C4_10 
ROOT
HETATM    1  N1  UNL     1       8.803  16.302  15.259  1.00  0.00    -0.064 NA
HETATM    2  C1  UNL     1       7.593  15.772  15.808  1.00  0.00     0.185 C 
HETATM    3  N2  UNL     1       6.585  16.588  15.825  1.00  0.00    -0.339 N 
ATOM      4  H2  UNL     1       5.706  16.243  16.209  1.00  0.00     0.164 HD
HETATM    5  N3  UNL     1       7.506  14.452  16.308  1.00  0.00    -0.364 N 
ATOM      6  H3  UNL     1       6.600  13.991  16.395  1.00  0.00     0.162 HD
ENDROOT
BRANCH   5   7
HETATM    7  C3  UNL     1       8.697  13.776  16.690  1.00  0.00     0.126 C 
BRANCH   7   8
HETATM    8  C4  UNL     1       8.919  12.429  16.115  1.00  0.00     0.003 C 
HETATM    9  C5  UNL     1       9.326  12.648  14.648  1.00  0.00     0.006 C 
HETATM   10  C6  UNL     1       8.901  11.375  13.938  1.00  0.00     0.000 C 
HETATM   11  C7  UNL     1       8.248  10.503  15.005  1.00  0.00     0.000 C 
HETATM   12  C8  UNL     1       7.681  11.593  15.923  1.00  0.00     0.006 C 
ENDBRANCH   7   8
ENDBRANCH   5   7
BRANCH   3  13
HETATM   13  C2  UNL     1       6.615  17.939  15.344  1.00  0.00     0.347 C 
HETATM   14  F1  UNL     1       6.465  18.004  13.967  1.00  0.00    -0.234 F 
ENDBRANCH   3  13
TORSDOF 3
ENDMDL
MODEL 3
REMARK VINA RESULT: -6.435471046      0.804      1.389
REMARK  3 active torsions:
REMARK  status: ('A' for Active; 'I' for Inactive)
REMARK       I    between atoms: C1_2  and  N3_7 
REMARK    1  A    between atoms: N2_3  and  C2_5 
REMARK    2  A    between atoms: N3_7  and  C3_9 
REMARK    3  A    between atoms: C3_9  and  C4_10 
ROOT
HETATM    1  N1  UNL     1       7.137  16.709  16.286  1.00  0.00    -0.064 NA
HETATM    2  C1  UNL     1       7.809  16.178  15.141  1.00  0.00     0.185 C 
HETATM    3  N2  UNL     1       7.564  16.785  14.021  1.00  0.00    -0.339 N 
ATOM      4  H2  UNL     1       8.028  16.433  13.184  1.00  0.00     0.164 HD
HETATM    5  N3  UNL     1       8.674  15.062  15.223  1.00  0.00    -0.364 N 
ATOM      6  H3  UNL     1       9.373  14.896  14.500  1.00  0.00     0.162 HD
ENDROOT
BRANCH   5   7
HETATM    7  C3  UNL     1       8.555  14.175  16.327  1.00  0.00     0.126 C 
BRANCH   7   8
HETATM    8  C4  UNL     1       8.818  12.740  16.068  1.00  0.00     0.003 C 
HETATM    9  C5  UNL     1       9.222  12.636  14.588  1.00  0.00     0.006 C 
HETATM   10  C6  UNL     1       8.836  11.224  14.184  1.00  0.00     0.000 C 
HETATM   11  C7  UNL     1       8.206  10.595  15.423  1.00  0.00     0.000 C 
HETATM   12  C8  UNL     1       7.605  11.846  16.075  1.00  0.00     0.006 C 
ENDBRANCH   7   8
ENDBRANCH   5   7
BRANCH   3  13
HETATM   13  C2  UNL     1       6.690  17.913  13.872  1.00  0.00     0.347 C 
HETATM   14  F1  UNL     1       6.526  18.270  12.542  1.00  0.00    -0.234 F 
ENDBRANCH   3  13
TORSDOF 3
ENDMDL
MODEL 4
REMARK VINA RESULT: -6.019881902      1.637      1.767
REMARK  3 active torsions:
REMARK  status: ('A' for Active; 'I' for Inactive)
REMARK       I    between atoms: C1_2  and  N3_7 
REMARK    1  A    between atoms: N2_3  and  C2_5 
REMARK    2  A    between atoms: N3_7  and  C3_9 
REMARK    3  A    between atoms: C3_9  and  C4_10 
ROOT
HETATM    1  N1  UNL     1       7.453  16.091  14.120  1.00  0.00    -0.064 NA
HETATM    2  C1  UNL     1       7.173  16.111  15.522  1.00  0.00     0.185 C 
HETATM    3  N2  UNL     1       6.520  17.149  15.944  1.00  0.00    -0.339 N 
ATOM      4  H2  UNL     1       6.302  17.197  16.939  1.00  0.00     0.164 HD
HETATM    5  N3  UNL     1       7.590  15.076  16.391  1.00  0.00    -0.364 N 
ATOM      6  H3  UNL     1       7.129  14.939  17.290  1.00  0.00     0.162 HD
ENDROOT
BRANCH   5   7
HETATM    7  C3  UNL     1       8.661  14.230  15.995  1.00  0.00     0.126 C 
BRANCH   7   8
HETATM    8  C4  UNL     1       8.315  13.046  15.174  1.00  0.00     0.003 C 
HETATM    9  C5  UNL     1       7.824  11.970  16.156  1.00  0.00     0.006 C 
HETATM   10  C6  UNL     1       8.118  10.653  15.460  1.00  0.00     0.000 C 
HETATM   11  C7  UNL     1       8.786  11.022  14.139  1.00  0.00     0.000 C 
HETATM   12  C8  UNL     1       9.482  12.324  14.553  1.00  0.00     0.006 C 
ENDBRANCH   7   8
ENDBRANCH   5   7
BRANCH   3  13
HETATM   13  C2  UNL     1       6.080  18.235  15.116  1.00  0.00     0.347 C 
HETATM   14  F1  UNL     1       4.739  18.527  15.309  1.00  0.00    -0.234 F 
ENDBRANCH   3  13
TORSDOF 3
ENDMDL
MODEL 5
REMARK VINA RESULT: -5.970731791      0.953      1.029
REMARK  3 active torsions:
REMARK  status: ('A' for Active; 'I' for Inactive)
REMARK       I    between atoms: C1_2  and  N3_7 
REMARK    1  A    between atoms: N2_3  and  C2_5 
REMARK    2  A    between atoms: N3_7  and  C3_9 
REMARK    3  A    between atoms: C3_9  and  C4_10 
ROOT
HETATM    1  N1  UNL     1       6.208  17.165  14.833  1.00  0.00    -0.064 NA
HETATM    2  C1  UNL     1       7.581  17.056  14.448  1.00  0.00     0.185 C 
HETATM    3  N2  UNL     1       7.875  17.553  13.287  1.00  0.00    -0.339 N 
ATOM      4  H2  UNL     1       8.845  17.493  12.981  1.00  0.00     0.164 HD
HETATM    5  N3  UNL     1       8.549  16.437  15.273  1.00  0.00    -0.364 N 
ATOM      6  H3  UNL     1       9.540  16.641  15.148  1.00  0.00     0.162 HD
ENDROOT
BRANCH   5   7
HETATM    7  C3  UNL     1       8.123  15.528  16.278  1.00  0.00     0.126 C 
BRANCH   7   8
HETATM    8  C4  UNL     1       8.020  14.100  15.894  1.00  0.00     0.003 C 
HETATM    9  C5  UNL     1       8.845  13.316  16.928  1.00  0.00     0.006 C 
HETATM   10  C6  UNL     1       9.283  12.060  16.195  1.00  0.00     0.000 C 
HETATM   11  C7  UNL     1       8.727  12.189  14.781  1.00  0.00     0.000 C 
HETATM   12  C8  UNL     1       8.746  13.715  14.631  1.00  0.00     0.006 C 
ENDBRANCH   7   8
ENDBRANCH   5   7
BRANCH   3  13
HETATM   13  C2  UNL     1       6.937  18.181  12.401  1.00  0.00     0.347 C 
HETATM   14  F1  UNL     1       7.387  18.191  11.090  1.00  0.00    -0.234 F 
ENDBRANCH   3  13
TORSDOF 3
ENDMDL
