MODEL 1
REMARK VINA RESULT: -7.578232186      0.000      0.000
REMARK  10 active torsions:
REMARK  status: ('A' for Active; 'I' for Inactive)
REMARK    1  A    between atoms: C2_2  and  C4_4 
REMARK    2  A    between atoms: C4_4  and  O1_5 
REMARK    3  A    between atoms: C4_4  and  C25_35 
REMARK    4  A    between atoms: O1_5  and  C5_6 
REMARK    5  A    between atoms: C5_6  and  C6_8 
REMARK    6  A    between atoms: C6_8  and  N1_9 
REMARK       I    between atoms: N1_9  and  C7_11 
REMARK    7  A    between atoms: C7_11  and  O4_13 
REMARK    8  A    between atoms: O4_13  and  C8_14 
REMARK    9  A    between atoms: C21_29  and  C22_30 
REMARK   10  A    between atoms: C27_37  and  N2_38 
ROOT
HETATM    1  C8  UNL     1      58.273   2.256   9.654  1.00  0.00     0.164 C 
HETATM    2  C9  UNL     1      57.709   3.131   8.566  1.00  0.00     0.201 C 
HETATM    3  O5  UNL     1      58.218   4.377   8.924  1.00  0.00    -0.382 OA
HETATM    4  C10 UNL     1      58.188   4.501  10.285  1.00  0.00     0.139 C 
HETATM    5  C11 UNL     1      58.040   3.100  10.865  1.00  0.00     0.048 C 
HETATM    6  C12 UNL     1      56.597   3.103  11.313  1.00  0.00     0.016 C 
HETATM    7  C13 UNL     1      56.378   4.490  11.857  1.00  0.00     0.009 C 
HETATM    8  C14 UNL     1      57.097   5.341  10.851  1.00  0.00     0.089 C 
HETATM    9  C15 UNL     1      56.264   5.878   9.776  1.00  0.00     0.134 C 
HETATM   10  O6  UNL     1      56.744   6.200   8.724  1.00  0.00    -0.297 OA
HETATM   11  C16 UNL     1      54.782   6.045   9.960  1.00  0.00     0.084 C 
HETATM   12  C17 UNL     1      54.590   6.155  11.425  1.00  0.00     0.002 C 
HETATM   13  C18 UNL     1      53.201   6.318  11.921  1.00  0.00     0.011 C 
HETATM   14  C19 UNL     1      53.372   6.070  13.426  1.00  0.00    -0.003 C 
HETATM   15  C20 UNL     1      53.551   7.443  14.049  1.00  0.00     0.011 C 
HETATM   16  C21 UNL     1      54.712   5.332  13.565  1.00  0.00     0.099 C 
HETATM   17  C23 UNL     1      54.981   4.852  12.152  1.00  0.00    -0.022 C 
HETATM   18  C24 UNL     1      53.984   3.770  11.835  1.00  0.00     0.017 C 
ENDROOT
BRANCH   1  19
HETATM   19  O4  UNL     1      57.695   0.985   9.716  1.00  0.00    -0.296 OA
BRANCH  19  20
HETATM   20  C7  UNL     1      58.389  -0.203   9.915  1.00  0.00     0.361 C 
HETATM   21  N1  UNL     1      58.507  -0.834  11.180  1.00  0.00    -0.328 N 
ATOM     22  H1  UNL     1      58.068  -0.424  12.004  1.00  0.00     0.165 HD
HETATM   23  O3  UNL     1      58.919  -0.700   8.897  1.00  0.00    -0.238 OA
BRANCH  21  24
HETATM   24  C6  UNL     1      59.252  -2.058  11.286  1.00  0.00     0.235 C 
BRANCH  24  25
HETATM   25  C5  UNL     1      58.999  -2.832  12.512  1.00  0.00     0.277 C 
HETATM   26  O2  UNL     1      57.850  -3.064  12.898  1.00  0.00    -0.263 OA
BRANCH  25  27
HETATM   27  O1  UNL     1      60.026  -3.334  13.287  1.00  0.00    -0.314 OA
BRANCH  27  28
HETATM   28  C4  UNL     1      60.995  -2.535  13.950  1.00  0.00     0.141 C 
BRANCH  28  29
HETATM   29  C2  UNL     1      62.166  -3.330  14.419  1.00  0.00     0.007 C 
HETATM   30  C1  UNL     1      63.500  -2.808  14.045  1.00  0.00     0.012 C 
HETATM   31  C3  UNL     1      62.014  -4.797  14.096  1.00  0.00     0.012 C 
ENDBRANCH  28  29
BRANCH  28  32
HETATM   32  C25 UNL     1      60.337  -1.652  14.956  1.00  0.00     0.048 A 
HETATM   33  C26 UNL     1      60.992  -0.788  15.920  1.00  0.00     0.042 A 
HETATM   34  C27 UNL     1      60.369  -0.122  14.753  1.00  0.00     0.190 A 
BRANCH  34  35
HETATM   35  N2  UNL     1      59.157   0.624  14.863  1.00  0.00    -0.075 N 
ATOM     36  H23 UNL     1      58.655   0.563  13.978  1.00  0.00     0.274 HD
ATOM     37  H22 UNL     1      58.524   0.126  15.489  1.00  0.00     0.274 HD
ATOM     38  H21 UNL     1      59.197   1.603  15.148  1.00  0.00     0.274 HD
ENDBRANCH  34  35
ENDBRANCH  28  32
ENDBRANCH  27  28
ENDBRANCH  25  27
ENDBRANCH  24  25
ENDBRANCH  21  24
ENDBRANCH  19  20
ENDBRANCH   1  19
BRANCH  16  39
HETATM   39  C22 UNL     1      54.550   4.272  14.551  1.00  0.00     0.178 C 
HETATM   40  O7  UNL     1      55.494   3.581  14.999  1.00  0.00    -0.648 OA
HETATM   41  O8  UNL     1      53.277   4.004  15.030  1.00  0.00    -0.648 OA
ENDBRANCH  16  39
TORSDOF 10
ENDMDL
MODEL 2
REMARK VINA RESULT: -7.478243606      1.458      1.817
REMARK  10 active torsions:
REMARK  status: ('A' for Active; 'I' for Inactive)
REMARK    1  A    between atoms: C2_2  and  C4_4 
REMARK    2  A    between atoms: C4_4  and  O1_5 
REMARK    3  A    between atoms: C4_4  and  C25_35 
REMARK    4  A    between atoms: O1_5  and  C5_6 
REMARK    5  A    between atoms: C5_6  and  C6_8 
REMARK    6  A    between atoms: C6_8  and  N1_9 
REMARK       I    between atoms: N1_9  and  C7_11 
REMARK    7  A    between atoms: C7_11  and  O4_13 
REMARK    8  A    between atoms: O4_13  and  C8_14 
REMARK    9  A    between atoms: C21_29  and  C22_30 
REMARK   10  A    between atoms: C27_37  and  N2_38 
ROOT
HETATM    1  C8  UNL     1      58.229   2.347   9.544  1.00  0.00     0.164 C 
HETATM    2  C9  UNL     1      57.668   3.265   8.490  1.00  0.00     0.201 C 
HETATM    3  O5  UNL     1      58.191   4.492   8.889  1.00  0.00    -0.382 OA
HETATM    4  C10 UNL     1      58.168   4.569  10.253  1.00  0.00     0.139 C 
HETATM    5  C11 UNL     1      58.010   3.150  10.785  1.00  0.00     0.048 C 
HETATM    6  C12 UNL     1      56.568   3.151  11.239  1.00  0.00     0.016 C 
HETATM    7  C13 UNL     1      56.365   4.520  11.832  1.00  0.00     0.009 C 
HETATM    8  C14 UNL     1      57.087   5.399  10.854  1.00  0.00     0.089 C 
HETATM    9  C15 UNL     1      56.255   5.981   9.801  1.00  0.00     0.134 C 
HETATM   10  O6  UNL     1      56.733   6.335   8.759  1.00  0.00    -0.297 OA
HETATM   11  C16 UNL     1      54.775   6.155   9.998  1.00  0.00     0.084 C 
HETATM   12  C17 UNL     1      54.590   6.215  11.468  1.00  0.00     0.002 C 
HETATM   13  C18 UNL     1      53.206   6.374  11.975  1.00  0.00     0.011 C 
HETATM   14  C19 UNL     1      53.381   6.072  13.470  1.00  0.00    -0.003 C 
HETATM   15  C20 UNL     1      53.576   7.421  14.139  1.00  0.00     0.011 C 
HETATM   16  C21 UNL     1      54.715   5.317  13.577  1.00  0.00     0.099 C 
HETATM   17  C23 UNL     1      54.973   4.885  12.146  1.00  0.00    -0.022 C 
HETATM   18  C24 UNL     1      53.965   3.823  11.797  1.00  0.00     0.017 C 
ENDROOT
BRANCH   1  19
HETATM   19  O4  UNL     1      57.640   1.080   9.564  1.00  0.00    -0.296 OA
BRANCH  19  20
HETATM   20  C7  UNL     1      58.190  -0.052  10.155  1.00  0.00     0.361 C 
HETATM   21  N1  UNL     1      58.043  -0.360  11.532  1.00  0.00    -0.328 N 
ATOM     22  H1  UNL     1      57.510   0.256  12.146  1.00  0.00     0.165 HD
HETATM   23  O3  UNL     1      58.837  -0.803   9.392  1.00  0.00    -0.238 OA
BRANCH  21  24
HETATM   24  C6  UNL     1      58.656  -1.551  12.052  1.00  0.00     0.235 C 
BRANCH  24  25
HETATM   25  C5  UNL     1      59.494  -1.346  13.244  1.00  0.00     0.277 C 
HETATM   26  O2  UNL     1      59.237  -0.460  14.064  1.00  0.00    -0.263 OA
BRANCH  25  27
HETATM   27  O1  UNL     1      60.602  -2.128  13.505  1.00  0.00    -0.314 OA
BRANCH  27  28
HETATM   28  C4  UNL     1      60.867  -2.753  14.754  1.00  0.00     0.141 C 
BRANCH  28  29
HETATM   29  C2  UNL     1      62.265  -2.527  15.219  1.00  0.00     0.007 C 
HETATM   30  C1  UNL     1      62.416  -1.993  16.592  1.00  0.00     0.012 C 
HETATM   31  C3  UNL     1      63.074  -1.749  14.210  1.00  0.00     0.012 C 
ENDBRANCH  28  29
BRANCH  28  32
HETATM   32  C25 UNL     1      60.384  -4.164  14.737  1.00  0.00     0.048 A 
HETATM   33  C26 UNL     1      60.600  -5.171  15.759  1.00  0.00     0.042 A 
HETATM   34  C27 UNL     1      59.242  -4.582  15.690  1.00  0.00     0.190 A 
BRANCH  34  35
HETATM   35  N2  UNL     1      58.127  -5.305  15.170  1.00  0.00    -0.075 N 
ATOM     36  H23 UNL     1      57.270  -4.871  15.511  1.00  0.00     0.274 HD
ATOM     37  H22 UNL     1      58.059  -5.124  14.168  1.00  0.00     0.274 HD
ATOM     38  H21 UNL     1      58.067  -6.311  15.326  1.00  0.00     0.274 HD
ENDBRANCH  34  35
ENDBRANCH  28  32
ENDBRANCH  27  28
ENDBRANCH  25  27
ENDBRANCH  24  25
ENDBRANCH  21  24
ENDBRANCH  19  20
ENDBRANCH   1  19
BRANCH  16  39
HETATM   39  C22 UNL     1      54.547   4.225  14.526  1.00  0.00     0.178 C 
HETATM   40  O7  UNL     1      55.468   3.449  14.872  1.00  0.00    -0.648 OA
HETATM   41  O8  UNL     1      53.295   4.023  15.087  1.00  0.00    -0.648 OA
ENDBRANCH  16  39
TORSDOF 10
ENDMDL
MODEL 3
REMARK VINA RESULT: -7.347582367      1.068      1.953
REMARK  10 active torsions:
REMARK  status: ('A' for Active; 'I' for Inactive)
REMARK    1  A    between atoms: C2_2  and  C4_4 
REMARK    2  A    between atoms: C4_4  and  O1_5 
REMARK    3  A    between atoms: C4_4  and  C25_35 
REMARK    4  A    between atoms: O1_5  and  C5_6 
REMARK    5  A    between atoms: C5_6  and  C6_8 
REMARK    6  A    between atoms: C6_8  and  N1_9 
REMARK       I    between atoms: N1_9  and  C7_11 
REMARK    7  A    between atoms: C7_11  and  O4_13 
REMARK    8  A    between atoms: O4_13  and  C8_14 
REMARK    9  A    between atoms: C21_29  and  C22_30 
REMARK   10  A    between atoms: C27_37  and  N2_38 
ROOT
HETATM    1  C8  UNL     1      58.238   2.297   9.599  1.00  0.00     0.164 C 
HETATM    2  C9  UNL     1      57.689   3.207   8.532  1.00  0.00     0.201 C 
HETATM    3  O5  UNL     1      58.211   4.437   8.926  1.00  0.00    -0.382 OA
HETATM    4  C10 UNL     1      58.176   4.525  10.289  1.00  0.00     0.139 C 
HETATM    5  C11 UNL     1      58.009   3.111  10.832  1.00  0.00     0.048 C 
HETATM    6  C12 UNL     1      56.563   3.118  11.272  1.00  0.00     0.016 C 
HETATM    7  C13 UNL     1      56.357   4.493  11.852  1.00  0.00     0.009 C 
HETATM    8  C14 UNL     1      57.091   5.362  10.873  1.00  0.00     0.089 C 
HETATM    9  C15 UNL     1      56.270   5.938   9.808  1.00  0.00     0.134 C 
HETATM   10  O6  UNL     1      56.759   6.281   8.768  1.00  0.00    -0.297 OA
HETATM   11  C16 UNL     1      54.789   6.116   9.990  1.00  0.00     0.084 C 
HETATM   12  C17 UNL     1      54.590   6.189  11.457  1.00  0.00     0.002 C 
HETATM   13  C18 UNL     1      53.201   6.355  11.950  1.00  0.00     0.011 C 
HETATM   14  C19 UNL     1      53.362   6.065  13.449  1.00  0.00    -0.003 C 
HETATM   15  C20 UNL     1      53.553   7.419  14.109  1.00  0.00     0.011 C 
HETATM   16  C21 UNL     1      54.693   5.308  13.574  1.00  0.00     0.099 C 
HETATM   17  C23 UNL     1      54.964   4.863  12.150  1.00  0.00    -0.022 C 
HETATM   18  C24 UNL     1      53.956   3.801  11.800  1.00  0.00     0.017 C 
ENDROOT
BRANCH   1  19
HETATM   19  O4  UNL     1      57.646   1.031   9.624  1.00  0.00    -0.296 OA
BRANCH  19  20
HETATM   20  C7  UNL     1      58.316  -0.164   9.860  1.00  0.00     0.361 C 
HETATM   21  N1  UNL     1      58.436  -0.749  11.146  1.00  0.00    -0.328 N 
ATOM     22  H1  UNL     1      58.016  -0.298  11.960  1.00  0.00     0.165 HD
HETATM   23  O3  UNL     1      58.821  -0.710   8.854  1.00  0.00    -0.238 OA
BRANCH  21  24
HETATM   24  C6  UNL     1      59.155  -1.985  11.290  1.00  0.00     0.235 C 
BRANCH  24  25
HETATM   25  C5  UNL     1      58.953  -2.673  12.574  1.00  0.00     0.277 C 
HETATM   26  O2  UNL     1      58.558  -3.841  12.621  1.00  0.00    -0.263 OA
BRANCH  25  27
HETATM   27  O1  UNL     1      59.192  -2.052  13.785  1.00  0.00    -0.314 OA
BRANCH  27  28
HETATM   28  C4  UNL     1      60.455  -2.020  14.435  1.00  0.00     0.141 C 
BRANCH  28  29
HETATM   29  C2  UNL     1      60.709  -0.722  15.123  1.00  0.00     0.007 C 
HETATM   30  C1  UNL     1      60.971  -0.797  16.578  1.00  0.00     0.012 C 
HETATM   31  C3  UNL     1      59.661   0.309  14.783  1.00  0.00     0.012 C 
ENDBRANCH  28  29
BRANCH  28  32
HETATM   32  C25 UNL     1      61.521  -2.513  13.516  1.00  0.00     0.048 A 
HETATM   33  C26 UNL     1      62.953  -2.466  13.738  1.00  0.00     0.042 A 
HETATM   34  C27 UNL     1      62.306  -3.790  13.888  1.00  0.00     0.190 A 
BRANCH  34  35
HETATM   35  N2  UNL     1      62.461  -4.824  12.918  1.00  0.00    -0.075 N 
ATOM     36  H23 UNL     1      62.426  -5.725  13.393  1.00  0.00     0.274 HD
ATOM     37  H22 UNL     1      61.616  -4.865  12.347  1.00  0.00     0.274 HD
ATOM     38  H21 UNL     1      63.272  -4.813  12.300  1.00  0.00     0.274 HD
ENDBRANCH  34  35
ENDBRANCH  28  32
ENDBRANCH  27  28
ENDBRANCH  25  27
ENDBRANCH  24  25
ENDBRANCH  21  24
ENDBRANCH  19  20
ENDBRANCH   1  19
BRANCH  16  39
HETATM   39  C22 UNL     1      54.513   4.224  14.531  1.00  0.00     0.178 C 
HETATM   40  O7  UNL     1      55.434   3.462  14.907  1.00  0.00    -0.648 OA
HETATM   41  O8  UNL     1      53.251   4.015  15.064  1.00  0.00    -0.648 OA
ENDBRANCH  16  39
TORSDOF 10
ENDMDL
MODEL 4
REMARK VINA RESULT: -7.321165975      5.719      9.982
REMARK  10 active torsions:
REMARK  status: ('A' for Active; 'I' for Inactive)
REMARK    1  A    between atoms: C2_2  and  C4_4 
REMARK    2  A    between atoms: C4_4  and  O1_5 
REMARK    3  A    between atoms: C4_4  and  C25_35 
REMARK    4  A    between atoms: O1_5  and  C5_6 
REMARK    5  A    between atoms: C5_6  and  C6_8 
REMARK    6  A    between atoms: C6_8  and  N1_9 
REMARK       I    between atoms: N1_9  and  C7_11 
REMARK    7  A    between atoms: C7_11  and  O4_13 
REMARK    8  A    between atoms: O4_13  and  C8_14 
REMARK    9  A    between atoms: C21_29  and  C22_30 
REMARK   10  A    between atoms: C27_37  and  N2_38 
ROOT
HETATM    1  C8  UNL     1      58.543   3.462   6.038  1.00  0.00     0.164 C 
HETATM    2  C9  UNL     1      58.142   3.002   4.661  1.00  0.00     0.201 C 
HETATM    3  O5  UNL     1      59.334   2.452   4.198  1.00  0.00    -0.382 OA
HETATM    4  C10 UNL     1      60.380   3.224   4.619  1.00  0.00     0.139 C 
HETATM    5  C11 UNL     1      59.872   4.088   5.767  1.00  0.00     0.048 C 
HETATM    6  C12 UNL     1      59.762   5.443   5.107  1.00  0.00     0.016 C 
HETATM    7  C13 UNL     1      60.958   5.512   4.194  1.00  0.00     0.009 C 
HETATM    8  C14 UNL     1      60.986   4.132   3.606  1.00  0.00     0.089 C 
HETATM    9  C15 UNL     1      60.301   3.983   2.322  1.00  0.00     0.134 C 
HETATM   10  O6  UNL     1      59.892   2.915   1.960  1.00  0.00    -0.297 OA
HETATM   11  C16 UNL     1      60.093   5.167   1.420  1.00  0.00     0.084 C 
HETATM   12  C17 UNL     1      61.156   6.128   1.799  1.00  0.00     0.002 C 
HETATM   13  C18 UNL     1      61.196   7.421   1.074  1.00  0.00     0.011 C 
HETATM   14  C19 UNL     1      62.173   8.234   1.935  1.00  0.00    -0.003 C 
HETATM   15  C20 UNL     1      63.536   8.051   1.292  1.00  0.00     0.011 C 
HETATM   16  C21 UNL     1      62.212   7.516   3.292  1.00  0.00     0.099 C 
HETATM   17  C23 UNL     1      60.977   6.636   3.243  1.00  0.00    -0.022 C 
HETATM   18  C24 UNL     1      59.770   7.533   3.325  1.00  0.00     0.017 C 
ENDROOT
BRANCH   1  19
HETATM   19  O4  UNL     1      57.615   4.314   6.644  1.00  0.00    -0.296 OA
BRANCH  19  20
HETATM   20  C7  UNL     1      57.626   4.690   7.982  1.00  0.00     0.361 C 
HETATM   21  N1  UNL     1      57.216   5.970   8.435  1.00  0.00    -0.328 N 
ATOM     22  H1  UNL     1      56.887   6.672   7.771  1.00  0.00     0.165 HD
HETATM   23  O3  UNL     1      58.025   3.820   8.787  1.00  0.00    -0.238 OA
BRANCH  21  24
HETATM   24  C6  UNL     1      57.269   6.267   9.840  1.00  0.00     0.235 C 
BRANCH  24  25
HETATM   25  C5  UNL     1      56.037   6.845  10.397  1.00  0.00     0.277 C 
HETATM   26  O2  UNL     1      55.876   8.067  10.470  1.00  0.00    -0.263 OA
BRANCH  25  27
HETATM   27  O1  UNL     1      55.003   6.057  10.865  1.00  0.00    -0.314 OA
BRANCH  27  28
HETATM   28  C4  UNL     1      55.063   5.275  12.049  1.00  0.00     0.141 C 
BRANCH  28  29
HETATM   29  C2  UNL     1      55.360   3.841  11.771  1.00  0.00     0.007 C 
HETATM   30  C1  UNL     1      56.788   3.451  11.814  1.00  0.00     0.012 C 
HETATM   31  C3  UNL     1      54.672   3.357  10.518  1.00  0.00     0.012 C 
ENDBRANCH  28  29
BRANCH  28  32
HETATM   32  C25 UNL     1      53.884   5.561  12.917  1.00  0.00     0.048 A 
HETATM   33  C26 UNL     1      53.595   4.980  14.214  1.00  0.00     0.042 A 
HETATM   34  C27 UNL     1      54.080   6.379  14.211  1.00  0.00     0.190 A 
BRANCH  34  35
HETATM   35  N2  UNL     1      53.216   7.482  14.480  1.00  0.00    -0.075 N 
ATOM     36  H23 UNL     1      53.637   8.327  14.095  1.00  0.00     0.274 HD
ATOM     37  H22 UNL     1      52.382   7.391  13.900  1.00  0.00     0.274 HD
ATOM     38  H21 UNL     1      52.928   7.670  15.440  1.00  0.00     0.274 HD
ENDBRANCH  34  35
ENDBRANCH  28  32
ENDBRANCH  27  28
ENDBRANCH  25  27
ENDBRANCH  24  25
ENDBRANCH  21  24
ENDBRANCH  19  20
ENDBRANCH   1  19
BRANCH  16  39
HETATM   39  C22 UNL     1      62.205   8.524   4.344  1.00  0.00     0.178 C 
HETATM   40  O7  UNL     1      62.390   8.272   5.557  1.00  0.00    -0.648 OA
HETATM   41  O8  UNL     1      61.983   9.846   3.991  1.00  0.00    -0.648 OA
ENDBRANCH  16  39
TORSDOF 10
ENDMDL
MODEL 5
REMARK VINA RESULT: -7.198469063      1.240      2.137
REMARK  10 active torsions:
REMARK  status: ('A' for Active; 'I' for Inactive)
REMARK    1  A    between atoms: C2_2  and  C4_4 
REMARK    2  A    between atoms: C4_4  and  O1_5 
REMARK    3  A    between atoms: C4_4  and  C25_35 
REMARK    4  A    between atoms: O1_5  and  C5_6 
REMARK    5  A    between atoms: C5_6  and  C6_8 
REMARK    6  A    between atoms: C6_8  and  N1_9 
REMARK       I    between atoms: N1_9  and  C7_11 
REMARK    7  A    between atoms: C7_11  and  O4_13 
REMARK    8  A    between atoms: O4_13  and  C8_14 
REMARK    9  A    between atoms: C21_29  and  C22_30 
REMARK   10  A    between atoms: C27_37  and  N2_38 
ROOT
HETATM    1  C8  UNL     1      58.273   2.298   9.568  1.00  0.00     0.164 C 
HETATM    2  C9  UNL     1      57.721   3.210   8.505  1.00  0.00     0.201 C 
HETATM    3  O5  UNL     1      58.241   4.440   8.902  1.00  0.00    -0.382 OA
HETATM    4  C10 UNL     1      58.207   4.524  10.266  1.00  0.00     0.139 C 
HETATM    5  C11 UNL     1      58.044   3.107  10.804  1.00  0.00     0.048 C 
HETATM    6  C12 UNL     1      56.599   3.110  11.246  1.00  0.00     0.016 C 
HETATM    7  C13 UNL     1      56.391   4.482  11.831  1.00  0.00     0.009 C 
HETATM    8  C14 UNL     1      57.121   5.357  10.854  1.00  0.00     0.089 C 
HETATM    9  C15 UNL     1      56.298   5.934   9.792  1.00  0.00     0.134 C 
HETATM   10  O6  UNL     1      56.784   6.282   8.752  1.00  0.00    -0.297 OA
HETATM   11  C16 UNL     1      54.816   6.108   9.976  1.00  0.00     0.084 C 
HETATM   12  C17 UNL     1      54.619   6.175  11.443  1.00  0.00     0.002 C 
HETATM   13  C18 UNL     1      53.231   6.336  11.939  1.00  0.00     0.011 C 
HETATM   14  C19 UNL     1      53.394   6.043  13.436  1.00  0.00    -0.003 C 
HETATM   15  C20 UNL     1      53.583   7.395  14.101  1.00  0.00     0.011 C 
HETATM   16  C21 UNL     1      54.727   5.288  13.558  1.00  0.00     0.099 C 
HETATM   17  C23 UNL     1      54.997   4.848  12.131  1.00  0.00    -0.022 C 
HETATM   18  C24 UNL     1      53.991   3.785  11.779  1.00  0.00     0.017 C 
ENDROOT
BRANCH   1  19
HETATM   19  O4  UNL     1      57.684   1.031   9.590  1.00  0.00    -0.296 OA
BRANCH  19  20
HETATM   20  C7  UNL     1      58.217  -0.091  10.214  1.00  0.00     0.361 C 
HETATM   21  N1  UNL     1      58.019  -0.388  11.586  1.00  0.00    -0.328 N 
ATOM     22  H1  UNL     1      57.457   0.230  12.172  1.00  0.00     0.165 HD
HETATM   23  O3  UNL     1      58.899  -0.845   9.484  1.00  0.00    -0.238 OA
BRANCH  21  24
HETATM   24  C6  UNL     1      58.618  -1.571  12.141  1.00  0.00     0.235 C 
BRANCH  24  25
HETATM   25  C5  UNL     1      59.579  -1.325  13.227  1.00  0.00     0.277 C 
HETATM   26  O2  UNL     1      59.254  -0.709  14.245  1.00  0.00    -0.263 OA
BRANCH  25  27
HETATM   27  O1  UNL     1      60.886  -1.768  13.163  1.00  0.00    -0.314 OA
BRANCH  27  28
HETATM   28  C4  UNL     1      61.268  -3.136  13.107  1.00  0.00     0.141 C 
BRANCH  28  29
HETATM   29  C2  UNL     1      62.130  -3.535  14.256  1.00  0.00     0.007 C 
HETATM   30  C1  UNL     1      61.431  -3.788  15.537  1.00  0.00     0.012 C 
HETATM   31  C3  UNL     1      63.310  -2.609  14.421  1.00  0.00     0.012 C 
ENDBRANCH  28  29
BRANCH  28  32
HETATM   32  C25 UNL     1      61.766  -3.477  11.743  1.00  0.00     0.048 A 
HETATM   33  C26 UNL     1      61.889  -4.802  11.167  1.00  0.00     0.042 A 
HETATM   34  C27 UNL     1      60.765  -3.972  10.676  1.00  0.00     0.190 A 
BRANCH  34  35
HETATM   35  N2  UNL     1      60.772  -3.375   9.380  1.00  0.00    -0.075 N 
ATOM     36  H23 UNL     1      61.725  -3.091   9.157  1.00  0.00     0.274 HD
ATOM     37  H22 UNL     1      60.611  -4.104   8.685  1.00  0.00     0.274 HD
ATOM     38  H21 UNL     1      60.146  -2.593   9.186  1.00  0.00     0.274 HD
ENDBRANCH  34  35
ENDBRANCH  28  32
ENDBRANCH  27  28
ENDBRANCH  25  27
ENDBRANCH  24  25
ENDBRANCH  21  24
ENDBRANCH  19  20
ENDBRANCH   1  19
BRANCH  16  39
HETATM   39  C22 UNL     1      54.551   4.200  14.511  1.00  0.00     0.178 C 
HETATM   40  O7  UNL     1      55.480   3.460  14.908  1.00  0.00    -0.648 OA
HETATM   41  O8  UNL     1      53.283   3.962  15.017  1.00  0.00    -0.648 OA
ENDBRANCH  16  39
TORSDOF 10
ENDMDL
