MODEL 1
REMARK VINA RESULT: -6.823560507      0.000      0.000
REMARK  11 active torsions:
REMARK  status: ('A' for Active; 'I' for Inactive)
REMARK    1  A    between atoms: C3_3  and  C4_4 
REMARK    2  A    between atoms: C4_4  and  O1_5 
REMARK    3  A    between atoms: C4_4  and  C10_15 
REMARK    4  A    between atoms: O1_5  and  C5_6 
REMARK       I    between atoms: C5_6  and  N1_8 
REMARK    5  A    between atoms: N1_8  and  C6_10 
REMARK    6  A    between atoms: C6_10  and  C7_11 
REMARK    7  A    between atoms: C7_11  and  N2_12 
REMARK    8  A    between atoms: C10_15  and  O3_16 
REMARK    9  A    between atoms: C17_25  and  O5_26 
REMARK   10  A    between atoms: O5_26  and  C18_27 
REMARK   11  A    between atoms: C21_31  and  O7_32 
ROOT
HETATM    1  C1  UNL     1      58.389  -0.432  10.334  1.00  0.00     0.012 C 
HETATM    2  C2  UNL     1      58.015  -0.083   9.250  1.00  0.00    -0.115 C 
HETATM    3  C3  UNL     1      57.536   0.330   7.968  1.00  0.00     0.129 C 
ENDROOT
BRANCH   3   4
HETATM    4  C4  UNL     1      57.882   1.715   7.508  1.00  0.00     0.183 C 
BRANCH   4   5
HETATM    5  O1  UNL     1      58.339   2.568   8.486  1.00  0.00    -0.294 OA
BRANCH   5   6
HETATM    6  C5  UNL     1      57.670   3.527   9.182  1.00  0.00     0.361 C 
HETATM    7  O2  UNL     1      57.626   4.624   8.633  1.00  0.00    -0.239 OA
HETATM    8  N1  UNL     1      57.055   3.342  10.439  1.00  0.00    -0.335 N 
ATOM      9  H1  UNL     1      57.114   2.415  10.860  1.00  0.00     0.164 HD
BRANCH   8  10
HETATM   10  C6  UNL     1      56.350   4.361  11.175  1.00  0.00     0.155 C 
BRANCH  10  11
HETATM   11  C7  UNL     1      54.901   4.483  10.777  1.00  0.00     0.291 C 
BRANCH  11  12
HETATM   12  N2  UNL     1      54.397   5.823  10.960  1.00  0.00     0.081 N 
HETATM   13  C8  UNL     1      55.389   6.838  10.678  1.00  0.00     0.309 C 
HETATM   14  C9  UNL     1      53.786   6.020  12.250  1.00  0.00     0.309 C 
ENDBRANCH  11  12
ENDBRANCH  10  11
ENDBRANCH   8  10
ENDBRANCH   5   6
ENDBRANCH   4   5
BRANCH   4  15
HETATM   15  C10 UNL     1      58.417   1.891   6.146  1.00  0.00     0.116 C 
HETATM   16  C11 UNL     1      57.278   2.321   5.286  1.00  0.00     0.086 C 
HETATM   17  C12 UNL     1      57.476   2.685   3.878  1.00  0.00     0.091 A 
HETATM   18  C13 UNL     1      57.521   4.174   3.461  1.00  0.00     0.049 C 
HETATM   19  O4  UNL     1      56.288   2.144   3.097  1.00  0.00    -0.365 OA
HETATM   20  C14 UNL     1      57.563   1.758   2.826  1.00  0.00     0.188 A 
HETATM   21  C15 UNL     1      57.882   0.352   3.126  1.00  0.00    -0.024 C 
HETATM   22  C16 UNL     1      58.365  -0.297   2.072  1.00  0.00     0.020 C 
HETATM   23  C17 UNL     1      57.817  -0.545   4.302  1.00  0.00     0.195 C 
HETATM   24  C20 UNL     1      59.121  -0.372   5.040  1.00  0.00    -0.008 C 
HETATM   25  C21 UNL     1      59.494  -1.587   5.811  1.00  0.00     0.156 C 
HETATM   26  C29 UNL     1      59.411   0.970   5.558  1.00  0.00    -0.011 C 
HETATM   27  C22 UNL     1      60.702  -1.507   6.641  1.00  0.00     0.035 C 
HETATM   28  C23 UNL     1      62.039  -1.609   5.987  1.00  0.00     0.042 C 
HETATM   29  C26 UNL     1      61.098  -0.145   7.087  1.00  0.00     0.050 C 
HETATM   30  C24 UNL     1      62.510  -0.631   7.040  1.00  0.00    -0.080 C 
HETATM   31  C25 UNL     1      63.682  -0.387   7.614  1.00  0.00     0.015 C 
HETATM   32  C27 UNL     1      60.788   0.939   6.081  1.00  0.00    -0.065 C 
HETATM   33  C28 UNL     1      61.467   2.167   6.534  1.00  0.00     0.044 C 
BRANCH  15  34
HETATM   34  O3  UNL     1      59.221   3.117   6.179  1.00  0.00    -0.382 OA
ATOM     35  H3  UNL     1      59.501   3.225   7.080  1.00  0.00     0.211 HD
ENDBRANCH  15  34
BRANCH  23  36
HETATM   36  O5  UNL     1      57.775  -1.875   3.804  1.00  0.00    -0.307 OA
BRANCH  36  37
HETATM   37  C18 UNL     1      56.708  -2.736   4.031  1.00  0.00     0.255 C 
HETATM   38  C19 UNL     1      55.323  -2.248   4.162  1.00  0.00     0.126 C 
HETATM   39  O6  UNL     1      56.952  -3.986   4.126  1.00  0.00    -0.266 OA
ENDBRANCH  36  37
ENDBRANCH  23  36
BRANCH  25  40
HETATM   40  O7  UNL     1      59.760  -2.616   4.857  1.00  0.00    -0.391 OA
ATOM     41  H7  UNL     1      58.932  -2.830   4.444  1.00  0.00     0.210 HD
ENDBRANCH  25  40
ENDBRANCH   4  15
ENDBRANCH   3   4
TORSDOF 11
ENDMDL
MODEL 2
REMARK VINA RESULT: -6.737560493      1.720      4.863
REMARK  11 active torsions:
REMARK  status: ('A' for Active; 'I' for Inactive)
REMARK    1  A    between atoms: C3_3  and  C4_4 
REMARK    2  A    between atoms: C4_4  and  O1_5 
REMARK    3  A    between atoms: C4_4  and  C10_15 
REMARK    4  A    between atoms: O1_5  and  C5_6 
REMARK       I    between atoms: C5_6  and  N1_8 
REMARK    5  A    between atoms: N1_8  and  C6_10 
REMARK    6  A    between atoms: C6_10  and  C7_11 
REMARK    7  A    between atoms: C7_11  and  N2_12 
REMARK    8  A    between atoms: C10_15  and  O3_16 
REMARK    9  A    between atoms: C17_25  and  O5_26 
REMARK   10  A    between atoms: O5_26  and  C18_27 
REMARK   11  A    between atoms: C21_31  and  O7_32 
ROOT
HETATM    1  C1  UNL     1      58.379  -0.413  11.123  1.00  0.00     0.012 C 
HETATM    2  C2  UNL     1      58.088  -0.253   9.971  1.00  0.00    -0.115 C 
HETATM    3  C3  UNL     1      57.708  -0.056   8.607  1.00  0.00     0.129 C 
ENDROOT
BRANCH   3   4
HETATM    4  C4  UNL     1      58.337   1.086   7.866  1.00  0.00     0.183 C 
BRANCH   4   5
HETATM    5  O1  UNL     1      58.557   2.224   8.608  1.00  0.00    -0.294 OA
BRANCH   5   6
HETATM    6  C5  UNL     1      57.802   3.352   8.710  1.00  0.00     0.361 C 
HETATM    7  O2  UNL     1      57.768   4.042   7.695  1.00  0.00    -0.239 OA
HETATM    8  N1  UNL     1      57.092   3.755   9.861  1.00  0.00    -0.335 N 
ATOM      9  H1  UNL     1      57.146   3.152  10.682  1.00  0.00     0.164 HD
BRANCH   8  10
HETATM   10  C6  UNL     1      56.296   4.951   9.968  1.00  0.00     0.155 C 
BRANCH  10  11
HETATM   11  C7  UNL     1      54.928   4.703  10.550  1.00  0.00     0.291 C 
BRANCH  11  12
HETATM   12  N2  UNL     1      54.400   5.870  11.215  1.00  0.00     0.081 N 
HETATM   13  C8  UNL     1      55.214   7.049  11.011  1.00  0.00     0.309 C 
HETATM   14  C9  UNL     1      54.131   5.644  12.612  1.00  0.00     0.309 C 
ENDBRANCH  11  12
ENDBRANCH  10  11
ENDBRANCH   8  10
ENDBRANCH   5   6
ENDBRANCH   4   5
BRANCH   4  15
HETATM   15  C10 UNL     1      59.289   0.783   6.782  1.00  0.00     0.116 C 
HETATM   16  C11 UNL     1      60.551   1.508   7.100  1.00  0.00     0.086 C 
HETATM   17  C12 UNL     1      61.755   1.348   6.276  1.00  0.00     0.091 A 
HETATM   18  C13 UNL     1      62.908   0.436   6.756  1.00  0.00     0.049 C 
HETATM   19  O4  UNL     1      62.417   2.713   6.167  1.00  0.00    -0.365 OA
HETATM   20  C14 UNL     1      61.985   2.033   5.072  1.00  0.00     0.188 A 
HETATM   21  C15 UNL     1      60.850   2.634   4.352  1.00  0.00    -0.024 C 
HETATM   22  C16 UNL     1      61.113   2.844   3.067  1.00  0.00     0.020 C 
HETATM   23  C17 UNL     1      59.471   3.068   4.676  1.00  0.00     0.195 C 
HETATM   24  C20 UNL     1      58.593   1.854   4.501  1.00  0.00    -0.008 C 
HETATM   25  C21 UNL     1      57.196   2.221   4.152  1.00  0.00     0.156 C 
HETATM   26  C29 UNL     1      58.879   0.705   5.365  1.00  0.00    -0.011 C 
HETATM   27  C22 UNL     1      56.225   1.124   4.041  1.00  0.00     0.035 C 
HETATM   28  C23 UNL     1      56.226   0.278   2.813  1.00  0.00     0.042 C 
HETATM   29  C26 UNL     1      56.544  -0.108   4.810  1.00  0.00     0.050 C 
HETATM   30  C24 UNL     1      55.842  -0.863   3.728  1.00  0.00    -0.080 C 
HETATM   31  C25 UNL     1      55.171  -1.996   3.560  1.00  0.00     0.015 C 
HETATM   32  C27 UNL     1      58.022  -0.402   4.905  1.00  0.00    -0.065 C 
HETATM   33  C28 UNL     1      58.166  -1.765   5.448  1.00  0.00     0.044 C 
BRANCH  15  34
HETATM   34  O3  UNL     1      59.707  -0.609   6.986  1.00  0.00    -0.382 OA
ATOM     35  H3  UNL     1      60.334  -0.798   6.298  1.00  0.00     0.211 HD
ENDBRANCH  15  34
BRANCH  23  36
HETATM   36  O5  UNL     1      59.097   4.020   3.690  1.00  0.00    -0.307 OA
BRANCH  36  37
HETATM   37  C18 UNL     1      58.877   5.362   3.977  1.00  0.00     0.255 C 
HETATM   38  C19 UNL     1      59.852   6.170   4.732  1.00  0.00     0.126 C 
HETATM   39  O6  UNL     1      57.792   5.895   3.567  1.00  0.00    -0.266 OA
ENDBRANCH  36  37
ENDBRANCH  23  36
BRANCH  25  40
HETATM   40  O7  UNL     1      57.236   2.819   2.856  1.00  0.00    -0.391 OA
ATOM     41  H7  UNL     1      56.372   3.178   2.691  1.00  0.00     0.210 HD
ENDBRANCH  25  40
ENDBRANCH   4  15
ENDBRANCH   3   4
TORSDOF 11
ENDMDL
MODEL 3
REMARK VINA RESULT: -6.552189366      1.608      2.812
REMARK  11 active torsions:
REMARK  status: ('A' for Active; 'I' for Inactive)
REMARK    1  A    between atoms: C3_3  and  C4_4 
REMARK    2  A    between atoms: C4_4  and  O1_5 
REMARK    3  A    between atoms: C4_4  and  C10_15 
REMARK    4  A    between atoms: O1_5  and  C5_6 
REMARK       I    between atoms: C5_6  and  N1_8 
REMARK    5  A    between atoms: N1_8  and  C6_10 
REMARK    6  A    between atoms: C6_10  and  C7_11 
REMARK    7  A    between atoms: C7_11  and  N2_12 
REMARK    8  A    between atoms: C10_15  and  O3_16 
REMARK    9  A    between atoms: C17_25  and  O5_26 
REMARK   10  A    between atoms: O5_26  and  C18_27 
REMARK   11  A    between atoms: C21_31  and  O7_32 
ROOT
HETATM    1  C1  UNL     1      58.354  -0.356   9.904  1.00  0.00     0.012 C 
HETATM    2  C2  UNL     1      58.743   0.597   9.289  1.00  0.00    -0.115 C 
HETATM    3  C3  UNL     1      59.234   1.713   8.542  1.00  0.00     0.129 C 
ENDROOT
BRANCH   3   4
HETATM    4  C4  UNL     1      58.317   2.329   7.527  1.00  0.00     0.183 C 
BRANCH   4   5
HETATM    5  O1  UNL     1      58.097   3.680   7.671  1.00  0.00    -0.294 OA
BRANCH   5   6
HETATM    6  C5  UNL     1      57.495   4.357   8.686  1.00  0.00     0.361 C 
HETATM    7  O2  UNL     1      57.518   5.580   8.572  1.00  0.00    -0.239 OA
HETATM    8  N1  UNL     1      56.876   3.765   9.807  1.00  0.00    -0.335 N 
ATOM      9  H1  UNL     1      56.878   2.747   9.862  1.00  0.00     0.164 HD
BRANCH   8  10
HETATM   10  C6  UNL     1      56.240   4.486  10.881  1.00  0.00     0.155 C 
BRANCH  10  11
HETATM   11  C7  UNL     1      54.765   4.700  10.660  1.00  0.00     0.291 C 
BRANCH  11  12
HETATM   12  N2  UNL     1      54.327   5.994  11.124  1.00  0.00     0.081 N 
HETATM   13  C8  UNL     1      55.311   7.032  10.901  1.00  0.00     0.309 C 
HETATM   14  C9  UNL     1      53.874   5.974  12.492  1.00  0.00     0.309 C 
ENDBRANCH  11  12
ENDBRANCH  10  11
ENDBRANCH   8  10
ENDBRANCH   5   6
ENDBRANCH   4   5
BRANCH   4  15
HETATM   15  C10 UNL     1      58.308   1.778   6.161  1.00  0.00     0.116 C 
HETATM   16  C11 UNL     1      57.143   0.852   6.076  1.00  0.00     0.086 C 
HETATM   17  C12 UNL     1      56.773   0.200   4.814  1.00  0.00     0.091 A 
HETATM   18  C13 UNL     1      55.590   0.742   3.978  1.00  0.00     0.049 C 
HETATM   19  O4  UNL     1      56.339  -1.220   5.145  1.00  0.00    -0.365 OA
HETATM   20  C14 UNL     1      57.385  -0.962   4.315  1.00  0.00     0.188 A 
HETATM   21  C15 UNL     1      58.712  -1.354   4.819  1.00  0.00    -0.024 C 
HETATM   22  C16 UNL     1      59.354  -2.167   3.987  1.00  0.00     0.020 C 
HETATM   23  C17 UNL     1      59.541  -1.077   6.015  1.00  0.00     0.195 C 
HETATM   24  C20 UNL     1      60.324   0.176   5.707  1.00  0.00    -0.008 C 
HETATM   25  C21 UNL     1      61.607   0.230   6.454  1.00  0.00     0.156 C 
HETATM   26  C29 UNL     1      59.545   1.392   5.452  1.00  0.00    -0.011 C 
HETATM   27  C22 UNL     1      62.417   1.446   6.303  1.00  0.00     0.035 C 
HETATM   28  C23 UNL     1      63.223   1.629   5.062  1.00  0.00     0.042 C 
HETATM   29  C26 UNL     1      61.677   2.679   5.925  1.00  0.00     0.050 C 
HETATM   30  C24 UNL     1      62.918   3.103   5.208  1.00  0.00    -0.080 C 
HETATM   31  C25 UNL     1      63.539   4.216   4.838  1.00  0.00     0.015 C 
HETATM   32  C27 UNL     1      60.499   2.427   5.015  1.00  0.00    -0.065 C 
HETATM   33  C28 UNL     1      60.038   3.737   4.517  1.00  0.00     0.044 C 
BRANCH  15  34
HETATM   34  O3  UNL     1      57.863   2.868   5.285  1.00  0.00    -0.382 OA
ATOM     35  H3  UNL     1      58.652   3.249   4.918  1.00  0.00     0.211 HD
ENDBRANCH  15  34
BRANCH  23  36
HETATM   36  O5  UNL     1      60.466  -2.149   6.131  1.00  0.00    -0.307 OA
BRANCH  36  37
HETATM   37  C18 UNL     1      60.359  -3.141   7.098  1.00  0.00     0.255 C 
HETATM   38  C19 UNL     1      60.600  -2.871   8.527  1.00  0.00     0.126 C 
HETATM   39  O6  UNL     1      60.041  -4.318   6.720  1.00  0.00    -0.266 OA
ENDBRANCH  36  37
ENDBRANCH  23  36
BRANCH  25  40
HETATM   40  O7  UNL     1      62.423  -0.829   5.954  1.00  0.00    -0.391 OA
ATOM     41  H7  UNL     1      63.032  -0.441   5.338  1.00  0.00     0.210 HD
ENDBRANCH  25  40
ENDBRANCH   4  15
ENDBRANCH   3   4
TORSDOF 11
ENDMDL
MODEL 4
REMARK VINA RESULT: -6.394165173      2.027      4.809
REMARK  11 active torsions:
REMARK  status: ('A' for Active; 'I' for Inactive)
REMARK    1  A    between atoms: C3_3  and  C4_4 
REMARK    2  A    between atoms: C4_4  and  O1_5 
REMARK    3  A    between atoms: C4_4  and  C10_15 
REMARK    4  A    between atoms: O1_5  and  C5_6 
REMARK       I    between atoms: C5_6  and  N1_8 
REMARK    5  A    between atoms: N1_8  and  C6_10 
REMARK    6  A    between atoms: C6_10  and  C7_11 
REMARK    7  A    between atoms: C7_11  and  N2_12 
REMARK    8  A    between atoms: C10_15  and  O3_16 
REMARK    9  A    between atoms: C17_25  and  O5_26 
REMARK   10  A    between atoms: O5_26  and  C18_27 
REMARK   11  A    between atoms: C21_31  and  O7_32 
ROOT
HETATM    1  C1  UNL     1      57.999  -0.289  10.212  1.00  0.00     0.012 C 
HETATM    2  C2  UNL     1      58.393   0.685   9.637  1.00  0.00    -0.115 C 
HETATM    3  C3  UNL     1      58.895   1.836   8.953  1.00  0.00     0.129 C 
ENDROOT
BRANCH   3   4
HETATM    4  C4  UNL     1      58.451   2.055   7.537  1.00  0.00     0.183 C 
BRANCH   4   5
HETATM    5  O1  UNL     1      57.720   3.199   7.316  1.00  0.00    -0.294 OA
BRANCH   5   6
HETATM    6  C5  UNL     1      57.653   4.341   8.052  1.00  0.00     0.361 C 
HETATM    7  O2  UNL     1      58.371   5.253   7.652  1.00  0.00    -0.239 OA
HETATM    8  N1  UNL     1      56.844   4.529   9.193  1.00  0.00    -0.335 N 
ATOM      9  H1  UNL     1      56.261   3.746   9.490  1.00  0.00     0.164 HD
BRANCH   8  10
HETATM   10  C6  UNL     1      56.776   5.739   9.971  1.00  0.00     0.155 C 
BRANCH  10  11
HETATM   11  C7  UNL     1      55.368   6.124  10.347  1.00  0.00     0.291 C 
BRANCH  11  12
HETATM   12  N2  UNL     1      55.111   5.942  11.755  1.00  0.00     0.081 N 
HETATM   13  C8  UNL     1      55.010   4.548  12.131  1.00  0.00     0.309 C 
HETATM   14  C9  UNL     1      53.979   6.702  12.220  1.00  0.00     0.309 C 
ENDBRANCH  11  12
ENDBRANCH  10  11
ENDBRANCH   8  10
ENDBRANCH   5   6
ENDBRANCH   4   5
BRANCH   4  15
HETATM   15  C10 UNL     1      59.320   1.577   6.446  1.00  0.00     0.116 C 
HETATM   16  C11 UNL     1      60.538   2.436   6.455  1.00  0.00     0.086 C 
HETATM   17  C12 UNL     1      61.668   2.173   5.557  1.00  0.00     0.091 A 
HETATM   18  C13 UNL     1      62.938   1.469   6.092  1.00  0.00     0.049 C 
HETATM   19  O4  UNL     1      62.194   3.518   5.081  1.00  0.00    -0.365 OA
HETATM   20  C14 UNL     1      61.722   2.582   4.214  1.00  0.00     0.188 A 
HETATM   21  C15 UNL     1      60.476   2.931   3.513  1.00  0.00    -0.024 C 
HETATM   22  C16 UNL     1      60.597   2.862   2.192  1.00  0.00     0.020 C 
HETATM   23  C17 UNL     1      59.101   3.336   3.887  1.00  0.00     0.195 C 
HETATM   24  C20 UNL     1      58.320   2.059   4.079  1.00  0.00    -0.008 C 
HETATM   25  C21 UNL     1      56.869   2.246   3.817  1.00  0.00     0.156 C 
HETATM   26  C29 UNL     1      58.787   1.155   5.135  1.00  0.00    -0.011 C 
HETATM   27  C22 UNL     1      55.993   1.092   4.055  1.00  0.00     0.035 C 
HETATM   28  C23 UNL     1      55.953  -0.007   3.049  1.00  0.00     0.042 C 
HETATM   29  C26 UNL     1      56.490   0.088   5.034  1.00  0.00     0.050 C 
HETATM   30  C24 UNL     1      55.759  -0.935   4.227  1.00  0.00    -0.080 C 
HETATM   31  C25 UNL     1      55.177  -2.118   4.386  1.00  0.00     0.015 C 
HETATM   32  C27 UNL     1      57.991  -0.080   5.024  1.00  0.00    -0.065 C 
HETATM   33  C28 UNL     1      58.305  -1.273   5.832  1.00  0.00     0.044 C 
BRANCH  15  34
HETATM   34  O3  UNL     1      59.876   0.298   6.899  1.00  0.00    -0.382 OA
ATOM     35  H3  UNL     1      59.429  -0.376   6.401  1.00  0.00     0.211 HD
ENDBRANCH  15  34
BRANCH  23  36
HETATM   36  O5  UNL     1      58.552   4.015   2.765  1.00  0.00    -0.307 OA
BRANCH  36  37
HETATM   37  C18 UNL     1      58.421   5.397   2.706  1.00  0.00     0.255 C 
HETATM   38  C19 UNL     1      59.126   6.206   1.694  1.00  0.00     0.126 C 
HETATM   39  O6  UNL     1      57.664   5.968   3.560  1.00  0.00    -0.266 OA
ENDBRANCH  36  37
ENDBRANCH  23  36
BRANCH  25  40
HETATM   40  O7  UNL     1      56.734   2.539   2.426  1.00  0.00    -0.391 OA
ATOM     41  H7  UNL     1      57.504   3.033   2.172  1.00  0.00     0.210 HD
ENDBRANCH  25  40
ENDBRANCH   4  15
ENDBRANCH   3   4
TORSDOF 11
ENDMDL
MODEL 5
REMARK VINA RESULT: -6.335103268      3.187      6.584
REMARK  11 active torsions:
REMARK  status: ('A' for Active; 'I' for Inactive)
REMARK    1  A    between atoms: C3_3  and  C4_4 
REMARK    2  A    between atoms: C4_4  and  O1_5 
REMARK    3  A    between atoms: C4_4  and  C10_15 
REMARK    4  A    between atoms: O1_5  and  C5_6 
REMARK       I    between atoms: C5_6  and  N1_8 
REMARK    5  A    between atoms: N1_8  and  C6_10 
REMARK    6  A    between atoms: C6_10  and  C7_11 
REMARK    7  A    between atoms: C7_11  and  N2_12 
REMARK    8  A    between atoms: C10_15  and  O3_16 
REMARK    9  A    between atoms: C17_25  and  O5_26 
REMARK   10  A    between atoms: O5_26  and  C18_27 
REMARK   11  A    between atoms: C21_31  and  O7_32 
ROOT
HETATM    1  C1  UNL     1      55.369   0.467   3.383  1.00  0.00     0.012 C 
HETATM    2  C2  UNL     1      56.147   0.968   4.145  1.00  0.00    -0.115 C 
HETATM    3  C3  UNL     1      57.092   1.535   5.055  1.00  0.00     0.129 C 
ENDROOT
BRANCH   3   4
HETATM    4  C4  UNL     1      57.928   2.682   4.568  1.00  0.00     0.183 C 
BRANCH   4   5
HETATM    5  O1  UNL     1      57.228   3.741   4.036  1.00  0.00    -0.294 OA
BRANCH   5   6
HETATM    6  C5  UNL     1      57.252   4.250   2.775  1.00  0.00     0.361 C 
HETATM    7  O2  UNL     1      56.214   4.094   2.137  1.00  0.00    -0.239 OA
HETATM    8  N1  UNL     1      58.349   4.915   2.185  1.00  0.00    -0.335 N 
ATOM      9  H1  UNL     1      59.191   5.025   2.750  1.00  0.00     0.164 HD
BRANCH   8  10
HETATM   10  C6  UNL     1      58.371   5.452   0.848  1.00  0.00     0.155 C 
BRANCH  10  11
HETATM   11  C7  UNL     1      58.992   4.516  -0.156  1.00  0.00     0.291 C 
BRANCH  11  12
HETATM   12  N2  UNL     1      58.017   3.977  -1.074  1.00  0.00     0.081 N 
HETATM   13  C8  UNL     1      56.872   4.844  -1.247  1.00  0.00     0.309 C 
HETATM   14  C9  UNL     1      57.622   2.631  -0.743  1.00  0.00     0.309 C 
ENDBRANCH  11  12
ENDBRANCH  10  11
ENDBRANCH   8  10
ENDBRANCH   5   6
ENDBRANCH   4   5
BRANCH   4  15
HETATM   15  C10 UNL     1      59.190   2.980   5.269  1.00  0.00     0.116 C 
HETATM   16  C11 UNL     1      60.296   2.668   4.320  1.00  0.00     0.086 C 
HETATM   17  C12 UNL     1      61.696   2.946   4.658  1.00  0.00     0.091 A 
HETATM   18  C13 UNL     1      62.403   4.193   4.073  1.00  0.00     0.049 C 
HETATM   19  O4  UNL     1      62.531   1.793   4.122  1.00  0.00    -0.365 OA
HETATM   20  C14 UNL     1      62.501   2.106   5.445  1.00  0.00     0.188 A 
HETATM   21  C15 UNL     1      61.866   1.110   6.323  1.00  0.00    -0.024 C 
HETATM   22  C16 UNL     1      62.666   0.712   7.306  1.00  0.00     0.020 C 
HETATM   23  C17 UNL     1      60.555   0.427   6.414  1.00  0.00     0.195 C 
HETATM   24  C20 UNL     1      59.665   1.326   7.237  1.00  0.00    -0.008 C 
HETATM   25  C21 UNL     1      58.607   0.564   7.949  1.00  0.00     0.156 C 
HETATM   26  C29 UNL     1      59.399   2.663   6.696  1.00  0.00    -0.011 C 
HETATM   27  C22 UNL     1      57.624   1.341   8.715  1.00  0.00     0.035 C 
HETATM   28  C23 UNL     1      58.014   1.891  10.046  1.00  0.00     0.042 C 
HETATM   29  C26 UNL     1      57.415   2.745   8.271  1.00  0.00     0.050 C 
HETATM   30  C24 UNL     1      57.126   3.066   9.702  1.00  0.00    -0.080 C 
HETATM   31  C25 UNL     1      56.431   3.939  10.419  1.00  0.00     0.015 C 
HETATM   32  C27 UNL     1      58.662   3.406   7.733  1.00  0.00    -0.065 C 
HETATM   33  C28 UNL     1      58.371   4.844   7.590  1.00  0.00     0.044 C 
BRANCH  15  34
HETATM   34  O3  UNL     1      59.282   4.443   5.335  1.00  0.00    -0.382 OA
ATOM     35  H3  UNL     1      58.763   4.773   4.612  1.00  0.00     0.211 HD
ENDBRANCH  15  34
BRANCH  23  36
HETATM   36  O5  UNL     1      60.763  -0.769   7.151  1.00  0.00    -0.307 OA
BRANCH  36  37
HETATM   37  C18 UNL     1      60.666  -2.035   6.585  1.00  0.00     0.255 C 
HETATM   38  C19 UNL     1      59.524  -2.428   5.740  1.00  0.00     0.126 C 
HETATM   39  O6  UNL     1      61.604  -2.870   6.815  1.00  0.00    -0.266 OA
ENDBRANCH  36  37
ENDBRANCH  23  36
BRANCH  25  40
HETATM   40  O7  UNL     1      59.266  -0.260   8.911  1.00  0.00    -0.391 OA
ATOM     41  H7  UNL     1      58.670  -0.968   9.123  1.00  0.00     0.210 HD
ENDBRANCH  25  40
ENDBRANCH   4  15
ENDBRANCH   3   4
TORSDOF 11
ENDMDL
