MODEL 1
REMARK VINA RESULT: -7.299819012      0.000      0.000
REMARK  7 active torsions:
REMARK  status: ('A' for Active; 'I' for Inactive)
REMARK    1  A    between atoms: O1_2  and  C2_3 
REMARK    2  A    between atoms: C5_6  and  N1_7 
REMARK       I    between atoms: N1_7  and  C6_9 
REMARK    3  A    between atoms: C6_9  and  C7_11 
REMARK       I    between atoms: N2_16  and  C11_17 
REMARK    4  A    between atoms: C11_17  and  C12_19 
REMARK    5  A    between atoms: C12_19  and  N3_21 
REMARK       I    between atoms: N3_21  and  C14_23 
REMARK    6  A    between atoms: C14_23  and  C15_25 
REMARK    7  A    between atoms: C16_29  and  C17_30 
ROOT
HETATM    1  C7  UNL     1      59.043   3.193   3.606  1.00  0.00     0.188 C 
HETATM    2  C8  UNL     1      59.876   2.899   2.350  1.00  0.00     0.109 C 
HETATM    3  S1  UNL     1      59.339   4.093   1.100  1.00  0.00    -0.165 SA
HETATM    4  C9  UNL     1      57.637   4.602   1.374  1.00  0.00     0.093 C 
HETATM    5  C10 UNL     1      56.930   3.895   2.465  1.00  0.00     0.137 C 
HETATM    6  N2  UNL     1      57.666   2.984   3.280  1.00  0.00    -0.335 N 
HETATM    7  C11 UNL     1      56.979   1.852   3.794  1.00  0.00     0.243 C 
HETATM    8  O3  UNL     1      55.766   1.703   3.403  1.00  0.00    -0.271 OA
ENDROOT
BRANCH   7   9
HETATM    9  C12 UNL     1      57.569   0.882   4.713  1.00  0.00     0.172 C 
HETATM   10  C13 UNL     1      58.750   0.143   4.079  1.00  0.00     0.042 C 
BRANCH   9  11
HETATM   11  N3  UNL     1      58.136   1.632   5.827  1.00  0.00    -0.346 N 
HETATM   12  C14 UNL     1      57.834   1.265   7.139  1.00  0.00     0.259 C 
HETATM   13  O4  UNL     1      57.065   0.270   7.331  1.00  0.00    -0.270 OA
ATOM     14  H3  UNL     1      58.754   2.423   5.648  1.00  0.00     0.163 HD
BRANCH  12  15
HETATM   15  C15 UNL     1      58.372   1.986   8.329  1.00  0.00     0.339 C 
HETATM   16  N4  UNL     1      57.501   3.067   8.652  1.00  0.00    -0.044 N 
HETATM   17  C16 UNL     1      57.687   3.423  10.021  1.00  0.00     0.230 C 
ATOM     18  H42 UNL     1      57.621   3.863   8.025  1.00  0.00     0.280 HD
ATOM     19  H41 UNL     1      56.527   2.859   8.435  1.00  0.00     0.280 HD
HETATM   20  C21 UNL     1      57.382   2.199  10.884  1.00  0.00     0.114 C 
HETATM   21  S3  UNL     1      58.076   0.898   9.781  1.00  0.00    -0.124 SA
BRANCH  17  22
HETATM   22  C17 UNL     1      56.675   4.507  10.326  1.00  0.00    -0.020 A 
HETATM   23  C18 UNL     1      55.400   4.214  10.664  1.00  0.00     0.017 A 
HETATM   24  C19 UNL     1      54.569   5.270  10.916  1.00  0.00     0.050 A 
HETATM   25  S2  UNL     1      55.575   6.623  10.676  1.00  0.00    -0.113 SA
HETATM   26  C20 UNL     1      57.023   5.823  10.264  1.00  0.00     0.058 A 
ENDBRANCH  17  22
ENDBRANCH  12  15
ENDBRANCH   9  11
ENDBRANCH   7   9
BRANCH   1  27
HETATM   27  C6  UNL     1      59.300   4.552   4.121  1.00  0.00     0.241 C 
HETATM   28  N1  UNL     1      60.443   5.290   3.722  1.00  0.00    -0.355 N 
ATOM     29  H1  UNL     1      61.102   4.875   3.064  1.00  0.00     0.162 HD
HETATM   30  O2  UNL     1      58.494   5.067   4.924  1.00  0.00    -0.271 OA
BRANCH  28  31
HETATM   31  C5  UNL     1      60.691   6.618   4.230  1.00  0.00     0.084 C 
HETATM   32  C4  UNL     1      62.172   6.768   4.460  1.00  0.00     0.028 C 
HETATM   33  C3  UNL     1      62.565   8.097   5.007  1.00  0.00     0.034 C 
HETATM   34  C2  UNL     1      61.499   9.158   4.786  1.00  0.00     0.120 C 
HETATM   35  C23 UNL     1      60.842   9.004   3.442  1.00  0.00     0.034 C 
HETATM   36  C22 UNL     1      60.152   7.673   3.279  1.00  0.00     0.028 C 
BRANCH  34  37
HETATM   37  O1  UNL     1      62.096  10.414   4.819  1.00  0.00    -0.391 OA
HETATM   38  C1  UNL     1      61.152  11.426   4.820  1.00  0.00     0.202 C 
ENDBRANCH  34  37
ENDBRANCH  28  31
ENDBRANCH   1  27
TORSDOF 7
ENDMDL
MODEL 2
REMARK VINA RESULT: -7.245858433      4.934      8.134
REMARK  7 active torsions:
REMARK  status: ('A' for Active; 'I' for Inactive)
REMARK    1  A    between atoms: O1_2  and  C2_3 
REMARK    2  A    between atoms: C5_6  and  N1_7 
REMARK       I    between atoms: N1_7  and  C6_9 
REMARK    3  A    between atoms: C6_9  and  C7_11 
REMARK       I    between atoms: N2_16  and  C11_17 
REMARK    4  A    between atoms: C11_17  and  C12_19 
REMARK    5  A    between atoms: C12_19  and  N3_21 
REMARK       I    between atoms: N3_21  and  C14_23 
REMARK    6  A    between atoms: C14_23  and  C15_25 
REMARK    7  A    between atoms: C16_29  and  C17_30 
ROOT
HETATM    1  C7  UNL     1      59.198   1.237   6.468  1.00  0.00     0.188 C 
HETATM    2  C8  UNL     1      60.678   0.960   6.168  1.00  0.00     0.109 C 
HETATM    3  S1  UNL     1      61.408   2.556   5.722  1.00  0.00    -0.165 SA
HETATM    4  C9  UNL     1      60.178   3.659   5.012  1.00  0.00     0.093 C 
HETATM    5  C10 UNL     1      58.840   3.064   4.797  1.00  0.00     0.137 C 
HETATM    6  N2  UNL     1      58.593   1.743   5.275  1.00  0.00    -0.335 N 
HETATM    7  C11 UNL     1      57.693   0.929   4.535  1.00  0.00     0.243 C 
HETATM    8  O3  UNL     1      57.245   1.433   3.444  1.00  0.00    -0.271 OA
ENDROOT
BRANCH   7   9
HETATM    9  C12 UNL     1      57.271  -0.408   4.945  1.00  0.00     0.172 C 
HETATM   10  C13 UNL     1      56.415  -0.371   6.213  1.00  0.00     0.042 C 
BRANCH   9  11
HETATM   11  N3  UNL     1      56.392  -0.922   3.902  1.00  0.00    -0.346 N 
HETATM   12  C14 UNL     1      56.454  -2.269   3.540  1.00  0.00     0.259 C 
HETATM   13  O4  UNL     1      57.284  -3.023   4.141  1.00  0.00    -0.270 OA
ATOM     14  H3  UNL     1      55.732  -0.299   3.437  1.00  0.00     0.163 HD
BRANCH  12  15
HETATM   15  C15 UNL     1      55.592  -2.866   2.481  1.00  0.00     0.339 C 
HETATM   16  N4  UNL     1      54.761  -3.868   3.064  1.00  0.00    -0.044 N 
HETATM   17  C16 UNL     1      53.618  -4.068   2.233  1.00  0.00     0.230 C 
ATOM     18  H42 UNL     1      55.267  -4.736   3.243  1.00  0.00     0.280 HD
ATOM     19  H41 UNL     1      54.507  -3.649   4.026  1.00  0.00     0.280 HD
HETATM   20  C21 UNL     1      52.870  -2.741   2.113  1.00  0.00     0.114 C 
HETATM   21  S3  UNL     1      54.320  -1.606   2.065  1.00  0.00    -0.124 SA
BRANCH  17  22
HETATM   22  C17 UNL     1      52.736  -5.069   2.949  1.00  0.00    -0.020 A 
HETATM   23  C18 UNL     1      52.459  -4.957   4.267  1.00  0.00     0.017 A 
HETATM   24  C19 UNL     1      51.654  -5.917   4.813  1.00  0.00     0.050 A 
HETATM   25  S2  UNL     1      51.312  -6.937   3.492  1.00  0.00    -0.113 SA
HETATM   26  C20 UNL     1      52.194  -6.125   2.280  1.00  0.00     0.058 A 
ENDBRANCH  17  22
ENDBRANCH  12  15
ENDBRANCH   9  11
ENDBRANCH   7   9
BRANCH   1  27
HETATM   27  C6  UNL     1      59.040   2.156   7.612  1.00  0.00     0.241 C 
HETATM   28  N1  UNL     1      57.840   2.884   7.814  1.00  0.00    -0.355 N 
ATOM     29  H1  UNL     1      57.068   2.769   7.158  1.00  0.00     0.162 HD
HETATM   30  O2  UNL     1      59.981   2.299   8.421  1.00  0.00    -0.271 OA
BRANCH  28  31
HETATM   31  C5  UNL     1      57.690   3.784   8.932  1.00  0.00     0.084 C 
HETATM   32  C4  UNL     1      57.323   5.144   8.399  1.00  0.00     0.028 C 
HETATM   33  C3  UNL     1      57.156   6.181   9.456  1.00  0.00     0.034 C 
HETATM   34  C2  UNL     1      56.932   5.579  10.834  1.00  0.00     0.120 C 
HETATM   35  C23 UNL     1      56.060   4.356  10.764  1.00  0.00     0.034 C 
HETATM   36  C22 UNL     1      56.659   3.261   9.918  1.00  0.00     0.028 C 
BRANCH  34  37
HETATM   37  O1  UNL     1      56.282   6.512  11.635  1.00  0.00    -0.391 OA
HETATM   38  C1  UNL     1      55.080   6.912  11.077  1.00  0.00     0.202 C 
ENDBRANCH  34  37
ENDBRANCH  28  31
ENDBRANCH   1  27
TORSDOF 7
ENDMDL
MODEL 3
REMARK VINA RESULT: -7.237628471      4.324      7.907
REMARK  7 active torsions:
REMARK  status: ('A' for Active; 'I' for Inactive)
REMARK    1  A    between atoms: O1_2  and  C2_3 
REMARK    2  A    between atoms: C5_6  and  N1_7 
REMARK       I    between atoms: N1_7  and  C6_9 
REMARK    3  A    between atoms: C6_9  and  C7_11 
REMARK       I    between atoms: N2_16  and  C11_17 
REMARK    4  A    between atoms: C11_17  and  C12_19 
REMARK    5  A    between atoms: C12_19  and  N3_21 
REMARK       I    between atoms: N3_21  and  C14_23 
REMARK    6  A    between atoms: C14_23  and  C15_25 
REMARK    7  A    between atoms: C16_29  and  C17_30 
ROOT
HETATM    1  C7  UNL     1      58.971   1.450   6.250  1.00  0.00     0.188 C 
HETATM    2  C8  UNL     1      60.422   1.326   5.763  1.00  0.00     0.109 C 
HETATM    3  S1  UNL     1      60.932   2.991   5.270  1.00  0.00    -0.165 SA
HETATM    4  C9  UNL     1      59.521   3.975   4.744  1.00  0.00     0.093 C 
HETATM    5  C10 UNL     1      58.231   3.253   4.681  1.00  0.00     0.137 C 
HETATM    6  N2  UNL     1      58.175   1.908   5.153  1.00  0.00    -0.335 N 
HETATM    7  C11 UNL     1      57.274   1.017   4.510  1.00  0.00     0.243 C 
HETATM    8  O3  UNL     1      56.645   1.487   3.495  1.00  0.00    -0.271 OA
ENDROOT
BRANCH   7   9
HETATM    9  C12 UNL     1      57.038  -0.360   4.936  1.00  0.00     0.172 C 
HETATM   10  C13 UNL     1      56.148  -0.427   6.179  1.00  0.00     0.042 C 
BRANCH   9  11
HETATM   11  N3  UNL     1      56.274  -1.014   3.880  1.00  0.00    -0.346 N 
HETATM   12  C14 UNL     1      56.475  -2.370   3.614  1.00  0.00     0.259 C 
HETATM   13  O4  UNL     1      57.326  -3.008   4.311  1.00  0.00    -0.270 OA
ATOM     14  H3  UNL     1      55.594  -0.482   3.337  1.00  0.00     0.163 HD
BRANCH  12  15
HETATM   15  C15 UNL     1      55.736  -3.106   2.548  1.00  0.00     0.339 C 
HETATM   16  N4  UNL     1      54.516  -2.423   2.268  1.00  0.00    -0.044 N 
HETATM   17  C16 UNL     1      54.071  -2.779   0.960  1.00  0.00     0.230 C 
ATOM     18  H42 UNL     1      53.804  -2.592   2.979  1.00  0.00     0.280 HD
ATOM     19  H41 UNL     1      54.601  -1.414   2.387  1.00  0.00     0.280 HD
HETATM   20  C21 UNL     1      55.157  -2.390  -0.042  1.00  0.00     0.114 C 
HETATM   21  S3  UNL     1      56.637  -2.799   0.975  1.00  0.00    -0.124 SA
BRANCH  17  22
HETATM   22  C17 UNL     1      52.830  -1.955   0.688  1.00  0.00    -0.020 A 
HETATM   23  C18 UNL     1      52.213  -1.256   1.666  1.00  0.00     0.017 A 
HETATM   24  C19 UNL     1      51.099  -0.548   1.311  1.00  0.00     0.050 A 
HETATM   25  S2  UNL     1      50.944  -0.874  -0.354  1.00  0.00    -0.113 SA
HETATM   26  C20 UNL     1      52.292  -1.897  -0.562  1.00  0.00     0.058 A 
ENDBRANCH  17  22
ENDBRANCH  12  15
ENDBRANCH   9  11
ENDBRANCH   7   9
BRANCH   1  27
HETATM   27  C6  UNL     1      58.868   2.335   7.427  1.00  0.00     0.241 C 
HETATM   28  N1  UNL     1      57.640   2.947   7.786  1.00  0.00    -0.355 N 
ATOM     29  H1  UNL     1      56.809   2.770   7.222  1.00  0.00     0.162 HD
HETATM   30  O2  UNL     1      59.882   2.552   8.123  1.00  0.00    -0.271 OA
BRANCH  28  31
HETATM   31  C5  UNL     1      57.545   3.814   8.935  1.00  0.00     0.084 C 
HETATM   32  C4  UNL     1      57.216   5.203   8.455  1.00  0.00     0.028 C 
HETATM   33  C3  UNL     1      57.107   6.209   9.548  1.00  0.00     0.034 C 
HETATM   34  C2  UNL     1      56.888   5.570  10.910  1.00  0.00     0.120 C 
HETATM   35  C23 UNL     1      55.971   4.381  10.818  1.00  0.00     0.034 C 
HETATM   36  C22 UNL     1      56.515   3.294   9.924  1.00  0.00     0.028 C 
BRANCH  34  37
HETATM   37  O1  UNL     1      56.287   6.498  11.754  1.00  0.00    -0.391 OA
HETATM   38  C1  UNL     1      54.964   6.715  11.411  1.00  0.00     0.202 C 
ENDBRANCH  34  37
ENDBRANCH  28  31
ENDBRANCH   1  27
TORSDOF 7
ENDMDL
MODEL 4
REMARK VINA RESULT: -7.041519576      2.767      5.202
REMARK  7 active torsions:
REMARK  status: ('A' for Active; 'I' for Inactive)
REMARK    1  A    between atoms: O1_2  and  C2_3 
REMARK    2  A    between atoms: C5_6  and  N1_7 
REMARK       I    between atoms: N1_7  and  C6_9 
REMARK    3  A    between atoms: C6_9  and  C7_11 
REMARK       I    between atoms: N2_16  and  C11_17 
REMARK    4  A    between atoms: C11_17  and  C12_19 
REMARK    5  A    between atoms: C12_19  and  N3_21 
REMARK       I    between atoms: N3_21  and  C14_23 
REMARK    6  A    between atoms: C14_23  and  C15_25 
REMARK    7  A    between atoms: C16_29  and  C17_30 
ROOT
HETATM    1  C7  UNL     1      58.187   3.496   3.534  1.00  0.00     0.188 C 
HETATM    2  C8  UNL     1      58.131   4.749   4.419  1.00  0.00     0.109 C 
HETATM    3  S1  UNL     1      58.859   6.088   3.443  1.00  0.00    -0.165 SA
HETATM    4  C9  UNL     1      60.051   5.455   2.255  1.00  0.00     0.093 C 
HETATM    5  C10 UNL     1      60.330   4.004   2.347  1.00  0.00     0.137 C 
HETATM    6  N2  UNL     1      59.562   3.215   3.253  1.00  0.00    -0.335 N 
HETATM    7  C11 UNL     1      60.198   2.103   3.868  1.00  0.00     0.243 C 
HETATM    8  O3  UNL     1      61.447   1.958   3.614  1.00  0.00    -0.271 OA
ENDROOT
BRANCH   7   9
HETATM    9  C12 UNL     1      59.520   1.152   4.744  1.00  0.00     0.172 C 
HETATM   10  C13 UNL     1      60.108  -0.256   4.619  1.00  0.00     0.042 C 
BRANCH   9  11
HETATM   11  N3  UNL     1      59.790   1.561   6.117  1.00  0.00    -0.346 N 
HETATM   12  C14 UNL     1      58.734   1.910   6.960  1.00  0.00     0.259 C 
HETATM   13  O4  UNL     1      57.548   1.857   6.504  1.00  0.00    -0.270 OA
ATOM     14  H3  UNL     1      60.750   1.591   6.462  1.00  0.00     0.163 HD
BRANCH  12  15
HETATM   15  C15 UNL     1      58.932   2.342   8.374  1.00  0.00     0.339 C 
HETATM   16  N4  UNL     1      57.973   3.349   8.693  1.00  0.00    -0.044 N 
HETATM   17  C16 UNL     1      57.798   3.394  10.108  1.00  0.00     0.230 C 
ATOM     18  H42 UNL     1      58.222   4.258   8.303  1.00  0.00     0.280 HD
ATOM     19  H41 UNL     1      57.093   3.216   8.197  1.00  0.00     0.280 HD
HETATM   20  C21 UNL     1      57.324   2.020  10.580  1.00  0.00     0.114 C 
HETATM   21  S3  UNL     1      58.314   0.973   9.434  1.00  0.00    -0.124 SA
BRANCH  17  22
HETATM   22  C17 UNL     1      56.708   4.411  10.373  1.00  0.00    -0.020 A 
HETATM   23  C18 UNL     1      55.461   4.037  10.736  1.00  0.00     0.017 A 
HETATM   24  C19 UNL     1      54.553   5.038  10.948  1.00  0.00     0.050 A 
HETATM   25  S2  UNL     1      55.452   6.452  10.640  1.00  0.00    -0.113 SA
HETATM   26  C20 UNL     1      56.954   5.746  10.250  1.00  0.00     0.058 A 
ENDBRANCH  17  22
ENDBRANCH  12  15
ENDBRANCH   9  11
ENDBRANCH   7   9
BRANCH   1  27
HETATM   27  C6  UNL     1      57.386   3.665   2.305  1.00  0.00     0.241 C 
HETATM   28  N1  UNL     1      57.884   3.267   1.038  1.00  0.00    -0.355 N 
ATOM     29  H1  UNL     1      58.814   2.854   0.973  1.00  0.00     0.162 HD
HETATM   30  O2  UNL     1      56.245   4.167   2.380  1.00  0.00    -0.271 OA
BRANCH  28  31
HETATM   31  C5  UNL     1      57.099   3.436  -0.161  1.00  0.00     0.084 C 
HETATM   32  C4  UNL     1      57.242   4.862  -0.623  1.00  0.00     0.028 C 
HETATM   33  C3  UNL     1      56.459   5.179  -1.851  1.00  0.00     0.034 C 
HETATM   34  C2  UNL     1      56.068   3.934  -2.631  1.00  0.00     0.120 C 
HETATM   35  C23 UNL     1      57.171   2.912  -2.622  1.00  0.00     0.034 C 
HETATM   36  C22 UNL     1      57.522   2.445  -1.231  1.00  0.00     0.028 C 
BRANCH  34  37
HETATM   37  O1  UNL     1      55.834   4.286  -3.956  1.00  0.00    -0.391 OA
HETATM   38  C1  UNL     1      54.562   3.919  -4.361  1.00  0.00     0.202 C 
ENDBRANCH  34  37
ENDBRANCH  28  31
ENDBRANCH   1  27
TORSDOF 7
ENDMDL
MODEL 5
REMARK VINA RESULT: -7.036636990      3.201      8.748
REMARK  7 active torsions:
REMARK  status: ('A' for Active; 'I' for Inactive)
REMARK    1  A    between atoms: O1_2  and  C2_3 
REMARK    2  A    between atoms: C5_6  and  N1_7 
REMARK       I    between atoms: N1_7  and  C6_9 
REMARK    3  A    between atoms: C6_9  and  C7_11 
REMARK       I    between atoms: N2_16  and  C11_17 
REMARK    4  A    between atoms: C11_17  and  C12_19 
REMARK    5  A    between atoms: C12_19  and  N3_21 
REMARK       I    between atoms: N3_21  and  C14_23 
REMARK    6  A    between atoms: C14_23  and  C15_25 
REMARK    7  A    between atoms: C16_29  and  C17_30 
ROOT
HETATM    1  C7  UNL     1      57.633   1.398   6.238  1.00  0.00     0.188 C 
HETATM    2  C8  UNL     1      57.128   0.724   4.955  1.00  0.00     0.109 C 
HETATM    3  S1  UNL     1      58.190  -0.719   4.693  1.00  0.00    -0.165 SA
HETATM    4  C9  UNL     1      59.820  -0.466   5.409  1.00  0.00     0.093 C 
HETATM    5  C10 UNL     1      60.066   0.882   5.968  1.00  0.00     0.137 C 
HETATM    6  N2  UNL     1      58.985   1.811   6.017  1.00  0.00    -0.335 N 
HETATM    7  C11 UNL     1      59.290   3.190   5.862  1.00  0.00     0.243 C 
HETATM    8  O3  UNL     1      60.514   3.471   5.604  1.00  0.00    -0.271 OA
ENDROOT
BRANCH   7   9
HETATM    9  C12 UNL     1      58.307   4.265   5.978  1.00  0.00     0.172 C 
HETATM   10  C13 UNL     1      58.297   4.877   7.381  1.00  0.00     0.042 C 
BRANCH   9  11
HETATM   11  N3  UNL     1      58.735   5.340   5.092  1.00  0.00    -0.346 N 
HETATM   12  C14 UNL     1      58.295   5.368   3.768  1.00  0.00     0.259 C 
HETATM   13  O4  UNL     1      57.518   4.445   3.365  1.00  0.00    -0.270 OA
ATOM     14  H3  UNL     1      59.356   6.071   5.439  1.00  0.00     0.163 HD
BRANCH  12  15
HETATM   15  C15 UNL     1      58.694   6.431   2.802  1.00  0.00     0.339 C 
HETATM   16  N4  UNL     1      59.259   7.526   3.519  1.00  0.00    -0.044 N 
HETATM   17  C16 UNL     1      60.090   8.281   2.638  1.00  0.00     0.230 C 
ATOM     18  H42 UNL     1      58.549   8.102   3.971  1.00  0.00     0.280 HD
ATOM     19  H41 UNL     1      59.755   7.226   4.357  1.00  0.00     0.280 HD
HETATM   20  C21 UNL     1      61.183   7.360   2.097  1.00  0.00     0.114 C 
HETATM   21  S3  UNL     1      60.192   5.817   1.932  1.00  0.00    -0.124 SA
BRANCH  17  22
HETATM   22  C17 UNL     1      60.730   9.367   3.477  1.00  0.00    -0.020 A 
HETATM   23  C18 UNL     1      62.021   9.294   3.870  1.00  0.00     0.017 A 
HETATM   24  C19 UNL     1      62.496  10.329   4.626  1.00  0.00     0.050 A 
HETATM   25  S2  UNL     1      61.148  11.360   4.768  1.00  0.00    -0.113 SA
HETATM   26  C20 UNL     1      60.015  10.460   3.867  1.00  0.00     0.058 A 
ENDBRANCH  17  22
ENDBRANCH  12  15
ENDBRANCH   9  11
ENDBRANCH   7   9
BRANCH   1  27
HETATM   27  C6  UNL     1      57.502   0.505   7.407  1.00  0.00     0.241 C 
HETATM   28  N1  UNL     1      58.196   0.765   8.616  1.00  0.00    -0.355 N 
ATOM     29  H1  UNL     1      58.797   1.586   8.682  1.00  0.00     0.162 HD
HETATM   30  O2  UNL     1      56.764  -0.499   7.333  1.00  0.00    -0.271 OA
BRANCH  28  31
HETATM   31  C5  UNL     1      58.068  -0.112   9.755  1.00  0.00     0.084 C 
HETATM   32  C4  UNL     1      59.298  -0.978   9.827  1.00  0.00     0.028 C 
HETATM   33  C3  UNL     1      59.285  -1.950  10.956  1.00  0.00     0.034 C 
HETATM   34  C2  UNL     1      58.294  -1.568  12.044  1.00  0.00     0.120 C 
HETATM   35  C23 UNL     1      58.267  -0.081  12.265  1.00  0.00     0.034 C 
HETATM   36  C22 UNL     1      57.855   0.684  11.031  1.00  0.00     0.028 C 
BRANCH  34  37
HETATM   37  O1  UNL     1      58.684  -2.162  13.240  1.00  0.00    -0.391 OA
HETATM   38  C1  UNL     1      59.793  -1.534  13.782  1.00  0.00     0.202 C 
ENDBRANCH  34  37
ENDBRANCH  28  31
ENDBRANCH   1  27
TORSDOF 7
ENDMDL
