MODEL 1
REMARK VINA RESULT: -6.368544654      0.000      0.000
REMARK  13 active torsions:
REMARK  status: ('A' for Active; 'I' for Inactive)
REMARK    1  A    between atoms: C2_2  and  C3_3 
REMARK    2  A    between atoms: C3_3  and  C4_4 
REMARK    3  A    between atoms: C4_4  and  O1_5 
REMARK    4  A    between atoms: O1_5  and  C5_6 
REMARK    5  A    between atoms: C6_7  and  C7_8 
REMARK       I    between atoms: C7_8  and  N1_10 
REMARK    6  A    between atoms: N1_10  and  C8_12 
REMARK    7  A    between atoms: C20_26  and  O4_27 
REMARK    8  A    between atoms: O4_27  and  C21_28 
REMARK       I    between atoms: C21_28  and  N3_30 
REMARK    9  A    between atoms: N3_30  and  C22_32 
REMARK   10  A    between atoms: C22_32  and  O6_33 
REMARK   11  A    between atoms: C22_32  and  C23_35 
REMARK   12  A    between atoms: C23_35  and  O7_36 
REMARK   13  A    between atoms: O7_36  and  C24_37 
ROOT
HETATM    1  C5  UNL     1      59.237   1.011   5.895  1.00  0.00     0.197 C 
HETATM    2  C6  UNL     1      60.233   0.551   4.805  1.00  0.00     0.205 C 
HETATM    3  N2  UNL     1      59.469   0.427   3.637  1.00  0.00    -0.394 N 
HETATM    4  C12 UNL     1      59.154  -0.804   3.095  1.00  0.00     0.144 C 
HETATM    5  C13 UNL     1      58.545   1.485   3.710  1.00  0.00     0.128 C 
HETATM    6  C14 UNL     1      57.486   1.535   2.682  1.00  0.00     0.077 C 
HETATM    7  C15 UNL     1      57.111   2.976   2.388  1.00  0.00     0.020 C 
HETATM    8  C16 UNL     1      56.341   0.717   3.053  1.00  0.00     0.133 C 
HETATM    9  O3  UNL     1      55.882  -0.130   2.331  1.00  0.00    -0.297 OA
HETATM   10  C17 UNL     1      55.766   0.982   4.367  1.00  0.00     0.086 C 
HETATM   11  C18 UNL     1      56.773   1.063   5.473  1.00  0.00     0.028 C 
HETATM   12  C19 UNL     1      56.797  -0.275   6.165  1.00  0.00     0.014 C 
HETATM   13  C20 UNL     1      58.105   1.672   5.166  1.00  0.00     0.126 C 
ENDROOT
BRANCH  13  14
HETATM   14  O4  UNL     1      58.011   3.060   5.283  1.00  0.00    -0.287 OA
BRANCH  14  15
HETATM   15  C21 UNL     1      58.087   3.911   6.314  1.00  0.00     0.363 C 
HETATM   16  O5  UNL     1      58.651   5.014   6.094  1.00  0.00    -0.238 OA
HETATM   17  N3  UNL     1      57.561   3.621   7.631  1.00  0.00    -0.308 N 
ATOM     18  H3  UNL     1      57.107   2.721   7.788  1.00  0.00     0.167 HD
BRANCH  17  19
HETATM   19  C22 UNL     1      57.650   4.537   8.716  1.00  0.00     0.246 C 
BRANCH  19  20
HETATM   20  O6  UNL     1      56.936   5.702   8.369  1.00  0.00    -0.374 OA
ATOM     21  H6  UNL     1      56.358   5.923   9.090  1.00  0.00     0.212 HD
ENDBRANCH  19  20
BRANCH  19  22
HETATM   22  C23 UNL     1      56.885   3.929   9.896  1.00  0.00     0.222 C 
BRANCH  22  23
HETATM   23  O7  UNL     1      56.585   4.930  10.821  1.00  0.00    -0.377 OA
BRANCH  23  24
HETATM   24  C24 UNL     1      55.298   4.806  11.297  1.00  0.00     0.050 C 
HETATM   25  C25 UNL     1      54.594   3.624  10.671  1.00  0.00     0.045 C 
HETATM   26  C26 UNL     1      54.554   6.077  10.924  1.00  0.00     0.045 C 
HETATM   27  C27 UNL     1      55.232   4.673  12.794  1.00  0.00     0.045 C 
ENDBRANCH  23  24
ENDBRANCH  22  23
ENDBRANCH  19  22
ENDBRANCH  17  19
ENDBRANCH  14  15
ENDBRANCH  13  14
BRANCH   1  28
HETATM   28  O1  UNL     1      59.998   1.740   6.740  1.00  0.00    -0.352 OA
BRANCH  28  29
HETATM   29  C4  UNL     1      60.074   1.405   8.042  1.00  0.00     0.135 C 
BRANCH  29  30
HETATM   30  C3  UNL     1      59.298   0.316   8.593  1.00  0.00     0.020 C 
BRANCH  30  31
HETATM   31  C2  UNL     1      58.318   0.498   9.500  1.00  0.00    -0.029 C 
HETATM   32  C1  UNL     1      58.216  -0.369  10.704  1.00  0.00     0.036 C 
ENDBRANCH  30  31
ENDBRANCH  29  30
ENDBRANCH  28  29
ENDBRANCH   1  28
BRANCH   2  33
HETATM   33  C7  UNL     1      61.334   1.497   4.572  1.00  0.00     0.243 C 
HETATM   34  O2  UNL     1      62.566   1.191   4.553  1.00  0.00    -0.271 OA
HETATM   35  N1  UNL     1      61.098   2.902   4.333  1.00  0.00    -0.351 N 
ATOM     36  H1  UNL     1      60.132   3.229   4.328  1.00  0.00     0.163 HD
BRANCH  35  37
HETATM   37  C8  UNL     1      62.128   3.864   4.105  1.00  0.00     0.022 C 
HETATM   38  C9  UNL     1      63.258   3.760   5.114  1.00  0.00     0.037 C 
HETATM   39  C10 UNL     1      62.778   3.678   2.726  1.00  0.00     0.037 C 
HETATM   40  C11 UNL     1      61.515   5.246   4.108  1.00  0.00     0.037 C 
ENDBRANCH  35  37
ENDBRANCH   2  33
TORSDOF 13
ENDMDL
MODEL 2
REMARK VINA RESULT: -6.247295036      1.789      4.379
REMARK  13 active torsions:
REMARK  status: ('A' for Active; 'I' for Inactive)
REMARK    1  A    between atoms: C2_2  and  C3_3 
REMARK    2  A    between atoms: C3_3  and  C4_4 
REMARK    3  A    between atoms: C4_4  and  O1_5 
REMARK    4  A    between atoms: O1_5  and  C5_6 
REMARK    5  A    between atoms: C6_7  and  C7_8 
REMARK       I    between atoms: C7_8  and  N1_10 
REMARK    6  A    between atoms: N1_10  and  C8_12 
REMARK    7  A    between atoms: C20_26  and  O4_27 
REMARK    8  A    between atoms: O4_27  and  C21_28 
REMARK       I    between atoms: C21_28  and  N3_30 
REMARK    9  A    between atoms: N3_30  and  C22_32 
REMARK   10  A    between atoms: C22_32  and  O6_33 
REMARK   11  A    between atoms: C22_32  and  C23_35 
REMARK   12  A    between atoms: C23_35  and  O7_36 
REMARK   13  A    between atoms: O7_36  and  C24_37 
ROOT
HETATM    1  C5  UNL     1      60.190   2.689   4.928  1.00  0.00     0.197 C 
HETATM    2  C6  UNL     1      59.892   1.682   3.791  1.00  0.00     0.205 C 
HETATM    3  N2  UNL     1      59.515   0.498   4.439  1.00  0.00    -0.394 N 
HETATM    4  C12 UNL     1      60.334  -0.614   4.467  1.00  0.00     0.144 C 
HETATM    5  C13 UNL     1      58.780   0.930   5.557  1.00  0.00     0.128 C 
HETATM    6  C14 UNL     1      58.367  -0.095   6.536  1.00  0.00     0.077 C 
HETATM    7  C15 UNL     1      57.044   0.291   7.171  1.00  0.00     0.020 C 
HETATM    8  C16 UNL     1      59.411  -0.351   7.518  1.00  0.00     0.133 C 
HETATM    9  O3  UNL     1      59.833  -1.454   7.751  1.00  0.00    -0.297 OA
HETATM   10  C17 UNL     1      59.929   0.820   8.217  1.00  0.00     0.086 C 
HETATM   11  C18 UNL     1      60.278   1.968   7.320  1.00  0.00     0.028 C 
HETATM   12  C19 UNL     1      61.764   1.919   7.074  1.00  0.00     0.014 C 
HETATM   13  C20 UNL     1      59.418   2.205   6.119  1.00  0.00     0.126 C 
ENDROOT
BRANCH  13  14
HETATM   14  O4  UNL     1      58.308   2.965   6.495  1.00  0.00    -0.287 OA
BRANCH  14  15
HETATM   15  C21 UNL     1      58.126   3.988   7.339  1.00  0.00     0.363 C 
HETATM   16  O5  UNL     1      58.422   5.132   6.910  1.00  0.00    -0.238 OA
HETATM   17  N3  UNL     1      57.616   3.832   8.686  1.00  0.00    -0.308 N 
ATOM     18  H3  UNL     1      57.382   2.895   9.013  1.00  0.00     0.167 HD
BRANCH  17  19
HETATM   19  C22 UNL     1      57.428   4.930   9.570  1.00  0.00     0.246 C 
BRANCH  19  20
HETATM   20  O6  UNL     1      56.454   5.784   9.013  1.00  0.00    -0.374 OA
ATOM     21  H6  UNL     1      55.649   5.679   9.507  1.00  0.00     0.212 HD
ENDBRANCH  19  20
BRANCH  19  22
HETATM   22  C23 UNL     1      56.802   4.383  10.857  1.00  0.00     0.222 C 
BRANCH  22  23
HETATM   23  O7  UNL     1      56.069   5.393  11.482  1.00  0.00    -0.377 OA
BRANCH  23  24
HETATM   24  C24 UNL     1      54.815   4.951  11.849  1.00  0.00     0.050 C 
HETATM   25  C25 UNL     1      54.392   3.758  11.023  1.00  0.00     0.045 C 
HETATM   26  C26 UNL     1      53.844   6.093  11.600  1.00  0.00     0.045 C 
HETATM   27  C27 UNL     1      54.719   4.592  13.306  1.00  0.00     0.045 C 
ENDBRANCH  23  24
ENDBRANCH  22  23
ENDBRANCH  19  22
ENDBRANCH  17  19
ENDBRANCH  14  15
ENDBRANCH  13  14
BRANCH   1  28
HETATM   28  O1  UNL     1      59.889   3.888   4.383  1.00  0.00    -0.352 OA
BRANCH  28  29
HETATM   29  C4  UNL     1      60.779   4.896   4.433  1.00  0.00     0.135 C 
BRANCH  29  30
HETATM   30  C3  UNL     1      60.455   6.221   3.951  1.00  0.00     0.020 C 
BRANCH  30  31
HETATM   31  C2  UNL     1      60.540   7.323   4.722  1.00  0.00    -0.029 C 
HETATM   32  C1  UNL     1      61.854   7.951   5.023  1.00  0.00     0.036 C 
ENDBRANCH  30  31
ENDBRANCH  29  30
ENDBRANCH  28  29
ENDBRANCH   1  28
BRANCH   2  33
HETATM   33  C7  UNL     1      58.814   2.111   2.888  1.00  0.00     0.243 C 
HETATM   34  O2  UNL     1      57.616   1.694   2.934  1.00  0.00    -0.271 OA
HETATM   35  N1  UNL     1      59.035   3.078   1.838  1.00  0.00    -0.351 N 
ATOM     36  H1  UNL     1      59.973   3.465   1.736  1.00  0.00     0.163 HD
BRANCH  35  37
HETATM   37  C8  UNL     1      58.027   3.527   0.932  1.00  0.00     0.022 C 
HETATM   38  C9  UNL     1      56.852   4.177   1.642  1.00  0.00     0.037 C 
HETATM   39  C10 UNL     1      58.570   4.587  -0.037  1.00  0.00     0.037 C 
HETATM   40  C11 UNL     1      57.577   2.359   0.084  1.00  0.00     0.037 C 
ENDBRANCH  35  37
ENDBRANCH   2  33
TORSDOF 13
ENDMDL
MODEL 3
REMARK VINA RESULT: -6.143668782      1.132      1.534
REMARK  13 active torsions:
REMARK  status: ('A' for Active; 'I' for Inactive)
REMARK    1  A    between atoms: C2_2  and  C3_3 
REMARK    2  A    between atoms: C3_3  and  C4_4 
REMARK    3  A    between atoms: C4_4  and  O1_5 
REMARK    4  A    between atoms: O1_5  and  C5_6 
REMARK    5  A    between atoms: C6_7  and  C7_8 
REMARK       I    between atoms: C7_8  and  N1_10 
REMARK    6  A    between atoms: N1_10  and  C8_12 
REMARK    7  A    between atoms: C20_26  and  O4_27 
REMARK    8  A    between atoms: O4_27  and  C21_28 
REMARK       I    between atoms: C21_28  and  N3_30 
REMARK    9  A    between atoms: N3_30  and  C22_32 
REMARK   10  A    between atoms: C22_32  and  O6_33 
REMARK   11  A    between atoms: C22_32  and  C23_35 
REMARK   12  A    between atoms: C23_35  and  O7_36 
REMARK   13  A    between atoms: O7_36  and  C24_37 
ROOT
HETATM    1  C5  UNL     1      58.865   0.376   5.862  1.00  0.00     0.197 C 
HETATM    2  C6  UNL     1      59.815  -0.448   4.960  1.00  0.00     0.205 C 
HETATM    3  N2  UNL     1      59.121  -0.620   3.755  1.00  0.00    -0.394 N 
HETATM    4  C12 UNL     1      58.595  -1.842   3.381  1.00  0.00     0.144 C 
HETATM    5  C13 UNL     1      58.432   0.593   3.572  1.00  0.00     0.128 C 
HETATM    6  C14 UNL     1      57.477   0.669   2.449  1.00  0.00     0.077 C 
HETATM    7  C15 UNL     1      57.428   2.083   1.900  1.00  0.00     0.020 C 
HETATM    8  C16 UNL     1      56.165   0.163   2.826  1.00  0.00     0.133 C 
HETATM    9  O3  UNL     1      55.590  -0.690   2.201  1.00  0.00    -0.297 OA
HETATM   10  C17 UNL     1      55.573   0.755   4.020  1.00  0.00     0.086 C 
HETATM   11  C18 UNL     1      56.499   0.828   5.194  1.00  0.00     0.028 C 
HETATM   12  C19 UNL     1      56.200  -0.350   6.084  1.00  0.00     0.014 C 
HETATM   13  C20 UNL     1      57.945   1.107   4.931  1.00  0.00     0.126 C 
ENDROOT
BRANCH  13  14
HETATM   14  O4  UNL     1      58.132   2.487   4.823  1.00  0.00    -0.287 OA
BRANCH  14  15
HETATM   15  C21 UNL     1      58.571   3.432   5.663  1.00  0.00     0.363 C 
HETATM   16  O5  UNL     1      59.625   4.034   5.333  1.00  0.00    -0.238 OA
HETATM   17  N3  UNL     1      57.898   3.779   6.898  1.00  0.00    -0.308 N 
ATOM     18  H3  UNL     1      57.045   3.279   7.145  1.00  0.00     0.167 HD
BRANCH  17  19
HETATM   19  C22 UNL     1      58.377   4.787   7.779  1.00  0.00     0.246 C 
BRANCH  19  20
HETATM   20  O6  UNL     1      58.668   5.937   7.018  1.00  0.00    -0.374 OA
ATOM     21  H6  UNL     1      57.878   6.462   6.958  1.00  0.00     0.212 HD
ENDBRANCH  19  20
BRANCH  19  22
HETATM   22  C23 UNL     1      57.216   5.188   8.695  1.00  0.00     0.222 C 
BRANCH  22  23
HETATM   23  O7  UNL     1      56.637   4.040   9.239  1.00  0.00    -0.377 OA
BRANCH  23  24
HETATM   24  C24 UNL     1      56.304   4.225  10.564  1.00  0.00     0.050 C 
HETATM   25  C25 UNL     1      56.519   5.659  10.988  1.00  0.00     0.045 C 
HETATM   26  C26 UNL     1      57.211   3.325  11.386  1.00  0.00     0.045 C 
HETATM   27  C27 UNL     1      54.885   3.834  10.876  1.00  0.00     0.045 C 
ENDBRANCH  23  24
ENDBRANCH  22  23
ENDBRANCH  19  22
ENDBRANCH  17  19
ENDBRANCH  14  15
ENDBRANCH  13  14
BRANCH   1  28
HETATM   28  O1  UNL     1      59.703   1.077   6.656  1.00  0.00    -0.352 OA
BRANCH  28  29
HETATM   29  C4  UNL     1      59.756   0.822   7.976  1.00  0.00     0.135 C 
BRANCH  29  30
HETATM   30  C3  UNL     1      58.589   0.942   8.821  1.00  0.00     0.020 C 
BRANCH  30  31
HETATM   31  C2  UNL     1      57.999  -0.115   9.414  1.00  0.00    -0.029 C 
HETATM   32  C1  UNL     1      58.338  -0.501  10.810  1.00  0.00     0.036 C 
ENDBRANCH  30  31
ENDBRANCH  29  30
ENDBRANCH  28  29
ENDBRANCH   1  28
BRANCH   2  33
HETATM   33  C7  UNL     1      61.100   0.214   4.694  1.00  0.00     0.243 C 
HETATM   34  O2  UNL     1      62.242  -0.292   4.923  1.00  0.00    -0.271 OA
HETATM   35  N1  UNL     1      61.175   1.541   4.128  1.00  0.00    -0.351 N 
ATOM     36  H1  UNL     1      60.300   2.016   3.911  1.00  0.00     0.163 HD
BRANCH  35  37
HETATM   37  C8  UNL     1      62.394   2.231   3.852  1.00  0.00     0.022 C 
HETATM   38  C9  UNL     1      63.390   1.375   3.088  1.00  0.00     0.037 C 
HETATM   39  C10 UNL     1      62.156   3.474   2.983  1.00  0.00     0.037 C 
HETATM   40  C11 UNL     1      62.981   2.724   5.155  1.00  0.00     0.037 C 
ENDBRANCH  35  37
ENDBRANCH   2  33
TORSDOF 13
ENDMDL
MODEL 4
REMARK VINA RESULT: -5.902799694      2.044      3.330
REMARK  13 active torsions:
REMARK  status: ('A' for Active; 'I' for Inactive)
REMARK    1  A    between atoms: C2_2  and  C3_3 
REMARK    2  A    between atoms: C3_3  and  C4_4 
REMARK    3  A    between atoms: C4_4  and  O1_5 
REMARK    4  A    between atoms: O1_5  and  C5_6 
REMARK    5  A    between atoms: C6_7  and  C7_8 
REMARK       I    between atoms: C7_8  and  N1_10 
REMARK    6  A    between atoms: N1_10  and  C8_12 
REMARK    7  A    between atoms: C20_26  and  O4_27 
REMARK    8  A    between atoms: O4_27  and  C21_28 
REMARK       I    between atoms: C21_28  and  N3_30 
REMARK    9  A    between atoms: N3_30  and  C22_32 
REMARK   10  A    between atoms: C22_32  and  O6_33 
REMARK   11  A    between atoms: C22_32  and  C23_35 
REMARK   12  A    between atoms: C23_35  and  O7_36 
REMARK   13  A    between atoms: O7_36  and  C24_37 
ROOT
HETATM    1  C5  UNL     1      57.939  -0.042   5.443  1.00  0.00     0.197 C 
HETATM    2  C6  UNL     1      58.639  -1.280   4.834  1.00  0.00     0.205 C 
HETATM    3  N2  UNL     1      58.774  -0.992   3.469  1.00  0.00    -0.394 N 
HETATM    4  C12 UNL     1      58.015  -1.630   2.508  1.00  0.00     0.144 C 
HETATM    5  C13 UNL     1      59.052   0.386   3.429  1.00  0.00     0.128 C 
HETATM    6  C14 UNL     1      59.099   1.031   2.102  1.00  0.00     0.077 C 
HETATM    7  C15 UNL     1      60.100   2.172   2.110  1.00  0.00     0.020 C 
HETATM    8  C16 UNL     1      57.775   1.445   1.659  1.00  0.00     0.133 C 
HETATM    9  O3  UNL     1      57.313   1.125   0.595  1.00  0.00    -0.297 OA
HETATM   10  C17 UNL     1      57.024   2.281   2.589  1.00  0.00     0.086 C 
HETATM   11  C18 UNL     1      57.006   1.772   3.997  1.00  0.00     0.028 C 
HETATM   12  C19 UNL     1      55.709   1.032   4.197  1.00  0.00     0.014 C 
HETATM   13  C20 UNL     1      58.237   1.098   4.515  1.00  0.00     0.126 C 
ENDROOT
BRANCH  13  14
HETATM   14  O4  UNL     1      59.127   2.067   4.982  1.00  0.00    -0.287 OA
BRANCH  14  15
HETATM   15  C21 UNL     1      58.988   3.180   5.713  1.00  0.00     0.363 C 
HETATM   16  O5  UNL     1      59.326   4.261   5.165  1.00  0.00    -0.238 OA
HETATM   17  N3  UNL     1      58.475   3.188   7.067  1.00  0.00    -0.308 N 
ATOM     18  H3  UNL     1      58.205   2.301   7.492  1.00  0.00     0.167 HD
BRANCH  17  19
HETATM   19  C22 UNL     1      58.332   4.380   7.830  1.00  0.00     0.246 C 
BRANCH  19  20
HETATM   20  O6  UNL     1      57.434   5.231   7.154  1.00  0.00    -0.374 OA
ATOM     21  H6  UNL     1      57.610   6.125   7.425  1.00  0.00     0.212 HD
ENDBRANCH  19  20
BRANCH  19  22
HETATM   22  C23 UNL     1      57.630   4.007   9.140  1.00  0.00     0.222 C 
BRANCH  22  23
HETATM   23  O7  UNL     1      56.558   4.874   9.355  1.00  0.00    -0.377 OA
BRANCH  23  24
HETATM   24  C24 UNL     1      56.068   4.758  10.639  1.00  0.00     0.050 C 
HETATM   25  C25 UNL     1      56.085   6.089  11.354  1.00  0.00     0.045 C 
HETATM   26  C26 UNL     1      56.971   3.787  11.381  1.00  0.00     0.045 C 
HETATM   27  C27 UNL     1      54.673   4.197  10.689  1.00  0.00     0.045 C 
ENDBRANCH  23  24
ENDBRANCH  22  23
ENDBRANCH  19  22
ENDBRANCH  17  19
ENDBRANCH  14  15
ENDBRANCH  13  14
BRANCH   1  28
HETATM   28  O1  UNL     1      58.398  -0.003   6.712  1.00  0.00    -0.352 OA
BRANCH  28  29
HETATM   29  C4  UNL     1      57.536  -0.017   7.745  1.00  0.00     0.135 C 
BRANCH  29  30
HETATM   30  C3  UNL     1      57.950   0.332   9.086  1.00  0.00     0.020 C 
BRANCH  30  31
HETATM   31  C2  UNL     1      58.646  -0.505   9.881  1.00  0.00    -0.029 C 
HETATM   32  C1  UNL     1      58.276  -0.693  11.309  1.00  0.00     0.036 C 
ENDBRANCH  30  31
ENDBRANCH  29  30
ENDBRANCH  28  29
ENDBRANCH   1  28
BRANCH   2  33
HETATM   33  C7  UNL     1      59.964  -1.554   5.410  1.00  0.00     0.243 C 
HETATM   34  O2  UNL     1      61.070  -1.231   4.879  1.00  0.00    -0.271 OA
HETATM   35  N1  UNL     1      60.122  -2.234   6.675  1.00  0.00    -0.351 N 
ATOM     36  H1  UNL     1      59.279  -2.524   7.169  1.00  0.00     0.163 HD
BRANCH  35  37
HETATM   37  C8  UNL     1      61.382  -2.528   7.278  1.00  0.00     0.022 C 
HETATM   38  C9  UNL     1      62.200  -3.520   6.470  1.00  0.00     0.037 C 
HETATM   39  C10 UNL     1      62.255  -1.271   7.404  1.00  0.00     0.037 C 
HETATM   40  C11 UNL     1      61.146  -3.029   8.685  1.00  0.00     0.037 C 
ENDBRANCH  35  37
ENDBRANCH   2  33
TORSDOF 13
ENDMDL
MODEL 5
REMARK VINA RESULT: -5.831742667      1.556      2.088
REMARK  13 active torsions:
REMARK  status: ('A' for Active; 'I' for Inactive)
REMARK    1  A    between atoms: C2_2  and  C3_3 
REMARK    2  A    between atoms: C3_3  and  C4_4 
REMARK    3  A    between atoms: C4_4  and  O1_5 
REMARK    4  A    between atoms: O1_5  and  C5_6 
REMARK    5  A    between atoms: C6_7  and  C7_8 
REMARK       I    between atoms: C7_8  and  N1_10 
REMARK    6  A    between atoms: N1_10  and  C8_12 
REMARK    7  A    between atoms: C20_26  and  O4_27 
REMARK    8  A    between atoms: O4_27  and  C21_28 
REMARK       I    between atoms: C21_28  and  N3_30 
REMARK    9  A    between atoms: N3_30  and  C22_32 
REMARK   10  A    between atoms: C22_32  and  O6_33 
REMARK   11  A    between atoms: C22_32  and  C23_35 
REMARK   12  A    between atoms: C23_35  and  O7_36 
REMARK   13  A    between atoms: O7_36  and  C24_37 
ROOT
HETATM    1  C5  UNL     1      58.409   0.334   5.613  1.00  0.00     0.197 C 
HETATM    2  C6  UNL     1      59.326  -0.629   4.821  1.00  0.00     0.205 C 
HETATM    3  N2  UNL     1      59.334  -0.134   3.510  1.00  0.00    -0.394 N 
HETATM    4  C12 UNL     1      58.683  -0.782   2.479  1.00  0.00     0.144 C 
HETATM    5  C13 UNL     1      59.311   1.264   3.664  1.00  0.00     0.128 C 
HETATM    6  C14 UNL     1      59.159   2.080   2.443  1.00  0.00     0.077 C 
HETATM    7  C15 UNL     1      59.895   3.398   2.599  1.00  0.00     0.020 C 
HETATM    8  C16 UNL     1      57.759   2.255   2.086  1.00  0.00     0.133 C 
HETATM    9  O3  UNL     1      57.326   1.992   0.994  1.00  0.00    -0.297 OA
HETATM   10  C17 UNL     1      56.892   2.774   3.138  1.00  0.00     0.086 C 
HETATM   11  C18 UNL     1      57.048   2.084   4.458  1.00  0.00     0.028 C 
HETATM   12  C19 UNL     1      55.947   1.061   4.571  1.00  0.00     0.014 C 
HETATM   13  C20 UNL     1      58.416   1.627   4.854  1.00  0.00     0.126 C 
ENDROOT
BRANCH  13  14
HETATM   14  O4  UNL     1      59.102   2.692   5.441  1.00  0.00    -0.287 OA
BRANCH  14  15
HETATM   15  C21 UNL     1      58.747   3.676   6.278  1.00  0.00     0.363 C 
HETATM   16  O5  UNL     1      58.882   4.853   5.853  1.00  0.00    -0.238 OA
HETATM   17  N3  UNL     1      58.228   3.445   7.609  1.00  0.00    -0.308 N 
ATOM     18  H3  UNL     1      58.126   2.483   7.933  1.00  0.00     0.167 HD
BRANCH  17  19
HETATM   19  C22 UNL     1      57.855   4.501   8.485  1.00  0.00     0.246 C 
BRANCH  19  20
HETATM   20  O6  UNL     1      57.043   5.404   7.768  1.00  0.00    -0.374 OA
ATOM     21  H6  UNL     1      57.607   5.945   7.227  1.00  0.00     0.212 HD
ENDBRANCH  19  20
BRANCH  19  22
HETATM   22  C23 UNL     1      56.945   3.906   9.564  1.00  0.00     0.222 C 
BRANCH  22  23
HETATM   23  O7  UNL     1      56.819   4.812  10.618  1.00  0.00    -0.377 OA
BRANCH  23  24
HETATM   24  C24 UNL     1      55.510   4.920  11.035  1.00  0.00     0.050 C 
HETATM   25  C25 UNL     1      54.734   3.658  10.737  1.00  0.00     0.045 C 
HETATM   26  C26 UNL     1      54.886   6.075  10.270  1.00  0.00     0.045 C 
HETATM   27  C27 UNL     1      55.381   5.234  12.501  1.00  0.00     0.045 C 
ENDBRANCH  23  24
ENDBRANCH  22  23
ENDBRANCH  19  22
ENDBRANCH  17  19
ENDBRANCH  14  15
ENDBRANCH  13  14
BRANCH   1  28
HETATM   28  O1  UNL     1      58.909   0.296   6.867  1.00  0.00    -0.352 OA
BRANCH  28  29
HETATM   29  C4  UNL     1      58.139  -0.120   7.890  1.00  0.00     0.135 C 
BRANCH  29  30
HETATM   30  C3  UNL     1      58.413   0.272   9.255  1.00  0.00     0.020 C 
BRANCH  30  31
HETATM   31  C2  UNL     1      58.668  -0.617  10.237  1.00  0.00    -0.029 C 
HETATM   32  C1  UNL     1      58.063  -0.464  11.587  1.00  0.00     0.036 C 
ENDBRANCH  30  31
ENDBRANCH  29  30
ENDBRANCH  28  29
ENDBRANCH   1  28
BRANCH   2  33
HETATM   33  C7  UNL     1      60.704  -0.686   5.330  1.00  0.00     0.243 C 
HETATM   34  O2  UNL     1      61.255  -1.716   5.828  1.00  0.00    -0.271 OA
HETATM   35  N1  UNL     1      61.578   0.464   5.305  1.00  0.00    -0.351 N 
ATOM     36  H1  UNL     1      61.212   1.332   4.916  1.00  0.00     0.163 HD
BRANCH  35  37
HETATM   37  C8  UNL     1      62.921   0.465   5.788  1.00  0.00     0.022 C 
HETATM   38  C9  UNL     1      63.003   0.223   7.285  1.00  0.00     0.037 C 
HETATM   39  C10 UNL     1      63.757  -0.647   5.138  1.00  0.00     0.037 C 
HETATM   40  C11 UNL     1      63.577   1.773   5.408  1.00  0.00     0.037 C 
ENDBRANCH  35  37
ENDBRANCH   2  33
TORSDOF 13
ENDMDL
