MODEL 1
REMARK VINA RESULT: -4.391352303      0.000      0.000
REMARK  3 active torsions:
REMARK  status: ('A' for Active; 'I' for Inactive)
REMARK    1  A    between atoms: C3_3  and  S1_4 
REMARK    2  A    between atoms: S1_4  and  S2_5 
REMARK    3  A    between atoms: S2_5  and  C4_6 
ROOT
HETATM    1  C1  UNL     1     129.329   5.464  66.266  1.00  0.00     0.113 C 
HETATM    2  C2  UNL     1     130.269   4.586  66.962  1.00  0.00    -0.098 C 
HETATM    3  C3  UNL     1     131.028   3.846  67.538  1.00  0.00    -0.023 C 
ENDROOT
BRANCH   3   4
HETATM    4  S1  UNL     1     132.117   2.744  68.382  1.00  0.00    -0.005 SA
BRANCH   4   5
HETATM    5  S2  UNL     1     133.936   3.704  68.858  1.00  0.00    -0.077 SA
BRANCH   5   6
HETATM    6  C4  UNL     1     133.722   5.461  69.176  1.00  0.00     0.086 C 
HETATM    7  C5  UNL     1     134.090   6.223  67.925  1.00  0.00     0.045 C 
HETATM    8  C6  UNL     1     135.391   6.935  68.306  1.00  0.00     0.233 C 
HETATM    9  N1  UNL     1     135.098   7.289  69.693  1.00  0.00    -0.074 N 
HETATM   10  C7  UNL     1     134.632   6.006  70.217  1.00  0.00     0.248 C 
ATOM     11  H12 UNL     1     135.866   7.720  70.207  1.00  0.00     0.277 HD
ATOM     12  H11 UNL     1     134.457   8.072  69.818  1.00  0.00     0.277 HD
ENDBRANCH   5   6
ENDBRANCH   4   5
ENDBRANCH   3   4
TORSDOF 3
ENDMDL
MODEL 2
REMARK VINA RESULT: -4.155294730      3.733      5.271
REMARK  3 active torsions:
REMARK  status: ('A' for Active; 'I' for Inactive)
REMARK    1  A    between atoms: C3_3  and  S1_4 
REMARK    2  A    between atoms: S1_4  and  S2_5 
REMARK    3  A    between atoms: S2_5  and  C4_6 
ROOT
HETATM    1  C1  UNL     1     131.529   0.425  69.392  1.00  0.00     0.113 C 
HETATM    2  C2  UNL     1     132.085   1.738  69.070  1.00  0.00    -0.098 C 
HETATM    3  C3  UNL     1     132.524   2.831  68.809  1.00  0.00    -0.023 C 
ENDROOT
BRANCH   3   4
HETATM    4  S1  UNL     1     133.140   4.442  68.434  1.00  0.00    -0.005 SA
BRANCH   4   5
HETATM    5  S2  UNL     1     131.638   5.633  67.549  1.00  0.00    -0.077 SA
BRANCH   5   6
HETATM    6  C4  UNL     1     130.131   4.707  67.223  1.00  0.00     0.086 C 
HETATM    7  C5  UNL     1     130.059   4.411  65.744  1.00  0.00     0.045 C 
HETATM    8  C6  UNL     1     128.900   5.287  65.257  1.00  0.00     0.233 C 
HETATM    9  N1  UNL     1     127.986   5.162  66.389  1.00  0.00    -0.074 N 
HETATM   10  C7  UNL     1     128.881   5.460  67.507  1.00  0.00     0.248 C 
ATOM     11  H12 UNL     1     127.144   5.735  66.338  1.00  0.00     0.277 HD
ATOM     12  H11 UNL     1     127.486   4.276  66.453  1.00  0.00     0.277 HD
ENDBRANCH   5   6
ENDBRANCH   4   5
ENDBRANCH   3   4
TORSDOF 3
ENDMDL
MODEL 3
REMARK VINA RESULT: -4.104824965     10.470     11.966
REMARK  3 active torsions:
REMARK  status: ('A' for Active; 'I' for Inactive)
REMARK    1  A    between atoms: C3_3  and  S1_4 
REMARK    2  A    between atoms: S1_4  and  S2_5 
REMARK    3  A    between atoms: S2_5  and  C4_6 
ROOT
HETATM    1  C1  UNL     1     127.213   7.702  70.466  1.00  0.00     0.113 C 
HETATM    2  C2  UNL     1     126.773   9.096  70.491  1.00  0.00    -0.098 C 
HETATM    3  C3  UNL     1     126.390  10.240  70.511  1.00  0.00    -0.023 C 
ENDROOT
BRANCH   3   4
HETATM    4  S1  UNL     1     125.800  11.903  70.538  1.00  0.00    -0.005 SA
BRANCH   4   5
HETATM    5  S2  UNL     1     123.775  11.972  71.130  1.00  0.00    -0.077 SA
BRANCH   5   6
HETATM    6  C4  UNL     1     122.945  13.463  70.562  1.00  0.00     0.086 C 
HETATM    7  C5  UNL     1     121.901  13.073  69.541  1.00  0.00     0.045 C 
HETATM    8  C6  UNL     1     122.463  13.618  68.225  1.00  0.00     0.233 C 
HETATM    9  N1  UNL     1     123.045  14.874  68.691  1.00  0.00    -0.074 N 
HETATM   10  C7  UNL     1     123.828  14.413  69.837  1.00  0.00     0.248 C 
ATOM     11  H12 UNL     1     123.565  15.403  67.990  1.00  0.00     0.277 HD
ATOM     12  H11 UNL     1     122.378  15.619  68.888  1.00  0.00     0.277 HD
ENDBRANCH   5   6
ENDBRANCH   4   5
ENDBRANCH   3   4
TORSDOF 3
ENDMDL
MODEL 4
REMARK VINA RESULT: -4.071479837      3.089      4.103
REMARK  3 active torsions:
REMARK  status: ('A' for Active; 'I' for Inactive)
REMARK    1  A    between atoms: C3_3  and  S1_4 
REMARK    2  A    between atoms: S1_4  and  S2_5 
REMARK    3  A    between atoms: S2_5  and  C4_6 
ROOT
HETATM    1  C1  UNL     1     133.680   0.765  72.480  1.00  0.00     0.113 C 
HETATM    2  C2  UNL     1     133.556   1.618  71.298  1.00  0.00    -0.098 C 
HETATM    3  C3  UNL     1     133.451   2.304  70.311  1.00  0.00    -0.023 C 
ENDROOT
BRANCH   3   4
HETATM    4  S1  UNL     1     133.295   3.282  68.851  1.00  0.00    -0.005 SA
BRANCH   4   5
HETATM    5  S2  UNL     1     135.152   4.128  68.311  1.00  0.00    -0.077 SA
BRANCH   5   6
HETATM    6  C4  UNL     1     135.655   5.447  69.426  1.00  0.00     0.086 C 
HETATM    7  C5  UNL     1     135.507   4.957  70.848  1.00  0.00     0.045 C 
HETATM    8  C6  UNL     1     134.332   5.776  71.390  1.00  0.00     0.233 C 
HETATM    9  N1  UNL     1     134.598   7.065  70.756  1.00  0.00    -0.074 N 
HETATM   10  C7  UNL     1     134.795   6.657  69.365  1.00  0.00     0.248 C 
ATOM     11  H12 UNL     1     133.888   7.782  70.906  1.00  0.00     0.277 HD
ATOM     12  H11 UNL     1     135.359   7.606  71.166  1.00  0.00     0.277 HD
ENDBRANCH   5   6
ENDBRANCH   4   5
ENDBRANCH   3   4
TORSDOF 3
ENDMDL
MODEL 5
REMARK VINA RESULT: -4.010608431     11.904     13.441
REMARK  3 active torsions:
REMARK  status: ('A' for Active; 'I' for Inactive)
REMARK    1  A    between atoms: C3_3  and  S1_4 
REMARK    2  A    between atoms: S1_4  and  S2_5 
REMARK    3  A    between atoms: S2_5  and  C4_6 
ROOT
HETATM    1  C1  UNL     1     126.812   9.507  70.770  1.00  0.00     0.113 C 
HETATM    2  C2  UNL     1     126.120  10.763  70.483  1.00  0.00    -0.098 C 
HETATM    3  C3  UNL     1     125.562  11.802  70.229  1.00  0.00    -0.023 C 
ENDROOT
BRANCH   3   4
HETATM    4  S1  UNL     1     124.765  13.326  69.836  1.00  0.00    -0.005 SA
BRANCH   4   5
HETATM    5  S2  UNL     1     122.668  13.087  69.794  1.00  0.00    -0.077 SA
BRANCH   5   6
HETATM    6  C4  UNL     1     121.995  12.640  71.401  1.00  0.00     0.086 C 
HETATM    7  C5  UNL     1     120.680  11.927  71.190  1.00  0.00     0.045 C 
HETATM    8  C6  UNL     1     119.642  12.924  71.714  1.00  0.00     0.233 C 
HETATM    9  N1  UNL     1     120.359  13.467  72.864  1.00  0.00    -0.074 N 
HETATM   10  C7  UNL     1     121.647  13.802  72.259  1.00  0.00     0.248 C 
ATOM     11  H12 UNL     1     119.892  14.232  73.352  1.00  0.00     0.277 HD
ATOM     12  H11 UNL     1     120.404  12.856  73.680  1.00  0.00     0.277 HD
ENDBRANCH   5   6
ENDBRANCH   4   5
ENDBRANCH   3   4
TORSDOF 3
ENDMDL
