MODEL 1
REMARK VINA RESULT: -4.397760090      0.000      0.000
REMARK  1 active torsions:
REMARK  status: ('A' for Active; 'I' for Inactive)
REMARK    1  A    between atoms: C3_3  and  C4_4 
ROOT
HETATM    1  C4  UNL     1     122.740  12.372  71.684  1.00  0.00     0.047 C 
HETATM    2  C5  UNL     1     122.009  11.864  70.476  1.00  0.00     0.091 C 
HETATM    3  C6  UNL     1     121.981  13.071  69.584  1.00  0.00     0.250 C 
HETATM    4  N1  UNL     1     122.481  14.196  70.356  1.00  0.00    -0.060 N 
ATOM      5  H11 UNL     1     122.060  15.089  70.101  1.00  0.00     0.278 HD
ATOM      6  H12 UNL     1     123.443  14.451  70.136  1.00  0.00     0.278 HD
HETATM    7  C7  UNL     1     122.279  13.832  71.726  1.00  0.00     0.263 C 
HETATM    8  S1  UNL     1     120.489  13.668  72.123  1.00  0.00    -0.063 SA
HETATM    9  S2  UNL     1     120.302  11.726  71.170  1.00  0.00    -0.088 SA
ENDROOT
BRANCH   1  10
HETATM   10  C3  UNL     1     124.219  12.271  71.613  1.00  0.00    -0.006 A 
HETATM   11  C1  UNL     1     124.879  11.322  72.567  1.00  0.00     0.005 A 
HETATM   12  C2  UNL     1     124.959  11.132  71.080  1.00  0.00     0.005 A 
ENDBRANCH   1  10
TORSDOF 1
ENDMDL
MODEL 2
REMARK VINA RESULT: -4.220216521      2.613      3.640
REMARK  1 active torsions:
REMARK  status: ('A' for Active; 'I' for Inactive)
REMARK    1  A    between atoms: C3_3  and  C4_4 
ROOT
HETATM    1  C4  UNL     1     122.457  12.833  70.674  1.00  0.00     0.047 C 
HETATM    2  C5  UNL     1     122.993  13.685  71.786  1.00  0.00     0.091 C 
HETATM    3  C6  UNL     1     123.090  15.037  71.140  1.00  0.00     0.250 C 
HETATM    4  N1  UNL     1     122.820  14.863  69.723  1.00  0.00    -0.060 N 
ATOM      5  H11 UNL     1     123.326  15.515  69.125  1.00  0.00     0.278 HD
ATOM      6  H12 UNL     1     121.882  15.150  69.445  1.00  0.00     0.278 HD
HETATM    7  C7  UNL     1     123.106  13.487  69.451  1.00  0.00     0.263 C 
HETATM    8  S1  UNL     1     124.890  13.107  69.702  1.00  0.00    -0.063 SA
HETATM    9  S2  UNL     1     124.727  13.052  71.867  1.00  0.00    -0.088 SA
ENDROOT
BRANCH   1  10
HETATM   10  C3  UNL     1     120.977  12.809  70.556  1.00  0.00    -0.006 A 
HETATM   11  C1  UNL     1     120.268  11.645  71.179  1.00  0.00     0.005 A 
HETATM   12  C2  UNL     1     120.044  13.053  71.650  1.00  0.00     0.005 A 
ENDBRANCH   1  10
TORSDOF 1
ENDMDL
MODEL 3
REMARK VINA RESULT: -4.114006153      5.180      5.888
REMARK  1 active torsions:
REMARK  status: ('A' for Active; 'I' for Inactive)
REMARK    1  A    between atoms: C3_3  and  C4_4 
ROOT
HETATM    1  C4  UNL     1     126.664   9.348  70.893  1.00  0.00     0.047 C 
HETATM    2  C5  UNL     1     127.443  10.309  70.046  1.00  0.00     0.091 C 
HETATM    3  C6  UNL     1     128.547  10.733  70.970  1.00  0.00     0.250 C 
HETATM    4  N1  UNL     1     128.249  10.189  72.284  1.00  0.00    -0.060 N 
ATOM      5  H11 UNL     1     128.573  10.774  73.055  1.00  0.00     0.278 HD
ATOM      6  H12 UNL     1     128.799   9.364  72.522  1.00  0.00     0.278 HD
HETATM    7  C7  UNL     1     126.836   9.961  72.286  1.00  0.00     0.263 C 
HETATM    8  S1  UNL     1     125.899  11.539  72.139  1.00  0.00    -0.063 SA
HETATM    9  S2  UNL     1     126.262  11.729  70.007  1.00  0.00    -0.088 SA
ENDROOT
BRANCH   1  10
HETATM   10  C3  UNL     1     127.144   7.943  70.856  1.00  0.00    -0.006 A 
HETATM   11  C1  UNL     1     126.287   6.955  70.124  1.00  0.00     0.005 A 
HETATM   12  C2  UNL     1     127.686   7.272  69.679  1.00  0.00     0.005 A 
ENDBRANCH   1  10
TORSDOF 1
ENDMDL
MODEL 4
REMARK VINA RESULT: -4.113593504      2.591      3.620
REMARK  1 active torsions:
REMARK  status: ('A' for Active; 'I' for Inactive)
REMARK    1  A    between atoms: C3_3  and  C4_4 
ROOT
HETATM    1  C4  UNL     1     122.342  12.957  71.456  1.00  0.00     0.047 C 
HETATM    2  C5  UNL     1     123.376  11.969  71.005  1.00  0.00     0.091 C 
HETATM    3  C6  UNL     1     124.104  11.657  72.281  1.00  0.00     0.250 C 
HETATM    4  N1  UNL     1     123.618  12.576  73.295  1.00  0.00    -0.060 N 
ATOM      5  H11 UNL     1     124.321  12.831  73.990  1.00  0.00     0.278 HD
ATOM      6  H12 UNL     1     122.954  12.158  73.946  1.00  0.00     0.278 HD
HETATM    7  C7  UNL     1     123.091  13.693  72.571  1.00  0.00     0.263 C 
HETATM    8  S1  UNL     1     124.411  14.577  71.641  1.00  0.00    -0.063 SA
HETATM    9  S2  UNL     1     124.499  13.090  70.060  1.00  0.00    -0.088 SA
ENDROOT
BRANCH   1  10
HETATM   10  C3  UNL     1     121.077  12.361  71.955  1.00  0.00    -0.006 A 
HETATM   11  C1  UNL     1     119.803  13.037  71.544  1.00  0.00     0.005 A 
HETATM   12  C2  UNL     1     120.117  11.625  71.138  1.00  0.00     0.005 A 
ENDBRANCH   1  10
TORSDOF 1
ENDMDL
MODEL 5
REMARK VINA RESULT: -4.098524662      6.265      7.195
REMARK  1 active torsions:
REMARK  status: ('A' for Active; 'I' for Inactive)
REMARK    1  A    between atoms: C3_3  and  C4_4 
ROOT
HETATM    1  C4  UNL     1     127.837   8.444  71.636  1.00  0.00     0.047 C 
HETATM    2  C5  UNL     1     127.192   9.494  72.490  1.00  0.00     0.091 C 
HETATM    3  C6  UNL     1     127.768  10.764  71.934  1.00  0.00     0.250 C 
HETATM    4  N1  UNL     1     128.806  10.392  70.988  1.00  0.00    -0.060 N 
ATOM      5  H11 UNL     1     129.577  11.059  70.939  1.00  0.00     0.278 HD
ATOM      6  H12 UNL     1     128.520  10.471  70.012  1.00  0.00     0.278 HD
HETATM    7  C7  UNL     1     129.208   9.072  71.366  1.00  0.00     0.263 C 
HETATM    8  S1  UNL     1     129.982   9.056  73.036  1.00  0.00    -0.063 SA
HETATM    9  S2  UNL     1     128.084   9.203  74.082  1.00  0.00    -0.088 SA
ENDROOT
BRANCH   1  10
HETATM   10  C3  UNL     1     127.123   8.136  70.371  1.00  0.00    -0.006 A 
HETATM   11  C1  UNL     1     127.619   6.960  69.584  1.00  0.00     0.005 A 
HETATM   12  C2  UNL     1     126.234   6.997  70.164  1.00  0.00     0.005 A 
ENDBRANCH   1  10
TORSDOF 1
ENDMDL
