MODEL 1
REMARK VINA RESULT: -5.037392919      0.000      0.000
REMARK  1 active torsions:
REMARK  status: ('A' for Active; 'I' for Inactive)
REMARK    1  A    between atoms: N1_3  and  C2_5 
ROOT
HETATM    1  S1  UNL     1     124.847  17.674  69.518  1.00  0.00    -0.075 SA
HETATM    2  C1  UNL     1     124.090  16.354  69.048  1.00  0.00     0.166 C 
HETATM    3  N1  UNL     1     123.316  15.430  68.689  1.00  0.00    -0.384 N 
ATOM      4  H1  UNL     1     122.652  15.611  67.937  1.00  0.00     0.160 HD
ENDROOT
BRANCH   3   5
HETATM    5  C2  UNL     1     123.331  14.110  69.305  1.00  0.00     0.109 C 
HETATM    6  C3  UNL     1     123.372  14.375  70.816  1.00  0.00     0.258 C 
HETATM    7  N2  UNL     1     121.933  14.365  71.107  1.00  0.00    -0.064 N 
HETATM    8  C4  UNL     1     121.516  13.165  70.442  1.00  0.00     0.128 A 
ATOM      9  H22 UNL     1     121.689  14.422  72.095  1.00  0.00     0.278 HD
ATOM     10  H21 UNL     1     121.429  15.210  70.838  1.00  0.00     0.278 HD
HETATM   11  C5  UNL     1     120.093  12.767  70.558  1.00  0.00     0.039 A 
HETATM   12  C7  UNL     1     121.989  11.948  71.177  1.00  0.00     0.039 A 
HETATM   13  C8  UNL     1     122.063  13.351  69.049  1.00  0.00     0.065 C 
HETATM   14  C6  UNL     1     120.545  11.507  71.285  1.00  0.00     0.005 A 
ENDBRANCH   3   5
TORSDOF 1
ENDMDL
MODEL 2
REMARK VINA RESULT: -4.647596820     15.148     16.012
REMARK  1 active torsions:
REMARK  status: ('A' for Active; 'I' for Inactive)
REMARK    1  A    between atoms: N1_3  and  C2_5 
ROOT
HETATM    1  S1  UNL     1     131.344   0.407  70.093  1.00  0.00    -0.075 SA
HETATM    2  C1  UNL     1     132.348   1.597  70.425  1.00  0.00     0.166 C 
HETATM    3  N1  UNL     1     132.968   2.660  70.685  1.00  0.00    -0.384 N 
ATOM      4  H1  UNL     1     132.632   3.250  71.446  1.00  0.00     0.160 HD
ENDROOT
BRANCH   3   5
HETATM    5  C2  UNL     1     134.148   3.082  69.942  1.00  0.00     0.109 C 
HETATM    6  C3  UNL     1     133.639   3.397  68.530  1.00  0.00     0.258 C 
HETATM    7  N2  UNL     1     133.366   4.832  68.680  1.00  0.00    -0.064 N 
HETATM    8  C4  UNL     1     134.577   5.290  69.294  1.00  0.00     0.128 A 
ATOM      9  H22 UNL     1     133.102   5.316  67.823  1.00  0.00     0.278 HD
ATOM     10  H21 UNL     1     132.508   5.061  69.183  1.00  0.00     0.278 HD
HETATM   11  C5  UNL     1     134.713   6.742  69.560  1.00  0.00     0.039 A 
HETATM   12  C7  UNL     1     135.711   5.292  68.314  1.00  0.00     0.039 A 
HETATM   13  C8  UNL     1     134.724   4.362  70.473  1.00  0.00     0.065 C 
HETATM   14  C6  UNL     1     135.887   6.771  68.589  1.00  0.00     0.005 A 
ENDBRANCH   3   5
TORSDOF 1
ENDMDL
MODEL 3
REMARK VINA RESULT: -4.621146661      2.969      3.395
REMARK  1 active torsions:
REMARK  status: ('A' for Active; 'I' for Inactive)
REMARK    1  A    between atoms: N1_3  and  C2_5 
ROOT
HETATM    1  S1  UNL     1     126.404  10.177  70.696  1.00  0.00    -0.075 SA
HETATM    2  C1  UNL     1     125.439  11.421  70.454  1.00  0.00     0.166 C 
HETATM    3  N1  UNL     1     124.856  12.511  70.219  1.00  0.00    -0.384 N 
ATOM      4  H1  UNL     1     125.070  13.004  69.353  1.00  0.00     0.160 HD
ENDROOT
BRANCH   3   5
HETATM    5  C2  UNL     1     123.886  13.095  71.136  1.00  0.00     0.109 C 
HETATM    6  C3  UNL     1     123.158  14.169  70.317  1.00  0.00     0.258 C 
HETATM    7  N2  UNL     1     122.030  13.375  69.816  1.00  0.00    -0.064 N 
HETATM    8  C4  UNL     1     121.576  12.735  71.016  1.00  0.00     0.128 A 
ATOM      9  H22 UNL     1     121.320  13.901  69.308  1.00  0.00     0.278 HD
ATOM     10  H21 UNL     1     122.249  12.746  69.043  1.00  0.00     0.278 HD
HETATM   11  C5  UNL     1     120.378  11.868  70.929  1.00  0.00     0.039 A 
HETATM   12  C7  UNL     1     120.889  13.713  71.922  1.00  0.00     0.039 A 
HETATM   13  C8  UNL     1     122.837  12.108  71.555  1.00  0.00     0.065 C 
HETATM   14  C6  UNL     1     119.661  12.828  71.869  1.00  0.00     0.005 A 
ENDBRANCH   3   5
TORSDOF 1
ENDMDL
MODEL 4
REMARK VINA RESULT: -4.590795487     14.954     15.501
REMARK  1 active torsions:
REMARK  status: ('A' for Active; 'I' for Inactive)
REMARK    1  A    between atoms: N1_3  and  C2_5 
ROOT
HETATM    1  S1  UNL     1     132.126   6.039  67.443  1.00  0.00    -0.075 SA
HETATM    2  C1  UNL     1     133.216   5.667  68.543  1.00  0.00     0.166 C 
HETATM    3  N1  UNL     1     134.203   5.513  69.308  1.00  0.00    -0.384 N 
ATOM      4  H1  UNL     1     134.648   6.339  69.707  1.00  0.00     0.160 HD
ENDROOT
BRANCH   3   5
HETATM    5  C2  UNL     1     134.733   4.199  69.649  1.00  0.00     0.109 C 
HETATM    6  C3  UNL     1     134.732   4.153  71.182  1.00  0.00     0.258 C 
HETATM    7  N2  UNL     1     133.414   3.550  71.411  1.00  0.00    -0.064 N 
HETATM    8  C4  UNL     1     133.446   2.440  70.504  1.00  0.00     0.128 A 
ATOM      9  H22 UNL     1     133.206   3.314  72.381  1.00  0.00     0.278 HD
ATOM     10  H21 UNL     1     132.621   4.182  71.298  1.00  0.00     0.278 HD
HETATM   11  C5  UNL     1     132.280   1.526  70.485  1.00  0.00     0.039 A 
HETATM   12  C7  UNL     1     134.368   1.366  70.999  1.00  0.00     0.039 A 
HETATM   13  C8  UNL     1     133.829   3.090  69.198  1.00  0.00     0.065 C 
HETATM   14  C6  UNL     1     133.196   0.407  70.962  1.00  0.00     0.005 A 
ENDBRANCH   3   5
TORSDOF 1
ENDMDL
MODEL 5
REMARK VINA RESULT: -4.470215255      2.580      4.954
REMARK  1 active torsions:
REMARK  status: ('A' for Active; 'I' for Inactive)
REMARK    1  A    between atoms: N1_3  and  C2_5 
ROOT
HETATM    1  S1  UNL     1     120.149  12.096  71.206  1.00  0.00    -0.075 SA
HETATM    2  C1  UNL     1     121.178  13.311  71.252  1.00  0.00     0.166 C 
HETATM    3  N1  UNL     1     121.878  14.348  71.125  1.00  0.00    -0.384 N 
ATOM      4  H1  UNL     1     121.410  15.253  71.083  1.00  0.00     0.160 HD
ENDROOT
BRANCH   3   5
HETATM    5  C2  UNL     1     123.331  14.307  71.036  1.00  0.00     0.109 C 
HETATM    6  C3  UNL     1     123.630  13.714  69.653  1.00  0.00     0.258 C 
HETATM    7  N2  UNL     1     123.734  14.951  68.870  1.00  0.00    -0.064 N 
HETATM    8  C4  UNL     1     124.609  15.735  69.691  1.00  0.00     0.128 A 
ATOM      9  H22 UNL     1     124.036  14.831  67.904  1.00  0.00     0.278 HD
ATOM     10  H21 UNL     1     122.845  15.394  68.635  1.00  0.00     0.278 HD
HETATM   11  C5  UNL     1     125.012  17.073  69.195  1.00  0.00     0.039 A 
HETATM   12  C7  UNL     1     126.014  15.214  69.634  1.00  0.00     0.039 A 
HETATM   13  C8  UNL     1     123.937  15.680  71.040  1.00  0.00     0.065 C 
HETATM   14  C6  UNL     1     126.453  16.580  69.152  1.00  0.00     0.005 A 
ENDBRANCH   3   5
TORSDOF 1
ENDMDL
