MODEL 1
REMARK VINA RESULT: -5.079500182      0.000      0.000
REMARK  3 active torsions:
REMARK  status: ('A' for Active; 'I' for Inactive)
REMARK    1  A    between atoms: O1_2  and  C2_3 
REMARK    2  A    between atoms: C2_3  and  O2_4 
REMARK    3  A    between atoms: C4_7  and  C5_8 
ROOT
HETATM    1  C2  UNL     1     128.447   4.714  67.154  1.00  0.00     0.280 C 
HETATM    2  C3  UNL     1     128.212   5.535  65.891  1.00  0.00     0.109 C 
HETATM    3  C4  UNL     1     129.653   5.954  65.691  1.00  0.00     0.024 C 
HETATM    4  C9  UNL     1     130.314   4.619  65.919  1.00  0.00     0.179 C 
HETATM    5  O3  UNL     1     129.697   4.159  67.052  1.00  0.00    -0.333 OA
ENDROOT
BRANCH   1   6
HETATM    6  O1  UNL     1     128.490   5.663  68.184  1.00  0.00    -0.338 OA
HETATM    7  C1  UNL     1     127.221   6.034  68.605  1.00  0.00     0.208 C 
ENDBRANCH   1   6
BRANCH   1   8
HETATM    8  O2  UNL     1     127.440   3.783  67.353  1.00  0.00    -0.343 OA
ATOM      9  H2  UNL     1     127.056   3.498  66.532  1.00  0.00     0.215 HD
ENDBRANCH   1   8
BRANCH   3  10
HETATM   10  C5  UNL     1     129.926   6.549  64.356  1.00  0.00    -0.045 C 
HETATM   11  C6  UNL     1     131.361   6.406  63.944  1.00  0.00     0.015 C 
HETATM   12  C7  UNL     1     129.477   7.970  64.223  1.00  0.00     0.015 C 
HETATM   13  C8  UNL     1     129.102   5.734  63.345  1.00  0.00     0.015 C 
ENDBRANCH   3  10
TORSDOF 3
ENDMDL
MODEL 2
REMARK VINA RESULT: -4.900743957      5.747      6.796
REMARK  3 active torsions:
REMARK  status: ('A' for Active; 'I' for Inactive)
REMARK    1  A    between atoms: O1_2  and  C2_3 
REMARK    2  A    between atoms: C2_3  and  O2_4 
REMARK    3  A    between atoms: C4_7  and  C5_8 
ROOT
HETATM    1  C2  UNL     1     133.857   2.423  70.632  1.00  0.00     0.280 C 
HETATM    2  C3  UNL     1     134.173   3.089  69.298  1.00  0.00     0.109 C 
HETATM    3  C4  UNL     1     133.941   4.512  69.759  1.00  0.00     0.024 C 
HETATM    4  C9  UNL     1     134.693   4.456  71.063  1.00  0.00     0.179 C 
HETATM    5  O3  UNL     1     134.257   3.285  71.622  1.00  0.00    -0.333 OA
ENDROOT
BRANCH   1   6
HETATM    6  O1  UNL     1     132.457   2.362  70.669  1.00  0.00    -0.338 OA
HETATM    7  C1  UNL     1     131.964   1.284  69.947  1.00  0.00     0.208 C 
ENDBRANCH   1   6
BRANCH   1   8
HETATM    8  O2  UNL     1     134.430   1.165  70.725  1.00  0.00    -0.343 OA
ATOM      9  H2  UNL     1     135.008   1.095  71.476  1.00  0.00     0.215 HD
ENDBRANCH   1   8
BRANCH   3  10
HETATM   10  C5  UNL     1     134.441   5.540  68.810  1.00  0.00    -0.045 C 
HETATM   11  C6  UNL     1     135.053   6.719  69.507  1.00  0.00     0.015 C 
HETATM   12  C7  UNL     1     133.423   5.988  67.808  1.00  0.00     0.015 C 
HETATM   13  C8  UNL     1     135.575   4.875  68.011  1.00  0.00     0.015 C 
ENDBRANCH   3  10
TORSDOF 3
ENDMDL
MODEL 3
REMARK VINA RESULT: -4.840493114      9.748     11.566
REMARK  3 active torsions:
REMARK  status: ('A' for Active; 'I' for Inactive)
REMARK    1  A    between atoms: O1_2  and  C2_3 
REMARK    2  A    between atoms: C2_3  and  O2_4 
REMARK    3  A    between atoms: C4_7  and  C5_8 
ROOT
HETATM    1  C2  UNL     1     123.791  15.209  69.441  1.00  0.00     0.280 C 
HETATM    2  C3  UNL     1     123.806  13.686  69.385  1.00  0.00     0.109 C 
HETATM    3  C4  UNL     1     124.000  13.463  70.870  1.00  0.00     0.024 C 
HETATM    4  C9  UNL     1     122.980  14.445  71.384  1.00  0.00     0.179 C 
HETATM    5  O3  UNL     1     123.227  15.567  70.640  1.00  0.00    -0.333 OA
ENDROOT
BRANCH   1   6
HETATM    6  O1  UNL     1     125.145  15.569  69.490  1.00  0.00    -0.338 OA
HETATM    7  C1  UNL     1     125.329  16.930  69.288  1.00  0.00     0.208 C 
ENDBRANCH   1   6
BRANCH   1   8
HETATM    8  O2  UNL     1     123.152  15.755  68.340  1.00  0.00    -0.343 OA
ATOM      9  H2  UNL     1     122.295  15.367  68.201  1.00  0.00     0.215 HD
ENDBRANCH   1   8
BRANCH   3  10
HETATM   10  C5  UNL     1     123.768  12.060  71.302  1.00  0.00    -0.045 C 
HETATM   11  C6  UNL     1     123.552  11.941  72.782  1.00  0.00     0.015 C 
HETATM   12  C7  UNL     1     124.823  11.102  70.843  1.00  0.00     0.015 C 
HETATM   13  C8  UNL     1     122.455  11.615  70.637  1.00  0.00     0.015 C 
ENDBRANCH   3  10
TORSDOF 3
ENDMDL
MODEL 4
REMARK VINA RESULT: -4.834875664      9.826     11.644
REMARK  3 active torsions:
REMARK  status: ('A' for Active; 'I' for Inactive)
REMARK    1  A    between atoms: O1_2  and  C2_3 
REMARK    2  A    between atoms: C2_3  and  O2_4 
REMARK    3  A    between atoms: C4_7  and  C5_8 
ROOT
HETATM    1  C2  UNL     1     123.735  15.265  69.373  1.00  0.00     0.280 C 
HETATM    2  C3  UNL     1     123.638  13.744  69.319  1.00  0.00     0.109 C 
HETATM    3  C4  UNL     1     123.822  13.510  70.804  1.00  0.00     0.024 C 
HETATM    4  C9  UNL     1     122.878  14.564  71.320  1.00  0.00     0.179 C 
HETATM    5  O3  UNL     1     123.203  15.664  70.573  1.00  0.00    -0.333 OA
ENDROOT
BRANCH   1   6
HETATM    6  O1  UNL     1     125.111  15.526  69.415  1.00  0.00    -0.338 OA
HETATM    7  C1  UNL     1     125.387  16.882  69.320  1.00  0.00     0.208 C 
ENDBRANCH   1   6
BRANCH   1   8
HETATM    8  O2  UNL     1     123.132  15.855  68.274  1.00  0.00    -0.343 OA
ATOM      9  H2  UNL     1     122.229  15.575  68.175  1.00  0.00     0.215 HD
ENDBRANCH   1   8
BRANCH   3  10
HETATM   10  C5  UNL     1     123.491  12.128  71.239  1.00  0.00    -0.045 C 
HETATM   11  C6  UNL     1     122.274  11.584  70.552  1.00  0.00     0.015 C 
HETATM   12  C7  UNL     1     123.376  11.970  72.723  1.00  0.00     0.015 C 
HETATM   13  C8  UNL     1     124.669  11.242  70.796  1.00  0.00     0.015 C 
ENDBRANCH   3  10
TORSDOF 3
ENDMDL
MODEL 5
REMARK VINA RESULT: -4.806159549     10.919     12.028
REMARK  3 active torsions:
REMARK  status: ('A' for Active; 'I' for Inactive)
REMARK    1  A    between atoms: O1_2  and  C2_3 
REMARK    2  A    between atoms: C2_3  and  O2_4 
REMARK    3  A    between atoms: C4_7  and  C5_8 
ROOT
HETATM    1  C2  UNL     1     123.797  14.503  69.497  1.00  0.00     0.280 C 
HETATM    2  C3  UNL     1     123.518  13.710  70.769  1.00  0.00     0.109 C 
HETATM    3  C4  UNL     1     122.023  13.578  70.561  1.00  0.00     0.024 C 
HETATM    4  C9  UNL     1     122.029  13.184  69.106  1.00  0.00     0.179 C 
HETATM    5  O3  UNL     1     122.903  14.078  68.547  1.00  0.00    -0.333 OA
ENDROOT
BRANCH   1   6
HETATM    6  O1  UNL     1     123.464  15.823  69.828  1.00  0.00    -0.338 OA
HETATM    7  C1  UNL     1     123.767  16.709  68.804  1.00  0.00     0.208 C 
ENDBRANCH   1   6
BRANCH   1   8
HETATM    8  O2  UNL     1     125.121  14.389  69.105  1.00  0.00    -0.343 OA
ATOM      9  H2  UNL     1     125.243  13.690  68.472  1.00  0.00     0.215 HD
ENDBRANCH   1   8
BRANCH   3  10
HETATM   10  C5  UNL     1     121.378  12.585  71.459  1.00  0.00    -0.045 C 
HETATM   11  C6  UNL     1     120.808  11.417  70.711  1.00  0.00     0.015 C 
HETATM   12  C7  UNL     1     120.355  13.174  72.378  1.00  0.00     0.015 C 
HETATM   13  C8  UNL     1     122.495  12.022  72.353  1.00  0.00     0.015 C 
ENDBRANCH   3  10
TORSDOF 3
ENDMDL
