MODEL 1
REMARK VINA RESULT: -5.032770353      0.000      0.000
REMARK  2 active torsions:
REMARK  status: ('A' for Active; 'I' for Inactive)
REMARK    1  A    between atoms: C2_2  and  C3_3 
REMARK    2  A    between atoms: C3_3  and  O1_4 
ROOT
HETATM    1  C3  UNL     1     122.116  13.918  71.441  1.00  0.00     0.069 C 
HETATM    2  C4  UNL     1     120.812  14.230  72.110  1.00  0.00     0.076 C 
HETATM    3  C5  UNL     1     119.807  13.229  71.662  1.00  0.00     0.196 C 
HETATM    4  O2  UNL     1     119.981  11.923  72.065  1.00  0.00    -0.232 OA
HETATM    5  O3  UNL     1     120.074  11.352  70.861  1.00  0.00    -0.232 OA
HETATM    6  C6  UNL     1     120.343  12.654  70.381  1.00  0.00     0.203 C 
HETATM    7  C7  UNL     1     121.842  12.880  70.425  1.00  0.00     0.015 C 
HETATM    8  C8  UNL     1     122.215  13.441  69.048  1.00  0.00     0.021 C 
HETATM    9  C9  UNL     1     122.586  11.596  70.587  1.00  0.00     0.021 C 
ENDROOT
BRANCH   1  10
HETATM   10  C2  UNL     1     123.112  13.528  72.507  1.00  0.00     0.034 C 
HETATM   11  C1  UNL     1     124.368  14.340  72.494  1.00  0.00     0.008 C 
ENDBRANCH   1  10
BRANCH   1  12
HETATM   12  O1  UNL     1     122.637  15.096  70.854  1.00  0.00    -0.389 OA
ATOM     13  H1  UNL     1     122.585  14.954  69.916  1.00  0.00     0.210 HD
ENDBRANCH   1  12
TORSDOF 2
ENDMDL
MODEL 2
REMARK VINA RESULT: -4.957259929      1.337      1.557
REMARK  2 active torsions:
REMARK  status: ('A' for Active; 'I' for Inactive)
REMARK    1  A    between atoms: C2_2  and  C3_3 
REMARK    2  A    between atoms: C3_3  and  O1_4 
ROOT
HETATM    1  C3  UNL     1     122.618  13.036  71.641  1.00  0.00     0.069 C 
HETATM    2  C4  UNL     1     122.103  14.049  72.617  1.00  0.00     0.076 C 
HETATM    3  C5  UNL     1     120.625  14.129  72.468  1.00  0.00     0.196 C 
HETATM    4  O2  UNL     1     119.883  13.030  72.841  1.00  0.00    -0.232 OA
HETATM    5  O3  UNL     1     119.299  12.774  71.668  1.00  0.00    -0.232 OA
HETATM    6  C6  UNL     1     120.319  13.575  71.106  1.00  0.00     0.203 C 
HETATM    7  C7  UNL     1     121.491  12.679  70.754  1.00  0.00     0.015 C 
HETATM    8  C8  UNL     1     121.873  13.045  69.316  1.00  0.00     0.021 C 
HETATM    9  C9  UNL     1     121.098  11.239  70.746  1.00  0.00     0.021 C 
ENDROOT
BRANCH   1  10
HETATM   10  C2  UNL     1     123.213  11.887  72.420  1.00  0.00     0.034 C 
HETATM   11  C1  UNL     1     124.589  11.499  71.980  1.00  0.00     0.008 C 
ENDBRANCH   1  10
BRANCH   1  12
HETATM   12  O1  UNL     1     123.697  13.593  70.911  1.00  0.00    -0.389 OA
ATOM     13  H1  UNL     1     124.201  14.088  71.546  1.00  0.00     0.210 HD
ENDBRANCH   1  12
TORSDOF 2
ENDMDL
MODEL 3
REMARK VINA RESULT: -4.899740730     14.443     15.736
REMARK  2 active torsions:
REMARK  status: ('A' for Active; 'I' for Inactive)
REMARK    1  A    between atoms: C2_2  and  C3_3 
REMARK    2  A    between atoms: C3_3  and  O1_4 
ROOT
HETATM    1  C3  UNL     1     134.092   3.712  68.951  1.00  0.00     0.069 C 
HETATM    2  C4  UNL     1     134.125   3.159  70.343  1.00  0.00     0.076 C 
HETATM    3  C5  UNL     1     134.545   4.246  71.267  1.00  0.00     0.196 C 
HETATM    4  O2  UNL     1     133.680   5.304  71.446  1.00  0.00    -0.232 OA
HETATM    5  O3  UNL     1     134.478   6.289  71.024  1.00  0.00    -0.232 OA
HETATM    6  C6  UNL     1     135.238   5.267  70.411  1.00  0.00     0.203 C 
HETATM    7  C7  UNL     1     134.707   5.054  69.006  1.00  0.00     0.015 C 
HETATM    8  C8  UNL     1     135.939   5.060  68.094  1.00  0.00     0.021 C 
HETATM    9  C9  UNL     1     133.839   6.188  68.570  1.00  0.00     0.021 C 
ENDROOT
BRANCH   1  10
HETATM   10  C2  UNL     1     132.663   3.678  68.463  1.00  0.00     0.034 C 
HETATM   11  C1  UNL     1     131.993   2.351  68.630  1.00  0.00     0.008 C 
ENDBRANCH   1  10
BRANCH   1  12
HETATM   12  O1  UNL     1     134.805   2.848  68.085  1.00  0.00    -0.389 OA
ATOM     13  H1  UNL     1     135.594   2.612  68.558  1.00  0.00     0.210 HD
ENDBRANCH   1  12
TORSDOF 2
ENDMDL
MODEL 4
REMARK VINA RESULT: -4.769764924      1.628      2.949
REMARK  2 active torsions:
REMARK  status: ('A' for Active; 'I' for Inactive)
REMARK    1  A    between atoms: C2_2  and  C3_3 
REMARK    2  A    between atoms: C3_3  and  O1_4 
ROOT
HETATM    1  C3  UNL     1     122.446  12.492  70.587  1.00  0.00     0.069 C 
HETATM    2  C4  UNL     1     121.135  12.002  70.052  1.00  0.00     0.076 C 
HETATM    3  C5  UNL     1     120.079  12.314  71.051  1.00  0.00     0.196 C 
HETATM    4  O2  UNL     1     119.773  13.640  71.267  1.00  0.00    -0.232 OA
HETATM    5  O3  UNL     1     120.061  13.703  72.569  1.00  0.00    -0.232 OA
HETATM    6  C6  UNL     1     120.794  12.514  72.357  1.00  0.00     0.203 C 
HETATM    7  C7  UNL     1     122.218  12.887  71.992  1.00  0.00     0.015 C 
HETATM    8  C8  UNL     1     123.113  12.027  72.889  1.00  0.00     0.021 C 
HETATM    9  C9  UNL     1     122.512  14.313  72.325  1.00  0.00     0.021 C 
ENDROOT
BRANCH   1  10
HETATM   10  C2  UNL     1     122.945  13.592  69.681  1.00  0.00     0.034 C 
HETATM   11  C1  UNL     1     122.337  13.579  68.314  1.00  0.00     0.008 C 
ENDBRANCH   1  10
BRANCH   1  12
HETATM   12  O1  UNL     1     123.410  11.459  70.488  1.00  0.00    -0.389 OA
ATOM     13  H1  UNL     1     123.276  10.915  71.255  1.00  0.00     0.210 HD
ENDBRANCH   1  12
TORSDOF 2
ENDMDL
MODEL 5
REMARK VINA RESULT: -4.634312075      1.906      3.848
REMARK  2 active torsions:
REMARK  status: ('A' for Active; 'I' for Inactive)
REMARK    1  A    between atoms: C2_2  and  C3_3 
REMARK    2  A    between atoms: C3_3  and  O1_4 
ROOT
HETATM    1  C3  UNL     1     122.108  13.147  70.763  1.00  0.00     0.069 C 
HETATM    2  C4  UNL     1     122.703  13.527  69.441  1.00  0.00     0.076 C 
HETATM    3  C5  UNL     1     124.178  13.622  69.605  1.00  0.00     0.196 C 
HETATM    4  O2  UNL     1     124.871  12.458  69.858  1.00  0.00    -0.232 OA
HETATM    5  O3  UNL     1     125.408  12.796  71.033  1.00  0.00    -0.232 OA
HETATM    6  C6  UNL     1     124.418  13.803  71.077  1.00  0.00     0.203 C 
HETATM    7  C7  UNL     1     123.190  13.238  71.765  1.00  0.00     0.015 C 
HETATM    8  C8  UNL     1     122.790  14.278  72.816  1.00  0.00     0.021 C 
HETATM    9  C9  UNL     1     123.506  11.977  72.500  1.00  0.00     0.021 C 
ENDROOT
BRANCH   1  10
HETATM   10  C2  UNL     1     121.474  11.784  70.621  1.00  0.00     0.034 C 
HETATM   11  C1  UNL     1     120.070  11.708  71.133  1.00  0.00     0.008 C 
ENDBRANCH   1  10
BRANCH   1  12
HETATM   12  O1  UNL     1     121.041  14.027  71.068  1.00  0.00    -0.389 OA
ATOM     13  H1  UNL     1     120.695  14.304  70.228  1.00  0.00     0.210 HD
ENDBRANCH   1  12
TORSDOF 2
ENDMDL
