MODEL 1
REMARK VINA RESULT: -7.807980086      0.000      0.000
REMARK  11 active torsions:
REMARK  status: ('A' for Active; 'I' for Inactive)
REMARK    1  A    between atoms: N1_2  and  C3_4 
REMARK    2  A    between atoms: C8_10  and  O2_11 
REMARK    3  A    between atoms: O2_11  and  C9_12 
REMARK    4  A    between atoms: C10_13  and  O3_14 
REMARK    5  A    between atoms: C11_16  and  O4_17 
REMARK    6  A    between atoms: C17_24  and  O5_25 
REMARK    7  A    between atoms: O5_25  and  C18_26 
REMARK    8  A    between atoms: C20_29  and  O7_31 
REMARK    9  A    between atoms: C22_33  and  O8_34 
REMARK   10  A    between atoms: C23_36  and  O9_37 
REMARK   11  A    between atoms: C27_42  and  O10_43 
ROOT
HETATM    1  C9  UNL     1     -14.121   0.729   0.889  1.00  0.00     0.166 C 
HETATM    2  C10 UNL     1     -15.463   1.242   1.238  1.00  0.00     0.183 C 
HETATM    3  C11 UNL     1     -16.399   1.419   0.100  1.00  0.00     0.096 C 
HETATM    4  C12 UNL     1     -17.162   2.692   0.073  1.00  0.00     0.041 C 
HETATM    5  C13 UNL     1     -17.535   2.856  -1.371  1.00  0.00     0.004 C 
HETATM    6  C14 UNL     1     -16.841   1.711  -2.127  1.00  0.00     0.015 C 
HETATM    7  C15 UNL     1     -15.659   1.476  -1.218  1.00  0.00     0.017 C 
HETATM    8  C16 UNL     1     -14.761   2.679  -1.321  1.00  0.00     0.021 C 
HETATM    9  C17 UNL     1     -14.866   0.258  -1.475  1.00  0.00     0.146 C 
HETATM   10  C24 UNL     1     -14.062  -0.206  -0.285  1.00  0.00     0.008 C 
HETATM   11  C25 UNL     1     -12.609  -0.299  -0.698  1.00  0.00     0.020 C 
HETATM   12  C26 UNL     1     -14.491  -1.598   0.123  1.00  0.00     0.020 C 
ENDROOT
BRANCH   1  13
HETATM   13  O2  UNL     1     -13.593   0.029   1.973  1.00  0.00    -0.350 OA
BRANCH  13  14
HETATM   14  C8  UNL     1     -12.585   0.689   2.631  1.00  0.00     0.292 C 
HETATM   15  O1  UNL     1     -12.100   1.669   1.758  1.00  0.00    -0.348 OA
HETATM   16  C5  UNL     1     -11.103   2.440   2.334  1.00  0.00     0.059 C 
HETATM   17  C4  UNL     1     -10.035   1.616   3.012  1.00  0.00     0.076 C 
HETATM   18  C6  UNL     1     -10.426   3.204   1.208  1.00  0.00     0.045 C 
HETATM   19  C7  UNL     1     -11.697   3.418   3.329  1.00  0.00     0.045 C 
HETATM   20  C3  UNL     1     -10.132   0.214   2.509  1.00  0.00     0.258 C 
HETATM   21  C27 UNL     1     -11.492  -0.322   2.911  1.00  0.00     0.206 C 
BRANCH  20  22
HETATM   22  N1  UNL     1      -9.085  -0.644   3.030  1.00  0.00     0.087 N 
HETATM   23  C1  UNL     1      -8.248   0.074   3.970  1.00  0.00     0.310 C 
HETATM   24  C2  UNL     1      -8.219  -1.057   1.939  1.00  0.00     0.310 C 
ENDBRANCH  20  22
BRANCH  21  25
HETATM   25  O10 UNL     1     -11.493  -0.711   4.261  1.00  0.00    -0.388 OA
ATOM     26  H10 UNL     1     -11.251  -1.625   4.348  1.00  0.00     0.210 HD
ENDBRANCH  21  25
ENDBRANCH  13  14
ENDBRANCH   1  13
BRANCH   2  27
HETATM   27  O3  UNL     1     -15.350   2.491   1.884  1.00  0.00    -0.390 OA
ATOM     28  H3  UNL     1     -15.964   2.539   2.608  1.00  0.00     0.210 HD
ENDBRANCH   2  27
BRANCH   3  29
HETATM   29  O4  UNL     1     -17.341   0.383   0.005  1.00  0.00    -0.386 OA
ATOM     30  H4  UNL     1     -17.996   0.541  -0.666  1.00  0.00     0.210 HD
ENDBRANCH   3  29
BRANCH   9  31
HETATM   31  O5  UNL     1     -15.717  -0.759  -1.934  1.00  0.00    -0.352 OA
BRANCH  31  32
HETATM   32  C18 UNL     1     -15.407  -1.212  -3.195  1.00  0.00     0.291 C 
HETATM   33  O6  UNL     1     -14.905  -2.540  -3.028  1.00  0.00    -0.355 OA
HETATM   34  C19 UNL     1     -14.200  -2.837  -4.172  1.00  0.00     0.211 C 
HETATM   35  C20 UNL     1     -15.021  -2.807  -5.420  1.00  0.00     0.104 C 
HETATM   36  C21 UNL     1     -14.086  -2.814  -6.612  1.00  0.00     0.051 C 
HETATM   37  C22 UNL     1     -15.907  -1.608  -5.534  1.00  0.00     0.187 C 
HETATM   38  C23 UNL     1     -16.530  -1.348  -4.155  1.00  0.00     0.205 C 
BRANCH  35  39
HETATM   39  O7  UNL     1     -15.765  -3.992  -5.476  1.00  0.00    -0.385 OA
ATOM     40  H7  UNL     1     -16.463  -3.870  -6.108  1.00  0.00     0.210 HD
ENDBRANCH  35  39
BRANCH  37  41
HETATM   41  O8  UNL     1     -16.909  -1.850  -6.475  1.00  0.00    -0.390 OA
ATOM     42  H8  UNL     1     -17.754  -1.611  -6.112  1.00  0.00     0.210 HD
ENDBRANCH  37  41
BRANCH  38  43
HETATM   43  O9  UNL     1     -17.263  -2.498  -3.858  1.00  0.00    -0.388 OA
ATOM     44  H9  UNL     1     -16.683  -3.162  -3.502  1.00  0.00     0.210 HD
ENDBRANCH  38  43
ENDBRANCH  31  32
ENDBRANCH   9  31
TORSDOF 11
ENDMDL
MODEL 2
REMARK VINA RESULT: -7.479309314      1.145      1.348
REMARK  11 active torsions:
REMARK  status: ('A' for Active; 'I' for Inactive)
REMARK    1  A    between atoms: N1_2  and  C3_4 
REMARK    2  A    between atoms: C8_10  and  O2_11 
REMARK    3  A    between atoms: O2_11  and  C9_12 
REMARK    4  A    between atoms: C10_13  and  O3_14 
REMARK    5  A    between atoms: C11_16  and  O4_17 
REMARK    6  A    between atoms: C17_24  and  O5_25 
REMARK    7  A    between atoms: O5_25  and  C18_26 
REMARK    8  A    between atoms: C20_29  and  O7_31 
REMARK    9  A    between atoms: C22_33  and  O8_34 
REMARK   10  A    between atoms: C23_36  and  O9_37 
REMARK   11  A    between atoms: C27_42  and  O10_43 
ROOT
HETATM    1  C9  UNL     1     -13.718   1.212   1.408  1.00  0.00     0.166 C 
HETATM    2  C10 UNL     1     -14.924   1.892   1.926  1.00  0.00     0.183 C 
HETATM    3  C11 UNL     1     -15.933   2.275   0.908  1.00  0.00     0.096 C 
HETATM    4  C12 UNL     1     -16.492   3.645   1.024  1.00  0.00     0.041 C 
HETATM    5  C13 UNL     1     -16.980   3.951  -0.361  1.00  0.00     0.004 C 
HETATM    6  C14 UNL     1     -16.548   2.767  -1.241  1.00  0.00     0.015 C 
HETATM    7  C15 UNL     1     -15.330   2.306  -0.479  1.00  0.00     0.017 C 
HETATM    8  C16 UNL     1     -14.275   3.369  -0.624  1.00  0.00     0.021 C 
HETATM    9  C17 UNL     1     -14.762   1.004  -0.879  1.00  0.00     0.146 C 
HETATM   10  C24 UNL     1     -13.921   0.354   0.193  1.00  0.00     0.008 C 
HETATM   11  C25 UNL     1     -12.548   0.075  -0.381  1.00  0.00     0.020 C 
HETATM   12  C26 UNL     1     -14.512  -0.984   0.579  1.00  0.00     0.020 C 
ENDROOT
BRANCH   1  13
HETATM   13  O2  UNL     1     -13.196   0.375   2.394  1.00  0.00    -0.350 OA
BRANCH  13  14
HETATM   14  C8  UNL     1     -12.060   0.857   2.996  1.00  0.00     0.292 C 
HETATM   15  O1  UNL     1     -11.556   1.868   2.169  1.00  0.00    -0.348 OA
HETATM   16  C5  UNL     1     -10.428   2.469   2.702  1.00  0.00     0.059 C 
HETATM   17  C4  UNL     1      -9.397   1.476   3.181  1.00  0.00     0.076 C 
HETATM   18  C6  UNL     1      -9.784   3.273   1.585  1.00  0.00     0.045 C 
HETATM   19  C7  UNL     1     -10.807   3.395   3.842  1.00  0.00     0.045 C 
HETATM   20  C3  UNL     1      -9.699   0.150   2.564  1.00  0.00     0.258 C 
HETATM   21  C27 UNL     1     -11.064  -0.283   3.061  1.00  0.00     0.206 C 
BRANCH  20  22
HETATM   22  N1  UNL     1      -8.709  -0.859   2.886  1.00  0.00     0.087 N 
HETATM   23  C1  UNL     1      -7.766  -0.363   3.868  1.00  0.00     0.310 C 
HETATM   24  C2  UNL     1      -7.939  -1.169   1.694  1.00  0.00     0.310 C 
ENDBRANCH  20  22
BRANCH  21  25
HETATM   25  O10 UNL     1     -10.976  -0.808   4.361  1.00  0.00    -0.388 OA
ATOM     26  H10 UNL     1     -10.954  -0.110   5.005  1.00  0.00     0.210 HD
ENDBRANCH  21  25
ENDBRANCH  13  14
ENDBRANCH   1  13
BRANCH   2  27
HETATM   27  O3  UNL     1     -14.558   3.068   2.614  1.00  0.00    -0.390 OA
ATOM     28  H3  UNL     1     -14.830   3.832   2.120  1.00  0.00     0.210 HD
ENDBRANCH   2  27
BRANCH   3  29
HETATM   29  O4  UNL     1     -17.026   1.396   0.868  1.00  0.00    -0.386 OA
ATOM     30  H4  UNL     1     -17.552   1.425   1.658  1.00  0.00     0.210 HD
ENDBRANCH   3  29
BRANCH   9  31
HETATM   31  O5  UNL     1     -15.799   0.153  -1.290  1.00  0.00    -0.352 OA
BRANCH  31  32
HETATM   32  C18 UNL     1     -15.829  -0.068  -2.647  1.00  0.00     0.291 C 
HETATM   33  O6  UNL     1     -14.467  -0.062  -3.079  1.00  0.00    -0.355 OA
HETATM   34  C19 UNL     1     -14.491   0.158  -4.439  1.00  0.00     0.211 C 
HETATM   35  C20 UNL     1     -15.217  -0.892  -5.214  1.00  0.00     0.104 C 
HETATM   36  C21 UNL     1     -15.460  -0.375  -6.616  1.00  0.00     0.051 C 
HETATM   37  C22 UNL     1     -16.537  -1.275  -4.626  1.00  0.00     0.187 C 
HETATM   38  C23 UNL     1     -16.366  -1.373  -3.103  1.00  0.00     0.205 C 
BRANCH  35  39
HETATM   39  O7  UNL     1     -14.373  -2.005  -5.328  1.00  0.00    -0.385 OA
ATOM     40  H7  UNL     1     -14.665  -2.658  -4.704  1.00  0.00     0.210 HD
ENDBRANCH  35  39
BRANCH  37  41
HETATM   41  O8  UNL     1     -16.944  -2.506  -5.143  1.00  0.00    -0.390 OA
ATOM     42  H8  UNL     1     -16.309  -3.175  -4.917  1.00  0.00     0.210 HD
ENDBRANCH  37  41
BRANCH  38  43
HETATM   43  O9  UNL     1     -15.410  -2.369  -2.902  1.00  0.00    -0.388 OA
ATOM     44  H9  UNL     1     -15.622  -2.860  -2.117  1.00  0.00     0.210 HD
ENDBRANCH  38  43
ENDBRANCH  31  32
ENDBRANCH   9  31
TORSDOF 11
ENDMDL
MODEL 3
REMARK VINA RESULT: -7.232960416      1.728      2.480
REMARK  11 active torsions:
REMARK  status: ('A' for Active; 'I' for Inactive)
REMARK    1  A    between atoms: N1_2  and  C3_4 
REMARK    2  A    between atoms: C8_10  and  O2_11 
REMARK    3  A    between atoms: O2_11  and  C9_12 
REMARK    4  A    between atoms: C10_13  and  O3_14 
REMARK    5  A    between atoms: C11_16  and  O4_17 
REMARK    6  A    between atoms: C17_24  and  O5_25 
REMARK    7  A    between atoms: O5_25  and  C18_26 
REMARK    8  A    between atoms: C20_29  and  O7_31 
REMARK    9  A    between atoms: C22_33  and  O8_34 
REMARK   10  A    between atoms: C23_36  and  O9_37 
REMARK   11  A    between atoms: C27_42  and  O10_43 
ROOT
HETATM    1  C9  UNL     1     -11.993   0.689   2.017  1.00  0.00     0.166 C 
HETATM    2  C10 UNL     1     -13.078   1.290   2.822  1.00  0.00     0.183 C 
HETATM    3  C11 UNL     1     -14.304   1.661   2.072  1.00  0.00     0.096 C 
HETATM    4  C12 UNL     1     -14.876   2.997   2.376  1.00  0.00     0.041 C 
HETATM    5  C13 UNL     1     -15.673   3.332   1.150  1.00  0.00     0.004 C 
HETATM    6  C14 UNL     1     -15.404   2.205   0.140  1.00  0.00     0.015 C 
HETATM    7  C15 UNL     1     -14.028   1.775   0.589  1.00  0.00     0.017 C 
HETATM    8  C16 UNL     1     -13.075   2.893   0.265  1.00  0.00     0.021 C 
HETATM    9  C17 UNL     1     -13.514   0.518   0.011  1.00  0.00     0.146 C 
HETATM   10  C24 UNL     1     -12.430  -0.131   0.837  1.00  0.00     0.008 C 
HETATM   11  C25 UNL     1     -11.210  -0.320  -0.040  1.00  0.00     0.020 C 
HETATM   12  C26 UNL     1     -12.867  -1.509   1.280  1.00  0.00     0.020 C 
ENDROOT
BRANCH   1  13
HETATM   13  O2  UNL     1     -11.231  -0.158   2.820  1.00  0.00    -0.350 OA
BRANCH  13  14
HETATM   14  C8  UNL     1     -10.028   0.373   3.215  1.00  0.00     0.292 C 
HETATM   15  O1  UNL     1      -9.771   1.467   2.380  1.00  0.00    -0.348 OA
HETATM   16  C5  UNL     1      -8.597   2.121   2.717  1.00  0.00     0.059 C 
HETATM   17  C4  UNL     1      -7.429   1.182   2.902  1.00  0.00     0.076 C 
HETATM   18  C6  UNL     1      -8.250   3.036   1.554  1.00  0.00     0.045 C 
HETATM   19  C7  UNL     1      -8.790   2.945   3.975  1.00  0.00     0.045 C 
HETATM   20  C3  UNL     1      -7.768  -0.124   2.263  1.00  0.00     0.258 C 
HETATM   21  C27 UNL     1      -8.971  -0.689   2.992  1.00  0.00     0.206 C 
BRANCH  20  22
HETATM   22  N1  UNL     1      -6.671  -1.071   2.303  1.00  0.00     0.087 N 
HETATM   23  C1  UNL     1      -5.399  -0.396   2.145  1.00  0.00     0.310 C 
HETATM   24  C2  UNL     1      -6.793  -1.989   1.183  1.00  0.00     0.310 C 
ENDBRANCH  20  22
BRANCH  21  25
HETATM   25  O10 UNL     1      -8.583  -1.282   4.206  1.00  0.00    -0.388 OA
ATOM     26  H10 UNL     1      -8.890  -0.769   4.943  1.00  0.00     0.210 HD
ENDBRANCH  21  25
ENDBRANCH  13  14
ENDBRANCH   1  13
BRANCH   2  27
HETATM   27  O3  UNL     1     -12.614   2.455   3.467  1.00  0.00    -0.390 OA
ATOM     28  H3  UNL     1     -11.724   2.324   3.773  1.00  0.00     0.210 HD
ENDBRANCH   2  27
BRANCH   3  29
HETATM   29  O4  UNL     1     -15.343   0.732   2.234  1.00  0.00    -0.386 OA
ATOM     30  H4  UNL     1     -15.370   0.085   1.538  1.00  0.00     0.210 HD
ENDBRANCH   3  29
BRANCH   9  31
HETATM   31  O5  UNL     1     -14.583  -0.366  -0.199  1.00  0.00    -0.352 OA
BRANCH  31  32
HETATM   32  C18 UNL     1     -14.731  -0.752  -1.511  1.00  0.00     0.291 C 
HETATM   33  O6  UNL     1     -15.002  -2.155  -1.484  1.00  0.00    -0.355 OA
HETATM   34  C19 UNL     1     -14.722  -2.630  -2.746  1.00  0.00     0.211 C 
HETATM   35  C20 UNL     1     -15.554  -2.020  -3.826  1.00  0.00     0.104 C 
HETATM   36  C21 UNL     1     -14.934  -2.364  -5.164  1.00  0.00     0.051 C 
HETATM   37  C22 UNL     1     -15.666  -0.532  -3.737  1.00  0.00     0.187 C 
HETATM   38  C23 UNL     1     -15.867  -0.160  -2.261  1.00  0.00     0.205 C 
BRANCH  35  39
HETATM   39  O7  UNL     1     -16.817  -2.625  -3.792  1.00  0.00    -0.385 OA
ATOM     40  H7  UNL     1     -17.289  -2.274  -3.046  1.00  0.00     0.210 HD
ENDBRANCH  35  39
BRANCH  37  41
HETATM   41  O8  UNL     1     -16.755  -0.095  -4.493  1.00  0.00    -0.390 OA
ATOM     42  H8  UNL     1     -16.450   0.453  -5.207  1.00  0.00     0.210 HD
ENDBRANCH  37  41
BRANCH  38  43
HETATM   43  O9  UNL     1     -17.055  -0.785  -1.880  1.00  0.00    -0.388 OA
ATOM     44  H9  UNL     1     -17.449  -0.309  -1.158  1.00  0.00     0.210 HD
ENDBRANCH  38  43
ENDBRANCH  31  32
ENDBRANCH   9  31
TORSDOF 11
ENDMDL
MODEL 4
REMARK VINA RESULT: -7.136192849      3.384      8.546
REMARK  11 active torsions:
REMARK  status: ('A' for Active; 'I' for Inactive)
REMARK    1  A    between atoms: N1_2  and  C3_4 
REMARK    2  A    between atoms: C8_10  and  O2_11 
REMARK    3  A    between atoms: O2_11  and  C9_12 
REMARK    4  A    between atoms: C10_13  and  O3_14 
REMARK    5  A    between atoms: C11_16  and  O4_17 
REMARK    6  A    between atoms: C17_24  and  O5_25 
REMARK    7  A    between atoms: O5_25  and  C18_26 
REMARK    8  A    between atoms: C20_29  and  O7_31 
REMARK    9  A    between atoms: C22_33  and  O8_34 
REMARK   10  A    between atoms: C23_36  and  O9_37 
REMARK   11  A    between atoms: C27_42  and  O10_43 
ROOT
HETATM    1  C9  UNL     1     -15.069   1.876  -1.566  1.00  0.00     0.166 C 
HETATM    2  C10 UNL     1     -15.878   0.829  -0.907  1.00  0.00     0.183 C 
HETATM    3  C11 UNL     1     -15.182   0.044   0.142  1.00  0.00     0.096 C 
HETATM    4  C12 UNL     1     -15.376  -1.427   0.095  1.00  0.00     0.041 C 
HETATM    5  C13 UNL     1     -14.181  -1.970   0.821  1.00  0.00     0.004 C 
HETATM    6  C14 UNL     1     -13.285  -0.761   1.138  1.00  0.00     0.015 C 
HETATM    7  C15 UNL     1     -13.679   0.160   0.009  1.00  0.00     0.017 C 
HETATM    8  C16 UNL     1     -13.167  -0.445  -1.270  1.00  0.00     0.021 C 
HETATM    9  C17 UNL     1     -13.208   1.555   0.106  1.00  0.00     0.146 C 
HETATM   10  C24 UNL     1     -14.021   2.529  -0.712  1.00  0.00     0.008 C 
HETATM   11  C25 UNL     1     -13.085   3.261  -1.649  1.00  0.00     0.020 C 
HETATM   12  C26 UNL     1     -14.643   3.573   0.189  1.00  0.00     0.020 C 
ENDROOT
BRANCH   1  13
HETATM   13  O2  UNL     1     -15.905   2.901  -2.009  1.00  0.00    -0.350 OA
BRANCH  13  14
HETATM   14  C8  UNL     1     -16.197   2.848  -3.350  1.00  0.00     0.292 C 
HETATM   15  O1  UNL     1     -15.355   1.882  -3.913  1.00  0.00    -0.348 OA
HETATM   16  C5  UNL     1     -15.594   1.702  -5.266  1.00  0.00     0.059 C 
HETATM   17  C4  UNL     1     -15.664   3.000  -6.033  1.00  0.00     0.076 C 
HETATM   18  C6  UNL     1     -14.416   0.921  -5.824  1.00  0.00     0.045 C 
HETATM   19  C7  UNL     1     -16.874   0.917  -5.480  1.00  0.00     0.045 C 
HETATM   20  C3  UNL     1     -15.043   4.073  -5.201  1.00  0.00     0.258 C 
HETATM   21  C27 UNL     1     -15.870   4.206  -3.937  1.00  0.00     0.206 C 
BRANCH  20  22
HETATM   22  N1  UNL     1     -14.975   5.349  -5.887  1.00  0.00     0.087 N 
HETATM   23  C1  UNL     1     -14.754   5.161  -7.307  1.00  0.00     0.310 C 
HETATM   24  C2  UNL     1     -13.835   6.099  -5.388  1.00  0.00     0.310 C 
ENDBRANCH  20  22
BRANCH  21  25
HETATM   25  O10 UNL     1     -17.037   4.948  -4.183  1.00  0.00    -0.388 OA
ATOM     26  H10 UNL     1     -17.660   4.839  -3.474  1.00  0.00     0.210 HD
ENDBRANCH  21  25
ENDBRANCH  13  14
ENDBRANCH   1  13
BRANCH   2  27
HETATM   27  O3  UNL     1     -16.357  -0.087  -1.867  1.00  0.00    -0.390 OA
ATOM     28  H3  UNL     1     -16.732  -0.845  -1.434  1.00  0.00     0.210 HD
ENDBRANCH   2  27
BRANCH   3  29
HETATM   29  O4  UNL     1     -15.518   0.454   1.441  1.00  0.00    -0.386 OA
ATOM     30  H4  UNL     1     -16.297   0.997   1.466  1.00  0.00     0.210 HD
ENDBRANCH   3  29
BRANCH   9  31
HETATM   31  O5  UNL     1     -13.173   1.938   1.456  1.00  0.00    -0.352 OA
BRANCH  31  32
HETATM   32  C18 UNL     1     -11.943   2.394   1.869  1.00  0.00     0.291 C 
HETATM   33  O6  UNL     1     -12.195   3.571   2.641  1.00  0.00    -0.355 OA
HETATM   34  C19 UNL     1     -11.009   4.268   2.688  1.00  0.00     0.211 C 
HETATM   35  C20 UNL     1      -9.888   3.522   3.336  1.00  0.00     0.104 C 
HETATM   36  C21 UNL     1      -8.590   4.239   3.028  1.00  0.00     0.051 C 
HETATM   37  C22 UNL     1      -9.756   2.105   2.874  1.00  0.00     0.187 C 
HETATM   38  C23 UNL     1     -11.167   1.508   2.770  1.00  0.00     0.205 C 
BRANCH  35  39
HETATM   39  O7  UNL     1     -10.072   3.585   4.723  1.00  0.00    -0.385 OA
ATOM     40  H7  UNL     1      -9.999   4.494   4.987  1.00  0.00     0.210 HD
ENDBRANCH  35  39
BRANCH  37  41
HETATM   41  O8  UNL     1      -8.994   1.380   3.790  1.00  0.00    -0.390 OA
ATOM     42  H8  UNL     1      -8.863   0.495   3.470  1.00  0.00     0.210 HD
ENDBRANCH  37  41
BRANCH  38  43
HETATM   43  O9  UNL     1     -11.692   1.577   4.061  1.00  0.00    -0.388 OA
ATOM     44  H9  UNL     1     -11.220   0.980   4.630  1.00  0.00     0.210 HD
ENDBRANCH  38  43
ENDBRANCH  31  32
ENDBRANCH   9  31
TORSDOF 11
ENDMDL
MODEL 5
REMARK VINA RESULT: -7.109715767      3.097      8.570
REMARK  11 active torsions:
REMARK  status: ('A' for Active; 'I' for Inactive)
REMARK    1  A    between atoms: N1_2  and  C3_4 
REMARK    2  A    between atoms: C8_10  and  O2_11 
REMARK    3  A    between atoms: O2_11  and  C9_12 
REMARK    4  A    between atoms: C10_13  and  O3_14 
REMARK    5  A    between atoms: C11_16  and  O4_17 
REMARK    6  A    between atoms: C17_24  and  O5_25 
REMARK    7  A    between atoms: O5_25  and  C18_26 
REMARK    8  A    between atoms: C20_29  and  O7_31 
REMARK    9  A    between atoms: C22_33  and  O8_34 
REMARK   10  A    between atoms: C23_36  and  O9_37 
REMARK   11  A    between atoms: C27_42  and  O10_43 
ROOT
HETATM    1  C9  UNL     1     -14.427   1.368   0.196  1.00  0.00     0.166 C 
HETATM    2  C10 UNL     1     -14.664   0.183   1.048  1.00  0.00     0.183 C 
HETATM    3  C11 UNL     1     -13.543  -0.202   1.939  1.00  0.00     0.096 C 
HETATM    4  C12 UNL     1     -13.206  -1.647   1.979  1.00  0.00     0.041 C 
HETATM    5  C13 UNL     1     -11.778  -1.670   2.440  1.00  0.00     0.004 C 
HETATM    6  C14 UNL     1     -11.327  -0.202   2.515  1.00  0.00     0.015 C 
HETATM    7  C15 UNL     1     -12.237   0.405   1.475  1.00  0.00     0.017 C 
HETATM    8  C16 UNL     1     -11.805  -0.119   0.132  1.00  0.00     0.021 C 
HETATM    9  C17 UNL     1     -12.284   1.879   1.425  1.00  0.00     0.146 C 
HETATM   10  C24 UNL     1     -13.534   2.425   0.779  1.00  0.00     0.008 C 
HETATM   11  C25 UNL     1     -13.124   3.331  -0.363  1.00  0.00     0.020 C 
HETATM   12  C26 UNL     1     -14.298   3.283   1.764  1.00  0.00     0.020 C 
ENDROOT
BRANCH   1  13
HETATM   13  O2  UNL     1     -15.642   1.994  -0.080  1.00  0.00    -0.350 OA
BRANCH  13  14
HETATM   14  C8  UNL     1     -16.100   1.792  -1.359  1.00  0.00     0.292 C 
HETATM   15  O1  UNL     1     -15.077   1.144  -2.062  1.00  0.00    -0.348 OA
HETATM   16  C5  UNL     1     -15.443   0.840  -3.363  1.00  0.00     0.059 C 
HETATM   17  C4  UNL     1     -16.066   2.006  -4.091  1.00  0.00     0.076 C 
HETATM   18  C6  UNL     1     -14.170   0.479  -4.109  1.00  0.00     0.045 C 
HETATM   19  C7  UNL     1     -16.398  -0.339  -3.384  1.00  0.00     0.045 C 
HETATM   20  C3  UNL     1     -15.726   3.258  -3.352  1.00  0.00     0.258 C 
HETATM   21  C27 UNL     1     -16.346   3.155  -1.972  1.00  0.00     0.206 C 
BRANCH  20  22
HETATM   22  N1  UNL     1     -16.199   4.454  -4.022  1.00  0.00     0.087 N 
HETATM   23  C1  UNL     1     -16.146   4.294  -5.462  1.00  0.00     0.310 C 
HETATM   24  C2  UNL     1     -15.319   5.563  -3.697  1.00  0.00     0.310 C 
ENDBRANCH  20  22
BRANCH  21  25
HETATM   25  O10 UNL     1     -17.718   3.450  -2.021  1.00  0.00    -0.388 OA
ATOM     26  H10 UNL     1     -17.860   4.389  -2.047  1.00  0.00     0.210 HD
ENDBRANCH  21  25
ENDBRANCH  13  14
ENDBRANCH   1  13
BRANCH   2  27
HETATM   27  O3  UNL     1     -14.964  -0.937   0.245  1.00  0.00    -0.390 OA
ATOM     28  H3  UNL     1     -14.291  -1.600   0.347  1.00  0.00     0.210 HD
ENDBRANCH   2  27
BRANCH   3  29
HETATM   29  O4  UNL     1     -13.741   0.202   3.268  1.00  0.00    -0.386 OA
ATOM     30  H4  UNL     1     -13.046   0.766   3.590  1.00  0.00     0.210 HD
ENDBRANCH   3  29
BRANCH   9  31
HETATM   31  O5  UNL     1     -12.124   2.391   2.722  1.00  0.00    -0.352 OA
BRANCH  31  32
HETATM   32  C18 UNL     1     -10.966   3.113   2.892  1.00  0.00     0.291 C 
HETATM   33  O6  UNL     1     -10.284   3.071   1.637  1.00  0.00    -0.355 OA
HETATM   34  C19 UNL     1      -8.970   3.391   1.896  1.00  0.00     0.211 C 
HETATM   35  C20 UNL     1      -8.777   4.752   2.481  1.00  0.00     0.104 C 
HETATM   36  C21 UNL     1      -7.366   4.849   3.022  1.00  0.00     0.051 C 
HETATM   37  C22 UNL     1      -9.723   5.072   3.594  1.00  0.00     0.187 C 
HETATM   38  C23 UNL     1     -11.113   4.557   3.196  1.00  0.00     0.205 C 
BRANCH  35  39
HETATM   39  O7  UNL     1      -8.883   5.687   1.443  1.00  0.00    -0.385 OA
ATOM     40  H7  UNL     1      -9.782   5.993   1.416  1.00  0.00     0.210 HD
ENDBRANCH  35  39
BRANCH  37  41
HETATM   41  O8  UNL     1      -9.762   6.452   3.796  1.00  0.00    -0.390 OA
ATOM     42  H8  UNL     1     -10.649   6.720   4.011  1.00  0.00     0.210 HD
ENDBRANCH  37  41
BRANCH  38  43
HETATM   43  O9  UNL     1     -11.444   5.249   2.031  1.00  0.00    -0.388 OA
ATOM     44  H9  UNL     1     -11.457   6.183   2.207  1.00  0.00     0.210 HD
ENDBRANCH  38  43
ENDBRANCH  31  32
ENDBRANCH   9  31
TORSDOF 11
ENDMDL
