MODEL 1
REMARK VINA RESULT: -8.679602224      0.000      0.000
REMARK  8 active torsions:
REMARK  status: ('A' for Active; 'I' for Inactive)
REMARK    1  A    between atoms: N1_1  and  C1_5 
REMARK    2  A    between atoms: C3_7  and  N2_8 
REMARK    3  A    between atoms: N3_13  and  C5_14 
REMARK    4  A    between atoms: C6_17  and  N5_18 
REMARK    5  A    between atoms: N5_18  and  C7_20 
REMARK    6  A    between atoms: N8_30  and  C13_32 
REMARK    7  A    between atoms: C16_35  and  C17_36 
REMARK    8  A    between atoms: C21_44  and  N10_45 
ROOT
HETATM    1  C5  UNL     1     -12.003   4.093   0.922  1.00  0.00     0.709 A 
HETATM    2  N4  UNL     1     -13.084   4.744   1.406  1.00  0.00    -0.021 N 
ATOM      3  H4  UNL     1     -13.321   4.627   2.391  1.00  0.00     0.203 HD
HETATM    4  C6  UNL     1     -13.867   5.544   0.647  1.00  0.00     0.711 A 
HETATM    5  N9  UNL     1     -13.538   5.682  -0.644  1.00  0.00    -0.021 N 
ATOM      6  H9  UNL     1     -14.115   6.278  -1.237  1.00  0.00     0.203 HD
HETATM    7  C21 UNL     1     -12.472   5.060  -1.189  1.00  0.00     0.709 A 
HETATM    8  N12 UNL     1     -11.729   4.273  -0.371  1.00  0.00    -0.021 N 
ATOM      9  H12 UNL     1     -10.918   3.795  -0.766  1.00  0.00     0.203 HD
ENDROOT
BRANCH   4  10
HETATM   10  N5  UNL     1     -14.862   6.101   1.230  1.00  0.00    -0.191 N 
ATOM     11  H5  UNL     1     -14.683   6.907   1.828  1.00  0.00     0.184 HD
BRANCH  10  12
HETATM   12  C7  UNL     1     -16.198   5.654   1.087  1.00  0.00     0.050 A 
HETATM   13  C8  UNL     1     -17.293   6.350   1.561  1.00  0.00     0.032 A 
HETATM   14  C9  UNL     1     -18.586   5.902   1.404  1.00  0.00     0.033 A 
HETATM   15  C10 UNL     1     -18.794   4.706   0.745  1.00  0.00     0.047 A 
HETATM   16  N6  UNL     1     -20.021   4.210   0.557  1.00  0.00    -0.352 N 
HETATM   17  C19 UNL     1     -17.716   3.973   0.253  1.00  0.00     0.037 A 
HETATM   18  C11 UNL     1     -20.217   3.051  -0.082  1.00  0.00     0.182 A 
ATOM     19  H6  UNL     1     -20.827   4.728   0.908  1.00  0.00     0.166 HD
HETATM   20  N7  UNL     1     -19.159   2.337  -0.561  1.00  0.00    -0.338 N 
HETATM   21  C12 UNL     1     -17.896   2.761  -0.416  1.00  0.00     0.115 A 
ATOM     22  H7  UNL     1     -19.334   1.456  -1.045  1.00  0.00     0.168 HD
HETATM   23  N8  UNL     1     -16.847   2.163  -0.833  1.00  0.00    -0.371 N 
ATOM     24  H8  UNL     1     -15.932   2.582  -0.664  1.00  0.00     0.161 HD
HETATM   25  C20 UNL     1     -16.439   4.459   0.432  1.00  0.00     0.047 A 
BRANCH  23  26
HETATM   26  C13 UNL     1     -16.925   0.922  -1.529  1.00  0.00     0.084 C 
HETATM   27  C14 UNL     1     -16.208  -0.215  -0.820  1.00  0.00     0.026 C 
HETATM   28  C15 UNL     1     -15.768  -1.187  -1.863  1.00  0.00     0.017 C 
HETATM   29  C16 UNL     1     -15.734  -0.412  -3.135  1.00  0.00     0.089 C 
HETATM   30  C18 UNL     1     -16.234   0.979  -2.885  1.00  0.00     0.040 C 
BRANCH  29  31
HETATM   31  C17 UNL     1     -16.564  -1.097  -4.162  1.00  0.00     0.177 C 
HETATM   32  O1  UNL     1     -16.933  -2.309  -4.046  1.00  0.00    -0.648 OA
HETATM   33  O2  UNL     1     -16.939  -0.369  -5.279  1.00  0.00    -0.648 OA
ENDBRANCH  29  31
ENDBRANCH  23  26
ENDBRANCH  10  12
ENDBRANCH   4  10
BRANCH   1  34
HETATM   34  N3  UNL     1     -11.257   3.278   1.818  1.00  0.00    -0.213 N 
HETATM   35  C4  UNL     1     -10.540   3.883   2.888  1.00  0.00     0.174 C 
HETATM   36  C3  UNL     1      -9.363   3.141   3.415  1.00  0.00     0.204 C 
HETATM   37  C2  UNL     1      -9.410   1.661   3.338  1.00  0.00     0.069 C 
HETATM   38  C1  UNL     1     -10.619   1.065   2.708  1.00  0.00     0.204 C 
HETATM   39  C26 UNL     1     -11.249   1.857   1.624  1.00  0.00     0.174 C 
BRANCH  36  40
HETATM   40  N2  UNL     1      -9.167   3.611   4.801  1.00  0.00    -0.073 N 
ATOM     41  H23 UNL     1      -9.971   3.387   5.387  1.00  0.00     0.274 HD
ATOM     42  H22 UNL     1      -8.459   3.058   5.284  1.00  0.00     0.274 HD
ATOM     43  H21 UNL     1      -8.948   4.607   4.835  1.00  0.00     0.274 HD
ENDBRANCH  36  40
BRANCH  38  44
HETATM   44  N1  UNL     1     -11.597   0.723   3.739  1.00  0.00    -0.073 N 
ATOM     45  H13 UNL     1     -11.169   0.642   4.662  1.00  0.00     0.274 HD
ATOM     46  H12 UNL     1     -12.231   1.497   3.938  1.00  0.00     0.274 HD
ATOM     47  H11 UNL     1     -12.098  -0.124   3.473  1.00  0.00     0.274 HD
ENDBRANCH  38  44
ENDBRANCH   1  34
BRANCH   7  48
HETATM   48  N10 UNL     1     -12.110   5.195  -2.556  1.00  0.00    -0.213 N 
HETATM   49  C22 UNL     1     -12.416   6.421  -3.287  1.00  0.00     0.168 C 
HETATM   50  C23 UNL     1     -11.848   6.288  -4.679  1.00  0.00     0.252 C 
HETATM   51  N11 UNL     1     -12.319   5.095  -5.346  1.00  0.00    -0.072 N 
HETATM   52  C24 UNL     1     -12.021   3.886  -4.626  1.00  0.00     0.252 C 
ATOM     53 2H11 UNL     1     -13.317   5.161  -5.545  1.00  0.00     0.277 HD
ATOM     54 1H11 UNL     1     -11.959   5.047  -6.299  1.00  0.00     0.277 HD
HETATM   55  C25 UNL     1     -11.444   4.136  -3.247  1.00  0.00     0.168 C 
ENDBRANCH   7  48
TORSDOF 8
ENDMDL
MODEL 2
REMARK VINA RESULT: -8.665056737      1.340      1.938
REMARK  8 active torsions:
REMARK  status: ('A' for Active; 'I' for Inactive)
REMARK    1  A    between atoms: N1_1  and  C1_5 
REMARK    2  A    between atoms: C3_7  and  N2_8 
REMARK    3  A    between atoms: N3_13  and  C5_14 
REMARK    4  A    between atoms: C6_17  and  N5_18 
REMARK    5  A    between atoms: N5_18  and  C7_20 
REMARK    6  A    between atoms: N8_30  and  C13_32 
REMARK    7  A    between atoms: C16_35  and  C17_36 
REMARK    8  A    between atoms: C21_44  and  N10_45 
ROOT
HETATM    1  C5  UNL     1     -12.585   3.427   1.084  1.00  0.00     0.709 A 
HETATM    2  N4  UNL     1     -13.616   4.233   1.423  1.00  0.00    -0.021 N 
ATOM      3  H4  UNL     1     -14.246   3.930   2.165  1.00  0.00     0.203 HD
HETATM    4  C6  UNL     1     -13.851   5.423   0.825  1.00  0.00     0.711 A 
HETATM    5  N9  UNL     1     -13.011   5.800  -0.147  1.00  0.00    -0.021 N 
ATOM      6  H9  UNL     1     -13.170   6.693  -0.615  1.00  0.00     0.203 HD
HETATM    7  C21 UNL     1     -11.964   5.043  -0.532  1.00  0.00     0.709 A 
HETATM    8  N12 UNL     1     -11.784   3.861   0.109  1.00  0.00    -0.021 N 
ATOM      9  H12 UNL     1     -10.997   3.275  -0.168  1.00  0.00     0.203 HD
ENDROOT
BRANCH   4  10
HETATM   10  N5  UNL     1     -14.864   6.089   1.240  1.00  0.00    -0.191 N 
ATOM     11  H5  UNL     1     -14.699   6.983   1.700  1.00  0.00     0.184 HD
BRANCH  10  12
HETATM   12  C7  UNL     1     -16.200   5.646   1.092  1.00  0.00     0.050 A 
HETATM   13  C8  UNL     1     -17.295   6.343   1.563  1.00  0.00     0.032 A 
HETATM   14  C9  UNL     1     -18.589   5.900   1.402  1.00  0.00     0.033 A 
HETATM   15  C10 UNL     1     -18.798   4.705   0.740  1.00  0.00     0.047 A 
HETATM   16  N6  UNL     1     -20.026   4.213   0.547  1.00  0.00    -0.352 N 
HETATM   17  C19 UNL     1     -17.720   3.970   0.249  1.00  0.00     0.037 A 
HETATM   18  C11 UNL     1     -20.222   3.055  -0.095  1.00  0.00     0.182 A 
ATOM     19  H6  UNL     1     -20.831   4.732   0.896  1.00  0.00     0.166 HD
HETATM   20  N7  UNL     1     -19.165   2.340  -0.573  1.00  0.00    -0.338 N 
HETATM   21  C12 UNL     1     -17.901   2.761  -0.422  1.00  0.00     0.115 A 
ATOM     22  H7  UNL     1     -19.341   1.460  -1.059  1.00  0.00     0.168 HD
HETATM   23  N8  UNL     1     -16.852   2.160  -0.837  1.00  0.00    -0.371 N 
ATOM     24  H8  UNL     1     -15.937   2.577  -0.664  1.00  0.00     0.161 HD
HETATM   25  C20 UNL     1     -16.442   4.452   0.434  1.00  0.00     0.047 A 
BRANCH  23  26
HETATM   26  C13 UNL     1     -16.932   0.921  -1.536  1.00  0.00     0.084 C 
HETATM   27  C14 UNL     1     -16.213  -0.218  -0.832  1.00  0.00     0.026 C 
HETATM   28  C15 UNL     1     -15.775  -1.186  -1.878  1.00  0.00     0.017 C 
HETATM   29  C16 UNL     1     -15.744  -0.409  -3.148  1.00  0.00     0.089 C 
HETATM   30  C18 UNL     1     -16.244   0.982  -2.894  1.00  0.00     0.040 C 
BRANCH  29  31
HETATM   31  C17 UNL     1     -16.576  -1.092  -4.175  1.00  0.00     0.177 C 
HETATM   32  O1  UNL     1     -16.951  -2.302  -4.057  1.00  0.00    -0.648 OA
HETATM   33  O2  UNL     1     -16.946  -0.364  -5.294  1.00  0.00    -0.648 OA
ENDBRANCH  29  31
ENDBRANCH  23  26
ENDBRANCH  10  12
ENDBRANCH   4  10
BRANCH   1  34
HETATM   34  N3  UNL     1     -12.440   2.198   1.785  1.00  0.00    -0.213 N 
HETATM   35  C4  UNL     1     -13.307   1.110   1.486  1.00  0.00     0.174 C 
HETATM   36  C3  UNL     1     -13.528   0.107   2.563  1.00  0.00     0.204 C 
HETATM   37  C2  UNL     1     -12.413  -0.114   3.515  1.00  0.00     0.069 C 
HETATM   38  C1  UNL     1     -11.194   0.716   3.318  1.00  0.00     0.204 C 
HETATM   39  C26 UNL     1     -11.412   2.080   2.779  1.00  0.00     0.174 C 
BRANCH  36  40
HETATM   40  N2  UNL     1     -13.925  -1.143   1.886  1.00  0.00    -0.073 N 
ATOM     41  H23 UNL     1     -13.960  -1.926   2.540  1.00  0.00     0.274 HD
ATOM     42  H22 UNL     1     -14.908  -1.122   1.612  1.00  0.00     0.274 HD
ATOM     43  H21 UNL     1     -13.322  -1.350   1.090  1.00  0.00     0.274 HD
ENDBRANCH  36  40
BRANCH  38  44
HETATM   44  N1  UNL     1     -10.222  -0.016   2.507  1.00  0.00    -0.073 N 
ATOM     45  H13 UNL     1      -9.318   0.457   2.473  1.00  0.00     0.274 HD
ATOM     46  H12 UNL     1      -9.920  -0.879   2.958  1.00  0.00     0.274 HD
ATOM     47  H11 UNL     1     -10.604  -0.182   1.576  1.00  0.00     0.274 HD
ENDBRANCH  38  44
ENDBRANCH   1  34
BRANCH   7  48
HETATM   48  N10 UNL     1     -11.064   5.428  -1.562  1.00  0.00    -0.213 N 
HETATM   49  C22 UNL     1     -11.211   6.715  -2.233  1.00  0.00     0.168 C 
HETATM   50  C23 UNL     1     -10.075   6.863  -3.215  1.00  0.00     0.252 C 
HETATM   51  N11 UNL     1     -10.004   5.748  -4.133  1.00  0.00    -0.072 N 
HETATM   52  C24 UNL     1      -9.861   4.477  -3.474  1.00  0.00     0.252 C 
ATOM     53 2H11 UNL     1     -10.808   5.742  -4.760  1.00  0.00     0.277 HD
ATOM     54 1H11 UNL     1      -9.259   5.887  -4.815  1.00  0.00     0.277 HD
HETATM   55  C25 UNL     1     -10.000   4.564  -1.967  1.00  0.00     0.168 C 
ENDBRANCH   7  48
TORSDOF 8
ENDMDL
MODEL 3
REMARK VINA RESULT: -8.589990287      2.372      4.167
REMARK  8 active torsions:
REMARK  status: ('A' for Active; 'I' for Inactive)
REMARK    1  A    between atoms: N1_1  and  C1_5 
REMARK    2  A    between atoms: C3_7  and  N2_8 
REMARK    3  A    between atoms: N3_13  and  C5_14 
REMARK    4  A    between atoms: C6_17  and  N5_18 
REMARK    5  A    between atoms: N5_18  and  C7_20 
REMARK    6  A    between atoms: N8_30  and  C13_32 
REMARK    7  A    between atoms: C16_35  and  C17_36 
REMARK    8  A    between atoms: C21_44  and  N10_45 
ROOT
HETATM    1  C5  UNL     1     -11.431   4.925   1.576  1.00  0.00     0.709 A 
HETATM    2  N4  UNL     1     -12.538   5.663   1.339  1.00  0.00    -0.021 N 
ATOM      3  H4  UNL     1     -12.421   6.633   1.044  1.00  0.00     0.203 HD
HETATM    4  C6  UNL     1     -13.793   5.179   1.473  1.00  0.00     0.711 A 
HETATM    5  N9  UNL     1     -13.923   3.904   1.862  1.00  0.00    -0.021 N 
ATOM      6  H9  UNL     1     -14.860   3.517   1.972  1.00  0.00     0.203 HD
HETATM    7  C21 UNL     1     -12.860   3.113   2.114  1.00  0.00     0.709 A 
HETATM    8  N12 UNL     1     -11.629   3.662   1.959  1.00  0.00    -0.021 N 
ATOM      9  H12 UNL     1     -10.812   3.079   2.145  1.00  0.00     0.203 HD
ENDROOT
BRANCH   4  10
HETATM   10  N5  UNL     1     -14.755   5.986   1.218  1.00  0.00    -0.191 N 
ATOM     11  H5  UNL     1     -14.540   6.977   1.114  1.00  0.00     0.184 HD
BRANCH  10  12
HETATM   12  C7  UNL     1     -16.101   5.572   1.075  1.00  0.00     0.050 A 
HETATM   13  C8  UNL     1     -17.179   6.288   1.559  1.00  0.00     0.032 A 
HETATM   14  C9  UNL     1     -18.482   5.873   1.401  1.00  0.00     0.033 A 
HETATM   15  C10 UNL     1     -18.720   4.689   0.730  1.00  0.00     0.047 A 
HETATM   16  N6  UNL     1     -19.959   4.224   0.540  1.00  0.00    -0.352 N 
HETATM   17  C19 UNL     1     -17.660   3.936   0.227  1.00  0.00     0.037 A 
HETATM   18  C11 UNL     1     -20.183   3.076  -0.111  1.00  0.00     0.182 A 
ATOM     19  H6  UNL     1     -20.751   4.757   0.898  1.00  0.00     0.166 HD
HETATM   20  N7  UNL     1     -19.144   2.344  -0.601  1.00  0.00    -0.338 N 
HETATM   21  C12 UNL     1     -17.870   2.736  -0.454  1.00  0.00     0.115 A 
ATOM     22  H7  UNL     1     -19.341   1.472  -1.094  1.00  0.00     0.168 HD
HETATM   23  N8  UNL     1     -16.837   2.118  -0.881  1.00  0.00    -0.371 N 
ATOM     24  H8  UNL     1     -15.912   2.514  -0.710  1.00  0.00     0.161 HD
HETATM   25  C20 UNL     1     -16.372   4.390   0.408  1.00  0.00     0.047 A 
BRANCH  23  26
HETATM   26  C13 UNL     1     -16.946   0.887  -1.590  1.00  0.00     0.084 C 
HETATM   27  C14 UNL     1     -16.295  -0.284  -0.872  1.00  0.00     0.026 C 
HETATM   28  C15 UNL     1     -15.867  -1.264  -1.912  1.00  0.00     0.017 C 
HETATM   29  C16 UNL     1     -15.766  -0.481  -3.176  1.00  0.00     0.089 C 
HETATM   30  C18 UNL     1     -16.217   0.927  -2.926  1.00  0.00     0.040 C 
BRANCH  29  31
HETATM   31  C17 UNL     1     -16.595  -1.124  -4.230  1.00  0.00     0.177 C 
HETATM   32  O1  UNL     1     -16.961  -2.341  -4.166  1.00  0.00    -0.648 OA
HETATM   33  O2  UNL     1     -16.972  -0.350  -5.315  1.00  0.00    -0.648 OA
ENDBRANCH  29  31
ENDBRANCH  23  26
ENDBRANCH  10  12
ENDBRANCH   4  10
BRANCH   1  34
HETATM   34  N3  UNL     1     -10.163   5.545   1.401  1.00  0.00    -0.213 N 
HETATM   35  C4  UNL     1     -10.026   6.619   0.478  1.00  0.00     0.174 C 
HETATM   36  C3  UNL     1      -8.673   6.843  -0.100  1.00  0.00     0.204 C 
HETATM   37  C2  UNL     1      -7.511   6.482   0.747  1.00  0.00     0.069 C 
HETATM   38  C1  UNL     1      -7.815   5.898   2.081  1.00  0.00     0.204 C 
HETATM   39  C26 UNL     1      -9.047   5.075   2.169  1.00  0.00     0.174 C 
BRANCH  36  40
HETATM   40  N2  UNL     1      -8.631   8.260  -0.511  1.00  0.00    -0.073 N 
ATOM     41  H23 UNL     1      -7.671   8.603  -0.568  1.00  0.00     0.274 HD
ATOM     42  H22 UNL     1      -8.898   8.372  -1.489  1.00  0.00     0.274 HD
ATOM     43  H21 UNL     1      -9.199   8.848   0.099  1.00  0.00     0.274 HD
ENDBRANCH  36  40
BRANCH  38  44
HETATM   44  N1  UNL     1      -7.819   6.951   3.094  1.00  0.00    -0.073 N 
ATOM     45  H13 UNL     1      -7.288   6.687   3.925  1.00  0.00     0.274 HD
ATOM     46  H12 UNL     1      -7.260   7.756   2.812  1.00  0.00     0.274 HD
ATOM     47  H11 UNL     1      -8.779   7.211   3.320  1.00  0.00     0.274 HD
ENDBRANCH  38  44
ENDBRANCH   1  34
BRANCH   7  48
HETATM   48  N10 UNL     1     -12.979   1.760   2.528  1.00  0.00    -0.213 N 
HETATM   49  C22 UNL     1     -11.921   1.126   3.308  1.00  0.00     0.168 C 
HETATM   50  C23 UNL     1     -12.368  -0.273   3.652  1.00  0.00     0.252 C 
HETATM   51  N11 UNL     1     -12.739  -1.029   2.476  1.00  0.00    -0.072 N 
HETATM   52  C24 UNL     1     -13.780  -0.405   1.704  1.00  0.00     0.252 C 
ATOM     53 2H11 UNL     1     -11.922  -1.220   1.895  1.00  0.00     0.277 HD
ATOM     54 1H11 UNL     1     -12.995  -1.984   2.725  1.00  0.00     0.277 HD
HETATM   55  C25 UNL     1     -14.132   0.988   2.188  1.00  0.00     0.168 C 
ENDBRANCH   7  48
TORSDOF 8
ENDMDL
MODEL 4
REMARK VINA RESULT: -8.534844413      3.705      7.717
REMARK  8 active torsions:
REMARK  status: ('A' for Active; 'I' for Inactive)
REMARK    1  A    between atoms: N1_1  and  C1_5 
REMARK    2  A    between atoms: C3_7  and  N2_8 
REMARK    3  A    between atoms: N3_13  and  C5_14 
REMARK    4  A    between atoms: C6_17  and  N5_18 
REMARK    5  A    between atoms: N5_18  and  C7_20 
REMARK    6  A    between atoms: N8_30  and  C13_32 
REMARK    7  A    between atoms: C16_35  and  C17_36 
REMARK    8  A    between atoms: C21_44  and  N10_45 
ROOT
HETATM    1  C5  UNL     1     -15.612  -0.557  -1.931  1.00  0.00     0.709 A 
HETATM    2  N4  UNL     1     -16.733   0.186  -1.795  1.00  0.00    -0.021 N 
ATOM      3  H4  UNL     1     -17.369   0.257  -2.589  1.00  0.00     0.203 HD
HETATM    4  C6  UNL     1     -17.052   0.840  -0.655  1.00  0.00     0.711 A 
HETATM    5  N9  UNL     1     -16.203   0.734   0.374  1.00  0.00    -0.021 N 
ATOM      6  H9  UNL     1     -16.421   1.220   1.244  1.00  0.00     0.203 HD
HETATM    7  C21 UNL     1     -15.068   0.008   0.304  1.00  0.00     0.709 A 
HETATM    8  N12 UNL     1     -14.808  -0.623  -0.869  1.00  0.00    -0.021 N 
ATOM      9  H12 UNL     1     -13.955  -1.178  -0.941  1.00  0.00     0.203 HD
ENDROOT
BRANCH   4  10
HETATM   10  N5  UNL     1     -18.144   1.511  -0.659  1.00  0.00    -0.191 N 
ATOM     11  H5  UNL     1     -18.965   1.095  -1.099  1.00  0.00     0.184 HD
BRANCH  10  12
HETATM   12  C7  UNL     1     -18.269   2.799  -0.085  1.00  0.00     0.050 A 
HETATM   13  C8  UNL     1     -19.481   3.400   0.191  1.00  0.00     0.032 A 
HETATM   14  C9  UNL     1     -19.581   4.651   0.757  1.00  0.00     0.033 A 
HETATM   15  C10 UNL     1     -18.418   5.332   1.062  1.00  0.00     0.047 A 
HETATM   16  N6  UNL     1     -18.439   6.550   1.613  1.00  0.00    -0.352 N 
HETATM   17  C19 UNL     1     -17.174   4.760   0.799  1.00  0.00     0.037 A 
HETATM   18  C11 UNL     1     -17.309   7.204   1.906  1.00  0.00     0.182 A 
ATOM     19  H6  UNL     1     -19.337   6.989   1.815  1.00  0.00     0.166 HD
HETATM   20  N7  UNL     1     -16.096   6.642   1.647  1.00  0.00    -0.338 N 
HETATM   21  C12 UNL     1     -15.984   5.425   1.095  1.00  0.00     0.115 A 
ATOM     22  H7  UNL     1     -15.249   7.161   1.879  1.00  0.00     0.168 HD
HETATM   23  N8  UNL     1     -14.893   4.819   0.819  1.00  0.00    -0.371 N 
ATOM     24  H8  UNL     1     -14.930   3.891   0.398  1.00  0.00     0.161 HD
HETATM   25  C20 UNL     1     -17.122   3.506   0.230  1.00  0.00     0.047 A 
BRANCH  23  26
HETATM   26  C13 UNL     1     -13.625   5.412   1.086  1.00  0.00     0.084 C 
HETATM   27  C14 UNL     1     -13.098   6.256  -0.063  1.00  0.00     0.026 C 
HETATM   28  C15 UNL     1     -11.608   6.235   0.013  1.00  0.00     0.017 C 
HETATM   29  C16 UNL     1     -11.270   5.021   0.807  1.00  0.00     0.089 C 
HETATM   30  C18 UNL     1     -12.533   4.369   1.284  1.00  0.00     0.040 C 
BRANCH  29  31
HETATM   31  C17 UNL     1     -10.402   5.399   1.955  1.00  0.00     0.177 C 
HETATM   32  O1  UNL     1      -9.395   6.165   1.829  1.00  0.00    -0.648 OA
HETATM   33  O2  UNL     1     -10.722   4.885   3.201  1.00  0.00    -0.648 OA
ENDBRANCH  29  31
ENDBRANCH  23  26
ENDBRANCH  10  12
ENDBRANCH   4  10
BRANCH   1  34
HETATM   34  N3  UNL     1     -15.384  -1.198  -3.180  1.00  0.00    -0.213 N 
HETATM   35  C4  UNL     1     -14.926  -2.545  -3.207  1.00  0.00     0.174 C 
HETATM   36  C3  UNL     1     -14.167  -2.976  -4.412  1.00  0.00     0.204 C 
HETATM   37  C2  UNL     1     -14.512  -2.318  -5.695  1.00  0.00     0.069 C 
HETATM   38  C1  UNL     1     -15.561  -1.264  -5.643  1.00  0.00     0.204 C 
HETATM   39  C26 UNL     1     -15.628  -0.470  -4.392  1.00  0.00     0.174 C 
BRANCH  36  40
HETATM   40  N2  UNL     1     -14.320  -4.442  -4.492  1.00  0.00    -0.073 N 
ATOM     41  H23 UNL     1     -15.035  -4.706  -5.170  1.00  0.00     0.274 HD
ATOM     42  H22 UNL     1     -13.511  -4.877  -4.937  1.00  0.00     0.274 HD
ATOM     43  H21 UNL     1     -14.505  -4.853  -3.577  1.00  0.00     0.274 HD
ENDBRANCH  36  40
BRANCH  38  44
HETATM   44  N1  UNL     1     -16.864  -1.846  -5.960  1.00  0.00    -0.073 N 
ATOM     45  H13 UNL     1     -16.872  -2.289  -6.880  1.00  0.00     0.274 HD
ATOM     46  H12 UNL     1     -17.062  -2.672  -5.396  1.00  0.00     0.274 HD
ATOM     47  H11 UNL     1     -17.591  -1.137  -5.870  1.00  0.00     0.274 HD
ENDBRANCH  38  44
ENDBRANCH   1  34
BRANCH   7  48
HETATM   48  N10 UNL     1     -14.155  -0.114   1.386  1.00  0.00    -0.213 N 
HETATM   49  C22 UNL     1     -13.953   0.993   2.314  1.00  0.00     0.168 C 
HETATM   50  C23 UNL     1     -12.990   0.537   3.383  1.00  0.00     0.252 C 
HETATM   51  N11 UNL     1     -11.757   0.031   2.822  1.00  0.00    -0.072 N 
HETATM   52  C24 UNL     1     -11.954  -1.059   1.904  1.00  0.00     0.252 C 
ATOM     53 2H11 UNL     1     -11.224   0.782   2.383  1.00  0.00     0.277 HD
ATOM     54 1H11 UNL     1     -11.104  -0.231   3.560  1.00  0.00     0.277 HD
HETATM   55  C25 UNL     1     -13.414  -1.319   1.587  1.00  0.00     0.168 C 
ENDBRANCH   7  48
TORSDOF 8
ENDMDL
MODEL 5
REMARK VINA RESULT: -8.524986870      1.355      1.838
REMARK  8 active torsions:
REMARK  status: ('A' for Active; 'I' for Inactive)
REMARK    1  A    between atoms: N1_1  and  C1_5 
REMARK    2  A    between atoms: C3_7  and  N2_8 
REMARK    3  A    between atoms: N3_13  and  C5_14 
REMARK    4  A    between atoms: C6_17  and  N5_18 
REMARK    5  A    between atoms: N5_18  and  C7_20 
REMARK    6  A    between atoms: N8_30  and  C13_32 
REMARK    7  A    between atoms: C16_35  and  C17_36 
REMARK    8  A    between atoms: C21_44  and  N10_45 
ROOT
HETATM    1  C5  UNL     1     -12.501   3.408   0.803  1.00  0.00     0.709 A 
HETATM    2  N4  UNL     1     -13.523   4.180   1.236  1.00  0.00    -0.021 N 
ATOM      3  H4  UNL     1     -14.125   3.819   1.975  1.00  0.00     0.203 HD
HETATM    4  C6  UNL     1     -13.784   5.409   0.736  1.00  0.00     0.711 A 
HETATM    5  N9  UNL     1     -12.981   5.862  -0.235  1.00  0.00    -0.021 N 
ATOM      6  H9  UNL     1     -13.160   6.786  -0.629  1.00  0.00     0.203 HD
HETATM    7  C21 UNL     1     -11.945   5.143  -0.711  1.00  0.00     0.709 A 
HETATM    8  N12 UNL     1     -11.738   3.918  -0.165  1.00  0.00    -0.021 N 
ATOM      9  H12 UNL     1     -10.958   3.359  -0.512  1.00  0.00     0.203 HD
ENDROOT
BRANCH   4  10
HETATM   10  N5  UNL     1     -14.785   6.035   1.234  1.00  0.00    -0.191 N 
ATOM     11  H5  UNL     1     -14.606   6.887   1.766  1.00  0.00     0.184 HD
BRANCH  10  12
HETATM   12  C7  UNL     1     -16.125   5.606   1.085  1.00  0.00     0.050 A 
HETATM   13  C8  UNL     1     -17.214   6.313   1.556  1.00  0.00     0.032 A 
HETATM   14  C9  UNL     1     -18.511   5.882   1.393  1.00  0.00     0.033 A 
HETATM   15  C10 UNL     1     -18.731   4.690   0.730  1.00  0.00     0.047 A 
HETATM   16  N6  UNL     1     -19.964   4.211   0.536  1.00  0.00    -0.352 N 
HETATM   17  C19 UNL     1     -17.660   3.945   0.240  1.00  0.00     0.037 A 
HETATM   18  C11 UNL     1     -20.171   3.055  -0.107  1.00  0.00     0.182 A 
ATOM     19  H6  UNL     1     -20.764   4.737   0.885  1.00  0.00     0.166 HD
HETATM   20  N7  UNL     1     -19.121   2.330  -0.584  1.00  0.00    -0.338 N 
HETATM   21  C12 UNL     1     -17.853   2.738  -0.432  1.00  0.00     0.115 A 
ATOM     22  H7  UNL     1     -19.305   1.452  -1.071  1.00  0.00     0.168 HD
HETATM   23  N8  UNL     1     -16.809   2.127  -0.847  1.00  0.00    -0.371 N 
ATOM     24  H8  UNL     1     -15.891   2.535  -0.673  1.00  0.00     0.161 HD
HETATM   25  C20 UNL     1     -16.378   4.415   0.426  1.00  0.00     0.047 A 
BRANCH  23  26
HETATM   26  C13 UNL     1     -16.900   0.889  -1.546  1.00  0.00     0.084 C 
HETATM   27  C14 UNL     1     -16.177  -0.252  -0.852  1.00  0.00     0.026 C 
HETATM   28  C15 UNL     1     -15.754  -1.221  -1.905  1.00  0.00     0.017 C 
HETATM   29  C16 UNL     1     -15.734  -0.441  -3.174  1.00  0.00     0.089 C 
HETATM   30  C18 UNL     1     -16.228   0.950  -2.912  1.00  0.00     0.040 C 
BRANCH  29  31
HETATM   31  C17 UNL     1     -16.580  -1.120  -4.192  1.00  0.00     0.177 C 
HETATM   32  O1  UNL     1     -16.944  -2.334  -4.080  1.00  0.00    -0.648 OA
HETATM   33  O2  UNL     1     -16.976  -0.384  -5.296  1.00  0.00    -0.648 OA
ENDBRANCH  29  31
ENDBRANCH  23  26
ENDBRANCH  10  12
ENDBRANCH   4  10
BRANCH   1  34
HETATM   34  N3  UNL     1     -12.326   2.131   1.406  1.00  0.00    -0.213 N 
HETATM   35  C4  UNL     1     -11.217   1.906   2.268  1.00  0.00     0.174 C 
HETATM   36  C3  UNL     1     -10.740   0.503   2.401  1.00  0.00     0.204 C 
HETATM   37  C2  UNL     1     -11.754  -0.569   2.253  1.00  0.00     0.069 C 
HETATM   38  C1  UNL     1     -13.144  -0.134   1.950  1.00  0.00     0.204 C 
HETATM   39  C26 UNL     1     -13.281   1.097   1.133  1.00  0.00     0.174 C 
BRANCH  36  40
HETATM   40  N2  UNL     1     -10.049   0.425   3.704  1.00  0.00    -0.073 N 
ATOM     41  H23 UNL     1     -10.712   0.442   4.479  1.00  0.00     0.274 HD
ATOM     42  H22 UNL     1      -9.648  -0.500   3.857  1.00  0.00     0.274 HD
ATOM     43  H21 UNL     1      -9.343   1.156   3.801  1.00  0.00     0.274 HD
ENDBRANCH  36  40
BRANCH  38  44
HETATM   44  N1  UNL     1     -13.910  -0.024   3.191  1.00  0.00    -0.073 N 
ATOM     45  H13 UNL     1     -14.740  -0.617   3.183  1.00  0.00     0.274 HD
ATOM     46  H12 UNL     1     -13.427  -0.455   3.979  1.00  0.00     0.274 HD
ATOM     47  H11 UNL     1     -14.138   0.954   3.370  1.00  0.00     0.274 HD
ENDBRANCH  38  44
ENDBRANCH   1  34
BRANCH   7  48
HETATM   48  N10 UNL     1     -11.084   5.608  -1.741  1.00  0.00    -0.213 N 
HETATM   49  C22 UNL     1     -10.319   4.666  -2.550  1.00  0.00     0.168 C 
HETATM   50  C23 UNL     1      -9.564   5.452  -3.594  1.00  0.00     0.252 C 
HETATM   51  N11 UNL     1      -8.748   6.491  -3.006  1.00  0.00    -0.072 N 
HETATM   52  C24 UNL     1      -9.500   7.420  -2.205  1.00  0.00     0.252 C 
ATOM     53 2H11 UNL     1      -7.980   6.088  -2.468  1.00  0.00     0.277 HD
ATOM     54 1H11 UNL     1      -8.213   6.981  -3.722  1.00  0.00     0.277 HD
HETATM   55  C25 UNL     1     -10.944   7.006  -2.004  1.00  0.00     0.168 C 
ENDBRANCH   7  48
TORSDOF 8
ENDMDL
