MODEL 1
REMARK VINA RESULT: -9.551305066      0.000      0.000
REMARK  13 active torsions:
REMARK  status: ('A' for Active; 'I' for Inactive)
REMARK    1  A    between atoms: C4_5  and  C5_6 
REMARK    2  A    between atoms: C5_6  and  C6_7 
REMARK    3  A    between atoms: C6_7  and  C7_8 
REMARK    4  A    between atoms: C7_8  and  C8_9 
REMARK    5  A    between atoms: C9_11  and  N2_12 
REMARK    6  A    between atoms: C12_17  and  N4_18 
REMARK    7  A    between atoms: C18_31  and  O3_32 
REMARK    8  A    between atoms: C19_34  and  C20_35 
REMARK    9  A    between atoms: C20_35  and  C21_36 
REMARK   10  A    between atoms: C21_36  and  N7_37 
REMARK   11  A    between atoms: C21_36  and  C22_41 
REMARK   12  A    between atoms: C22_41  and  O4_42 
REMARK   13  A    between atoms: C22_41  and  O5_44 
ROOT
HETATM    1  C8  UNL     1     -16.589   2.582  -0.325  1.00  0.00     0.142 C 
HETATM    2  O1  UNL     1     -15.193   2.560  -0.154  1.00  0.00    -0.357 OA
HETATM    3  C9  UNL     1     -14.772   3.898  -0.135  1.00  0.00     0.260 C 
HETATM    4  C15 UNL     1     -15.969   4.757   0.022  1.00  0.00     0.185 C 
HETATM    5  O2  UNL     1     -15.916   5.762   0.979  1.00  0.00    -0.340 OA
HETATM    6  C16 UNL     1     -17.144   6.290   1.382  1.00  0.00     0.078 A 
HETATM    7  C17 UNL     1     -17.247   7.466   2.064  1.00  0.00     0.074 A 
HETATM    8  C18 UNL     1     -18.471   8.011   2.476  1.00  0.00     0.074 A 
HETATM    9  C19 UNL     1     -19.626   7.332   2.183  1.00  0.00    -0.022 A 
HETATM   10  C23 UNL     1     -19.547   6.122   1.485  1.00  0.00     0.020 A 
HETATM   11  C24 UNL     1     -18.321   5.618   1.094  1.00  0.00    -0.024 A 
HETATM   12  C25 UNL     1     -18.324   4.307   0.345  1.00  0.00     0.051 C 
HETATM   13  C26 UNL     1     -16.979   3.720   0.552  1.00  0.00     0.054 C 
ENDROOT
BRANCH   3  14
HETATM   14  N2  UNL     1     -13.731   4.145   0.815  1.00  0.00    -0.297 N 
HETATM   15  C10 UNL     1     -12.964   5.237   0.968  1.00  0.00     0.188 A 
HETATM   16  N3  UNL     1     -12.094   5.080   1.981  1.00  0.00    -0.346 N 
HETATM   17  C11 UNL     1     -12.282   3.875   2.507  1.00  0.00     0.122 A 
ATOM     18  H3  UNL     1     -11.409   5.768   2.292  1.00  0.00     0.167 HD
HETATM   19  C12 UNL     1     -11.674   3.196   3.556  1.00  0.00     0.131 A 
HETATM   20  C14 UNL     1     -13.299   3.292   1.784  1.00  0.00     0.142 A 
HETATM   21  N5  UNL     1     -12.106   1.957   3.846  1.00  0.00    -0.337 N 
HETATM   22  C13 UNL     1     -13.099   1.380   3.146  1.00  0.00     0.183 A 
ATOM     23  H5  UNL     1     -11.672   1.444   4.613  1.00  0.00     0.168 HD
HETATM   24  N6  UNL     1     -13.680   2.044   2.132  1.00  0.00    -0.336 N 
ATOM     25  H6  UNL     1     -14.431   1.591   1.611  1.00  0.00     0.168 HD
BRANCH  19  26
HETATM   26  N4  UNL     1     -10.725   3.763   4.218  1.00  0.00    -0.383 N 
ATOM     27  H42 UNL     1     -10.740   4.758   4.442  1.00  0.00     0.157 HD
ATOM     28  H41 UNL     1      -9.929   3.209   4.532  1.00  0.00     0.157 HD
ENDBRANCH  19  26
ENDBRANCH   3  14
BRANCH   1  29
HETATM   29  C7  UNL     1     -17.229   1.291  -0.000  1.00  0.00     0.127 C 
BRANCH  29  30
HETATM   30  C6  UNL     1     -16.779   0.296  -0.976  1.00  0.00    -0.097 C 
BRANCH  30  31
HETATM   31  C5  UNL     1     -16.416  -0.513  -1.799  1.00  0.00    -0.049 C 
BRANCH  31  32
HETATM   32  C4  UNL     1     -15.997  -1.491  -2.764  1.00  0.00     0.088 A 
HETATM   33  C3  UNL     1     -16.435  -1.499  -4.073  1.00  0.00     0.056 A 
HETATM   34  C2  UNL     1     -16.014  -2.454  -4.985  1.00  0.00     0.094 A 
HETATM   35  N1  UNL     1     -15.152  -3.413  -4.607  1.00  0.00    -0.357 N 
HETATM   36  C1  UNL     1     -14.691  -4.436  -5.555  1.00  0.00     0.156 C 
HETATM   37  C27 UNL     1     -14.724  -3.407  -3.332  1.00  0.00     0.183 A 
HETATM   38  N8  UNL     1     -15.127  -2.484  -2.438  1.00  0.00    -0.345 N 
ATOM     39  H8  UNL     1     -14.767  -2.531  -1.484  1.00  0.00     0.167 HD
ENDBRANCH  31  32
ENDBRANCH  30  31
ENDBRANCH  29  30
ENDBRANCH   1  29
BRANCH   8  40
HETATM   40  O3  UNL     1     -18.526   9.206   3.162  1.00  0.00    -0.360 OA
ATOM     41  H3  UNL     1     -18.570   9.226   4.111  1.00  0.00     0.217 HD
ENDBRANCH   8  40
BRANCH   9  42
HETATM   42  C20 UNL     1     -20.936   7.834   2.600  1.00  0.00     0.079 C 
BRANCH  42  43
HETATM   43  C21 UNL     1     -21.457   8.987   1.807  1.00  0.00     0.242 C 
BRANCH  43  44
HETATM   44  N7  UNL     1     -22.813   8.662   1.341  1.00  0.00    -0.070 N 
ATOM     45  H73 UNL     1     -22.919   7.674   1.110  1.00  0.00     0.274 HD
ATOM     46  H72 UNL     1     -23.504   8.706   2.090  1.00  0.00     0.274 HD
ATOM     47  H71 UNL     1     -23.044   9.275   0.559  1.00  0.00     0.274 HD
ENDBRANCH  43  44
BRANCH  43  48
HETATM   48  C22 UNL     1     -21.657  10.227   2.694  1.00  0.00     0.284 C 
BRANCH  48  49
HETATM   49  O4  UNL     1     -22.995  10.605   2.672  1.00  0.00    -0.369 OA
ATOM     50  H4  UNL     1     -23.058  11.553   2.666  1.00  0.00     0.212 HD
ENDBRANCH  48  49
BRANCH  48  51
HETATM   51  O5  UNL     1     -21.312   9.979   4.008  1.00  0.00    -0.369 OA
ATOM     52  H5  UNL     1     -20.938  10.746   4.425  1.00  0.00     0.212 HD
ENDBRANCH  48  51
ENDBRANCH  43  48
ENDBRANCH  42  43
ENDBRANCH   9  42
TORSDOF 13
ENDMDL
MODEL 2
REMARK VINA RESULT: -8.685986014      0.862      1.675
REMARK  13 active torsions:
REMARK  status: ('A' for Active; 'I' for Inactive)
REMARK    1  A    between atoms: C4_5  and  C5_6 
REMARK    2  A    between atoms: C5_6  and  C6_7 
REMARK    3  A    between atoms: C6_7  and  C7_8 
REMARK    4  A    between atoms: C7_8  and  C8_9 
REMARK    5  A    between atoms: C9_11  and  N2_12 
REMARK    6  A    between atoms: C12_17  and  N4_18 
REMARK    7  A    between atoms: C18_31  and  O3_32 
REMARK    8  A    between atoms: C19_34  and  C20_35 
REMARK    9  A    between atoms: C20_35  and  C21_36 
REMARK   10  A    between atoms: C21_36  and  N7_37 
REMARK   11  A    between atoms: C21_36  and  C22_41 
REMARK   12  A    between atoms: C22_41  and  O4_42 
REMARK   13  A    between atoms: C22_41  and  O5_44 
ROOT
HETATM    1  C8  UNL     1     -16.712   2.558  -0.327  1.00  0.00     0.142 C 
HETATM    2  O1  UNL     1     -15.326   2.495  -0.101  1.00  0.00    -0.357 OA
HETATM    3  C9  UNL     1     -14.870   3.820  -0.039  1.00  0.00     0.260 C 
HETATM    4  C15 UNL     1     -16.048   4.709   0.087  1.00  0.00     0.185 C 
HETATM    5  O2  UNL     1     -16.008   5.694   1.064  1.00  0.00    -0.340 OA
HETATM    6  C16 UNL     1     -17.237   6.249   1.427  1.00  0.00     0.078 A 
HETATM    7  C17 UNL     1     -17.336   7.415   2.127  1.00  0.00     0.074 A 
HETATM    8  C18 UNL     1     -18.560   7.985   2.500  1.00  0.00     0.074 A 
HETATM    9  C19 UNL     1     -19.720   7.344   2.148  1.00  0.00    -0.022 A 
HETATM   10  C23 UNL     1     -19.645   6.145   1.430  1.00  0.00     0.020 A 
HETATM   11  C24 UNL     1     -18.419   5.615   1.079  1.00  0.00    -0.024 A 
HETATM   12  C25 UNL     1     -18.426   4.319   0.305  1.00  0.00     0.051 C 
HETATM   13  C26 UNL     1     -17.107   3.690   0.555  1.00  0.00     0.054 C 
ENDROOT
BRANCH   3  14
HETATM   14  N2  UNL     1     -13.862   4.020   0.958  1.00  0.00    -0.297 N 
HETATM   15  C10 UNL     1     -13.753   3.464   2.176  1.00  0.00     0.188 A 
HETATM   16  N3  UNL     1     -12.658   3.910   2.815  1.00  0.00    -0.346 N 
HETATM   17  C11 UNL     1     -12.033   4.769   2.018  1.00  0.00     0.122 A 
ATOM     18  H3  UNL     1     -12.359   3.636   3.750  1.00  0.00     0.167 HD
HETATM   19  C12 UNL     1     -10.872   5.520   2.162  1.00  0.00     0.131 A 
HETATM   20  C14 UNL     1     -12.779   4.838   0.863  1.00  0.00     0.142 A 
HETATM   21  N5  UNL     1     -10.499   6.314   1.145  1.00  0.00    -0.337 N 
HETATM   22  C13 UNL     1     -11.221   6.388   0.013  1.00  0.00     0.183 A 
ATOM     23  H5  UNL     1      -9.650   6.872   1.232  1.00  0.00     0.168 HD
HETATM   24  N6  UNL     1     -12.342   5.659  -0.117  1.00  0.00    -0.336 N 
ATOM     25  H6  UNL     1     -12.880   5.727  -0.982  1.00  0.00     0.168 HD
BRANCH  19  26
HETATM   26  N4  UNL     1     -10.191   5.438   3.252  1.00  0.00    -0.383 N 
ATOM     27  H42 UNL     1     -10.254   4.630   3.872  1.00  0.00     0.157 HD
ATOM     28  H41 UNL     1      -9.564   6.199   3.514  1.00  0.00     0.157 HD
ENDBRANCH  19  26
ENDBRANCH   3  14
BRANCH   1  29
HETATM   29  C7  UNL     1     -17.400   1.281  -0.054  1.00  0.00     0.127 C 
BRANCH  29  30
HETATM   30  C6  UNL     1     -16.884   0.272  -0.984  1.00  0.00    -0.097 C 
BRANCH  30  31
HETATM   31  C5  UNL     1     -16.474  -0.554  -1.766  1.00  0.00    -0.049 C 
BRANCH  31  32
HETATM   32  C4  UNL     1     -15.975  -1.547  -2.677  1.00  0.00     0.088 A 
HETATM   33  C3  UNL     1     -16.352  -1.616  -4.003  1.00  0.00     0.056 A 
HETATM   34  C2  UNL     1     -15.854  -2.583  -4.860  1.00  0.00     0.094 A 
HETATM   35  N1  UNL     1     -14.973  -3.494  -4.412  1.00  0.00    -0.357 N 
HETATM   36  C1  UNL     1     -14.430  -4.529  -5.301  1.00  0.00     0.156 C 
HETATM   37  C27 UNL     1     -14.604  -3.427  -3.119  1.00  0.00     0.183 A 
HETATM   38  N8  UNL     1     -15.082  -2.492  -2.277  1.00  0.00    -0.345 N 
ATOM     39  H8  UNL     1     -14.764  -2.492  -1.308  1.00  0.00     0.167 HD
ENDBRANCH  31  32
ENDBRANCH  30  31
ENDBRANCH  29  30
ENDBRANCH   1  29
BRANCH   8  40
HETATM   40  O3  UNL     1     -18.611   9.168   3.207  1.00  0.00    -0.360 OA
ATOM     41  H3  UNL     1     -17.926   9.821   3.123  1.00  0.00     0.217 HD
ENDBRANCH   8  40
BRANCH   9  42
HETATM   42  C20 UNL     1     -21.032   7.875   2.521  1.00  0.00     0.079 C 
BRANCH  42  43
HETATM   43  C21 UNL     1     -21.466   9.089   1.768  1.00  0.00     0.242 C 
BRANCH  43  44
HETATM   44  N7  UNL     1     -22.805   8.845   1.215  1.00  0.00    -0.070 N 
ATOM     45  H73 UNL     1     -22.878   7.938   0.754  1.00  0.00     0.274 HD
ATOM     46  H72 UNL     1     -23.505   8.691   1.941  1.00  0.00     0.274 HD
ATOM     47  H71 UNL     1     -23.048   9.620   0.597  1.00  0.00     0.274 HD
ENDBRANCH  43  44
BRANCH  43  48
HETATM   48  C22 UNL     1     -21.665  10.287   2.710  1.00  0.00     0.284 C 
BRANCH  48  49
HETATM   49  O4  UNL     1     -23.008  10.647   2.729  1.00  0.00    -0.369 OA
ATOM     50  H4  UNL     1     -23.441  10.223   3.460  1.00  0.00     0.212 HD
ENDBRANCH  48  49
BRANCH  48  51
HETATM   51  O5  UNL     1     -21.292   9.988   4.006  1.00  0.00    -0.369 OA
ATOM     52  H5  UNL     1     -21.623  10.628   4.625  1.00  0.00     0.212 HD
ENDBRANCH  48  51
ENDBRANCH  43  48
ENDBRANCH  42  43
ENDBRANCH   9  42
TORSDOF 13
ENDMDL
MODEL 3
REMARK VINA RESULT: -8.577308860      2.953      9.667
REMARK  13 active torsions:
REMARK  status: ('A' for Active; 'I' for Inactive)
REMARK    1  A    between atoms: C4_5  and  C5_6 
REMARK    2  A    between atoms: C5_6  and  C6_7 
REMARK    3  A    between atoms: C6_7  and  C7_8 
REMARK    4  A    between atoms: C7_8  and  C8_9 
REMARK    5  A    between atoms: C9_11  and  N2_12 
REMARK    6  A    between atoms: C12_17  and  N4_18 
REMARK    7  A    between atoms: C18_31  and  O3_32 
REMARK    8  A    between atoms: C19_34  and  C20_35 
REMARK    9  A    between atoms: C20_35  and  C21_36 
REMARK   10  A    between atoms: C21_36  and  N7_37 
REMARK   11  A    between atoms: C21_36  and  C22_41 
REMARK   12  A    between atoms: C22_41  and  O4_42 
REMARK   13  A    between atoms: C22_41  and  O5_44 
ROOT
HETATM    1  C8  UNL     1     -15.922   3.552   1.286  1.00  0.00     0.142 C 
HETATM    2  O1  UNL     1     -15.019   3.418   2.354  1.00  0.00    -0.357 OA
HETATM    3  C9  UNL     1     -14.935   2.046   2.637  1.00  0.00     0.260 C 
HETATM    4  C15 UNL     1     -15.558   1.304   1.517  1.00  0.00     0.185 C 
HETATM    5  O2  UNL     1     -14.857   0.229   0.989  1.00  0.00    -0.340 OA
HETATM    6  C16 UNL     1     -15.254  -0.200  -0.279  1.00  0.00     0.078 A 
HETATM    7  C17 UNL     1     -14.885  -1.409  -0.792  1.00  0.00     0.074 A 
HETATM    8  C18 UNL     1     -15.274  -1.855  -2.061  1.00  0.00     0.074 A 
HETATM    9  C19 UNL     1     -16.064  -1.041  -2.832  1.00  0.00    -0.022 A 
HETATM   10  C23 UNL     1     -16.455   0.204  -2.329  1.00  0.00     0.020 A 
HETATM   11  C24 UNL     1     -16.052   0.609  -1.071  1.00  0.00    -0.024 A 
HETATM   12  C25 UNL     1     -16.518   1.966  -0.604  1.00  0.00     0.051 C 
HETATM   13  C26 UNL     1     -15.543   2.396   0.427  1.00  0.00     0.054 C 
ENDROOT
BRANCH   3  14
HETATM   14  N2  UNL     1     -13.608   1.623   2.969  1.00  0.00    -0.297 N 
HETATM   15  C10 UNL     1     -13.188   0.430   3.423  1.00  0.00     0.188 A 
HETATM   16  N3  UNL     1     -11.858   0.427   3.616  1.00  0.00    -0.346 N 
HETATM   17  C11 UNL     1     -11.388   1.625   3.288  1.00  0.00     0.122 A 
ATOM     18  H3  UNL     1     -11.305  -0.359   3.955  1.00  0.00     0.167 HD
HETATM   19  C12 UNL     1     -10.111   2.173   3.292  1.00  0.00     0.131 A 
HETATM   20  C14 UNL     1     -12.474   2.370   2.885  1.00  0.00     0.142 A 
HETATM   21  N5  UNL     1      -9.965   3.447   2.892  1.00  0.00    -0.337 N 
HETATM   22  C13 UNL     1     -11.020   4.182   2.496  1.00  0.00     0.183 A 
ATOM     23  H5  UNL     1      -9.035   3.866   2.887  1.00  0.00     0.168 HD
HETATM   24  N6  UNL     1     -12.251   3.644   2.496  1.00  0.00    -0.336 N 
ATOM     25  H6  UNL     1     -13.041   4.215   2.194  1.00  0.00     0.168 HD
BRANCH  19  26
HETATM   26  N4  UNL     1      -9.110   1.457   3.673  1.00  0.00    -0.383 N 
ATOM     27  H42 UNL     1      -8.652   0.791   3.050  1.00  0.00     0.157 HD
ATOM     28  H41 UNL     1      -8.757   1.549   4.625  1.00  0.00     0.157 HD
ENDBRANCH  19  26
ENDBRANCH   3  14
BRANCH   1  29
HETATM   29  C7  UNL     1     -15.846   4.872   0.628  1.00  0.00     0.127 C 
BRANCH  29  30
HETATM   30  C6  UNL     1     -16.969   5.687   1.100  1.00  0.00    -0.097 C 
BRANCH  30  31
HETATM   31  C5  UNL     1     -17.904   6.360   1.469  1.00  0.00    -0.049 C 
BRANCH  31  32
HETATM   32  C4  UNL     1     -19.012   7.173   1.887  1.00  0.00     0.088 A 
HETATM   33  C3  UNL     1     -18.863   8.351   2.592  1.00  0.00     0.056 A 
HETATM   34  C2  UNL     1     -19.949   9.117   2.982  1.00  0.00     0.094 A 
HETATM   35  N1  UNL     1     -21.197   8.724   2.677  1.00  0.00    -0.357 N 
HETATM   36  C1  UNL     1     -22.365   9.519   3.079  1.00  0.00     0.156 C 
HETATM   37  C27 UNL     1     -21.344   7.576   1.989  1.00  0.00     0.183 A 
HETATM   38  N8  UNL     1     -20.296   6.823   1.605  1.00  0.00    -0.345 N 
ATOM     39  H8  UNL     1     -20.470   5.963   1.086  1.00  0.00     0.167 HD
ENDBRANCH  31  32
ENDBRANCH  30  31
ENDBRANCH  29  30
ENDBRANCH   1  29
BRANCH   8  40
HETATM   40  O3  UNL     1     -14.878  -3.087  -2.537  1.00  0.00    -0.360 OA
ATOM     41  H3  UNL     1     -15.391  -3.552  -3.187  1.00  0.00     0.217 HD
ENDBRANCH   8  40
BRANCH   9  42
HETATM   42  C20 UNL     1     -16.491  -1.437  -4.175  1.00  0.00     0.079 C 
BRANCH  42  43
HETATM   43  C21 UNL     1     -15.683  -0.868  -5.294  1.00  0.00     0.242 C 
BRANCH  43  44
HETATM   44  N7  UNL     1     -14.261  -1.126  -5.024  1.00  0.00    -0.070 N 
ATOM     45  H73 UNL     1     -13.806  -1.635  -5.782  1.00  0.00     0.274 HD
ATOM     46  H72 UNL     1     -13.696  -0.278  -5.065  1.00  0.00     0.274 HD
ATOM     47  H71 UNL     1     -14.182  -1.606  -4.127  1.00  0.00     0.274 HD
ENDBRANCH  43  44
BRANCH  43  48
HETATM   48  C22 UNL     1     -15.952  -1.615  -6.611  1.00  0.00     0.284 C 
BRANCH  48  49
HETATM   49  O4  UNL     1     -14.763  -2.149  -7.095  1.00  0.00    -0.369 OA
ATOM     50  H4  UNL     1     -14.050  -1.925  -6.509  1.00  0.00     0.212 HD
ENDBRANCH  48  49
BRANCH  48  51
HETATM   51  O5  UNL     1     -16.842  -2.656  -6.438  1.00  0.00    -0.369 OA
ATOM     52  H5  UNL     1     -17.713  -2.345  -6.222  1.00  0.00     0.212 HD
ENDBRANCH  48  51
ENDBRANCH  43  48
ENDBRANCH  42  43
ENDBRANCH   9  42
TORSDOF 13
ENDMDL
MODEL 4
REMARK VINA RESULT: -8.501829870      3.153      9.298
REMARK  13 active torsions:
REMARK  status: ('A' for Active; 'I' for Inactive)
REMARK    1  A    between atoms: C4_5  and  C5_6 
REMARK    2  A    between atoms: C5_6  and  C6_7 
REMARK    3  A    between atoms: C6_7  and  C7_8 
REMARK    4  A    between atoms: C7_8  and  C8_9 
REMARK    5  A    between atoms: C9_11  and  N2_12 
REMARK    6  A    between atoms: C12_17  and  N4_18 
REMARK    7  A    between atoms: C18_31  and  O3_32 
REMARK    8  A    between atoms: C19_34  and  C20_35 
REMARK    9  A    between atoms: C20_35  and  C21_36 
REMARK   10  A    between atoms: C21_36  and  N7_37 
REMARK   11  A    between atoms: C21_36  and  C22_41 
REMARK   12  A    between atoms: C22_41  and  O4_42 
REMARK   13  A    between atoms: C22_41  and  O5_44 
ROOT
HETATM    1  C8  UNL     1     -15.544   3.363   1.199  1.00  0.00     0.142 C 
HETATM    2  O1  UNL     1     -14.447   3.489   2.068  1.00  0.00    -0.357 OA
HETATM    3  C9  UNL     1     -14.053   2.185   2.406  1.00  0.00     0.260 C 
HETATM    4  C15 UNL     1     -14.725   1.245   1.480  1.00  0.00     0.185 C 
HETATM    5  O2  UNL     1     -13.946   0.263   0.884  1.00  0.00    -0.340 OA
HETATM    6  C16 UNL     1     -14.486  -0.345  -0.250  1.00  0.00     0.078 A 
HETATM    7  C17 UNL     1     -13.999  -1.514  -0.757  1.00  0.00     0.074 A 
HETATM    8  C18 UNL     1     -14.530  -2.138  -1.894  1.00  0.00     0.074 A 
HETATM    9  C19 UNL     1     -15.590  -1.550  -2.534  1.00  0.00    -0.022 A 
HETATM   10  C23 UNL     1     -16.108  -0.350  -2.034  1.00  0.00     0.020 A 
HETATM   11  C24 UNL     1     -15.558   0.235  -0.909  1.00  0.00    -0.024 A 
HETATM   12  C25 UNL     1     -16.175   1.528  -0.436  1.00  0.00     0.051 C 
HETATM   13  C26 UNL     1     -15.122   2.216   0.350  1.00  0.00     0.054 C 
ENDROOT
BRANCH   3  14
HETATM   14  N2  UNL     1     -12.632   2.032   2.486  1.00  0.00    -0.297 N 
HETATM   15  C10 UNL     1     -11.665   2.852   2.043  1.00  0.00     0.188 A 
HETATM   16  N3  UNL     1     -10.447   2.352   2.311  1.00  0.00    -0.346 N 
HETATM   17  C11 UNL     1     -10.601   1.192   2.937  1.00  0.00     0.122 A 
ATOM     18  H3  UNL     1      -9.556   2.790   2.075  1.00  0.00     0.167 HD
HETATM   19  C12 UNL     1      -9.701   0.259   3.437  1.00  0.00     0.131 A 
HETATM   20  C14 UNL     1     -11.960   0.990   3.047  1.00  0.00     0.142 A 
HETATM   21  N5  UNL     1     -10.190  -0.842   4.031  1.00  0.00    -0.337 N 
HETATM   22  C13 UNL     1     -11.514  -1.047   4.144  1.00  0.00     0.183 A 
ATOM     23  H5  UNL     1      -9.544  -1.537   4.406  1.00  0.00     0.168 HD
HETATM   24  N6  UNL     1     -12.378  -0.140   3.657  1.00  0.00    -0.336 N 
ATOM     25  H6  UNL     1     -13.380  -0.311   3.750  1.00  0.00     0.168 HD
BRANCH  19  26
HETATM   26  N4  UNL     1      -8.435   0.470   3.322  1.00  0.00    -0.383 N 
ATOM     27  H42 UNL     1      -7.875   0.022   2.597  1.00  0.00     0.157 HD
ATOM     28  H41 UNL     1      -7.968   1.102   3.972  1.00  0.00     0.157 HD
ENDBRANCH  19  26
ENDBRANCH   3  14
BRANCH   1  29
HETATM   29  C7  UNL     1     -15.845   4.609   0.466  1.00  0.00     0.127 C 
BRANCH  29  30
HETATM   30  C6  UNL     1     -17.233   4.985   0.746  1.00  0.00    -0.097 C 
BRANCH  30  31
HETATM   31  C5  UNL     1     -18.381   5.302   0.956  1.00  0.00    -0.049 C 
BRANCH  31  32
HETATM   32  C4  UNL     1     -19.737   5.700   1.212  1.00  0.00     0.088 A 
HETATM   33  C3  UNL     1     -20.828   4.907   0.918  1.00  0.00     0.056 A 
HETATM   34  C2  UNL     1     -22.127   5.316   1.176  1.00  0.00     0.094 A 
HETATM   35  N1  UNL     1     -22.358   6.517   1.730  1.00  0.00    -0.357 N 
HETATM   36  C1  UNL     1     -23.725   6.973   2.014  1.00  0.00     0.156 C 
HETATM   37  C27 UNL     1     -21.296   7.292   2.018  1.00  0.00     0.183 A 
HETATM   38  N8  UNL     1     -20.030   6.905   1.771  1.00  0.00    -0.345 N 
ATOM     39  H8  UNL     1     -19.266   7.536   2.011  1.00  0.00     0.167 HD
ENDBRANCH  31  32
ENDBRANCH  30  31
ENDBRANCH  29  30
ENDBRANCH   1  29
BRANCH   8  40
HETATM   40  O3  UNL     1     -14.004  -3.321  -2.369  1.00  0.00    -0.360 OA
ATOM     41  H3  UNL     1     -13.066  -3.461  -2.410  1.00  0.00     0.217 HD
ENDBRANCH   8  40
BRANCH   9  42
HETATM   42  C20 UNL     1     -16.180  -2.138  -3.738  1.00  0.00     0.079 C 
BRANCH  42  43
HETATM   43  C21 UNL     1     -15.420  -1.902  -5.001  1.00  0.00     0.242 C 
BRANCH  43  44
HETATM   44  N7  UNL     1     -14.852  -3.179  -5.453  1.00  0.00    -0.070 N 
ATOM     45  H73 UNL     1     -14.105  -3.512  -4.843  1.00  0.00     0.274 HD
ATOM     46  H72 UNL     1     -15.496  -3.960  -5.325  1.00  0.00     0.274 HD
ATOM     47  H71 UNL     1     -14.550  -3.077  -6.422  1.00  0.00     0.274 HD
ENDBRANCH  43  44
BRANCH  43  48
HETATM   48  C22 UNL     1     -16.357  -1.486  -6.146  1.00  0.00     0.284 C 
BRANCH  48  49
HETATM   49  O4  UNL     1     -16.938  -2.618  -6.707  1.00  0.00    -0.369 OA
ATOM     50  H4  UNL     1     -17.151  -2.449  -7.617  1.00  0.00     0.212 HD
ENDBRANCH  48  49
BRANCH  48  51
HETATM   51  O5  UNL     1     -17.377  -0.667  -5.703  1.00  0.00    -0.369 OA
ATOM     52  H5  UNL     1     -17.824  -0.240  -6.423  1.00  0.00     0.212 HD
ENDBRANCH  48  51
ENDBRANCH  43  48
ENDBRANCH  42  43
ENDBRANCH   9  42
TORSDOF 13
ENDMDL
MODEL 5
REMARK VINA RESULT: -8.396281022      3.151      9.360
REMARK  13 active torsions:
REMARK  status: ('A' for Active; 'I' for Inactive)
REMARK    1  A    between atoms: C4_5  and  C5_6 
REMARK    2  A    between atoms: C5_6  and  C6_7 
REMARK    3  A    between atoms: C6_7  and  C7_8 
REMARK    4  A    between atoms: C7_8  and  C8_9 
REMARK    5  A    between atoms: C9_11  and  N2_12 
REMARK    6  A    between atoms: C12_17  and  N4_18 
REMARK    7  A    between atoms: C18_31  and  O3_32 
REMARK    8  A    between atoms: C19_34  and  C20_35 
REMARK    9  A    between atoms: C20_35  and  C21_36 
REMARK   10  A    between atoms: C21_36  and  N7_37 
REMARK   11  A    between atoms: C21_36  and  C22_41 
REMARK   12  A    between atoms: C22_41  and  O4_42 
REMARK   13  A    between atoms: C22_41  and  O5_44 
ROOT
HETATM    1  C8  UNL     1     -15.714   3.309   1.099  1.00  0.00     0.142 C 
HETATM    2  O1  UNL     1     -14.953   3.188   2.275  1.00  0.00    -0.357 OA
HETATM    3  C9  UNL     1     -14.579   1.839   2.371  1.00  0.00     0.260 C 
HETATM    4  C15 UNL     1     -14.853   1.189   1.069  1.00  0.00     0.185 C 
HETATM    5  O2  UNL     1     -13.849   0.402   0.521  1.00  0.00    -0.340 OA
HETATM    6  C16 UNL     1     -13.961   0.127  -0.843  1.00  0.00     0.078 A 
HETATM    7  C17 UNL     1     -13.247  -0.863  -1.452  1.00  0.00     0.074 A 
HETATM    8  C18 UNL     1     -13.347  -1.152  -2.819  1.00  0.00     0.074 A 
HETATM    9  C19 UNL     1     -14.201  -0.406  -3.590  1.00  0.00    -0.022 A 
HETATM   10  C23 UNL     1     -14.944   0.616  -2.989  1.00  0.00     0.020 A 
HETATM   11  C24 UNL     1     -14.819   0.871  -1.637  1.00  0.00    -0.024 A 
HETATM   12  C25 UNL     1     -15.656   1.991  -1.068  1.00  0.00     0.051 C 
HETATM   13  C26 UNL     1     -14.958   2.433   0.163  1.00  0.00     0.054 C 
ENDROOT
BRANCH   3  14
HETATM   14  N2  UNL     1     -13.245   1.661   2.859  1.00  0.00    -0.297 N 
HETATM   15  C10 UNL     1     -12.670   0.561   3.373  1.00  0.00     0.188 A 
HETATM   16  N3  UNL     1     -11.394   0.799   3.718  1.00  0.00    -0.346 N 
HETATM   17  C11 UNL     1     -11.115   2.065   3.434  1.00  0.00     0.122 A 
ATOM     18  H3  UNL     1     -10.749   0.123   4.128  1.00  0.00     0.167 HD
HETATM   19  C12 UNL     1      -9.969   2.837   3.579  1.00  0.00     0.131 A 
HETATM   20  C14 UNL     1     -12.264   2.604   2.899  1.00  0.00     0.142 A 
HETATM   21  N5  UNL     1     -10.012   4.121   3.185  1.00  0.00    -0.337 N 
HETATM   22  C13 UNL     1     -11.130   4.655   2.662  1.00  0.00     0.183 A 
ATOM     23  H5  UNL     1      -9.180   4.702   3.283  1.00  0.00     0.168 HD
HETATM   24  N6  UNL     1     -12.234   3.901   2.525  1.00  0.00    -0.336 N 
ATOM     25  H6  UNL     1     -13.074   4.322   2.127  1.00  0.00     0.168 HD
BRANCH  19  26
HETATM   26  N4  UNL     1      -8.905   2.311   4.082  1.00  0.00    -0.383 N 
ATOM     27  H42 UNL     1      -8.943   1.512   4.715  1.00  0.00     0.157 HD
ATOM     28  H41 UNL     1      -7.991   2.698   3.846  1.00  0.00     0.157 HD
ENDBRANCH  19  26
ENDBRANCH   3  14
BRANCH   1  29
HETATM   29  C7  UNL     1     -15.873   4.709   0.657  1.00  0.00     0.127 C 
BRANCH  29  30
HETATM   30  C6  UNL     1     -17.262   5.112   0.892  1.00  0.00    -0.097 C 
BRANCH  30  31
HETATM   31  C5  UNL     1     -18.404   5.464   1.077  1.00  0.00    -0.049 C 
BRANCH  31  32
HETATM   32  C4  UNL     1     -19.762   5.867   1.317  1.00  0.00     0.088 A 
HETATM   33  C3  UNL     1     -20.103   7.086   1.868  1.00  0.00     0.056 A 
HETATM   34  C2  UNL     1     -21.422   7.451   2.087  1.00  0.00     0.094 A 
HETATM   35  N1  UNL     1     -22.418   6.610   1.761  1.00  0.00    -0.357 N 
HETATM   36  C1  UNL     1     -23.824   6.974   1.983  1.00  0.00     0.156 C 
HETATM   37  C27 UNL     1     -22.087   5.422   1.223  1.00  0.00     0.183 A 
HETATM   38  N8  UNL     1     -20.809   5.057   1.006  1.00  0.00    -0.345 N 
ATOM     39  H8  UNL     1     -20.620   4.143   0.595  1.00  0.00     0.167 HD
ENDBRANCH  31  32
ENDBRANCH  30  31
ENDBRANCH  29  30
ENDBRANCH   1  29
BRANCH   8  40
HETATM   40  O3  UNL     1     -12.606  -2.166  -3.390  1.00  0.00    -0.360 OA
ATOM     41  H3  UNL     1     -13.026  -2.888  -3.841  1.00  0.00     0.217 HD
ENDBRANCH   8  40
BRANCH   9  42
HETATM   42  C20 UNL     1     -14.340  -0.642  -5.028  1.00  0.00     0.079 C 
BRANCH  42  43
HETATM   43  C21 UNL     1     -15.684  -1.123  -5.467  1.00  0.00     0.242 C 
BRANCH  43  44
HETATM   44  N7  UNL     1     -15.629  -1.419  -6.905  1.00  0.00    -0.070 N 
ATOM     45  H73 UNL     1     -14.766  -1.092  -7.339  1.00  0.00     0.274 HD
ATOM     46  H72 UNL     1     -15.514  -2.415  -7.095  1.00  0.00     0.274 HD
ATOM     47  H71 UNL     1     -16.462  -1.030  -7.349  1.00  0.00     0.274 HD
ENDBRANCH  43  44
BRANCH  43  48
HETATM   48  C22 UNL     1     -16.029  -2.475  -4.822  1.00  0.00     0.284 C 
BRANCH  48  49
HETATM   49  O4  UNL     1     -17.237  -2.372  -4.141  1.00  0.00    -0.369 OA
ATOM     50  H4  UNL     1     -17.588  -3.240  -3.980  1.00  0.00     0.212 HD
ENDBRANCH  48  49
BRANCH  48  51
HETATM   51  O5  UNL     1     -16.164  -3.474  -5.767  1.00  0.00    -0.369 OA
ATOM     52  H5  UNL     1     -16.997  -3.423  -6.218  1.00  0.00     0.212 HD
ENDBRANCH  48  51
ENDBRANCH  43  48
ENDBRANCH  42  43
ENDBRANCH   9  42
TORSDOF 13
ENDMDL
