MODEL 1
REMARK VINA RESULT: -6.131387875      0.000      0.000
REMARK  4 active torsions:
REMARK  status: ('A' for Active; 'I' for Inactive)
REMARK    1  A    between atoms: C2_2  and  C3_3 
REMARK       I    between atoms: N1_6  and  C6_7 
REMARK       I    between atoms: C6_7  and  N5_15 
REMARK       I    between atoms: N2_8  and  C7_10 
REMARK    2  A    between atoms: N5_15  and  C8_17 
REMARK    3  A    between atoms: C8_17  and  C9_18 
REMARK    4  A    between atoms: C9_18  and  C10_19 
ROOT
HETATM    1  C3  UNL     1       0.484  10.468   2.632  1.00  0.00    -0.012 C 
HETATM    2  C4  UNL     1       1.201  10.763   1.354  1.00  0.00     0.025 C 
HETATM    3  C5  UNL     1       2.722  10.626   1.489  1.00  0.00     0.141 C 
HETATM    4  N1  UNL     1       2.988   9.290   1.908  1.00  0.00    -0.218 N 
HETATM    5  C6  UNL     1       3.873   8.368   1.282  1.00  0.00     0.678 C 
HETATM    6  N2  UNL     1       5.015   8.695   0.850  1.00  0.00    -0.164 N 
ATOM      7  H2  UNL     1       5.549   7.938   0.422  1.00  0.00     0.187 HD
HETATM    8  C7  UNL     1       5.655   9.932   0.868  1.00  0.00     0.200 C 
HETATM    9  N3  UNL     1       5.901  10.505   1.996  1.00  0.00    -0.373 N 
ATOM     10  H31 UNL     1       6.370  11.411   2.010  1.00  0.00     0.158 HD
ATOM     11  H32 UNL     1       5.613  10.035   2.854  1.00  0.00     0.158 HD
HETATM   12  N4  UNL     1       6.057  10.589  -0.327  1.00  0.00    -0.063 NA
HETATM   13  N5  UNL     1       3.457   7.010   1.135  1.00  0.00    -0.226 N 
ATOM     14  H5  UNL     1       2.566   6.838   0.670  1.00  0.00     0.177 HD
HETATM   15  C15 UNL     1       2.295   8.795   3.090  1.00  0.00     0.141 C 
HETATM   16  C16 UNL     1       1.378   9.831   3.667  1.00  0.00     0.025 C 
ENDROOT
BRANCH  13  17
HETATM   17  C8  UNL     1       4.201   5.868   1.593  1.00  0.00     0.138 C 
BRANCH  17  18
HETATM   18  C9  UNL     1       4.170   4.691   0.669  1.00  0.00     0.025 C 
BRANCH  18  19
HETATM   19  C10 UNL     1       3.602   3.454   1.351  1.00  0.00    -0.010 C 
HETATM   20  C11 UNL     1       4.376   2.266   0.837  1.00  0.00     0.032 C 
HETATM   21  C12 UNL     1       4.027   1.941  -0.590  1.00  0.00     0.232 C 
HETATM   22  N6  UNL     1       2.608   1.831  -0.735  1.00  0.00    -0.075 N 
HETATM   23  C13 UNL     1       1.899   1.864   0.514  1.00  0.00     0.232 C 
ATOM     24  H62 UNL     1       2.253   2.545  -1.371  1.00  0.00     0.277 HD
ATOM     25  H61 UNL     1       2.364   0.995  -1.267  1.00  0.00     0.277 HD
HETATM   26  C14 UNL     1       2.145   3.256   1.103  1.00  0.00     0.032 C 
ENDBRANCH  18  19
ENDBRANCH  17  18
ENDBRANCH  13  17
BRANCH   1  27
HETATM   27  C2  UNL     1      -0.668   9.498   2.373  1.00  0.00     0.000 C 
HETATM   28  C1  UNL     1      -1.344   9.821   1.058  1.00  0.00     0.005 C 
ENDBRANCH   1  27
TORSDOF 4
ENDMDL
MODEL 2
REMARK VINA RESULT: -5.963553513      4.318      7.194
REMARK  4 active torsions:
REMARK  status: ('A' for Active; 'I' for Inactive)
REMARK    1  A    between atoms: C2_2  and  C3_3 
REMARK       I    between atoms: N1_6  and  C6_7 
REMARK       I    between atoms: C6_7  and  N5_15 
REMARK       I    between atoms: N2_8  and  C7_10 
REMARK    2  A    between atoms: N5_15  and  C8_17 
REMARK    3  A    between atoms: C8_17  and  C9_18 
REMARK    4  A    between atoms: C9_18  and  C10_19 
ROOT
HETATM    1  C3  UNL     1       9.618  10.594   3.989  1.00  0.00    -0.012 C 
HETATM    2  C4  UNL     1       9.340  11.796   3.145  1.00  0.00     0.025 C 
HETATM    3  C5  UNL     1       9.059  11.433   1.682  1.00  0.00     0.141 C 
HETATM    4  N1  UNL     1       7.936  10.554   1.676  1.00  0.00    -0.218 N 
HETATM    5  C6  UNL     1       6.743  10.713   0.918  1.00  0.00     0.678 C 
HETATM    6  N2  UNL     1       6.738  11.084  -0.291  1.00  0.00    -0.164 N 
ATOM      7  H2  UNL     1       5.815  11.158  -0.718  1.00  0.00     0.187 HD
HETATM    8  C7  UNL     1       7.804  11.408  -1.128  1.00  0.00     0.200 C 
HETATM    9  N3  UNL     1       8.703  10.521  -1.387  1.00  0.00    -0.373 N 
ATOM     10  H31 UNL     1       9.483  10.757  -2.001  1.00  0.00     0.158 HD
ATOM     11  H32 UNL     1       8.611   9.598  -0.964  1.00  0.00     0.158 HD
HETATM   12  N4  UNL     1       7.933  12.695  -1.718  1.00  0.00    -0.063 NA
HETATM   13  N5  UNL     1       5.490  10.440   1.545  1.00  0.00    -0.226 N 
ATOM     14  H5  UNL     1       5.284  10.926   2.419  1.00  0.00     0.177 HD
HETATM   15  C15 UNL     1       7.991   9.371   2.524  1.00  0.00     0.141 C 
HETATM   16  C16 UNL     1       9.278   9.301   3.291  1.00  0.00     0.025 C 
ENDROOT
BRANCH  13  17
HETATM   17  C8  UNL     1       4.497   9.531   1.040  1.00  0.00     0.138 C 
BRANCH  17  18
HETATM   18  C9  UNL     1       3.352   9.276   1.970  1.00  0.00     0.025 C 
BRANCH  18  19
HETATM   19  C10 UNL     1       2.685  10.572   2.411  1.00  0.00    -0.010 C 
HETATM   20  C11 UNL     1       1.680  10.216   3.478  1.00  0.00     0.032 C 
HETATM   21  C12 UNL     1       0.483   9.505   2.907  1.00  0.00     0.232 C 
HETATM   22  N6  UNL     1      -0.056  10.252   1.812  1.00  0.00    -0.075 N 
HETATM   23  C13 UNL     1       0.540  11.550   1.654  1.00  0.00     0.232 C 
ATOM     24  H62 UNL     1       0.007   9.718   0.945  1.00  0.00     0.277 HD
ATOM     25  H61 UNL     1      -1.070  10.328   1.892  1.00  0.00     0.277 HD
HETATM   26  C14 UNL     1       2.009  11.300   1.299  1.00  0.00     0.032 C 
ENDBRANCH  18  19
ENDBRANCH  17  18
ENDBRANCH  13  17
BRANCH   1  27
HETATM   27  C2  UNL     1       8.783  10.649   5.268  1.00  0.00     0.000 C 
HETATM   28  C1  UNL     1       9.393  11.622   6.254  1.00  0.00     0.005 C 
ENDBRANCH   1  27
TORSDOF 4
ENDMDL
MODEL 3
REMARK VINA RESULT: -5.877805781      6.373      9.636
REMARK  4 active torsions:
REMARK  status: ('A' for Active; 'I' for Inactive)
REMARK    1  A    between atoms: C2_2  and  C3_3 
REMARK       I    between atoms: N1_6  and  C6_7 
REMARK       I    between atoms: C6_7  and  N5_15 
REMARK       I    between atoms: N2_8  and  C7_10 
REMARK    2  A    between atoms: N5_15  and  C8_17 
REMARK    3  A    between atoms: C8_17  and  C9_18 
REMARK    4  A    between atoms: C9_18  and  C10_19 
ROOT
HETATM    1  C3  UNL     1       8.479  15.971  -1.157  1.00  0.00    -0.012 C 
HETATM    2  C4  UNL     1       9.933  16.311  -1.229  1.00  0.00     0.025 C 
HETATM    3  C5  UNL     1      10.630  16.198   0.132  1.00  0.00     0.141 C 
HETATM    4  N1  UNL     1      10.457  14.857   0.583  1.00  0.00    -0.218 N 
HETATM    5  C6  UNL     1      11.484  13.967   1.003  1.00  0.00     0.678 C 
HETATM    6  N2  UNL     1      12.447  14.324   1.740  1.00  0.00    -0.164 N 
ATOM      7  H2  UNL     1      13.115  13.588   1.967  1.00  0.00     0.187 HD
HETATM    8  C7  UNL     1      12.733  15.572   2.290  1.00  0.00     0.200 C 
HETATM    9  N3  UNL     1      11.891  16.122   3.095  1.00  0.00    -0.373 N 
ATOM     10  H31 UNL     1      12.100  17.036   3.498  1.00  0.00     0.158 HD
ATOM     11  H32 UNL     1      11.026  15.625   3.307  1.00  0.00     0.158 HD
HETATM   12  N4  UNL     1      13.939  16.265   1.994  1.00  0.00    -0.063 NA
HETATM   13  N5  UNL     1      11.430  12.606   0.575  1.00  0.00    -0.226 N 
ATOM     14  H5  UNL     1      11.356  12.428  -0.427  1.00  0.00     0.177 HD
HETATM   15  C15 UNL     1       9.103  14.320   0.624  1.00  0.00     0.141 C 
HETATM   16  C16 UNL     1       8.096  15.326   0.151  1.00  0.00     0.025 C 
ENDROOT
BRANCH  13  17
HETATM   17  C8  UNL     1      11.471  11.466   1.451  1.00  0.00     0.138 C 
BRANCH  17  18
HETATM   18  C9  UNL     1      10.442  10.419   1.162  1.00  0.00     0.025 C 
BRANCH  18  19
HETATM   19  C10 UNL     1       9.053  10.858   1.602  1.00  0.00    -0.010 C 
HETATM   20  C11 UNL     1       8.939  10.569   3.078  1.00  0.00     0.032 C 
HETATM   21  C12 UNL     1       8.830   9.094   3.356  1.00  0.00     0.232 C 
HETATM   22  N6  UNL     1       7.789   8.521   2.559  1.00  0.00    -0.075 N 
HETATM   23  C13 UNL     1       7.001   9.495   1.856  1.00  0.00     0.232 C 
ATOM     24  H62 UNL     1       8.169   7.829   1.912  1.00  0.00     0.277 HD
ATOM     25  H61 UNL     1       7.194   7.916   3.125  1.00  0.00     0.277 HD
HETATM   26  C14 UNL     1       7.952  10.173   0.865  1.00  0.00     0.032 C 
ENDBRANCH  18  19
ENDBRANCH  17  18
ENDBRANCH  13  17
BRANCH   1  27
HETATM   27  C2  UNL     1       8.116  14.987  -2.269  1.00  0.00     0.000 C 
HETATM   28  C1  UNL     1       7.642  15.733  -3.499  1.00  0.00     0.005 C 
ENDBRANCH   1  27
TORSDOF 4
ENDMDL
MODEL 4
REMARK VINA RESULT: -5.761722805      4.429      7.575
REMARK  4 active torsions:
REMARK  status: ('A' for Active; 'I' for Inactive)
REMARK    1  A    between atoms: C2_2  and  C3_3 
REMARK       I    between atoms: N1_6  and  C6_7 
REMARK       I    between atoms: C6_7  and  N5_15 
REMARK       I    between atoms: N2_8  and  C7_10 
REMARK    2  A    between atoms: N5_15  and  C8_17 
REMARK    3  A    between atoms: C8_17  and  C9_18 
REMARK    4  A    between atoms: C9_18  and  C10_19 
ROOT
HETATM    1  C3  UNL     1       8.560  14.653  -1.242  1.00  0.00    -0.012 C 
HETATM    2  C4  UNL     1       8.965  13.373  -1.899  1.00  0.00     0.025 C 
HETATM    3  C5  UNL     1       9.393  12.304  -0.887  1.00  0.00     0.141 C 
HETATM    4  N1  UNL     1       8.287  12.084  -0.015  1.00  0.00    -0.218 N 
HETATM    5  C6  UNL     1       7.684  10.831   0.286  1.00  0.00     0.678 C 
HETATM    6  N2  UNL     1       8.352   9.781   0.509  1.00  0.00    -0.164 N 
ATOM      7  H2  UNL     1       7.797   8.950   0.713  1.00  0.00     0.187 HD
HETATM    8  C7  UNL     1       9.732   9.587   0.519  1.00  0.00     0.200 C 
HETATM    9  N3  UNL     1      10.462  10.248   1.350  1.00  0.00    -0.373 N 
ATOM     10  H31 UNL     1      11.473  10.106   1.358  1.00  0.00     0.158 HD
ATOM     11  H32 UNL     1      10.006  10.905   1.982  1.00  0.00     0.158 HD
HETATM   12  N4  UNL     1      10.369   8.671  -0.363  1.00  0.00    -0.063 NA
HETATM   13  N5  UNL     1       6.260  10.750   0.342  1.00  0.00    -0.226 N 
ATOM     14  H5  UNL     1       5.736  11.077  -0.470  1.00  0.00     0.177 HD
HETATM   15  C15 UNL     1       7.695  13.242   0.641  1.00  0.00     0.141 C 
HETATM   16  C16 UNL     1       8.388  14.513   0.250  1.00  0.00     0.025 C 
ENDROOT
BRANCH  13  17
HETATM   17  C8  UNL     1       5.508  10.244   1.459  1.00  0.00     0.138 C 
BRANCH  17  18
HETATM   18  C9  UNL     1       4.317  11.068   1.834  1.00  0.00     0.025 C 
BRANCH  18  19
HETATM   19  C10 UNL     1       3.013  10.370   1.475  1.00  0.00    -0.010 C 
HETATM   20  C11 UNL     1       1.893  11.342   1.754  1.00  0.00     0.032 C 
HETATM   21  C12 UNL     1       1.670  11.534   3.230  1.00  0.00     0.232 C 
HETATM   22  N6  UNL     1       1.525  10.264   3.873  1.00  0.00    -0.075 N 
HETATM   23  C13 UNL     1       1.438   9.162   2.956  1.00  0.00     0.232 C 
ATOM     24  H62 UNL     1       2.276  10.114   4.548  1.00  0.00     0.277 HD
ATOM     25  H61 UNL     1       0.726  10.271   4.507  1.00  0.00     0.277 HD
HETATM   26  C14 UNL     1       2.787   9.106   2.233  1.00  0.00     0.032 C 
ENDBRANCH  18  19
ENDBRANCH  17  18
ENDBRANCH  13  17
BRANCH   1  27
HETATM   27  C2  UNL     1       7.223  15.131  -1.807  1.00  0.00     0.000 C 
HETATM   28  C1  UNL     1       7.368  15.489  -3.271  1.00  0.00     0.005 C 
ENDBRANCH   1  27
TORSDOF 4
ENDMDL
MODEL 5
REMARK VINA RESULT: -5.759235403      0.961      1.013
REMARK  4 active torsions:
REMARK  status: ('A' for Active; 'I' for Inactive)
REMARK    1  A    between atoms: C2_2  and  C3_3 
REMARK       I    between atoms: N1_6  and  C6_7 
REMARK       I    between atoms: C6_7  and  N5_15 
REMARK       I    between atoms: N2_8  and  C7_10 
REMARK    2  A    between atoms: N5_15  and  C8_17 
REMARK    3  A    between atoms: C8_17  and  C9_18 
REMARK    4  A    between atoms: C9_18  and  C10_19 
ROOT
HETATM    1  C3  UNL     1       0.722  11.547   2.468  1.00  0.00    -0.012 C 
HETATM    2  C4  UNL     1       1.461  11.732   1.182  1.00  0.00     0.025 C 
HETATM    3  C5  UNL     1       2.968  11.489   1.330  1.00  0.00     0.141 C 
HETATM    4  N1  UNL     1       3.133  10.156   1.809  1.00  0.00    -0.218 N 
HETATM    5  C6  UNL     1       3.948   9.145   1.228  1.00  0.00     0.678 C 
HETATM    6  N2  UNL     1       5.112   9.367   0.787  1.00  0.00    -0.164 N 
ATOM      7  H2  UNL     1       5.589   8.554   0.396  1.00  0.00     0.187 HD
HETATM    8  C7  UNL     1       5.843  10.553   0.755  1.00  0.00     0.200 C 
HETATM    9  N3  UNL     1       6.128  11.155   1.858  1.00  0.00    -0.373 N 
ATOM     10  H31 UNL     1       6.663  12.023   1.836  1.00  0.00     0.158 HD
ATOM     11  H32 UNL     1       5.804  10.745   2.734  1.00  0.00     0.158 HD
HETATM   12  N4  UNL     1       6.295  11.125  -0.466  1.00  0.00    -0.063 NA
HETATM   13  N5  UNL     1       3.433   7.816   1.137  1.00  0.00    -0.226 N 
ATOM     14  H5  UNL     1       2.532   7.690   0.675  1.00  0.00     0.177 HD
HETATM   15  C15 UNL     1       2.403   9.765   3.007  1.00  0.00     0.141 C 
HETATM   16  C16 UNL     1       1.565  10.892   3.534  1.00  0.00     0.025 C 
ENDROOT
BRANCH  13  17
HETATM   17  C8  UNL     1       4.089   6.643   1.648  1.00  0.00     0.138 C 
BRANCH  17  18
HETATM   18  C9  UNL     1       3.945   5.424   0.792  1.00  0.00     0.025 C 
BRANCH  18  19
HETATM   19  C10 UNL     1       3.439   4.231   1.590  1.00  0.00    -0.010 C 
HETATM   20  C11 UNL     1       4.594   3.273   1.743  1.00  0.00     0.032 C 
HETATM   21  C12 UNL     1       4.925   2.580   0.449  1.00  0.00     0.232 C 
HETATM   22  N6  UNL     1       3.744   1.998  -0.111  1.00  0.00    -0.075 N 
HETATM   23  C13 UNL     1       2.606   2.050   0.765  1.00  0.00     0.232 C 
ATOM     24  H62 UNL     1       3.524   2.423  -1.013  1.00  0.00     0.277 HD
ATOM     25  H61 UNL     1       3.923   1.041  -0.414  1.00  0.00     0.277 HD
HETATM   26  C14 UNL     1       2.285   3.536   0.952  1.00  0.00     0.032 C 
ENDBRANCH  18  19
ENDBRANCH  17  18
ENDBRANCH  13  17
BRANCH   1  27
HETATM   27  C2  UNL     1      -0.498  10.655   2.246  1.00  0.00     0.000 C 
HETATM   28  C1  UNL     1      -1.707  11.495   1.892  1.00  0.00     0.005 C 
ENDBRANCH   1  27
TORSDOF 4
ENDMDL
