MODEL 1
REMARK VINA RESULT: -6.334144700      0.000      0.000
REMARK  4 active torsions:
REMARK  status: ('A' for Active; 'I' for Inactive)
REMARK       I    between atoms: C1_4  and  N2_5 
REMARK       I    between atoms: C1_4  and  N3_13 
REMARK    1  A    between atoms: N2_5  and  C2_7 
REMARK    2  A    between atoms: C10_16  and  N4_17 
REMARK       I    between atoms: N4_17  and  C11_19 
REMARK    3  A    between atoms: C11_19  and  C12_21 
REMARK    4  A    between atoms: C13_22  and  C14_23 
ROOT
HETATM    1  N1  UNL     1       9.998  10.245   1.284  1.00  0.00    -0.235 N 
ATOM      2  H11 UNL     1       9.720   9.380   1.746  1.00  0.00     0.174 HD
ATOM      3  H12 UNL     1      10.990  10.475   1.223  1.00  0.00     0.174 HD
HETATM    4  C1  UNL     1       9.063  10.989   0.810  1.00  0.00     0.670 C 
HETATM    5  N2  UNL     1       9.450  12.194   0.168  1.00  0.00    -0.222 N 
ATOM      6  H2  UNL     1       9.365  12.260  -0.846  1.00  0.00     0.178 HD
HETATM    7  N3  UNL     1       7.685  10.670   0.895  1.00  0.00    -0.216 N 
HETATM    8  C8  UNL     1       6.690  10.630  -0.163  1.00  0.00     0.143 C 
HETATM    9  C9  UNL     1       5.378  10.848   0.592  1.00  0.00     0.047 C 
HETATM   10  C10 UNL     1       5.607  10.027   1.829  1.00  0.00     0.104 C 
HETATM   11  C15 UNL     1       7.054  10.314   2.169  1.00  0.00     0.166 C 
ENDROOT
BRANCH   5  12
HETATM   12  C2  UNL     1       9.961  13.334   0.904  1.00  0.00     0.099 C 
HETATM   13  C3  UNL     1      11.451  13.451   0.608  1.00  0.00     0.026 C 
HETATM   14  C4  UNL     1      12.022  14.333   1.722  1.00  0.00     0.002 C 
HETATM   15  C5  UNL     1      11.135  15.513   1.944  1.00  0.00     0.000 C 
HETATM   16  C6  UNL     1      10.201  15.798   0.800  1.00  0.00     0.002 C 
HETATM   17  C7  UNL     1       9.350  14.639   0.406  1.00  0.00     0.026 C 
ENDBRANCH   5  12
BRANCH  10  18
HETATM   18  N4  UNL     1       5.463   8.635   1.470  1.00  0.00    -0.351 N 
HETATM   19  C11 UNL     1       4.230   7.944   1.607  1.00  0.00     0.241 C 
HETATM   20  O1  UNL     1       3.216   8.568   2.061  1.00  0.00    -0.269 OA
ATOM     21  H4  UNL     1       6.273   8.133   1.107  1.00  0.00     0.163 HD
BRANCH  19  22
HETATM   22  C12 UNL     1       4.089   6.554   1.248  1.00  0.00     0.081 C 
HETATM   23  C13 UNL     1       4.791   5.579   1.787  1.00  0.00     0.090 C 
BRANCH  23  24
HETATM   24  C14 UNL     1       4.589   4.196   1.369  1.00  0.00     0.198 C 
HETATM   25  O2  UNL     1       3.990   3.881   0.313  1.00  0.00    -0.645 OA
HETATM   26  O3  UNL     1       5.070   3.146   2.155  1.00  0.00    -0.645 OA
ENDBRANCH  23  24
ENDBRANCH  19  22
ENDBRANCH  10  18
TORSDOF 4
ENDMDL
MODEL 2
REMARK VINA RESULT: -6.330019924      0.555      1.017
REMARK  4 active torsions:
REMARK  status: ('A' for Active; 'I' for Inactive)
REMARK       I    between atoms: C1_4  and  N2_5 
REMARK       I    between atoms: C1_4  and  N3_13 
REMARK    1  A    between atoms: N2_5  and  C2_7 
REMARK    2  A    between atoms: C10_16  and  N4_17 
REMARK       I    between atoms: N4_17  and  C11_19 
REMARK    3  A    between atoms: C11_19  and  C12_21 
REMARK    4  A    between atoms: C13_22  and  C14_23 
ROOT
HETATM    1  N1  UNL     1      10.241  10.056   0.687  1.00  0.00    -0.235 N 
ATOM      2  H11 UNL     1       9.997   9.193   1.174  1.00  0.00     0.174 HD
ATOM      3  H12 UNL     1      11.223  10.251   0.495  1.00  0.00     0.174 HD
HETATM    4  C1  UNL     1       9.279  10.838   0.351  1.00  0.00     0.670 C 
HETATM    5  N2  UNL     1       9.618  12.038  -0.327  1.00  0.00    -0.222 N 
ATOM      6  H2  UNL     1       9.400  12.121  -1.319  1.00  0.00     0.178 HD
HETATM    7  N3  UNL     1       7.913  10.566   0.618  1.00  0.00    -0.216 N 
HETATM    8  C8  UNL     1       6.785  10.575  -0.296  1.00  0.00     0.143 C 
HETATM    9  C9  UNL     1       5.595  10.827   0.631  1.00  0.00     0.047 C 
HETATM   10  C10 UNL     1       5.958   9.982   1.818  1.00  0.00     0.104 C 
HETATM   11  C15 UNL     1       7.447  10.213   1.963  1.00  0.00     0.166 C 
ENDROOT
BRANCH   5  12
HETATM   12  C2  UNL     1      10.265  13.149   0.344  1.00  0.00     0.099 C 
HETATM   13  C3  UNL     1       9.588  14.432  -0.120  1.00  0.00     0.026 C 
HETATM   14  C4  UNL     1      10.564  15.560   0.228  1.00  0.00     0.002 C 
HETATM   15  C5  UNL     1      11.096  15.366   1.610  1.00  0.00     0.000 C 
HETATM   16  C6  UNL     1      10.266  14.441   2.458  1.00  0.00     0.002 C 
HETATM   17  C7  UNL     1      10.038  13.099   1.851  1.00  0.00     0.026 C 
ENDBRANCH   5  12
BRANCH  10  18
HETATM   18  N4  UNL     1       5.717   8.601   1.469  1.00  0.00    -0.351 N 
HETATM   19  C11 UNL     1       4.440   7.997   1.616  1.00  0.00     0.241 C 
HETATM   20  O1  UNL     1       3.474   8.692   2.071  1.00  0.00    -0.269 OA
ATOM     21  H4  UNL     1       6.489   8.042   1.106  1.00  0.00     0.163 HD
BRANCH  19  22
HETATM   22  C12 UNL     1       4.203   6.617   1.267  1.00  0.00     0.081 C 
HETATM   23  C13 UNL     1       4.879   5.604   1.766  1.00  0.00     0.090 C 
BRANCH  23  24
HETATM   24  C14 UNL     1       4.578   4.235   1.361  1.00  0.00     0.198 C 
HETATM   25  O2  UNL     1       3.935   3.956   0.320  1.00  0.00    -0.645 OA
HETATM   26  O3  UNL     1       5.007   3.160   2.142  1.00  0.00    -0.645 OA
ENDBRANCH  23  24
ENDBRANCH  19  22
ENDBRANCH  10  18
TORSDOF 4
ENDMDL
MODEL 3
REMARK VINA RESULT: -6.310588999      0.986      1.018
REMARK  4 active torsions:
REMARK  status: ('A' for Active; 'I' for Inactive)
REMARK       I    between atoms: C1_4  and  N2_5 
REMARK       I    between atoms: C1_4  and  N3_13 
REMARK    1  A    between atoms: N2_5  and  C2_7 
REMARK    2  A    between atoms: C10_16  and  N4_17 
REMARK       I    between atoms: N4_17  and  C11_19 
REMARK    3  A    between atoms: C11_19  and  C12_21 
REMARK    4  A    between atoms: C13_22  and  C14_23 
ROOT
HETATM    1  N1  UNL     1       9.702   9.604   0.958  1.00  0.00    -0.235 N 
ATOM      2  H11 UNL     1       9.477   8.660   1.273  1.00  0.00     0.174 HD
ATOM      3  H12 UNL     1      10.681   9.862   0.840  1.00  0.00     0.174 HD
HETATM    4  C1  UNL     1       8.721  10.403   0.733  1.00  0.00     0.670 C 
HETATM    5  N2  UNL     1       9.035  11.716   0.295  1.00  0.00    -0.222 N 
ATOM      6  H2  UNL     1       8.843  11.970  -0.673  1.00  0.00     0.178 HD
HETATM    7  N3  UNL     1       7.360  10.043   0.897  1.00  0.00    -0.216 N 
HETATM    8  C8  UNL     1       6.260  10.181  -0.040  1.00  0.00     0.143 C 
HETATM    9  C9  UNL     1       5.033  10.223   0.873  1.00  0.00     0.047 C 
HETATM   10  C10 UNL     1       5.393   9.189   1.901  1.00  0.00     0.104 C 
HETATM   11  C15 UNL     1       6.867   9.438   2.139  1.00  0.00     0.166 C 
ENDROOT
BRANCH   5  12
HETATM   12  C2  UNL     1       9.618  12.707   1.178  1.00  0.00     0.099 C 
HETATM   13  C3  UNL     1      10.781  13.361   0.442  1.00  0.00     0.026 C 
HETATM   14  C4  UNL     1      11.628  14.032   1.528  1.00  0.00     0.002 C 
HETATM   15  C5  UNL     1      10.745  14.765   2.483  1.00  0.00     0.000 C 
HETATM   16  C6  UNL     1       9.369  15.050   1.946  1.00  0.00     0.002 C 
HETATM   17  C7  UNL     1       8.640  13.840   1.468  1.00  0.00     0.026 C 
ENDBRANCH   5  12
BRANCH  10  18
HETATM   18  N4  UNL     1       5.216   7.887   1.300  1.00  0.00    -0.351 N 
HETATM   19  C11 UNL     1       4.108   7.055   1.615  1.00  0.00     0.241 C 
HETATM   20  O1  UNL     1       3.242   7.467   2.454  1.00  0.00    -0.269 OA
ATOM     21  H4  UNL     1       5.908   7.554   0.630  1.00  0.00     0.163 HD
BRANCH  19  22
HETATM   22  C12 UNL     1       3.934   5.755   1.014  1.00  0.00     0.081 C 
HETATM   23  C13 UNL     1       3.923   4.626   1.691  1.00  0.00     0.090 C 
BRANCH  23  24
HETATM   24  C14 UNL     1       3.740   3.350   1.009  1.00  0.00     0.198 C 
HETATM   25  O2  UNL     1       2.698   3.056   0.375  1.00  0.00    -0.645 OA
HETATM   26  O3  UNL     1       4.749   2.384   1.040  1.00  0.00    -0.645 OA
ENDBRANCH  23  24
ENDBRANCH  19  22
ENDBRANCH  10  18
TORSDOF 4
ENDMDL
MODEL 4
REMARK VINA RESULT: -5.951747132      2.401      4.109
REMARK  4 active torsions:
REMARK  status: ('A' for Active; 'I' for Inactive)
REMARK       I    between atoms: C1_4  and  N2_5 
REMARK       I    between atoms: C1_4  and  N3_13 
REMARK    1  A    between atoms: N2_5  and  C2_7 
REMARK    2  A    between atoms: C10_16  and  N4_17 
REMARK       I    between atoms: N4_17  and  C11_19 
REMARK    3  A    between atoms: C11_19  and  C12_21 
REMARK    4  A    between atoms: C13_22  and  C14_23 
ROOT
HETATM    1  N1  UNL     1       8.275  15.276   2.955  1.00  0.00    -0.235 N 
ATOM      2  H11 UNL     1       7.417  14.998   2.478  1.00  0.00     0.174 HD
ATOM      3  H12 UNL     1       8.335  16.213   3.353  1.00  0.00     0.174 HD
HETATM    4  C1  UNL     1       9.225  14.414   3.014  1.00  0.00     0.670 C 
HETATM    5  N2  UNL     1      10.419  14.801   3.676  1.00  0.00    -0.222 N 
ATOM      6  H2  UNL     1      10.632  14.393   4.586  1.00  0.00     0.178 HD
HETATM    7  N3  UNL     1       9.142  13.111   2.460  1.00  0.00    -0.216 N 
HETATM    8  C8  UNL     1       9.414  11.832   3.091  1.00  0.00     0.143 C 
HETATM    9  C9  UNL     1       9.754  10.930   1.904  1.00  0.00     0.047 C 
HETATM   10  C10 UNL     1       8.751  11.388   0.885  1.00  0.00     0.104 C 
HETATM   11  C15 UNL     1       8.735  12.891   1.069  1.00  0.00     0.166 C 
ENDROOT
BRANCH   5  12
HETATM   12  C2  UNL     1      11.346  15.758   3.103  1.00  0.00     0.099 C 
HETATM   13  C3  UNL     1      12.035  16.485   4.251  1.00  0.00     0.026 C 
HETATM   14  C4  UNL     1      12.627  17.756   3.635  1.00  0.00     0.002 C 
HETATM   15  C5  UNL     1      13.305  17.430   2.345  1.00  0.00     0.000 C 
HETATM   16  C6  UNL     1      13.637  15.971   2.183  1.00  0.00     0.002 C 
HETATM   17  C7  UNL     1      12.467  15.060   2.342  1.00  0.00     0.026 C 
ENDBRANCH   5  12
BRANCH  10  18
HETATM   18  N4  UNL     1       7.464  10.844   1.254  1.00  0.00    -0.351 N 
HETATM   19  C11 UNL     1       6.478  10.518   0.287  1.00  0.00     0.241 C 
HETATM   20  O1  UNL     1       6.731  10.710  -0.947  1.00  0.00    -0.269 OA
ATOM     21  H4  UNL     1       7.258  10.690   2.241  1.00  0.00     0.163 HD
BRANCH  19  22
HETATM   22  C12 UNL     1       5.193   9.974   0.658  1.00  0.00     0.081 C 
HETATM   23  C13 UNL     1       5.034   8.949   1.469  1.00  0.00     0.090 C 
BRANCH  23  24
HETATM   24  C14 UNL     1       3.700   8.458   1.796  1.00  0.00     0.198 C 
HETATM   25  O2  UNL     1       2.673   9.178   1.739  1.00  0.00    -0.645 OA
HETATM   26  O3  UNL     1       3.516   7.133   2.197  1.00  0.00    -0.645 OA
ENDBRANCH  23  24
ENDBRANCH  19  22
ENDBRANCH  10  18
TORSDOF 4
ENDMDL
MODEL 5
REMARK VINA RESULT: -5.545416885      1.719      2.412
REMARK  4 active torsions:
REMARK  status: ('A' for Active; 'I' for Inactive)
REMARK       I    between atoms: C1_4  and  N2_5 
REMARK       I    between atoms: C1_4  and  N3_13 
REMARK    1  A    between atoms: N2_5  and  C2_7 
REMARK    2  A    between atoms: C10_16  and  N4_17 
REMARK       I    between atoms: N4_17  and  C11_19 
REMARK    3  A    between atoms: C11_19  and  C12_21 
REMARK    4  A    between atoms: C13_22  and  C14_23 
ROOT
HETATM    1  N1  UNL     1       9.513  12.204   3.423  1.00  0.00    -0.235 N 
ATOM      2  H11 UNL     1       8.642  11.756   3.708  1.00  0.00     0.174 HD
ATOM      3  H12 UNL     1      10.192  12.460   4.139  1.00  0.00     0.174 HD
HETATM    4  C1  UNL     1       9.687  12.412   2.167  1.00  0.00     0.670 C 
HETATM    5  N2  UNL     1      10.899  13.035   1.770  1.00  0.00    -0.222 N 
ATOM      6  H2  UNL     1      11.605  12.477   1.291  1.00  0.00     0.178 HD
HETATM    7  N3  UNL     1       8.743  12.055   1.172  1.00  0.00    -0.216 N 
HETATM    8  C8  UNL     1       8.945  11.286  -0.043  1.00  0.00     0.143 C 
HETATM    9  C9  UNL     1       7.803  11.762  -0.944  1.00  0.00     0.047 C 
HETATM   10  C10 UNL     1       6.673  11.866   0.040  1.00  0.00     0.104 C 
HETATM   11  C15 UNL     1       7.336  12.457   1.265  1.00  0.00     0.166 C 
ENDROOT
BRANCH   5  12
HETATM   12  C2  UNL     1      11.168  14.437   2.023  1.00  0.00     0.099 C 
HETATM   13  C3  UNL     1      12.661  14.669   1.827  1.00  0.00     0.026 C 
HETATM   14  C4  UNL     1      12.966  15.993   2.534  1.00  0.00     0.002 C 
HETATM   15  C5  UNL     1      11.926  17.007   2.189  1.00  0.00     0.000 C 
HETATM   16  C6  UNL     1      11.134  16.672   0.955  1.00  0.00     0.002 C 
HETATM   17  C7  UNL     1      10.486  15.330   0.994  1.00  0.00     0.026 C 
ENDBRANCH   5  12
BRANCH  10  18
HETATM   18  N4  UNL     1       6.218  10.527   0.336  1.00  0.00    -0.351 N 
HETATM   19  C11 UNL     1       4.941  10.272   0.903  1.00  0.00     0.241 C 
HETATM   20  O1  UNL     1       4.169  11.253   1.160  1.00  0.00    -0.269 OA
ATOM     21  H4  UNL     1       6.834   9.741   0.133  1.00  0.00     0.163 HD
BRANCH  19  22
HETATM   22  C12 UNL     1       4.490   8.934   1.198  1.00  0.00     0.081 C 
HETATM   23  C13 UNL     1       5.289   7.947   1.546  1.00  0.00     0.090 C 
BRANCH  23  24
HETATM   24  C14 UNL     1       4.754   6.620   1.829  1.00  0.00     0.198 C 
HETATM   25  O2  UNL     1       5.443   5.574   1.753  1.00  0.00    -0.645 OA
HETATM   26  O3  UNL     1       3.417   6.465   2.203  1.00  0.00    -0.645 OA
ENDBRANCH  23  24
ENDBRANCH  19  22
ENDBRANCH  10  18
TORSDOF 4
ENDMDL
