MODEL 1
REMARK VINA RESULT: -5.044010845      0.000      0.000
REMARK  8 active torsions:
REMARK  status: ('A' for Active; 'I' for Inactive)
REMARK    1  A    between atoms: C2_2  and  N1_3 
REMARK    2  A    between atoms: N1_3  and  C3_5 
REMARK    3  A    between atoms: C3_5  and  N2_7 
REMARK    4  A    between atoms: N2_7  and  C4_9 
REMARK    5  A    between atoms: C4_9  and  N3_11 
REMARK    6  A    between atoms: N3_11  and  C5_13 
REMARK    7  A    between atoms: C5_13  and  C6_14 
REMARK    8  A    between atoms: C5_13  and  C8_19 
REMARK       I    between atoms: C6_14  and  N4_16 
ROOT
HETATM    1  N3  UNL     1       6.516  11.855   0.796  1.00  0.00    -0.353 N 
ATOM      2  H3  UNL     1       6.247  12.219   1.710  1.00  0.00     0.162 HD
ENDROOT
BRANCH   1   3
HETATM    3  C4  UNL     1       6.965  12.806  -0.149  1.00  0.00     0.174 C 
HETATM    4  S2  UNL     1       6.230  14.247  -0.324  1.00  0.00    -0.041 SA
BRANCH   3   5
HETATM    5  N2  UNL     1       8.054  12.497  -0.981  1.00  0.00    -0.310 N 
ATOM      6  H2  UNL     1       7.857  11.967  -1.830  1.00  0.00     0.170 HD
BRANCH   5   7
HETATM    7  C3  UNL     1       9.395  12.857  -0.743  1.00  0.00     0.173 C 
HETATM    8  S1  UNL     1      10.046  14.272  -1.234  1.00  0.00    -0.041 SA
BRANCH   7   9
HETATM    9  N1  UNL     1      10.284  11.974  -0.036  1.00  0.00    -0.367 N 
ATOM     10  H1  UNL     1      10.500  11.041  -0.389  1.00  0.00     0.161 HD
BRANCH   9  11
HETATM   11  C2  UNL     1      10.857  12.463   1.190  1.00  0.00     0.117 C 
HETATM   12  C1  UNL     1       9.836  12.670   2.284  1.00  0.00     0.026 C 
ENDBRANCH   9  11
ENDBRANCH   7   9
ENDBRANCH   5   7
ENDBRANCH   3   5
ENDBRANCH   1   3
BRANCH   1  13
HETATM   13  C5  UNL     1       6.392  10.422   0.613  1.00  0.00     0.180 C 
BRANCH  13  14
HETATM   14  C6  UNL     1       7.654   9.859   1.132  1.00  0.00     0.240 C 
HETATM   15  O1  UNL     1       8.661   9.568   0.465  1.00  0.00    -0.271 OA
HETATM   16  N4  UNL     1       7.734   9.622   2.515  1.00  0.00    -0.364 N 
HETATM   17  C7  UNL     1       8.927   9.077   3.146  1.00  0.00     0.149 C 
ATOM     18  H4  UNL     1       6.926   9.839   3.098  1.00  0.00     0.161 HD
ENDBRANCH  13  14
BRANCH  13  19
HETATM   19  C8  UNL     1       5.176  10.047   1.398  1.00  0.00     0.017 C 
HETATM   20  C9  UNL     1       4.458   8.865   0.703  1.00  0.00     0.007 C 
HETATM   21  C10 UNL     1       3.598   8.185   1.738  1.00  0.00     0.000 C 
HETATM   22  C11 UNL     1       2.741   9.209   2.496  1.00  0.00     0.000 C 
HETATM   23  C12 UNL     1       2.731  10.458   1.637  1.00  0.00     0.000 C 
HETATM   24  C13 UNL     1       4.159  11.043   1.719  1.00  0.00     0.007 C 
ENDBRANCH  13  19
ENDBRANCH   1  13
TORSDOF 8
ENDMDL
MODEL 2
REMARK VINA RESULT: -4.967761910      2.828      3.929
REMARK  8 active torsions:
REMARK  status: ('A' for Active; 'I' for Inactive)
REMARK    1  A    between atoms: C2_2  and  N1_3 
REMARK    2  A    between atoms: N1_3  and  C3_5 
REMARK    3  A    between atoms: C3_5  and  N2_7 
REMARK    4  A    between atoms: N2_7  and  C4_9 
REMARK    5  A    between atoms: C4_9  and  N3_11 
REMARK    6  A    between atoms: N3_11  and  C5_13 
REMARK    7  A    between atoms: C5_13  and  C6_14 
REMARK    8  A    between atoms: C5_13  and  C8_19 
REMARK       I    between atoms: C6_14  and  N4_16 
ROOT
HETATM    1  N3  UNL     1       5.279   9.256   1.836  1.00  0.00    -0.353 N 
ATOM      2  H3  UNL     1       5.042   9.523   2.792  1.00  0.00     0.162 HD
ENDROOT
BRANCH   1   3
HETATM    3  C4  UNL     1       6.536   9.691   1.357  1.00  0.00     0.174 C 
HETATM    4  S2  UNL     1       6.670  10.955   0.341  1.00  0.00    -0.041 SA
BRANCH   3   5
HETATM    5  N2  UNL     1       7.700   9.006   1.741  1.00  0.00    -0.310 N 
ATOM      6  H2  UNL     1       7.588   8.055   2.092  1.00  0.00     0.170 HD
BRANCH   5   7
HETATM    7  C3  UNL     1       9.011   9.519   1.682  1.00  0.00     0.173 C 
HETATM    8  S1  UNL     1      10.028   9.246   0.433  1.00  0.00    -0.041 SA
BRANCH   7   9
HETATM    9  N1  UNL     1       9.536  10.333   2.746  1.00  0.00    -0.367 N 
ATOM     10  H1  UNL     1      10.310  10.979   2.589  1.00  0.00     0.161 HD
BRANCH   9  11
HETATM   11  C2  UNL     1       8.923  10.197   4.040  1.00  0.00     0.117 C 
HETATM   12  C1  UNL     1       9.299  11.304   4.997  1.00  0.00     0.026 C 
ENDBRANCH   9  11
ENDBRANCH   7   9
ENDBRANCH   5   7
ENDBRANCH   3   5
ENDBRANCH   1   3
BRANCH   1  13
HETATM   13  C5  UNL     1       4.288   8.474   1.123  1.00  0.00     0.180 C 
BRANCH  13  14
HETATM   14  C6  UNL     1       4.529   7.079   1.537  1.00  0.00     0.240 C 
HETATM   15  O1  UNL     1       5.494   6.663   2.201  1.00  0.00    -0.271 OA
HETATM   16  N4  UNL     1       3.584   6.116   1.143  1.00  0.00    -0.364 N 
HETATM   17  C7  UNL     1       3.708   4.710   1.496  1.00  0.00     0.149 C 
ATOM     18  H4  UNL     1       2.781   6.414   0.589  1.00  0.00     0.161 HD
ENDBRANCH  13  14
BRANCH  13  19
HETATM   19  C8  UNL     1       2.975   9.036   1.569  1.00  0.00     0.017 C 
HETATM   20  C9  UNL     1       3.071  10.579   1.638  1.00  0.00     0.007 C 
HETATM   21  C10 UNL     1       1.667  11.124   1.561  1.00  0.00     0.000 C 
HETATM   22  C11 UNL     1       0.746  10.410   2.561  1.00  0.00     0.000 C 
HETATM   23  C12 UNL     1       1.666   9.743   3.566  1.00  0.00     0.000 C 
HETATM   24  C13 UNL     1       2.355   8.585   2.811  1.00  0.00     0.007 C 
ENDBRANCH  13  19
ENDBRANCH   1  13
TORSDOF 8
ENDMDL
MODEL 3
REMARK VINA RESULT: -4.838370182      1.597      2.009
REMARK  8 active torsions:
REMARK  status: ('A' for Active; 'I' for Inactive)
REMARK    1  A    between atoms: C2_2  and  N1_3 
REMARK    2  A    between atoms: N1_3  and  C3_5 
REMARK    3  A    between atoms: C3_5  and  N2_7 
REMARK    4  A    between atoms: N2_7  and  C4_9 
REMARK    5  A    between atoms: C4_9  and  N3_11 
REMARK    6  A    between atoms: N3_11  and  C5_13 
REMARK    7  A    between atoms: C5_13  and  C6_14 
REMARK    8  A    between atoms: C5_13  and  C8_19 
REMARK       I    between atoms: C6_14  and  N4_16 
ROOT
HETATM    1  N3  UNL     1       7.068  11.885   1.399  1.00  0.00    -0.353 N 
ATOM      2  H3  UNL     1       7.110  11.867   2.418  1.00  0.00     0.162 HD
ENDROOT
BRANCH   1   3
HETATM    3  C4  UNL     1       7.334  13.129   0.783  1.00  0.00     0.174 C 
HETATM    4  S2  UNL     1       6.210  13.897  -0.108  1.00  0.00    -0.041 SA
BRANCH   3   5
HETATM    5  N2  UNL     1       8.606  13.711   0.915  1.00  0.00    -0.310 N 
ATOM      6  H2  UNL     1       8.673  14.565   1.469  1.00  0.00     0.170 HD
BRANCH   5   7
HETATM    7  C3  UNL     1       9.797  13.216   0.348  1.00  0.00     0.173 C 
HETATM    8  S1  UNL     1      11.069  12.701   1.234  1.00  0.00    -0.041 SA
BRANCH   7   9
HETATM    9  N1  UNL     1       9.959  13.134  -1.080  1.00  0.00    -0.367 N 
ATOM     10  H1  UNL     1      10.375  12.314  -1.522  1.00  0.00     0.161 HD
BRANCH   9  11
HETATM   11  C2  UNL     1       9.510  14.258  -1.857  1.00  0.00     0.117 C 
HETATM   12  C1  UNL     1      10.320  15.510  -1.618  1.00  0.00     0.026 C 
ENDBRANCH   9  11
ENDBRANCH   7   9
ENDBRANCH   5   7
ENDBRANCH   3   5
ENDBRANCH   1   3
BRANCH   1  13
HETATM   13  C5  UNL     1       6.741  10.631   0.747  1.00  0.00     0.180 C 
BRANCH  13  14
HETATM   14  C6  UNL     1       7.911   9.762   0.979  1.00  0.00     0.240 C 
HETATM   15  O1  UNL     1       8.059   8.960   1.916  1.00  0.00    -0.271 OA
HETATM   16  N4  UNL     1       8.969   9.844   0.057  1.00  0.00    -0.364 N 
HETATM   17  C7  UNL     1      10.171   9.032   0.174  1.00  0.00     0.149 C 
ATOM     18  H4  UNL     1       8.891  10.497  -0.723  1.00  0.00     0.161 HD
ENDBRANCH  13  14
BRANCH  13  19
HETATM   19  C8  UNL     1       5.485  10.175   1.420  1.00  0.00     0.017 C 
HETATM   20  C9  UNL     1       4.787   9.111   0.539  1.00  0.00     0.007 C 
HETATM   21  C10 UNL     1       3.872   8.312   1.433  1.00  0.00     0.000 C 
HETATM   22  C11 UNL     1       2.993   9.239   2.285  1.00  0.00     0.000 C 
HETATM   23  C12 UNL     1       3.038  10.593   1.605  1.00  0.00     0.000 C 
HETATM   24  C13 UNL     1       4.466  11.136   1.828  1.00  0.00     0.007 C 
ENDBRANCH  13  19
ENDBRANCH   1  13
TORSDOF 8
ENDMDL
MODEL 4
REMARK VINA RESULT: -4.833244126      1.363      1.373
REMARK  8 active torsions:
REMARK  status: ('A' for Active; 'I' for Inactive)
REMARK    1  A    between atoms: C2_2  and  N1_3 
REMARK    2  A    between atoms: N1_3  and  C3_5 
REMARK    3  A    between atoms: C3_5  and  N2_7 
REMARK    4  A    between atoms: N2_7  and  C4_9 
REMARK    5  A    between atoms: C4_9  and  N3_11 
REMARK    6  A    between atoms: N3_11  and  C5_13 
REMARK    7  A    between atoms: C5_13  and  C6_14 
REMARK    8  A    between atoms: C5_13  and  C8_19 
REMARK       I    between atoms: C6_14  and  N4_16 
ROOT
HETATM    1  N3  UNL     1       7.137  11.713   0.491  1.00  0.00    -0.353 N 
ATOM      2  H3  UNL     1       6.556  12.392   0.983  1.00  0.00     0.162 HD
ENDROOT
BRANCH   1   3
HETATM    3  C4  UNL     1       8.145  12.241  -0.347  1.00  0.00     0.174 C 
HETATM    4  S2  UNL     1       8.637  11.458  -1.686  1.00  0.00    -0.041 SA
BRANCH   3   5
HETATM    5  N2  UNL     1       8.763  13.457  -0.009  1.00  0.00    -0.310 N 
ATOM      6  H2  UNL     1       8.324  14.016   0.723  1.00  0.00     0.170 HD
BRANCH   5   7
HETATM    7  C3  UNL     1       9.937  13.970  -0.594  1.00  0.00     0.173 C 
HETATM    8  S1  UNL     1       9.936  15.145  -1.729  1.00  0.00    -0.041 SA
BRANCH   7   9
HETATM    9  N1  UNL     1      11.233  13.474  -0.212  1.00  0.00    -0.367 N 
ATOM     10  H1  UNL     1      11.979  13.353  -0.898  1.00  0.00     0.161 HD
BRANCH   9  11
HETATM   11  C2  UNL     1      11.431  13.156   1.176  1.00  0.00     0.117 C 
HETATM   12  C1  UNL     1      11.358  11.675   1.465  1.00  0.00     0.026 C 
ENDBRANCH   9  11
ENDBRANCH   7   9
ENDBRANCH   5   7
ENDBRANCH   3   5
ENDBRANCH   1   3
BRANCH   1  13
HETATM   13  C5  UNL     1       6.834  10.315   0.731  1.00  0.00     0.180 C 
BRANCH  13  14
HETATM   14  C6  UNL     1       7.949   9.817   1.559  1.00  0.00     0.240 C 
HETATM   15  O1  UNL     1       8.816   8.998   1.211  1.00  0.00    -0.271 OA
HETATM   16  N4  UNL     1       8.047  10.307   2.872  1.00  0.00    -0.364 N 
HETATM   17  C7  UNL     1       9.107   9.898   3.782  1.00  0.00     0.149 C 
ATOM     18  H4  UNL     1       7.350  10.976   3.201  1.00  0.00     0.161 HD
ENDBRANCH  13  14
BRANCH  13  19
HETATM   19  C8  UNL     1       5.507  10.332   1.422  1.00  0.00     0.017 C 
HETATM   20  C9  UNL     1       4.563   9.307   0.750  1.00  0.00     0.007 C 
HETATM   21  C10 UNL     1       3.484   8.964   1.746  1.00  0.00     0.000 C 
HETATM   22  C11 UNL     1       2.865  10.237   2.342  1.00  0.00     0.000 C 
HETATM   23  C12 UNL     1       3.240  11.361   1.396  1.00  0.00     0.000 C 
HETATM   24  C13 UNL     1       4.760  11.577   1.570  1.00  0.00     0.007 C 
ENDBRANCH  13  19
ENDBRANCH   1  13
TORSDOF 8
ENDMDL
MODEL 5
REMARK VINA RESULT: -4.813636475      1.805      2.126
REMARK  8 active torsions:
REMARK  status: ('A' for Active; 'I' for Inactive)
REMARK    1  A    between atoms: C2_2  and  N1_3 
REMARK    2  A    between atoms: N1_3  and  C3_5 
REMARK    3  A    between atoms: C3_5  and  N2_7 
REMARK    4  A    between atoms: N2_7  and  C4_9 
REMARK    5  A    between atoms: C4_9  and  N3_11 
REMARK    6  A    between atoms: N3_11  and  C5_13 
REMARK    7  A    between atoms: C5_13  and  C6_14 
REMARK    8  A    between atoms: C5_13  and  C8_19 
REMARK       I    between atoms: C6_14  and  N4_16 
ROOT
HETATM    1  N3  UNL     1       6.818  11.451   0.437  1.00  0.00    -0.353 N 
ATOM      2  H3  UNL     1       6.029  12.098   0.443  1.00  0.00     0.162 HD
ENDROOT
BRANCH   1   3
HETATM    3  C4  UNL     1       7.976  11.881  -0.250  1.00  0.00     0.174 C 
HETATM    4  S2  UNL     1       8.443  11.190  -1.647  1.00  0.00    -0.041 SA
BRANCH   3   5
HETATM    5  N2  UNL     1       8.765  12.909   0.293  1.00  0.00    -0.310 N 
ATOM      6  H2  UNL     1       8.276  13.711   0.691  1.00  0.00     0.170 HD
BRANCH   5   7
HETATM    7  C3  UNL     1      10.173  12.926   0.335  1.00  0.00     0.173 C 
HETATM    8  S1  UNL     1      11.055  11.954   1.306  1.00  0.00    -0.041 SA
BRANCH   7   9
HETATM    9  N1  UNL     1      10.927  13.825  -0.498  1.00  0.00    -0.367 N 
ATOM     10  H1  UNL     1      11.941  13.905  -0.412  1.00  0.00     0.161 HD
BRANCH   9  11
HETATM   11  C2  UNL     1      10.192  14.605  -1.457  1.00  0.00     0.117 C 
HETATM   12  C1  UNL     1      10.199  16.085  -1.154  1.00  0.00     0.026 C 
ENDBRANCH   9  11
ENDBRANCH   7   9
ENDBRANCH   5   7
ENDBRANCH   3   5
ENDBRANCH   1   3
BRANCH   1  13
HETATM   13  C5  UNL     1       6.623  10.195   1.136  1.00  0.00     0.180 C 
BRANCH  13  14
HETATM   14  C6  UNL     1       7.674  10.164   2.170  1.00  0.00     0.240 C 
HETATM   15  O1  UNL     1       7.990  11.095   2.930  1.00  0.00    -0.271 OA
HETATM   16  N4  UNL     1       8.399   8.969   2.318  1.00  0.00    -0.364 N 
HETATM   17  C7  UNL     1       9.454   8.812   3.309  1.00  0.00     0.149 C 
ATOM     18  H4  UNL     1       8.178   8.181   1.709  1.00  0.00     0.161 HD
ENDBRANCH  13  14
BRANCH  13  19
HETATM   19  C8  UNL     1       5.228  10.275   1.670  1.00  0.00     0.017 C 
HETATM   20  C9  UNL     1       4.334   9.251   0.932  1.00  0.00     0.007 C 
HETATM   21  C10 UNL     1       3.139   8.977   1.810  1.00  0.00     0.000 C 
HETATM   22  C11 UNL     1       2.497  10.289   2.285  1.00  0.00     0.000 C 
HETATM   23  C12 UNL     1       3.012  11.364   1.349  1.00  0.00     0.000 C 
HETATM   24  C13 UNL     1       4.508  11.545   1.688  1.00  0.00     0.007 C 
ENDBRANCH  13  19
ENDBRANCH   1  13
TORSDOF 8
ENDMDL
