MODEL 1
REMARK VINA RESULT: -6.808464148      0.000      0.000
REMARK  4 active torsions:
REMARK  status: ('A' for Active; 'I' for Inactive)
REMARK       I    between atoms: N1_2  and  C2_4 
REMARK    1  A    between atoms: N3_6  and  C3_8 
REMARK    2  A    between atoms: C3_8  and  C4_9 
REMARK    3  A    between atoms: C4_9  and  C5_10 
REMARK       I    between atoms: N4_13  and  C8_14 
REMARK       I    between atoms: C8_14  and  N6_18 
REMARK    4  A    between atoms: N6_18  and  C9_20 
ROOT
HETATM    1  C5  UNL     1       5.069   8.429   1.384  1.00  0.00    -0.010 C 
HETATM    2  C6  UNL     1       6.224   8.204   2.329  1.00  0.00     0.025 C 
HETATM    3  C7  UNL     1       7.350   9.173   2.058  1.00  0.00     0.141 C 
HETATM    4  N4  UNL     1       6.922  10.356   1.373  1.00  0.00    -0.218 N 
HETATM    5  C8  UNL     1       7.797  11.004   0.462  1.00  0.00     0.670 C 
HETATM    6  N5  UNL     1       7.275  11.516  -0.599  1.00  0.00    -0.235 N 
ATOM      7  H51 UNL     1       7.903  11.981  -1.254  1.00  0.00     0.174 HD
ATOM      8  H52 UNL     1       6.269  11.444  -0.750  1.00  0.00     0.174 HD
HETATM    9  N6  UNL     1       9.177  11.103   0.668  1.00  0.00    -0.222 N 
ATOM     10  H6  UNL     1       9.785  10.527   0.086  1.00  0.00     0.178 HD
HETATM   11  C15 UNL     1       5.615  10.870   1.618  1.00  0.00     0.141 C 
HETATM   12  C16 UNL     1       4.553   9.843   1.416  1.00  0.00     0.025 C 
ENDROOT
BRANCH   9  13
HETATM   13  C9  UNL     1       9.804  11.963   1.647  1.00  0.00     0.099 C 
HETATM   14  C10 UNL     1       8.968  13.123   2.058  1.00  0.00     0.026 C 
HETATM   15  C11 UNL     1       9.914  14.282   2.379  1.00  0.00     0.002 C 
HETATM   16  C12 UNL     1      10.514  14.792   1.075  1.00  0.00     0.000 C 
HETATM   17  C13 UNL     1      11.137  13.634   0.354  1.00  0.00     0.002 C 
HETATM   18  C14 UNL     1      11.180  12.396   1.203  1.00  0.00     0.026 C 
ENDBRANCH   9  13
BRANCH   1  19
HETATM   19  C4  UNL     1       3.933   7.513   1.671  1.00  0.00     0.024 C 
BRANCH  19  20
HETATM   20  C3  UNL     1       3.956   6.228   0.894  1.00  0.00     0.122 C 
BRANCH  20  21
HETATM   21  N3  UNL     1       4.723   5.249   1.640  1.00  0.00    -0.365 N 
HETATM   22  C2  UNL     1       4.609   3.988   1.448  1.00  0.00     0.183 C 
HETATM   23  N1  UNL     1       3.703   3.517   0.475  1.00  0.00    -0.369 N 
HETATM   24  N2  UNL     1       5.382   3.081   2.204  1.00  0.00    -0.064 NA
HETATM   25  C1  UNL     1       2.350   3.080   0.765  1.00  0.00     0.148 C 
ATOM     26  H1  UNL     1       4.019   3.480  -0.495  1.00  0.00     0.161 HD
ATOM     27  H3  UNL     1       5.381   5.578   2.347  1.00  0.00     0.162 HD
ENDBRANCH  20  21
ENDBRANCH  19  20
ENDBRANCH   1  19
TORSDOF 4
ENDMDL
MODEL 2
REMARK VINA RESULT: -6.507468553      0.733      1.176
REMARK  4 active torsions:
REMARK  status: ('A' for Active; 'I' for Inactive)
REMARK       I    between atoms: N1_2  and  C2_4 
REMARK    1  A    between atoms: N3_6  and  C3_8 
REMARK    2  A    between atoms: C3_8  and  C4_9 
REMARK    3  A    between atoms: C4_9  and  C5_10 
REMARK       I    between atoms: N4_13  and  C8_14 
REMARK       I    between atoms: C8_14  and  N6_18 
REMARK    4  A    between atoms: N6_18  and  C9_20 
ROOT
HETATM    1  C5  UNL     1       5.042   8.589   1.210  1.00  0.00    -0.010 C 
HETATM    2  C6  UNL     1       6.173   8.317   2.170  1.00  0.00     0.025 C 
HETATM    3  C7  UNL     1       7.322   9.269   1.948  1.00  0.00     0.141 C 
HETATM    4  N4  UNL     1       6.932  10.479   1.286  1.00  0.00    -0.218 N 
HETATM    5  C8  UNL     1       7.838  11.132   0.410  1.00  0.00     0.670 C 
HETATM    6  N5  UNL     1       7.347  11.684  -0.646  1.00  0.00    -0.235 N 
ATOM      7  H51 UNL     1       7.997  12.153  -1.276  1.00  0.00     0.174 HD
ATOM      8  H52 UNL     1       6.342  11.635  -0.819  1.00  0.00     0.174 HD
HETATM    9  N6  UNL     1       9.214  11.199   0.646  1.00  0.00    -0.222 N 
ATOM     10  H6  UNL     1       9.823  10.626   0.061  1.00  0.00     0.178 HD
HETATM   11  C15 UNL     1       5.630  11.012   1.519  1.00  0.00     0.141 C 
HETATM   12  C16 UNL     1       4.553  10.012   1.269  1.00  0.00     0.025 C 
ENDROOT
BRANCH   9  13
HETATM   13  C9  UNL     1       9.838  12.020   1.660  1.00  0.00     0.099 C 
HETATM   14  C10 UNL     1       9.008  13.174   2.100  1.00  0.00     0.026 C 
HETATM   15  C11 UNL     1       9.963  14.313   2.469  1.00  0.00     0.002 C 
HETATM   16  C12 UNL     1      10.582  14.859   1.190  1.00  0.00     0.000 C 
HETATM   17  C13 UNL     1      11.203  13.719   0.438  1.00  0.00     0.002 C 
HETATM   18  C14 UNL     1      11.224  12.454   1.246  1.00  0.00     0.026 C 
ENDBRANCH   9  13
BRANCH   1  19
HETATM   19  C4  UNL     1       3.883   7.689   1.449  1.00  0.00     0.024 C 
BRANCH  19  20
HETATM   20  C3  UNL     1       4.250   6.259   1.727  1.00  0.00     0.122 C 
BRANCH  20  21
HETATM   21  N3  UNL     1       3.156   5.408   1.298  1.00  0.00    -0.365 N 
HETATM   22  C2  UNL     1       3.194   4.132   1.392  1.00  0.00     0.183 C 
HETATM   23  N1  UNL     1       4.341   3.513   1.932  1.00  0.00    -0.369 N 
HETATM   24  N2  UNL     1       2.099   3.355   0.959  1.00  0.00    -0.064 NA
HETATM   25  C1  UNL     1       5.430   2.979   1.135  1.00  0.00     0.148 C 
ATOM     26  H1  UNL     1       4.410   3.437   2.948  1.00  0.00     0.161 HD
ATOM     27  H3  UNL     1       2.322   5.845   0.905  1.00  0.00     0.162 HD
ENDBRANCH  20  21
ENDBRANCH  19  20
ENDBRANCH   1  19
TORSDOF 4
ENDMDL
MODEL 3
REMARK VINA RESULT: -6.266672526      1.194      1.697
REMARK  4 active torsions:
REMARK  status: ('A' for Active; 'I' for Inactive)
REMARK       I    between atoms: N1_2  and  C2_4 
REMARK    1  A    between atoms: N3_6  and  C3_8 
REMARK    2  A    between atoms: C3_8  and  C4_9 
REMARK    3  A    between atoms: C4_9  and  C5_10 
REMARK       I    between atoms: N4_13  and  C8_14 
REMARK       I    between atoms: C8_14  and  N6_18 
REMARK    4  A    between atoms: N6_18  and  C9_20 
ROOT
HETATM    1  C5  UNL     1       4.637   7.427   1.338  1.00  0.00    -0.010 C 
HETATM    2  C6  UNL     1       5.740   7.376   2.365  1.00  0.00     0.025 C 
HETATM    3  C7  UNL     1       6.734   8.493   2.158  1.00  0.00     0.141 C 
HETATM    4  N4  UNL     1       6.194   9.598   1.424  1.00  0.00    -0.218 N 
HETATM    5  C8  UNL     1       7.032  10.357   0.566  1.00  0.00     0.670 C 
HETATM    6  N5  UNL     1       6.521  10.783  -0.538  1.00  0.00    -0.235 N 
ATOM      7  H51 UNL     1       7.123  11.328  -1.154  1.00  0.00     0.174 HD
ATOM      8  H52 UNL     1       5.549  10.566  -0.758  1.00  0.00     0.174 HD
HETATM    9  N6  UNL     1       8.365  10.653   0.868  1.00  0.00    -0.222 N 
ATOM     10  H6  UNL     1       9.089  10.166   0.341  1.00  0.00     0.178 HD
HETATM   11  C15 UNL     1       4.813   9.922   1.567  1.00  0.00     0.141 C 
HETATM   12  C16 UNL     1       3.925   8.753   1.309  1.00  0.00     0.025 C 
ENDROOT
BRANCH   9  13
HETATM   13  C9  UNL     1       8.792  11.601   1.873  1.00  0.00     0.099 C 
HETATM   14  C10 UNL     1       8.647  13.025   1.464  1.00  0.00     0.026 C 
HETATM   15  C11 UNL     1       9.773  13.814   2.136  1.00  0.00     0.002 C 
HETATM   16  C12 UNL     1      11.090  13.442   1.469  1.00  0.00     0.000 C 
HETATM   17  C13 UNL     1      11.239  11.950   1.509  1.00  0.00     0.002 C 
HETATM   18  C14 UNL     1      10.188  11.300   2.362  1.00  0.00     0.026 C 
ENDBRANCH   9  13
BRANCH   1  19
HETATM   19  C4  UNL     1       3.624   6.360   1.559  1.00  0.00     0.024 C 
BRANCH  19  20
HETATM   20  C3  UNL     1       3.960   5.040   0.928  1.00  0.00     0.122 C 
BRANCH  20  21
HETATM   21  N3  UNL     1       2.741   4.264   0.801  1.00  0.00    -0.365 N 
HETATM   22  C2  UNL     1       2.717   2.989   0.922  1.00  0.00     0.183 C 
HETATM   23  N1  UNL     1       3.916   2.298   1.190  1.00  0.00    -0.369 N 
HETATM   24  N2  UNL     1       1.500   2.286   0.789  1.00  0.00    -0.064 NA
HETATM   25  C1  UNL     1       4.742   1.676   0.172  1.00  0.00     0.148 C 
ATOM     26  H1  UNL     1       4.224   2.231   2.161  1.00  0.00     0.161 HD
ATOM     27  H3  UNL     1       1.868   4.753   0.606  1.00  0.00     0.162 HD
ENDBRANCH  20  21
ENDBRANCH  19  20
ENDBRANCH   1  19
TORSDOF 4
ENDMDL
MODEL 4
REMARK VINA RESULT: -6.264587256      4.920      9.099
REMARK  4 active torsions:
REMARK  status: ('A' for Active; 'I' for Inactive)
REMARK       I    between atoms: N1_2  and  C2_4 
REMARK    1  A    between atoms: N3_6  and  C3_8 
REMARK    2  A    between atoms: C3_8  and  C4_9 
REMARK    3  A    between atoms: C4_9  and  C5_10 
REMARK       I    between atoms: N4_13  and  C8_14 
REMARK       I    between atoms: C8_14  and  N6_18 
REMARK    4  A    between atoms: N6_18  and  C9_20 
ROOT
HETATM    1  C5  UNL     1       4.030   9.957   1.834  1.00  0.00    -0.010 C 
HETATM    2  C6  UNL     1       3.314   8.630   1.803  1.00  0.00     0.025 C 
HETATM    3  C7  UNL     1       2.113   8.634   2.718  1.00  0.00     0.141 C 
HETATM    4  N4  UNL     1       1.625   9.951   2.999  1.00  0.00    -0.218 N 
HETATM    5  C8  UNL     1       1.038  10.235   4.260  1.00  0.00     0.670 C 
HETATM    6  N5  UNL     1       1.271  11.394   4.775  1.00  0.00    -0.235 N 
ATOM      7  H51 UNL     1       0.849  11.599   5.681  1.00  0.00     0.174 HD
ATOM      8  H52 UNL     1       1.857  12.059   4.271  1.00  0.00     0.174 HD
HETATM    9  N6  UNL     1       0.234   9.324   4.951  1.00  0.00    -0.222 N 
ATOM     10  H6  UNL     1       0.627   8.880   5.781  1.00  0.00     0.178 HD
HETATM   11  C15 UNL     1       1.735  10.964   2.002  1.00  0.00     0.141 C 
HETATM   12  C16 UNL     1       3.130  11.116   1.498  1.00  0.00     0.025 C 
ENDROOT
BRANCH   9  13
HETATM   13  C9  UNL     1      -1.115   8.964   4.575  1.00  0.00     0.099 C 
HETATM   14  C10 UNL     1      -2.031  10.127   4.418  1.00  0.00     0.026 C 
HETATM   15  C11 UNL     1      -3.433   9.666   4.824  1.00  0.00     0.002 C 
HETATM   16  C12 UNL     1      -3.459   9.465   6.333  1.00  0.00     0.000 C 
HETATM   17  C13 UNL     1      -2.344   8.534   6.707  1.00  0.00     0.002 C 
HETATM   18  C14 UNL     1      -1.691   7.921   5.502  1.00  0.00     0.026 C 
ENDBRANCH   9  13
BRANCH   1  19
HETATM   19  C4  UNL     1       5.188   9.982   0.901  1.00  0.00     0.024 C 
BRANCH  19  20
HETATM   20  C3  UNL     1       6.449  10.551   1.486  1.00  0.00     0.122 C 
BRANCH  20  21
HETATM   21  N3  UNL     1       7.564  10.178   0.637  1.00  0.00    -0.365 N 
HETATM   22  C2  UNL     1       8.522   9.431   1.040  1.00  0.00     0.183 C 
HETATM   23  N1  UNL     1       8.508   8.943   2.364  1.00  0.00    -0.369 N 
HETATM   24  N2  UNL     1       9.581   9.101   0.168  1.00  0.00    -0.064 NA
HETATM   25  C1  UNL     1       9.207   9.570   3.470  1.00  0.00     0.148 C 
ATOM     26  H1  UNL     1       7.971   8.096   2.556  1.00  0.00     0.161 HD
ATOM     27  H3  UNL     1       7.586  10.525  -0.322  1.00  0.00     0.162 HD
ENDBRANCH  20  21
ENDBRANCH  19  20
ENDBRANCH   1  19
TORSDOF 4
ENDMDL
MODEL 5
REMARK VINA RESULT: -6.155219966      4.954      8.988
REMARK  4 active torsions:
REMARK  status: ('A' for Active; 'I' for Inactive)
REMARK       I    between atoms: N1_2  and  C2_4 
REMARK    1  A    between atoms: N3_6  and  C3_8 
REMARK    2  A    between atoms: C3_8  and  C4_9 
REMARK    3  A    between atoms: C4_9  and  C5_10 
REMARK       I    between atoms: N4_13  and  C8_14 
REMARK       I    between atoms: C8_14  and  N6_18 
REMARK    4  A    between atoms: N6_18  and  C9_20 
ROOT
HETATM    1  C5  UNL     1       3.956   9.969   1.791  1.00  0.00    -0.010 C 
HETATM    2  C6  UNL     1       3.068   8.754   1.894  1.00  0.00     0.025 C 
HETATM    3  C7  UNL     1       1.924   8.991   2.851  1.00  0.00     0.141 C 
HETATM    4  N4  UNL     1       1.631  10.380   3.045  1.00  0.00    -0.218 N 
HETATM    5  C8  UNL     1       1.149  10.834   4.300  1.00  0.00     0.670 C 
HETATM    6  N5  UNL     1       1.560  11.984   4.711  1.00  0.00    -0.235 N 
ATOM      7  H51 UNL     1       1.214  12.311   5.614  1.00  0.00     0.174 HD
ATOM      8  H52 UNL     1       2.205  12.524   4.134  1.00  0.00     0.174 HD
HETATM    9  N6  UNL     1       0.265  10.094   5.092  1.00  0.00    -0.222 N 
ATOM     10  H6  UNL     1       0.635   9.663   5.939  1.00  0.00     0.178 HD
HETATM   11  C15 UNL     1       1.827  11.291   1.966  1.00  0.00     0.141 C 
HETATM   12  C16 UNL     1       3.204  11.213   1.399  1.00  0.00     0.025 C 
ENDROOT
BRANCH   9  13
HETATM   13  C9  UNL     1      -1.137   9.896   4.797  1.00  0.00     0.099 C 
HETATM   14  C10 UNL     1      -2.058  10.610   5.724  1.00  0.00     0.026 C 
HETATM   15  C11 UNL     1      -3.324   9.761   5.858  1.00  0.00     0.002 C 
HETATM   16  C12 UNL     1      -2.990   8.517   6.668  1.00  0.00     0.000 C 
HETATM   17  C13 UNL     1      -1.822   7.830   6.024  1.00  0.00     0.002 C 
HETATM   18  C14 UNL     1      -1.479   8.430   4.691  1.00  0.00     0.026 C 
ENDBRANCH   9  13
BRANCH   1  19
HETATM   19  C4  UNL     1       5.060   9.767   0.816  1.00  0.00     0.024 C 
BRANCH  19  20
HETATM   20  C3  UNL     1       6.385  10.326   1.248  1.00  0.00     0.122 C 
BRANCH  20  21
HETATM   21  N3  UNL     1       6.973   9.428   2.223  1.00  0.00    -0.365 N 
HETATM   22  C2  UNL     1       8.238   9.301   2.374  1.00  0.00     0.183 C 
HETATM   23  N1  UNL     1       9.109  10.060   1.564  1.00  0.00    -0.369 N 
HETATM   24  N2  UNL     1       8.752   8.411   3.340  1.00  0.00    -0.064 NA
HETATM   25  C1  UNL     1       9.718   9.570   0.342  1.00  0.00     0.148 C 
ATOM     26  H1  UNL     1       9.324  11.014   1.857  1.00  0.00     0.161 HD
ATOM     27  H3  UNL     1       6.352   8.873   2.813  1.00  0.00     0.162 HD
ENDBRANCH  20  21
ENDBRANCH  19  20
ENDBRANCH   1  19
TORSDOF 4
ENDMDL
