MODEL 1
REMARK VINA RESULT: -7.031281749      0.000      0.000
REMARK  9 active torsions:
REMARK  status: ('A' for Active; 'I' for Inactive)
REMARK    1  A    between atoms: C2_2  and  O1_3 
REMARK    2  A    between atoms: O1_3  and  C3_4 
REMARK       I    between atoms: C3_4  and  N1_6 
REMARK    3  A    between atoms: N1_6  and  N2_8 
REMARK    4  A    between atoms: C4_10  and  C6_12 
REMARK    5  A    between atoms: C6_12  and  C7_13 
REMARK    6  A    between atoms: C7_13  and  C8_14 
REMARK    7  A    between atoms: C8_14  and  C11_17 
REMARK    8  A    between atoms: C11_17  and  C12_18 
REMARK    9  A    between atoms: C13_20  and  N3_21 
REMARK       I    between atoms: N3_21  and  C14_23 
ROOT
HETATM    1  C8  UNL     1       6.859   9.698   1.721  1.00  0.00    -0.043 C 
HETATM    2  C9  UNL     1       6.282  11.038   2.334  1.00  0.00     0.015 C 
HETATM    3  C10 UNL     1       7.777   9.160   2.782  1.00  0.00     0.015 C 
ENDROOT
BRANCH   1   4
HETATM    4  C7  UNL     1       5.647   8.847   1.613  1.00  0.00     0.014 C 
BRANCH   4   5
HETATM    5  C6  UNL     1       5.890   7.386   1.938  1.00  0.00     0.054 C 
BRANCH   5   6
HETATM    6  C4  UNL     1       4.654   6.597   1.722  1.00  0.00    -0.000 C 
HETATM    7  N2  UNL     1       4.700   5.398   1.269  1.00  0.00    -0.305 N 
ATOM      8  H2  UNL     1       5.611   4.992   1.051  1.00  0.00     0.186 HD
HETATM    9  C5  UNL     1       3.347   7.201   2.042  1.00  0.00     0.065 C 
BRANCH   7  10
HETATM   10  N1  UNL     1       3.559   4.627   1.061  1.00  0.00    -0.245 N 
HETATM   11  C3  UNL     1       3.682   3.216   1.075  1.00  0.00     0.379 C 
HETATM   12  O2  UNL     1       4.771   2.623   1.266  1.00  0.00    -0.237 OA
ATOM     13  H1  UNL     1       2.654   5.069   0.902  1.00  0.00     0.192 HD
BRANCH  11  14
HETATM   14  O1  UNL     1       2.527   2.470   0.866  1.00  0.00    -0.303 OA
BRANCH  14  15
HETATM   15  C2  UNL     1       2.504   1.251   0.169  1.00  0.00     0.176 C 
HETATM   16  C1  UNL     1       1.374   1.231  -0.849  1.00  0.00     0.034 C 
ENDBRANCH  14  15
ENDBRANCH  11  14
ENDBRANCH   7  10
ENDBRANCH   5   6
ENDBRANCH   4   5
ENDBRANCH   1   4
BRANCH   1  17
HETATM   17  C11 UNL     1       7.624  10.080   0.527  1.00  0.00     0.057 C 
BRANCH  17  18
HETATM   18  C12 UNL     1       9.006  10.610   0.750  1.00  0.00     0.009 A 
HETATM   19  S1  UNL     1       9.313  12.265   1.265  1.00  0.00    -0.057 SA
HETATM   20  C13 UNL     1      11.035  12.208   1.243  1.00  0.00     0.151 A 
HETATM   21  N6  UNL     1      11.263  10.970   0.858  1.00  0.00    -0.339 N 
HETATM   22  C15 UNL     1      10.262  10.161   0.609  1.00  0.00     0.020 A 
ATOM     23  H6  UNL     1      12.222  10.639   0.753  1.00  0.00     0.168 HD
HETATM   24  C16 UNL     1      10.543   8.706   0.225  1.00  0.00     0.069 C 
BRANCH  20  25
HETATM   25  N3  UNL     1      11.780  13.211   1.551  1.00  0.00    -0.311 N 
HETATM   26  C14 UNL     1      12.645  13.936   0.763  1.00  0.00     0.187 C 
HETATM   27  N4  UNL     1      12.672  13.873  -0.518  1.00  0.00    -0.373 N 
HETATM   28  N5  UNL     1      13.605  14.843   1.343  1.00  0.00    -0.064 NA
ATOM     29  H42 UNL     1      11.992  13.232  -0.928  1.00  0.00     0.158 HD
ATOM     30  H41 UNL     1      13.313  14.410  -1.102  1.00  0.00     0.158 HD
ATOM     31  H3  UNL     1      11.720  13.514   2.524  1.00  0.00     0.170 HD
ENDBRANCH  20  25
ENDBRANCH  17  18
ENDBRANCH   1  17
TORSDOF 9
ENDMDL
MODEL 2
REMARK VINA RESULT: -6.883354656      1.095      1.309
REMARK  9 active torsions:
REMARK  status: ('A' for Active; 'I' for Inactive)
REMARK    1  A    between atoms: C2_2  and  O1_3 
REMARK    2  A    between atoms: O1_3  and  C3_4 
REMARK       I    between atoms: C3_4  and  N1_6 
REMARK    3  A    between atoms: N1_6  and  N2_8 
REMARK    4  A    between atoms: C4_10  and  C6_12 
REMARK    5  A    between atoms: C6_12  and  C7_13 
REMARK    6  A    between atoms: C7_13  and  C8_14 
REMARK    7  A    between atoms: C8_14  and  C11_17 
REMARK    8  A    between atoms: C11_17  and  C12_18 
REMARK    9  A    between atoms: C13_20  and  N3_21 
REMARK       I    between atoms: N3_21  and  C14_23 
ROOT
HETATM    1  C8  UNL     1       7.759   9.558   2.000  1.00  0.00    -0.043 C 
HETATM    2  C9  UNL     1       8.277   9.634   3.494  1.00  0.00     0.015 C 
HETATM    3  C10 UNL     1       8.756   8.680   1.298  1.00  0.00     0.015 C 
ENDROOT
BRANCH   1   4
HETATM    4  C7  UNL     1       6.464   8.848   2.146  1.00  0.00     0.014 C 
BRANCH   4   5
HETATM    5  C6  UNL     1       6.587   7.337   2.142  1.00  0.00     0.054 C 
BRANCH   5   6
HETATM    6  C4  UNL     1       5.303   6.716   1.737  1.00  0.00    -0.000 C 
HETATM    7  N2  UNL     1       5.163   5.441   1.699  1.00  0.00    -0.305 N 
ATOM      8  H2  UNL     1       5.959   4.854   1.950  1.00  0.00     0.186 HD
HETATM    9  C5  UNL     1       4.164   7.582   1.377  1.00  0.00     0.065 C 
BRANCH   7  10
HETATM   10  N1  UNL     1       3.969   4.826   1.330  1.00  0.00    -0.245 N 
HETATM   11  C3  UNL     1       3.931   3.412   1.254  1.00  0.00     0.379 C 
HETATM   12  O2  UNL     1       4.921   2.683   1.501  1.00  0.00    -0.237 OA
ATOM     13  H1  UNL     1       3.140   5.382   1.120  1.00  0.00     0.192 HD
BRANCH  11  14
HETATM   14  O1  UNL     1       2.726   2.823   0.884  1.00  0.00    -0.303 OA
BRANCH  14  15
HETATM   15  C2  UNL     1       2.605   1.481   0.490  1.00  0.00     0.176 C 
HETATM   16  C1  UNL     1       1.847   1.369  -0.824  1.00  0.00     0.034 C 
ENDBRANCH  14  15
ENDBRANCH  11  14
ENDBRANCH   7  10
ENDBRANCH   5   6
ENDBRANCH   4   5
ENDBRANCH   1   4
BRANCH   1  17
HETATM   17  C11 UNL     1       7.817  10.926   1.469  1.00  0.00     0.057 C 
BRANCH  17  18
HETATM   18  C12 UNL     1       9.172  11.461   1.122  1.00  0.00     0.009 A 
HETATM   19  S1  UNL     1      10.154  12.365   2.269  1.00  0.00    -0.057 SA
HETATM   20  C13 UNL     1      11.478  12.719   1.224  1.00  0.00     0.151 A 
HETATM   21  N6  UNL     1      11.103  12.143   0.101  1.00  0.00    -0.339 N 
HETATM   22  C15 UNL     1       9.956  11.512   0.035  1.00  0.00     0.020 A 
ATOM     23  H6  UNL     1      11.706  12.190  -0.720  1.00  0.00     0.168 HD
HETATM   24  C16 UNL     1       9.563  10.792  -1.258  1.00  0.00     0.069 C 
BRANCH  20  25
HETATM   25  N3  UNL     1      12.510  13.393   1.594  1.00  0.00    -0.311 N 
HETATM   26  C14 UNL     1      12.715  14.754   1.592  1.00  0.00     0.187 C 
HETATM   27  N4  UNL     1      11.781  15.620   1.434  1.00  0.00    -0.373 N 
HETATM   28  N5  UNL     1      14.032  15.314   1.775  1.00  0.00    -0.064 NA
ATOM     29  H42 UNL     1      10.850  15.224   1.305  1.00  0.00     0.158 HD
ATOM     30  H41 UNL     1      11.933  16.629   1.433  1.00  0.00     0.158 HD
ATOM     31  H3  UNL     1      13.291  12.836   1.940  1.00  0.00     0.170 HD
ENDBRANCH  20  25
ENDBRANCH  17  18
ENDBRANCH   1  17
TORSDOF 9
ENDMDL
MODEL 3
REMARK VINA RESULT: -6.747863405      1.291      1.670
REMARK  9 active torsions:
REMARK  status: ('A' for Active; 'I' for Inactive)
REMARK    1  A    between atoms: C2_2  and  O1_3 
REMARK    2  A    between atoms: O1_3  and  C3_4 
REMARK       I    between atoms: C3_4  and  N1_6 
REMARK    3  A    between atoms: N1_6  and  N2_8 
REMARK    4  A    between atoms: C4_10  and  C6_12 
REMARK    5  A    between atoms: C6_12  and  C7_13 
REMARK    6  A    between atoms: C7_13  and  C8_14 
REMARK    7  A    between atoms: C8_14  and  C11_17 
REMARK    8  A    between atoms: C11_17  and  C12_18 
REMARK    9  A    between atoms: C13_20  and  N3_21 
REMARK       I    between atoms: N3_21  and  C14_23 
ROOT
HETATM    1  C8  UNL     1       7.014  10.644   1.733  1.00  0.00    -0.043 C 
HETATM    2  C9  UNL     1       5.944  11.798   1.907  1.00  0.00     0.015 C 
HETATM    3  C10 UNL     1       7.898  10.763   2.943  1.00  0.00     0.015 C 
ENDROOT
BRANCH   1   4
HETATM    4  C7  UNL     1       6.182   9.419   1.826  1.00  0.00     0.014 C 
BRANCH   4   5
HETATM    5  C6  UNL     1       4.689   9.686   1.828  1.00  0.00     0.054 C 
BRANCH   5   6
HETATM    6  C4  UNL     1       3.937   8.411   1.898  1.00  0.00    -0.000 C 
HETATM    7  N2  UNL     1       4.411   7.329   1.398  1.00  0.00    -0.305 N 
ATOM      8  H2  UNL     1       5.323   7.361   0.940  1.00  0.00     0.186 HD
HETATM    9  C5  UNL     1       2.620   8.386   2.563  1.00  0.00     0.065 C 
BRANCH   7  10
HETATM   10  N1  UNL     1       3.734   6.114   1.453  1.00  0.00    -0.245 N 
HETATM   11  C3  UNL     1       4.489   4.923   1.579  1.00  0.00     0.379 C 
HETATM   12  O2  UNL     1       5.742   4.906   1.645  1.00  0.00    -0.237 OA
ATOM     13  H1  UNL     1       2.715   6.083   1.402  1.00  0.00     0.192 HD
BRANCH  11  14
HETATM   14  O1  UNL     1       3.787   3.723   1.633  1.00  0.00    -0.303 OA
BRANCH  14  15
HETATM   15  C2  UNL     1       3.963   2.677   0.712  1.00  0.00     0.176 C 
HETATM   16  C1  UNL     1       2.660   1.925   0.491  1.00  0.00     0.034 C 
ENDBRANCH  14  15
ENDBRANCH  11  14
ENDBRANCH   7  10
ENDBRANCH   5   6
ENDBRANCH   4   5
ENDBRANCH   1   4
BRANCH   1  17
HETATM   17  C11 UNL     1       7.769  10.956   0.513  1.00  0.00     0.057 C 
BRANCH  17  18
HETATM   18  C12 UNL     1       9.203  11.352   0.687  1.00  0.00     0.009 A 
HETATM   19  S1  UNL     1       9.703  13.026   0.900  1.00  0.00    -0.057 SA
HETATM   20  C13 UNL     1      11.405  12.763   0.955  1.00  0.00     0.151 A 
HETATM   21  N6  UNL     1      11.485  11.457   0.813  1.00  0.00    -0.339 N 
HETATM   22  C15 UNL     1      10.397  10.740   0.679  1.00  0.00     0.020 A 
ATOM     23  H6  UNL     1      12.398  11.001   0.807  1.00  0.00     0.168 HD
HETATM   24  C16 UNL     1      10.502   9.215   0.582  1.00  0.00     0.069 C 
BRANCH  20  25
HETATM   25  N3  UNL     1      12.262  13.711   1.101  1.00  0.00    -0.311 N 
HETATM   26  C14 UNL     1      12.302  14.722   2.036  1.00  0.00     0.187 C 
HETATM   27  N4  UNL     1      11.587  14.741   3.102  1.00  0.00    -0.373 N 
HETATM   28  N5  UNL     1      13.176  15.857   1.876  1.00  0.00    -0.064 NA
ATOM     29  H42 UNL     1      10.969  13.938   3.216  1.00  0.00     0.158 HD
ATOM     30  H41 UNL     1      11.617  15.489   3.794  1.00  0.00     0.158 HD
ATOM     31  H3  UNL     1      13.025  13.716   0.424  1.00  0.00     0.170 HD
ENDBRANCH  20  25
ENDBRANCH  17  18
ENDBRANCH   1  17
TORSDOF 9
ENDMDL
MODEL 4
REMARK VINA RESULT: -6.731450922      1.567      2.324
REMARK  9 active torsions:
REMARK  status: ('A' for Active; 'I' for Inactive)
REMARK    1  A    between atoms: C2_2  and  O1_3 
REMARK    2  A    between atoms: O1_3  and  C3_4 
REMARK       I    between atoms: C3_4  and  N1_6 
REMARK    3  A    between atoms: N1_6  and  N2_8 
REMARK    4  A    between atoms: C4_10  and  C6_12 
REMARK    5  A    between atoms: C6_12  and  C7_13 
REMARK    6  A    between atoms: C7_13  and  C8_14 
REMARK    7  A    between atoms: C8_14  and  C11_17 
REMARK    8  A    between atoms: C11_17  and  C12_18 
REMARK    9  A    between atoms: C13_20  and  N3_21 
REMARK       I    between atoms: N3_21  and  C14_23 
ROOT
HETATM    1  C8  UNL     1       7.719   9.535   1.614  1.00  0.00    -0.043 C 
HETATM    2  C9  UNL     1       7.836   8.160   2.388  1.00  0.00     0.015 C 
HETATM    3  C10 UNL     1       8.843   9.504   0.617  1.00  0.00     0.015 C 
ENDROOT
BRANCH   1   4
HETATM    4  C7  UNL     1       6.415   9.403   0.919  1.00  0.00     0.014 C 
BRANCH   4   5
HETATM    5  C6  UNL     1       5.215   9.681   1.802  1.00  0.00     0.054 C 
BRANCH   5   6
HETATM    6  C4  UNL     1       4.294   8.520   1.804  1.00  0.00    -0.000 C 
HETATM    7  N2  UNL     1       4.641   7.395   1.295  1.00  0.00    -0.305 N 
ATOM      8  H2  UNL     1       5.569   7.311   0.880  1.00  0.00     0.186 HD
HETATM    9  C5  UNL     1       2.955   8.661   2.408  1.00  0.00     0.065 C 
BRANCH   7  10
HETATM   10  N1  UNL     1       3.803   6.282   1.286  1.00  0.00    -0.245 N 
HETATM   11  C3  UNL     1       4.376   5.001   1.470  1.00  0.00     0.379 C 
HETATM   12  O2  UNL     1       5.606   4.815   1.642  1.00  0.00    -0.237 OA
ATOM     13  H1  UNL     1       2.798   6.389   1.149  1.00  0.00     0.192 HD
BRANCH  11  14
HETATM   14  O1  UNL     1       3.517   3.907   1.458  1.00  0.00    -0.303 OA
BRANCH  14  15
HETATM   15  C2  UNL     1       3.835   2.674   0.865  1.00  0.00     0.176 C 
HETATM   16  C1  UNL     1       2.574   1.914   0.486  1.00  0.00     0.034 C 
ENDBRANCH  14  15
ENDBRANCH  11  14
ENDBRANCH   7  10
ENDBRANCH   5   6
ENDBRANCH   4   5
ENDBRANCH   1   4
BRANCH   1  17
HETATM   17  C11 UNL     1       7.944  10.594   2.607  1.00  0.00     0.057 C 
BRANCH  17  18
HETATM   18  C12 UNL     1       8.610  11.845   2.124  1.00  0.00     0.009 A 
HETATM   19  S1  UNL     1      10.326  12.155   2.362  1.00  0.00    -0.057 SA
HETATM   20  C13 UNL     1      10.385  13.730   1.663  1.00  0.00     0.151 A 
HETATM   21  N6  UNL     1       9.132  13.916   1.302  1.00  0.00    -0.339 N 
HETATM   22  C15 UNL     1       8.236  12.985   1.524  1.00  0.00     0.020 A 
ATOM     23  H6  UNL     1       8.858  14.787   0.848  1.00  0.00     0.168 HD
HETATM   24  C16 UNL     1       6.799  13.188   1.040  1.00  0.00     0.069 C 
BRANCH  20  25
HETATM   25  N3  UNL     1      11.461  14.430   1.588  1.00  0.00    -0.311 N 
HETATM   26  C14 UNL     1      12.531  14.304   0.729  1.00  0.00     0.187 C 
HETATM   27  N4  UNL     1      12.517  13.585  -0.333  1.00  0.00    -0.373 N 
HETATM   28  N5  UNL     1      13.772  14.996   0.973  1.00  0.00    -0.064 NA
ATOM     29  H42 UNL     1      11.639  13.095  -0.505  1.00  0.00     0.158 HD
ATOM     30  H41 UNL     1      13.309  13.492  -0.969  1.00  0.00     0.158 HD
ATOM     31  H3  UNL     1      11.534  15.190   2.264  1.00  0.00     0.170 HD
ENDBRANCH  20  25
ENDBRANCH  17  18
ENDBRANCH   1  17
TORSDOF 9
ENDMDL
MODEL 5
REMARK VINA RESULT: -6.724380646      1.288      2.031
REMARK  9 active torsions:
REMARK  status: ('A' for Active; 'I' for Inactive)
REMARK    1  A    between atoms: C2_2  and  O1_3 
REMARK    2  A    between atoms: O1_3  and  C3_4 
REMARK       I    between atoms: C3_4  and  N1_6 
REMARK    3  A    between atoms: N1_6  and  N2_8 
REMARK    4  A    between atoms: C4_10  and  C6_12 
REMARK    5  A    between atoms: C6_12  and  C7_13 
REMARK    6  A    between atoms: C7_13  and  C8_14 
REMARK    7  A    between atoms: C8_14  and  C11_17 
REMARK    8  A    between atoms: C11_17  and  C12_18 
REMARK    9  A    between atoms: C13_20  and  N3_21 
REMARK       I    between atoms: N3_21  and  C14_23 
ROOT
HETATM    1  C8  UNL     1       7.669   9.567   1.969  1.00  0.00    -0.043 C 
HETATM    2  C9  UNL     1       8.687   8.500   2.540  1.00  0.00     0.015 C 
HETATM    3  C10 UNL     1       8.066   9.737   0.529  1.00  0.00     0.015 C 
ENDROOT
BRANCH   1   4
HETATM    4  C7  UNL     1       6.371   8.854   2.060  1.00  0.00     0.014 C 
BRANCH   4   5
HETATM    5  C6  UNL     1       6.500   7.344   2.116  1.00  0.00     0.054 C 
BRANCH   5   6
HETATM    6  C4  UNL     1       5.228   6.701   1.710  1.00  0.00    -0.000 C 
HETATM    7  N2  UNL     1       5.112   5.424   1.665  1.00  0.00    -0.305 N 
ATOM      8  H2  UNL     1       5.919   4.851   1.910  1.00  0.00     0.186 HD
HETATM    9  C5  UNL     1       4.072   7.548   1.359  1.00  0.00     0.065 C 
BRANCH   7  10
HETATM   10  N1  UNL     1       3.929   4.789   1.295  1.00  0.00    -0.245 N 
HETATM   11  C3  UNL     1       3.913   3.375   1.226  1.00  0.00     0.379 C 
HETATM   12  O2  UNL     1       4.913   2.662   1.483  1.00  0.00    -0.237 OA
ATOM     13  H1  UNL     1       3.093   5.331   1.078  1.00  0.00     0.192 HD
BRANCH  11  14
HETATM   14  O1  UNL     1       2.719   2.765   0.855  1.00  0.00    -0.303 OA
BRANCH  14  15
HETATM   15  C2  UNL     1       2.630   1.439   0.402  1.00  0.00     0.176 C 
HETATM   16  C1  UNL     1       1.820   1.358  -0.882  1.00  0.00     0.034 C 
ENDBRANCH  14  15
ENDBRANCH  11  14
ENDBRANCH   7  10
ENDBRANCH   5   6
ENDBRANCH   4   5
ENDBRANCH   1   4
BRANCH   1  17
HETATM   17  C11 UNL     1       7.904  10.810   2.715  1.00  0.00     0.057 C 
BRANCH  17  18
HETATM   18  C12 UNL     1       8.844  11.801   2.102  1.00  0.00     0.009 A 
HETATM   19  S1  UNL     1      10.590  11.698   2.301  1.00  0.00    -0.057 SA
HETATM   20  C13 UNL     1      11.014  13.130   1.440  1.00  0.00     0.151 A 
HETATM   21  N6  UNL     1       9.836  13.584   1.065  1.00  0.00    -0.339 N 
HETATM   22  C15 UNL     1       8.746  12.932   1.387  1.00  0.00     0.020 A 
ATOM     23  H6  UNL     1       9.773  14.445   0.523  1.00  0.00     0.168 HD
HETATM   24  C16 UNL     1       7.389  13.436   0.888  1.00  0.00     0.069 C 
BRANCH  20  25
HETATM   25  N3  UNL     1      12.227  13.529   1.288  1.00  0.00    -0.311 N 
HETATM   26  C14 UNL     1      12.887  14.579   1.888  1.00  0.00     0.187 C 
HETATM   27  N4  UNL     1      12.448  15.209   2.916  1.00  0.00    -0.373 N 
HETATM   28  N5  UNL     1      14.155  15.050   1.388  1.00  0.00    -0.064 NA
ATOM     29  H42 UNL     1      11.551  14.874   3.270  1.00  0.00     0.158 HD
ATOM     30  H41 UNL     1      12.937  15.986   3.360  1.00  0.00     0.158 HD
ATOM     31  H3  UNL     1      12.783  12.989   0.625  1.00  0.00     0.170 HD
ENDBRANCH  20  25
ENDBRANCH  17  18
ENDBRANCH   1  17
TORSDOF 9
ENDMDL
