MODEL 1
REMARK VINA RESULT: -7.139011344      0.000      0.000
REMARK  9 active torsions:
REMARK  status: ('A' for Active; 'I' for Inactive)
REMARK    1  A    between atoms: C2_2  and  C3_3 
REMARK    2  A    between atoms: C3_3  and  C4_4 
REMARK    3  A    between atoms: C4_4  and  C5_5 
REMARK    4  A    between atoms: C5_5  and  C6_6 
REMARK    5  A    between atoms: C6_6  and  C7_7 
REMARK    6  A    between atoms: C11_12  and  O2_13 
REMARK    7  A    between atoms: C19_22  and  O3_23 
REMARK    8  A    between atoms: C20_25  and  O4_26 
REMARK    9  A    between atoms: C21_28  and  O5_29 
ROOT
HETATM    1  C7  UNL     1       9.212  12.372   2.889  1.00  0.00     0.132 C 
HETATM    2  O1  UNL     1       9.995  11.355   2.420  1.00  0.00    -0.373 OA
HETATM    3  C8  UNL     1       9.300  10.404   1.715  1.00  0.00     0.081 C 
HETATM    4  C9  UNL     1       9.972  10.296   0.257  1.00  0.00     0.081 C 
HETATM    5  C10 UNL     1       9.410  11.540  -0.369  1.00  0.00    -0.014 A 
HETATM    6  C11 UNL     1       9.449  12.380  -1.502  1.00  0.00     0.072 A 
HETATM    7  C12 UNL     1       8.760  13.611  -1.479  1.00  0.00     0.037 A 
HETATM    8  C13 UNL     1       8.048  13.989  -0.323  1.00  0.00     0.011 A 
HETATM    9  C14 UNL     1       8.017  13.150   0.807  1.00  0.00    -0.042 A 
HETATM   10  C15 UNL     1       8.695  12.106   0.534  1.00  0.00    -0.029 A 
HETATM   11  C16 UNL     1       8.047  11.086   1.464  1.00  0.00     0.035 C 
HETATM   12  C17 UNL     1       6.822  10.511   1.001  1.00  0.00     0.030 C 
HETATM   13  C18 UNL     1       5.612  10.789   1.941  1.00  0.00     0.014 C 
HETATM   14  C19 UNL     1       6.729   9.153   0.433  1.00  0.00     0.154 C 
HETATM   15  C20 UNL     1       7.513   8.047   0.991  1.00  0.00     0.176 C 
HETATM   16  C21 UNL     1       8.161   8.246   2.319  1.00  0.00     0.152 C 
HETATM   17  C22 UNL     1       9.391   9.097   2.303  1.00  0.00     0.074 C 
HETATM   18  C23 UNL     1       7.871  12.422   2.156  1.00  0.00     0.065 C 
ENDROOT
BRANCH   1  19
HETATM   19  C6  UNL     1       9.118  12.527   4.350  1.00  0.00     0.033 C 
BRANCH  19  20
HETATM   20  C5  UNL     1       9.196  11.304   5.188  1.00  0.00     0.002 C 
BRANCH  20  21
HETATM   21  C4  UNL     1       9.632  11.620   6.606  1.00  0.00     0.000 C 
BRANCH  21  22
HETATM   22  C3  UNL     1       9.488  10.482   7.558  1.00  0.00    -0.000 C 
BRANCH  22  23
HETATM   23  C2  UNL     1       8.420  10.758   8.611  1.00  0.00    -0.005 C 
HETATM   24  C1  UNL     1       7.340   9.726   8.597  1.00  0.00     0.005 C 
ENDBRANCH  22  23
ENDBRANCH  21  22
ENDBRANCH  20  21
ENDBRANCH  19  20
ENDBRANCH   1  19
BRANCH  16  25
HETATM   25  O5  UNL     1       8.454   6.975   2.824  1.00  0.00    -0.393 OA
ATOM     26  H5  UNL     1       7.900   6.846   3.586  1.00  0.00     0.210 HD
ENDBRANCH  16  25
BRANCH  14  27
HETATM   27  O3  UNL     1       6.971   9.164  -0.974  1.00  0.00    -0.393 OA
ATOM     28  H3  UNL     1       7.521   8.434  -1.233  1.00  0.00     0.210 HD
ENDBRANCH  14  27
BRANCH   6  29
HETATM   29  O2  UNL     1      10.176  11.901  -2.549  1.00  0.00    -0.360 OA
ATOM     30  H2  UNL     1      10.289  12.509  -3.270  1.00  0.00     0.217 HD
ENDBRANCH   6  29
BRANCH  15  31
HETATM   31  O4  UNL     1       6.606   6.971   1.217  1.00  0.00    -0.390 OA
ATOM     32  H4  UNL     1       6.522   6.875   2.158  1.00  0.00     0.210 HD
ENDBRANCH  15  31
TORSDOF 9
ENDMDL
MODEL 2
REMARK VINA RESULT: -6.939656516      1.794      2.993
REMARK  9 active torsions:
REMARK  status: ('A' for Active; 'I' for Inactive)
REMARK    1  A    between atoms: C2_2  and  C3_3 
REMARK    2  A    between atoms: C3_3  and  C4_4 
REMARK    3  A    between atoms: C4_4  and  C5_5 
REMARK    4  A    between atoms: C5_5  and  C6_6 
REMARK    5  A    between atoms: C6_6  and  C7_7 
REMARK    6  A    between atoms: C11_12  and  O2_13 
REMARK    7  A    between atoms: C19_22  and  O3_23 
REMARK    8  A    between atoms: C20_25  and  O4_26 
REMARK    9  A    between atoms: C21_28  and  O5_29 
ROOT
HETATM    1  C7  UNL     1       9.234  12.712   2.695  1.00  0.00     0.132 C 
HETATM    2  O1  UNL     1      10.052  11.700   2.278  1.00  0.00    -0.373 OA
HETATM    3  C8  UNL     1       9.391  10.689   1.626  1.00  0.00     0.081 C 
HETATM    4  C9  UNL     1      10.064  10.529   0.173  1.00  0.00     0.081 C 
HETATM    5  C10 UNL     1       9.455  11.717  -0.515  1.00  0.00    -0.014 A 
HETATM    6  C11 UNL     1       9.461  12.498  -1.691  1.00  0.00     0.072 A 
HETATM    7  C12 UNL     1       8.729  13.702  -1.729  1.00  0.00     0.037 A 
HETATM    8  C13 UNL     1       8.005  14.115  -0.592  1.00  0.00     0.011 A 
HETATM    9  C14 UNL     1       8.007  13.336   0.581  1.00  0.00    -0.042 A 
HETATM   10  C15 UNL     1       8.722  12.304   0.360  1.00  0.00    -0.029 A 
HETATM   11  C16 UNL     1       8.113  11.311   1.345  1.00  0.00     0.035 C 
HETATM   12  C17 UNL     1       6.909  10.669   0.917  1.00  0.00     0.030 C 
HETATM   13  C18 UNL     1       5.691  10.952   1.846  1.00  0.00     0.014 C 
HETATM   14  C19 UNL     1       6.864   9.280   0.421  1.00  0.00     0.154 C 
HETATM   15  C20 UNL     1       7.689   8.234   1.034  1.00  0.00     0.176 C 
HETATM   16  C21 UNL     1       8.332   8.526   2.347  1.00  0.00     0.152 C 
HETATM   17  C22 UNL     1       9.530   9.419   2.281  1.00  0.00     0.074 C 
HETATM   18  C23 UNL     1       7.890  12.675   1.966  1.00  0.00     0.065 C 
ENDROOT
BRANCH   1  19
HETATM   19  C6  UNL     1       9.137  12.939   4.147  1.00  0.00     0.033 C 
BRANCH  19  20
HETATM   20  C5  UNL     1       9.724  14.186   4.699  1.00  0.00     0.002 C 
BRANCH  20  21
HETATM   21  C4  UNL     1      10.181  15.127   3.601  1.00  0.00     0.000 C 
BRANCH  21  22
HETATM   22  C3  UNL     1      11.660  15.294   3.515  1.00  0.00    -0.000 C 
BRANCH  22  23
HETATM   23  C2  UNL     1      12.205  14.817   2.173  1.00  0.00    -0.005 C 
HETATM   24  C1  UNL     1      11.282  15.145   1.045  1.00  0.00     0.005 C 
ENDBRANCH  22  23
ENDBRANCH  21  22
ENDBRANCH  20  21
ENDBRANCH  19  20
ENDBRANCH   1  19
BRANCH  16  25
HETATM   25  O5  UNL     1       8.672   7.295   2.916  1.00  0.00    -0.393 OA
ATOM     26  H5  UNL     1       7.910   6.993   3.398  1.00  0.00     0.210 HD
ENDBRANCH  16  25
BRANCH  14  27
HETATM   27  O3  UNL     1       7.103   9.226  -0.985  1.00  0.00    -0.393 OA
ATOM     28  H3  UNL     1       6.612   9.898  -1.443  1.00  0.00     0.210 HD
ENDBRANCH  14  27
BRANCH   6  29
HETATM   29  O2  UNL     1      10.203  11.992  -2.714  1.00  0.00    -0.360 OA
ATOM     30  H2  UNL     1       9.717  11.808  -3.509  1.00  0.00     0.217 HD
ENDBRANCH   6  29
BRANCH  15  31
HETATM   31  O4  UNL     1       6.822   7.140   1.318  1.00  0.00    -0.390 OA
ATOM     32  H4  UNL     1       6.949   6.502   0.625  1.00  0.00     0.210 HD
ENDBRANCH  15  31
TORSDOF 9
ENDMDL
MODEL 3
REMARK VINA RESULT: -6.850621754      0.898      1.482
REMARK  9 active torsions:
REMARK  status: ('A' for Active; 'I' for Inactive)
REMARK    1  A    between atoms: C2_2  and  C3_3 
REMARK    2  A    between atoms: C3_3  and  C4_4 
REMARK    3  A    between atoms: C4_4  and  C5_5 
REMARK    4  A    between atoms: C5_5  and  C6_6 
REMARK    5  A    between atoms: C6_6  and  C7_7 
REMARK    6  A    between atoms: C11_12  and  O2_13 
REMARK    7  A    between atoms: C19_22  and  O3_23 
REMARK    8  A    between atoms: C20_25  and  O4_26 
REMARK    9  A    between atoms: C21_28  and  O5_29 
ROOT
HETATM    1  C7  UNL     1       9.207  12.421   2.866  1.00  0.00     0.132 C 
HETATM    2  O1  UNL     1       9.999  11.409   2.402  1.00  0.00    -0.373 OA
HETATM    3  C8  UNL     1       9.312  10.445   1.707  1.00  0.00     0.081 C 
HETATM    4  C9  UNL     1       9.979  10.334   0.246  1.00  0.00     0.081 C 
HETATM    5  C10 UNL     1       9.401  11.567  -0.386  1.00  0.00    -0.014 A 
HETATM    6  C11 UNL     1       9.426  12.399  -1.526  1.00  0.00     0.072 A 
HETATM    7  C12 UNL     1       8.724  13.622  -1.509  1.00  0.00     0.037 A 
HETATM    8  C13 UNL     1       8.012  14.002  -0.353  1.00  0.00     0.011 A 
HETATM    9  C14 UNL     1       7.995  13.170   0.784  1.00  0.00    -0.042 A 
HETATM   10  C15 UNL     1       8.684  12.132   0.516  1.00  0.00    -0.029 A 
HETATM   11  C16 UNL     1       8.050  11.112   1.457  1.00  0.00     0.035 C 
HETATM   12  C17 UNL     1       6.830  10.520   1.002  1.00  0.00     0.030 C 
HETATM   13  C18 UNL     1       5.620  10.792   1.946  1.00  0.00     0.014 C 
HETATM   14  C19 UNL     1       6.749   9.157   0.445  1.00  0.00     0.154 C 
HETATM   15  C20 UNL     1       7.548   8.064   1.008  1.00  0.00     0.176 C 
HETATM   16  C21 UNL     1       8.199   8.280   2.332  1.00  0.00     0.152 C 
HETATM   17  C22 UNL     1       9.419   9.144   2.304  1.00  0.00     0.074 C 
HETATM   18  C23 UNL     1       7.862  12.451   2.139  1.00  0.00     0.065 C 
ENDROOT
BRANCH   1  19
HETATM   19  C6  UNL     1       9.117  12.586   4.327  1.00  0.00     0.033 C 
BRANCH  19  20
HETATM   20  C5  UNL     1       9.194  11.368   5.173  1.00  0.00     0.002 C 
BRANCH  20  21
HETATM   21  C4  UNL     1       9.685  11.685   6.572  1.00  0.00     0.000 C 
BRANCH  21  22
HETATM   22  C3  UNL     1       9.968  13.130   6.808  1.00  0.00    -0.000 C 
BRANCH  22  23
HETATM   23  C2  UNL     1      10.821  13.342   8.054  1.00  0.00    -0.005 C 
HETATM   24  C1  UNL     1      12.212  13.767   7.714  1.00  0.00     0.005 C 
ENDBRANCH  22  23
ENDBRANCH  21  22
ENDBRANCH  20  21
ENDBRANCH  19  20
ENDBRANCH   1  19
BRANCH  16  25
HETATM   25  O5  UNL     1       8.508   7.016   2.845  1.00  0.00    -0.393 OA
ATOM     26  H5  UNL     1       7.718   6.684   3.257  1.00  0.00     0.210 HD
ENDBRANCH  16  25
BRANCH  14  27
HETATM   27  O3  UNL     1       6.985   9.159  -0.963  1.00  0.00    -0.393 OA
ATOM     28  H3  UNL     1       6.982   8.277  -1.313  1.00  0.00     0.210 HD
ENDBRANCH  14  27
BRANCH   6  29
HETATM   29  O2  UNL     1      10.153  11.920  -2.572  1.00  0.00    -0.360 OA
ATOM     30  H2  UNL     1       9.664  11.793  -3.376  1.00  0.00     0.217 HD
ENDBRANCH   6  29
BRANCH  15  31
HETATM   31  O4  UNL     1       6.653   6.980   1.245  1.00  0.00    -0.390 OA
ATOM     32  H4  UNL     1       6.884   6.294   0.629  1.00  0.00     0.210 HD
ENDBRANCH  15  31
TORSDOF 9
ENDMDL
MODEL 4
REMARK VINA RESULT: -6.654837542      1.551      2.126
REMARK  9 active torsions:
REMARK  status: ('A' for Active; 'I' for Inactive)
REMARK    1  A    between atoms: C2_2  and  C3_3 
REMARK    2  A    between atoms: C3_3  and  C4_4 
REMARK    3  A    between atoms: C4_4  and  C5_5 
REMARK    4  A    between atoms: C5_5  and  C6_6 
REMARK    5  A    between atoms: C6_6  and  C7_7 
REMARK    6  A    between atoms: C11_12  and  O2_13 
REMARK    7  A    between atoms: C19_22  and  O3_23 
REMARK    8  A    between atoms: C20_25  and  O4_26 
REMARK    9  A    between atoms: C21_28  and  O5_29 
ROOT
HETATM    1  C7  UNL     1       9.686  11.247   4.343  1.00  0.00     0.132 C 
HETATM    2  O1  UNL     1      10.269  10.351   3.493  1.00  0.00    -0.373 OA
HETATM    3  C8  UNL     1       9.626  10.235   2.286  1.00  0.00     0.081 C 
HETATM    4  C9  UNL     1      10.701  10.558   1.132  1.00  0.00     0.081 C 
HETATM    5  C10 UNL     1      10.753  12.054   1.253  1.00  0.00    -0.014 A 
HETATM    6  C11 UNL     1      11.409  13.225   0.814  1.00  0.00     0.072 A 
HETATM    7  C12 UNL     1      11.121  14.457   1.437  1.00  0.00     0.037 A 
HETATM    8  C13 UNL     1      10.189  14.504   2.493  1.00  0.00     0.011 A 
HETATM    9  C14 UNL     1       9.541  13.332   2.931  1.00  0.00    -0.042 A 
HETATM   10  C15 UNL     1       9.957  12.367   2.210  1.00  0.00    -0.029 A 
HETATM   11  C16 UNL     1       8.774  11.408   2.298  1.00  0.00     0.035 C 
HETATM   12  C17 UNL     1       7.676  11.693   1.428  1.00  0.00     0.030 C 
HETATM   13  C18 UNL     1       6.342  11.971   2.184  1.00  0.00     0.014 C 
HETATM   14  C19 UNL     1       7.413  10.945   0.183  1.00  0.00     0.154 C 
HETATM   15  C20 UNL     1       7.621   9.495   0.117  1.00  0.00     0.176 C 
HETATM   16  C21 UNL     1       7.802   8.752   1.397  1.00  0.00     0.152 C 
HETATM   17  C22 UNL     1       9.146   8.906   2.034  1.00  0.00     0.074 C 
HETATM   18  C23 UNL     1       8.747  12.192   3.594  1.00  0.00     0.065 C 
ENDROOT
BRANCH   1  19
HETATM   19  C6  UNL     1       9.141  10.717   5.605  1.00  0.00     0.033 C 
BRANCH  19  20
HETATM   20  C5  UNL     1       9.621  11.314   6.877  1.00  0.00     0.002 C 
BRANCH  20  21
HETATM   21  C4  UNL     1       9.316  10.423   8.067  1.00  0.00     0.000 C 
BRANCH  21  22
HETATM   22  C3  UNL     1       8.299  10.981   9.003  1.00  0.00    -0.000 C 
BRANCH  22  23
HETATM   23  C2  UNL     1       7.147  10.008   9.230  1.00  0.00    -0.005 C 
HETATM   24  C1  UNL     1       7.626   8.667   9.680  1.00  0.00     0.005 C 
ENDBRANCH  22  23
ENDBRANCH  21  22
ENDBRANCH  20  21
ENDBRANCH  19  20
ENDBRANCH   1  19
BRANCH  16  25
HETATM   25  O5  UNL     1       7.541   7.405   1.126  1.00  0.00    -0.393 OA
ATOM     26  H5  UNL     1       6.669   7.220   1.456  1.00  0.00     0.210 HD
ENDBRANCH  16  25
BRANCH  14  27
HETATM   27  O3  UNL     1       8.117  11.516  -0.920  1.00  0.00    -0.393 OA
ATOM     28  H3  UNL     1       7.516  11.888  -1.555  1.00  0.00     0.210 HD
ENDBRANCH  14  27
BRANCH   6  29
HETATM   29  O2  UNL     1      12.289  13.043  -0.208  1.00  0.00    -0.360 OA
ATOM     30  H2  UNL     1      12.847  13.788  -0.395  1.00  0.00     0.217 HD
ENDBRANCH   6  29
BRANCH  15  31
HETATM   31  O4  UNL     1       6.433   8.933  -0.435  1.00  0.00    -0.390 OA
ATOM     32  H4  UNL     1       5.921   9.657  -0.777  1.00  0.00     0.210 HD
ENDBRANCH  15  31
TORSDOF 9
ENDMDL
MODEL 5
REMARK VINA RESULT: -6.610155484      2.565      5.050
REMARK  9 active torsions:
REMARK  status: ('A' for Active; 'I' for Inactive)
REMARK    1  A    between atoms: C2_2  and  C3_3 
REMARK    2  A    between atoms: C3_3  and  C4_4 
REMARK    3  A    between atoms: C4_4  and  C5_5 
REMARK    4  A    between atoms: C5_5  and  C6_6 
REMARK    5  A    between atoms: C6_6  and  C7_7 
REMARK    6  A    between atoms: C11_12  and  O2_13 
REMARK    7  A    between atoms: C19_22  and  O3_23 
REMARK    8  A    between atoms: C20_25  and  O4_26 
REMARK    9  A    between atoms: C21_28  and  O5_29 
ROOT
HETATM    1  C7  UNL     1       9.757  10.730   2.942  1.00  0.00     0.132 C 
HETATM    2  O1  UNL     1      10.642  11.033   1.946  1.00  0.00    -0.373 OA
HETATM    3  C8  UNL     1      10.170  11.963   1.053  1.00  0.00     0.081 C 
HETATM    4  C9  UNL     1      11.216  13.187   1.031  1.00  0.00     0.081 C 
HETATM    5  C10 UNL     1      10.842  13.857   2.321  1.00  0.00    -0.014 A 
HETATM    6  C11 UNL     1      11.186  14.878   3.233  1.00  0.00     0.072 A 
HETATM    7  C12 UNL     1      10.513  14.962   4.470  1.00  0.00     0.037 A 
HETATM    8  C13 UNL     1       9.510  14.022   4.782  1.00  0.00     0.011 A 
HETATM    9  C14 UNL     1       9.174  13.002   3.872  1.00  0.00    -0.042 A 
HETATM   10  C15 UNL     1       9.905  13.148   2.838  1.00  0.00    -0.029 A 
HETATM   11  C16 UNL     1       9.031  12.501   1.769  1.00  0.00     0.035 C 
HETATM   12  C17 UNL     1       7.982  13.319   1.243  1.00  0.00     0.030 C 
HETATM   13  C18 UNL     1       6.559  12.728   1.477  1.00  0.00     0.014 C 
HETATM   14  C19 UNL     1       8.052  13.980  -0.073  1.00  0.00     0.154 C 
HETATM   15  C20 UNL     1       8.658  13.304  -1.225  1.00  0.00     0.176 C 
HETATM   16  C21 UNL     1       8.918  11.839  -1.123  1.00  0.00     0.152 C 
HETATM   17  C22 UNL     1      10.101  11.462  -0.290  1.00  0.00     0.074 C 
HETATM   18  C23 UNL     1       8.667  11.796   3.059  1.00  0.00     0.065 C 
ENDROOT
BRANCH   1  19
HETATM   19  C6  UNL     1       9.266   9.343   3.002  1.00  0.00     0.033 C 
BRANCH  19  20
HETATM   20  C5  UNL     1       7.884   9.071   2.533  1.00  0.00     0.002 C 
BRANCH  20  21
HETATM   21  C4  UNL     1       7.835   8.824   1.037  1.00  0.00     0.000 C 
BRANCH  21  22
HETATM   22  C3  UNL     1       6.550   9.219   0.394  1.00  0.00    -0.000 C 
BRANCH  22  23
HETATM   23  C2  UNL     1       5.389   9.186   1.382  1.00  0.00    -0.005 C 
HETATM   24  C1  UNL     1       4.698   7.862   1.390  1.00  0.00     0.005 C 
ENDBRANCH  22  23
ENDBRANCH  21  22
ENDBRANCH  20  21
ENDBRANCH  19  20
ENDBRANCH   1  19
BRANCH  16  25
HETATM   25  O5  UNL     1       9.065  11.359  -2.427  1.00  0.00    -0.393 OA
ATOM     26  H5  UNL     1       9.508  10.520  -2.366  1.00  0.00     0.210 HD
ENDBRANCH  16  25
BRANCH  14  27
HETATM   27  O3  UNL     1       8.670  15.263   0.026  1.00  0.00    -0.393 OA
ATOM     28  H3  UNL     1       8.030  15.939   0.216  1.00  0.00     0.210 HD
ENDBRANCH  14  27
BRANCH   6  29
HETATM   29  O2  UNL     1      12.173  15.716   2.813  1.00  0.00    -0.360 OA
ATOM     30  H2  UNL     1      11.974  16.642   2.889  1.00  0.00     0.217 HD
ENDBRANCH   6  29
BRANCH  15  31
HETATM   31  O4  UNL     1       7.728  13.407  -2.300  1.00  0.00    -0.390 OA
ATOM     32  H4  UNL     1       7.544  14.333  -2.415  1.00  0.00     0.210 HD
ENDBRANCH  15  31
TORSDOF 9
ENDMDL
