MODEL 1
REMARK VINA RESULT: -6.307515517      0.000      0.000
REMARK  10 active torsions:
REMARK  status: ('A' for Active; 'I' for Inactive)
REMARK    1  A    between atoms: C2_2  and  C3_3 
REMARK    2  A    between atoms: C3_3  and  N1_4 
REMARK    3  A    between atoms: N1_4  and  C4_5 
REMARK    4  A    between atoms: N1_4  and  C17_28 
REMARK    5  A    between atoms: C4_5  and  C5_6 
REMARK    6  A    between atoms: C6_7  and  C7_8 
REMARK    7  A    between atoms: C11_14  and  N3_15 
REMARK    8  A    between atoms: C12_20  and  N5_21 
REMARK    9  A    between atoms: C14_25  and  C15_26 
REMARK   10  A    between atoms: C17_28  and  C18_29 
ROOT
HETATM    1  C7  UNL     1       5.236   9.443   1.694  1.00  0.00     0.025 A 
HETATM    2  C8  UNL     1       3.864   9.468   1.791  1.00  0.00     0.023 A 
HETATM    3  C9  UNL     1       3.160   8.311   1.769  1.00  0.00     0.032 A 
HETATM    4  C10 UNL     1       3.818   7.109   1.652  1.00  0.00     0.063 A 
HETATM    5  N2  UNL     1       3.084   5.975   1.640  1.00  0.00    -0.191 N 
ATOM      6  H2  UNL     1       2.068   6.022   1.710  1.00  0.00     0.184 HD
HETATM    7  C11 UNL     1       3.693   4.791   1.533  1.00  0.00     0.677 A 
HETATM    8  N4  UNL     1       5.025   4.752   1.441  1.00  0.00    -0.176 N 
ATOM      9  H4  UNL     1       5.487   3.846   1.361  1.00  0.00     0.186 HD
HETATM   10  C12 UNL     1       5.781   5.870   1.450  1.00  0.00     0.127 A 
HETATM   11  C13 UNL     1       5.199   7.108   1.557  1.00  0.00     0.043 A 
HETATM   12  C14 UNL     1       5.982   8.252   1.571  1.00  0.00    -0.024 A 
ENDROOT
BRANCH   1  13
HETATM   13  C6  UNL     1       5.987  10.682   1.717  1.00  0.00    -0.065 C 
HETATM   14  C5  UNL     1       6.601  11.728   1.719  1.00  0.00    -0.082 C 
BRANCH  14  15
HETATM   15  C4  UNL     1       7.328  13.016   1.712  1.00  0.00     0.212 C 
BRANCH  15  16
HETATM   16  N1  UNL     1       8.561  12.794   1.043  1.00  0.00    -0.397 N 
BRANCH  16  17
HETATM   17  C3  UNL     1       8.492  12.217  -0.256  1.00  0.00     0.118 C 
BRANCH  17  18
HETATM   18  C2  UNL     1       9.458  11.071  -0.455  1.00  0.00     0.015 C 
HETATM   19  C1  UNL     1       8.845   9.952  -1.262  1.00  0.00     0.006 C 
ENDBRANCH  17  18
ENDBRANCH  16  17
BRANCH  16  20
HETATM   20  C17 UNL     1       9.657  12.355   1.837  1.00  0.00     0.175 C 
BRANCH  20  21
HETATM   21  C18 UNL     1      10.567  13.539   2.141  1.00  0.00     0.034 A 
HETATM   22  C19 UNL     1      10.275  14.408   3.167  1.00  0.00     0.078 A 
HETATM   23  S1  UNL     1      11.573  15.508   3.065  1.00  0.00    -0.087 SA
HETATM   24  C20 UNL     1      12.400  14.812   1.746  1.00  0.00     0.047 A 
HETATM   25  C21 UNL     1      13.678  15.256   1.072  1.00  0.00     0.076 C 
HETATM   26  N6  UNL     1      11.640  13.771   1.449  1.00  0.00    -0.356 N 
ATOM     27  H6  UNL     1      11.897  13.152   0.680  1.00  0.00     0.166 HD
ENDBRANCH  20  21
ENDBRANCH  16  20
ENDBRANCH  15  16
ENDBRANCH  14  15
ENDBRANCH   1  13
BRANCH  12  28
HETATM   28  C15 UNL     1       7.438   8.265   1.475  1.00  0.00     0.036 C 
HETATM   29  C16 UNL     1       8.171   8.593   2.754  1.00  0.00     0.010 C 
ENDBRANCH  12  28
BRANCH  10  30
HETATM   30  N5  UNL     1       7.053   5.808   1.374  1.00  0.00    -0.384 N 
ATOM     31  H52 UNL     1       7.486   4.888   1.296  1.00  0.00     0.157 HD
ATOM     32  H51 UNL     1       7.624   6.653   1.380  1.00  0.00     0.157 HD
ENDBRANCH  10  30
BRANCH   7  33
HETATM   33  N3  UNL     1       3.019   3.665   1.518  1.00  0.00    -0.234 N 
ATOM     34  H32 UNL     1       3.441   2.828   1.920  1.00  0.00     0.174 HD
ATOM     35  H31 UNL     1       2.084   3.604   1.115  1.00  0.00     0.174 HD
ENDBRANCH   7  33
TORSDOF 10
ENDMDL
MODEL 2
REMARK VINA RESULT: -6.298911168      2.453      3.168
REMARK  10 active torsions:
REMARK  status: ('A' for Active; 'I' for Inactive)
REMARK    1  A    between atoms: C2_2  and  C3_3 
REMARK    2  A    between atoms: C3_3  and  N1_4 
REMARK    3  A    between atoms: N1_4  and  C4_5 
REMARK    4  A    between atoms: N1_4  and  C17_28 
REMARK    5  A    between atoms: C4_5  and  C5_6 
REMARK    6  A    between atoms: C6_7  and  C7_8 
REMARK    7  A    between atoms: C11_14  and  N3_15 
REMARK    8  A    between atoms: C12_20  and  N5_21 
REMARK    9  A    between atoms: C14_25  and  C15_26 
REMARK   10  A    between atoms: C17_28  and  C18_29 
ROOT
HETATM    1  C7  UNL     1       5.407   8.776   1.740  1.00  0.00     0.025 A 
HETATM    2  C8  UNL     1       4.040   8.907   1.804  1.00  0.00     0.023 A 
HETATM    3  C9  UNL     1       3.248   7.810   1.740  1.00  0.00     0.032 A 
HETATM    4  C10 UNL     1       3.813   6.563   1.611  1.00  0.00     0.063 A 
HETATM    5  N2  UNL     1       2.993   5.490   1.555  1.00  0.00    -0.191 N 
ATOM      6  H2  UNL     1       1.982   5.616   1.603  1.00  0.00     0.184 HD
HETATM    7  C11 UNL     1       3.510   4.264   1.437  1.00  0.00     0.677 A 
HETATM    8  N4  UNL     1       4.838   4.123   1.375  1.00  0.00    -0.176 N 
ATOM      9  H4  UNL     1       5.229   3.186   1.285  1.00  0.00     0.186 HD
HETATM   10  C12 UNL     1       5.678   5.177   1.427  1.00  0.00     0.127 A 
HETATM   11  C13 UNL     1       5.192   6.455   1.548  1.00  0.00     0.043 A 
HETATM   12  C14 UNL     1       6.060   7.534   1.607  1.00  0.00    -0.024 A 
ENDROOT
BRANCH   1  13
HETATM   13  C6  UNL     1       6.252   9.952   1.807  1.00  0.00    -0.065 C 
HETATM   14  C5  UNL     1       6.957  10.936   1.887  1.00  0.00    -0.082 C 
BRANCH  14  15
HETATM   15  C4  UNL     1       7.826  12.127   2.009  1.00  0.00     0.212 C 
BRANCH  15  16
HETATM   16  N1  UNL     1       9.027  11.702   2.637  1.00  0.00    -0.397 N 
BRANCH  16  17
HETATM   17  C3  UNL     1      10.206  11.710   1.840  1.00  0.00     0.118 C 
BRANCH  17  18
HETATM   18  C2  UNL     1      10.718  10.325   1.513  1.00  0.00     0.015 C 
HETATM   19  C1  UNL     1      10.188   9.827   0.190  1.00  0.00     0.006 C 
ENDBRANCH  17  18
ENDBRANCH  16  17
BRANCH  16  20
HETATM   20  C17 UNL     1       8.929  10.616   3.551  1.00  0.00     0.175 C 
BRANCH  20  21
HETATM   21  C18 UNL     1       9.218  11.117   4.962  1.00  0.00     0.034 A 
HETATM   22  C19 UNL     1       9.492  12.444   5.198  1.00  0.00     0.078 A 
HETATM   23  S1  UNL     1       9.735  12.450   6.885  1.00  0.00    -0.087 SA
HETATM   24  C20 UNL     1       9.478  10.791   7.191  1.00  0.00     0.047 A 
HETATM   25  C21 UNL     1       9.529  10.038   8.500  1.00  0.00     0.076 C 
HETATM   26  N6  UNL     1       9.219  10.316   5.984  1.00  0.00    -0.356 N 
ATOM     27  H6  UNL     1       9.020   9.323   5.857  1.00  0.00     0.166 HD
ENDBRANCH  20  21
ENDBRANCH  16  20
ENDBRANCH  15  16
ENDBRANCH  14  15
ENDBRANCH   1  13
BRANCH  12  28
HETATM   28  C15 UNL     1       7.516   7.434   1.545  1.00  0.00     0.036 C 
HETATM   29  C16 UNL     1       8.231   7.533   2.871  1.00  0.00     0.010 C 
ENDBRANCH  12  28
BRANCH  10  30
HETATM   30  N5  UNL     1       6.942   5.018   1.380  1.00  0.00    -0.384 N 
ATOM     31  H52 UNL     1       7.394   4.529   2.153  1.00  0.00     0.157 HD
ATOM     32  H51 UNL     1       7.488   5.357   0.588  1.00  0.00     0.157 HD
ENDBRANCH  10  30
BRANCH   7  33
HETATM   33  N3  UNL     1       2.751   3.196   1.380  1.00  0.00    -0.234 N 
ATOM     34  H32 UNL     1       2.899   2.445   2.054  1.00  0.00     0.174 HD
ATOM     35  H31 UNL     1       2.016   3.096   0.680  1.00  0.00     0.174 HD
ENDBRANCH   7  33
TORSDOF 10
ENDMDL
MODEL 3
REMARK VINA RESULT: -6.290289344      1.987      3.190
REMARK  10 active torsions:
REMARK  status: ('A' for Active; 'I' for Inactive)
REMARK    1  A    between atoms: C2_2  and  C3_3 
REMARK    2  A    between atoms: C3_3  and  N1_4 
REMARK    3  A    between atoms: N1_4  and  C4_5 
REMARK    4  A    between atoms: N1_4  and  C17_28 
REMARK    5  A    between atoms: C4_5  and  C5_6 
REMARK    6  A    between atoms: C6_7  and  C7_8 
REMARK    7  A    between atoms: C11_14  and  N3_15 
REMARK    8  A    between atoms: C12_20  and  N5_21 
REMARK    9  A    between atoms: C14_25  and  C15_26 
REMARK   10  A    between atoms: C17_28  and  C18_29 
ROOT
HETATM    1  C7  UNL     1       5.062   9.491   1.782  1.00  0.00     0.025 A 
HETATM    2  C8  UNL     1       3.693   9.464   1.910  1.00  0.00     0.023 A 
HETATM    3  C9  UNL     1       3.029   8.284   1.863  1.00  0.00     0.032 A 
HETATM    4  C10 UNL     1       3.726   7.111   1.689  1.00  0.00     0.063 A 
HETATM    5  N2  UNL     1       3.033   5.952   1.652  1.00  0.00    -0.191 N 
ATOM      6  H2  UNL     1       2.017   5.961   1.747  1.00  0.00     0.184 HD
HETATM    7  C11 UNL     1       3.680   4.795   1.490  1.00  0.00     0.677 A 
HETATM    8  N4  UNL     1       5.010   4.808   1.367  1.00  0.00    -0.176 N 
ATOM      9  H4  UNL     1       5.501   3.923   1.245  1.00  0.00     0.186 HD
HETATM   10  C12 UNL     1       5.727   5.951   1.399  1.00  0.00     0.127 A 
HETATM   11  C13 UNL     1       5.104   7.163   1.563  1.00  0.00     0.043 A 
HETATM   12  C14 UNL     1       5.846   8.333   1.600  1.00  0.00    -0.024 A 
ENDROOT
BRANCH   1  13
HETATM   13  C6  UNL     1       5.769  10.755   1.832  1.00  0.00    -0.065 C 
HETATM   14  C5  UNL     1       6.365  11.811   1.896  1.00  0.00    -0.082 C 
BRANCH  14  15
HETATM   15  C4  UNL     1       7.105  13.087   1.995  1.00  0.00     0.212 C 
BRANCH  15  16
HETATM   16  N1  UNL     1       8.442  12.764   2.351  1.00  0.00    -0.397 N 
BRANCH  16  17
HETATM   17  C3  UNL     1       8.806  12.950   3.714  1.00  0.00     0.118 C 
BRANCH  17  18
HETATM   18  C2  UNL     1       9.107  11.655   4.435  1.00  0.00     0.015 C 
HETATM   19  C1  UNL     1       9.448  11.886   5.888  1.00  0.00     0.006 C 
ENDBRANCH  17  18
ENDBRANCH  16  17
BRANCH  16  20
HETATM   20  C17 UNL     1       9.457  13.089   1.409  1.00  0.00     0.175 C 
BRANCH  20  21
HETATM   21  C18 UNL     1       9.492  12.026   0.318  1.00  0.00     0.034 A 
HETATM   22  C19 UNL     1       9.068  12.311  -0.959  1.00  0.00     0.078 A 
HETATM   23  S1  UNL     1       9.310  10.817  -1.744  1.00  0.00    -0.087 SA
HETATM   24  C20 UNL     1       9.928   9.928  -0.425  1.00  0.00     0.047 A 
HETATM   25  C21 UNL     1      10.379   8.487  -0.366  1.00  0.00     0.076 C 
HETATM   26  N6  UNL     1       9.917  10.821   0.551  1.00  0.00    -0.356 N 
ATOM     27  H6  UNL     1      10.243  10.564   1.483  1.00  0.00     0.166 HD
ENDBRANCH  20  21
ENDBRANCH  16  20
ENDBRANCH  15  16
ENDBRANCH  14  15
ENDBRANCH   1  13
BRANCH  12  28
HETATM   28  C15 UNL     1       7.299   8.402   1.472  1.00  0.00     0.036 C 
HETATM   29  C16 UNL     1       8.054   8.638   2.758  1.00  0.00     0.010 C 
ENDBRANCH  12  28
BRANCH  10  30
HETATM   30  N5  UNL     1       6.997   5.938   1.293  1.00  0.00    -0.384 N 
ATOM     31  H52 UNL     1       7.402   5.981   0.358  1.00  0.00     0.157 HD
ATOM     32  H51 UNL     1       7.596   5.896   2.118  1.00  0.00     0.157 HD
ENDBRANCH  10  30
BRANCH   7  33
HETATM   33  N3  UNL     1       3.046   3.647   1.450  1.00  0.00    -0.234 N 
ATOM     34  H32 UNL     1       2.959   3.097   2.304  1.00  0.00     0.174 HD
ATOM     35  H31 UNL     1       2.636   3.290   0.587  1.00  0.00     0.174 HD
ENDBRANCH   7  33
TORSDOF 10
ENDMDL
MODEL 4
REMARK VINA RESULT: -6.214007793      1.952      2.968
REMARK  10 active torsions:
REMARK  status: ('A' for Active; 'I' for Inactive)
REMARK    1  A    between atoms: C2_2  and  C3_3 
REMARK    2  A    between atoms: C3_3  and  N1_4 
REMARK    3  A    between atoms: N1_4  and  C4_5 
REMARK    4  A    between atoms: N1_4  and  C17_28 
REMARK    5  A    between atoms: C4_5  and  C5_6 
REMARK    6  A    between atoms: C6_7  and  C7_8 
REMARK    7  A    between atoms: C11_14  and  N3_15 
REMARK    8  A    between atoms: C12_20  and  N5_21 
REMARK    9  A    between atoms: C14_25  and  C15_26 
REMARK   10  A    between atoms: C17_28  and  C18_29 
ROOT
HETATM    1  C7  UNL     1       5.169   9.527   1.777  1.00  0.00     0.025 A 
HETATM    2  C8  UNL     1       3.794   9.508   1.787  1.00  0.00     0.023 A 
HETATM    3  C9  UNL     1       3.130   8.329   1.712  1.00  0.00     0.032 A 
HETATM    4  C10 UNL     1       3.833   7.150   1.627  1.00  0.00     0.063 A 
HETATM    5  N2  UNL     1       3.139   5.993   1.559  1.00  0.00    -0.191 N 
ATOM      6  H2  UNL     1       2.119   6.007   1.566  1.00  0.00     0.184 HD
HETATM    7  C11 UNL     1       3.791   4.830   1.482  1.00  0.00     0.677 A 
HETATM    8  N4  UNL     1       5.127   4.835   1.473  1.00  0.00    -0.176 N 
ATOM      9  H4  UNL     1       5.622   3.945   1.416  1.00  0.00     0.186 HD
HETATM   10  C12 UNL     1       5.845   5.976   1.539  1.00  0.00     0.127 A 
HETATM   11  C13 UNL     1       5.217   7.194   1.619  1.00  0.00     0.043 A 
HETATM   12  C14 UNL     1       5.959   8.363   1.692  1.00  0.00    -0.024 A 
ENDROOT
BRANCH   1  13
HETATM   13  C6  UNL     1       5.876  10.790   1.857  1.00  0.00    -0.065 C 
HETATM   14  C5  UNL     1       6.463  11.848   1.946  1.00  0.00    -0.082 C 
BRANCH  14  15
HETATM   15  C4  UNL     1       7.183  13.133   2.081  1.00  0.00     0.212 C 
BRANCH  15  16
HETATM   16  N1  UNL     1       8.570  12.829   2.120  1.00  0.00    -0.397 N 
BRANCH  16  17
HETATM   17  C3  UNL     1       9.112  12.460   3.383  1.00  0.00     0.118 C 
BRANCH  17  18
HETATM   18  C2  UNL     1       9.578  11.022   3.438  1.00  0.00     0.015 C 
HETATM   19  C1  UNL     1       8.961  10.274   4.596  1.00  0.00     0.006 C 
ENDBRANCH  17  18
ENDBRANCH  16  17
BRANCH  16  20
HETATM   20  C17 UNL     1       9.428  13.621   1.307  1.00  0.00     0.175 C 
BRANCH  20  21
HETATM   21  C18 UNL     1       9.270  13.204  -0.150  1.00  0.00     0.034 A 
HETATM   22  C19 UNL     1       9.747  11.993  -0.593  1.00  0.00     0.078 A 
HETATM   23  S1  UNL     1       9.324  12.039  -2.244  1.00  0.00    -0.087 SA
HETATM   24  C20 UNL     1       8.576  13.572  -2.277  1.00  0.00     0.047 A 
HETATM   25  C21 UNL     1       7.939  14.304  -3.436  1.00  0.00     0.076 C 
HETATM   26  N6  UNL     1       8.688  13.971  -1.021  1.00  0.00    -0.356 N 
ATOM     27  H6  UNL     1       8.318  14.879  -0.737  1.00  0.00     0.166 HD
ENDBRANCH  20  21
ENDBRANCH  16  20
ENDBRANCH  15  16
ENDBRANCH  14  15
ENDBRANCH   1  13
BRANCH  12  28
HETATM   28  C15 UNL     1       7.418   8.423   1.688  1.00  0.00     0.036 C 
HETATM   29  C16 UNL     1       8.048   8.809   0.371  1.00  0.00     0.010 C 
ENDBRANCH  12  28
BRANCH  10  30
HETATM   30  N5  UNL     1       7.119   5.956   1.543  1.00  0.00    -0.384 N 
ATOM     31  H52 UNL     1       7.601   6.173   2.416  1.00  0.00     0.157 HD
ATOM     32  H51 UNL     1       7.647   5.719   0.703  1.00  0.00     0.157 HD
ENDBRANCH  10  30
BRANCH   7  33
HETATM   33  N3  UNL     1       3.156   3.684   1.414  1.00  0.00    -0.234 N 
ATOM     34  H32 UNL     1       2.480   3.534   0.666  1.00  0.00     0.174 HD
ATOM     35  H31 UNL     1       3.321   2.938   2.090  1.00  0.00     0.174 HD
ENDBRANCH   7  33
TORSDOF 10
ENDMDL
MODEL 5
REMARK VINA RESULT: -6.195496400      2.425      4.335
REMARK  10 active torsions:
REMARK  status: ('A' for Active; 'I' for Inactive)
REMARK    1  A    between atoms: C2_2  and  C3_3 
REMARK    2  A    between atoms: C3_3  and  N1_4 
REMARK    3  A    between atoms: N1_4  and  C4_5 
REMARK    4  A    between atoms: N1_4  and  C17_28 
REMARK    5  A    between atoms: C4_5  and  C5_6 
REMARK    6  A    between atoms: C6_7  and  C7_8 
REMARK    7  A    between atoms: C11_14  and  N3_15 
REMARK    8  A    between atoms: C12_20  and  N5_21 
REMARK    9  A    between atoms: C14_25  and  C15_26 
REMARK   10  A    between atoms: C17_28  and  C18_29 
ROOT
HETATM    1  C7  UNL     1       6.032   5.583   1.611  1.00  0.00     0.025 A 
HETATM    2  C8  UNL     1       6.807   4.468   1.827  1.00  0.00     0.023 A 
HETATM    3  C9  UNL     1       6.276   3.231   1.675  1.00  0.00     0.032 A 
HETATM    4  C10 UNL     1       4.960   3.091   1.301  1.00  0.00     0.063 A 
HETATM    5  N2  UNL     1       4.465   1.843   1.153  1.00  0.00    -0.191 N 
ATOM      6  H2  UNL     1       5.061   1.033   1.322  1.00  0.00     0.184 HD
HETATM    7  C11 UNL     1       3.193   1.672   0.784  1.00  0.00     0.677 A 
HETATM    8  N4  UNL     1       2.430   2.747   0.569  1.00  0.00    -0.176 N 
ATOM      9  H4  UNL     1       1.459   2.613   0.287  1.00  0.00     0.186 HD
HETATM   10  C12 UNL     1       2.899   4.004   0.711  1.00  0.00     0.127 A 
HETATM   11  C13 UNL     1       4.199   4.228   1.088  1.00  0.00     0.043 A 
HETATM   12  C14 UNL     1       4.677   5.522   1.227  1.00  0.00    -0.024 A 
ENDROOT
BRANCH   1  13
HETATM   13  C6  UNL     1       6.603   6.905   1.776  1.00  0.00    -0.065 C 
HETATM   14  C5  UNL     1       7.102   8.004   1.911  1.00  0.00    -0.082 C 
BRANCH  14  15
HETATM   15  C4  UNL     1       7.730   9.334   2.058  1.00  0.00     0.212 C 
BRANCH  15  16
HETATM   16  N1  UNL     1       9.128   9.120   2.187  1.00  0.00    -0.397 N 
BRANCH  16  17
HETATM   17  C3  UNL     1       9.790   9.817   3.236  1.00  0.00     0.118 C 
BRANCH  17  18
HETATM   18  C2  UNL     1       8.884  10.758   3.996  1.00  0.00     0.015 C 
HETATM   19  C1  UNL     1       9.116  10.683   5.486  1.00  0.00     0.006 C 
ENDBRANCH  17  18
ENDBRANCH  16  17
BRANCH  16  20
HETATM   20  C17 UNL     1       9.876   8.996   0.983  1.00  0.00     0.175 C 
BRANCH  20  21
HETATM   21  C18 UNL     1       9.789  10.300   0.197  1.00  0.00     0.034 A 
HETATM   22  C19 UNL     1       8.997  10.396  -0.924  1.00  0.00     0.078 A 
HETATM   23  S1  UNL     1       9.266  12.012  -1.396  1.00  0.00    -0.087 SA
HETATM   24  C20 UNL     1      10.352  12.466  -0.161  1.00  0.00     0.047 A 
HETATM   25  C21 UNL     1      11.034  13.794   0.077  1.00  0.00     0.076 C 
HETATM   26  N6  UNL     1      10.454  11.356   0.551  1.00  0.00    -0.356 N 
ATOM     27  H6  UNL     1      11.053  11.332   1.377  1.00  0.00     0.166 HD
ENDBRANCH  20  21
ENDBRANCH  16  20
ENDBRANCH  15  16
ENDBRANCH  14  15
ENDBRANCH   1  13
BRANCH  12  28
HETATM   28  C15 UNL     1       3.887   6.729   1.003  1.00  0.00     0.036 C 
HETATM   29  C16 UNL     1       3.295   7.357   2.241  1.00  0.00     0.010 C 
ENDBRANCH  12  28
BRANCH  10  30
HETATM   30  N5  UNL     1       2.156   5.016   0.487  1.00  0.00    -0.384 N 
ATOM     31  H52 UNL     1       1.315   5.130   1.053  1.00  0.00     0.157 HD
ATOM     32  H51 UNL     1       2.398   5.701  -0.229  1.00  0.00     0.157 HD
ENDBRANCH  10  30
BRANCH   7  33
HETATM   33  N3  UNL     1       2.672   0.477   0.628  1.00  0.00    -0.234 N 
ATOM     34  H32 UNL     1       3.209  -0.238   0.137  1.00  0.00     0.174 HD
ATOM     35  H31 UNL     1       1.746   0.244   0.985  1.00  0.00     0.174 HD
ENDBRANCH   7  33
TORSDOF 10
ENDMDL
