MODEL 1
REMARK VINA RESULT: -6.625587783      0.000      0.000
REMARK  9 active torsions:
REMARK  status: ('A' for Active; 'I' for Inactive)
REMARK    1  A    between atoms: C2_2  and  C3_3 
REMARK    2  A    between atoms: C2_2  and  C4_5 
REMARK    3  A    between atoms: C4_5  and  C5_6 
REMARK    4  A    between atoms: C11_12  and  C12_13 
REMARK    5  A    between atoms: C12_13  and  O1_14 
REMARK    6  A    between atoms: C14_17  and  O2_18 
REMARK    7  A    between atoms: C15_20  and  C17_22 
REMARK    8  A    between atoms: C17_22  and  C18_23 
REMARK    9  A    between atoms: C18_23  and  O3_24 
ROOT
HETATM    1  C5  UNL     1       6.443   8.225   1.789  1.00  0.00     0.056 C 
HETATM    2  C6  UNL     1       7.842   8.113   2.268  1.00  0.00     0.021 C 
HETATM    3  C7  UNL     1       8.676   9.361   2.147  1.00  0.00    -0.039 C 
HETATM    4  C8  UNL     1       9.369   9.523   3.510  1.00  0.00     0.015 C 
HETATM    5  C9  UNL     1       9.739   9.211   1.121  1.00  0.00     0.010 C 
HETATM    6  C10 UNL     1       9.820  10.254   0.065  1.00  0.00     0.013 C 
HETATM    7  C11 UNL     1       9.836  11.612   0.728  1.00  0.00    -0.012 C 
HETATM    8  C13 UNL     1       9.458  12.734  -0.190  1.00  0.00     0.044 C 
HETATM    9  C14 UNL     1       8.831  13.807   0.697  1.00  0.00     0.127 C 
HETATM   10  C15 UNL     1       8.387  13.143   1.965  1.00  0.00    -0.011 C 
HETATM   11  C16 UNL     1       6.868  13.268   1.973  1.00  0.00     0.018 C 
HETATM   12  C19 UNL     1       8.872  11.738   1.871  1.00  0.00     0.012 C 
HETATM   13  C20 UNL     1       7.862  10.643   1.968  1.00  0.00     0.006 C 
HETATM   14  C21 UNL     1       6.840  10.529   0.895  1.00  0.00     0.084 C 
HETATM   15  C22 UNL     1       6.517   9.109   0.587  1.00  0.00     0.131 C 
HETATM   16  O4  UNL     1       6.344   8.778  -0.550  1.00  0.00    -0.298 OA
ENDROOT
BRANCH   1  17
HETATM   17  C4  UNL     1       5.775   6.958   1.416  1.00  0.00     0.017 C 
BRANCH  17  18
HETATM   18  C2  UNL     1       4.317   6.941   1.170  1.00  0.00    -0.008 C 
HETATM   19  C1  UNL     1       3.440   7.766   2.053  1.00  0.00     0.011 C 
BRANCH  18  20
HETATM   20  C3  UNL     1       3.843   5.480   1.352  1.00  0.00     0.090 C 
HETATM   21  S1  UNL     1       5.329   4.444   1.324  1.00  0.00    -0.097 SA
ENDBRANCH  18  20
ENDBRANCH  17  18
ENDBRANCH   1  17
BRANCH   7  22
HETATM   22  C12 UNL     1      11.294  11.838   1.153  1.00  0.00     0.174 C 
BRANCH  22  23
HETATM   23  O1  UNL     1      11.921  12.731   0.290  1.00  0.00    -0.400 OA
ATOM     24  H1  UNL     1      12.787  12.417   0.057  1.00  0.00     0.209 HD
ENDBRANCH  22  23
ENDBRANCH   7  22
BRANCH  10  25
HETATM   25  C17 UNL     1       8.861  13.782   3.230  1.00  0.00     0.038 C 
BRANCH  25  26
HETATM   26  C18 UNL     1       9.179  12.924   4.381  1.00  0.00     0.165 C 
BRANCH  26  27
HETATM   27  O3  UNL     1       8.830  13.665   5.549  1.00  0.00    -0.401 OA
ATOM     28  H3  UNL     1       9.537  13.541   6.170  1.00  0.00     0.209 HD
ENDBRANCH  26  27
ENDBRANCH  25  26
ENDBRANCH  10  25
BRANCH   9  29
HETATM   29  O2  UNL     1       9.704  14.841   0.813  1.00  0.00    -0.395 OA
ATOM     30  H2  UNL     1       9.490  15.333   1.597  1.00  0.00     0.210 HD
ENDBRANCH   9  29
TORSDOF 9
ENDMDL
MODEL 2
REMARK VINA RESULT: -6.273219224      1.573      3.264
REMARK  9 active torsions:
REMARK  status: ('A' for Active; 'I' for Inactive)
REMARK    1  A    between atoms: C2_2  and  C3_3 
REMARK    2  A    between atoms: C2_2  and  C4_5 
REMARK    3  A    between atoms: C4_5  and  C5_6 
REMARK    4  A    between atoms: C11_12  and  C12_13 
REMARK    5  A    between atoms: C12_13  and  O1_14 
REMARK    6  A    between atoms: C14_17  and  O2_18 
REMARK    7  A    between atoms: C15_20  and  C17_22 
REMARK    8  A    between atoms: C17_22  and  C18_23 
REMARK    9  A    between atoms: C18_23  and  O3_24 
ROOT
HETATM    1  C5  UNL     1       6.288   8.950   0.997  1.00  0.00     0.056 C 
HETATM    2  C6  UNL     1       6.118  10.106   1.909  1.00  0.00     0.021 C 
HETATM    3  C7  UNL     1       7.133  11.209   1.763  1.00  0.00    -0.039 C 
HETATM    4  C8  UNL     1       6.317  12.512   1.719  1.00  0.00     0.015 C 
HETATM    5  C9  UNL     1       8.032  11.284   2.943  1.00  0.00     0.010 C 
HETATM    6  C10 UNL     1       9.496  11.260   2.688  1.00  0.00     0.013 C 
HETATM    7  C11 UNL     1       9.820  12.300   1.638  1.00  0.00    -0.012 C 
HETATM    8  C13 UNL     1      11.139  12.080   0.963  1.00  0.00     0.044 C 
HETATM    9  C14 UNL     1      10.995  12.670  -0.438  1.00  0.00     0.127 C 
HETATM   10  C15 UNL     1       9.530  12.751  -0.746  1.00  0.00    -0.011 C 
HETATM   11  C16 UNL     1       9.311  11.790  -1.908  1.00  0.00     0.018 C 
HETATM   12  C19 UNL     1       8.836  12.344   0.507  1.00  0.00     0.012 C 
HETATM   13  C20 UNL     1       7.899  11.183   0.441  1.00  0.00     0.006 C 
HETATM   14  C21 UNL     1       8.458   9.842   0.126  1.00  0.00     0.084 C 
HETATM   15  C22 UNL     1       7.765   8.763   0.882  1.00  0.00     0.131 C 
HETATM   16  O4  UNL     1       8.402   7.854   1.330  1.00  0.00    -0.298 OA
ENDROOT
BRANCH   1  17
HETATM   17  C4  UNL     1       5.671   7.677   1.431  1.00  0.00     0.017 C 
BRANCH  17  18
HETATM   18  C2  UNL     1       4.238   7.426   1.165  1.00  0.00    -0.008 C 
HETATM   19  C1  UNL     1       3.233   7.985   2.117  1.00  0.00     0.011 C 
BRANCH  18  20
HETATM   20  C3  UNL     1       4.034   5.893   1.189  1.00  0.00     0.090 C 
HETATM   21  S1  UNL     1       5.666   5.155   1.460  1.00  0.00    -0.097 SA
ENDBRANCH  18  20
ENDBRANCH  17  18
ENDBRANCH   1  17
BRANCH   7  22
HETATM   22  C12 UNL     1       9.910  13.630   2.400  1.00  0.00     0.174 C 
BRANCH  22  23
HETATM   23  O1  UNL     1      11.218  14.106   2.398  1.00  0.00    -0.400 OA
ATOM     24  H1  UNL     1      11.228  15.052   2.314  1.00  0.00     0.209 HD
ENDBRANCH  22  23
ENDBRANCH   7  22
BRANCH  10  25
HETATM   25  C17 UNL     1       9.040  14.083  -1.213  1.00  0.00     0.038 C 
BRANCH  25  26
HETATM   26  C18 UNL     1       9.038  14.372  -2.655  1.00  0.00     0.165 C 
BRANCH  26  27
HETATM   27  O3  UNL     1      10.264  15.044  -2.936  1.00  0.00    -0.401 OA
ATOM     28  H3  UNL     1      10.676  14.569  -3.649  1.00  0.00     0.209 HD
ENDBRANCH  26  27
ENDBRANCH  25  26
ENDBRANCH  10  25
BRANCH   9  29
HETATM   29  O2  UNL     1      11.704  13.826  -0.499  1.00  0.00    -0.395 OA
ATOM     30  H2  UNL     1      11.852  14.046  -1.412  1.00  0.00     0.210 HD
ENDBRANCH   9  29
TORSDOF 9
ENDMDL
MODEL 3
REMARK VINA RESULT: -6.138795684      0.849      1.099
REMARK  9 active torsions:
REMARK  status: ('A' for Active; 'I' for Inactive)
REMARK    1  A    between atoms: C2_2  and  C3_3 
REMARK    2  A    between atoms: C2_2  and  C4_5 
REMARK    3  A    between atoms: C4_5  and  C5_6 
REMARK    4  A    between atoms: C11_12  and  C12_13 
REMARK    5  A    between atoms: C12_13  and  O1_14 
REMARK    6  A    between atoms: C14_17  and  O2_18 
REMARK    7  A    between atoms: C15_20  and  C17_22 
REMARK    8  A    between atoms: C17_22  and  C18_23 
REMARK    9  A    between atoms: C18_23  and  O3_24 
ROOT
HETATM    1  C5  UNL     1       6.056   8.026   1.448  1.00  0.00     0.056 C 
HETATM    2  C6  UNL     1       7.430   7.744   1.929  1.00  0.00     0.021 C 
HETATM    3  C7  UNL     1       8.356   8.929   1.989  1.00  0.00    -0.039 C 
HETATM    4  C8  UNL     1       9.026   8.855   3.372  1.00  0.00     0.015 C 
HETATM    5  C9  UNL     1       9.431   8.835   0.968  1.00  0.00     0.010 C 
HETATM    6  C10 UNL     1       9.615   9.999   0.062  1.00  0.00     0.013 C 
HETATM    7  C11 UNL     1       9.716  11.253   0.902  1.00  0.00    -0.012 C 
HETATM    8  C13 UNL     1       9.445  12.511   0.137  1.00  0.00     0.044 C 
HETATM    9  C14 UNL     1       8.877  13.503   1.150  1.00  0.00     0.127 C 
HETATM   10  C15 UNL     1       8.354  12.713   2.311  1.00  0.00    -0.011 C 
HETATM   11  C16 UNL     1       6.849  12.952   2.313  1.00  0.00     0.018 C 
HETATM   12  C19 UNL     1       8.736  11.300   2.037  1.00  0.00     0.012 C 
HETATM   13  C20 UNL     1       7.645  10.282   1.971  1.00  0.00     0.006 C 
HETATM   14  C21 UNL     1       6.644  10.390   0.878  1.00  0.00     0.084 C 
HETATM   15  C22 UNL     1       6.224   9.052   0.377  1.00  0.00     0.131 C 
HETATM   16  O4  UNL     1       6.056   8.889  -0.796  1.00  0.00    -0.298 OA
ENDROOT
BRANCH   1  17
HETATM   17  C4  UNL     1       5.305   6.874   0.900  1.00  0.00     0.017 C 
BRANCH  17  18
HETATM   18  C2  UNL     1       5.203   5.623   1.682  1.00  0.00    -0.008 C 
HETATM   19  C1  UNL     1       6.170   4.524   1.389  1.00  0.00     0.011 C 
BRANCH  18  20
HETATM   20  C3  UNL     1       3.800   5.032   1.412  1.00  0.00     0.090 C 
HETATM   21  S1  UNL     1       4.042   3.284   1.002  1.00  0.00    -0.097 SA
ENDBRANCH  18  20
ENDBRANCH  17  18
ENDBRANCH   1  17
BRANCH   7  22
HETATM   22  C12 UNL     1      11.175  11.307   1.375  1.00  0.00     0.174 C 
BRANCH  22  23
HETATM   23  O1  UNL     1      11.859  12.335   0.731  1.00  0.00    -0.400 OA
ATOM     24  H1  UNL     1      12.468  12.754   1.327  1.00  0.00     0.209 HD
ENDBRANCH  22  23
ENDBRANCH   7  22
BRANCH  10  25
HETATM   25  C17 UNL     1       8.842  13.140   3.657  1.00  0.00     0.038 C 
BRANCH  25  26
HETATM   26  C18 UNL     1       9.211  12.109   4.638  1.00  0.00     0.165 C 
BRANCH  26  27
HETATM   27  O3  UNL     1       9.217  12.745   5.914  1.00  0.00    -0.401 OA
ATOM     28  H3  UNL     1       9.603  13.604   5.787  1.00  0.00     0.209 HD
ENDBRANCH  26  27
ENDBRANCH  25  26
ENDBRANCH  10  25
BRANCH   9  29
HETATM   29  O2  UNL     1       9.821  14.442   1.417  1.00  0.00    -0.395 OA
ATOM     30  H2  UNL     1      10.000  14.438   2.350  1.00  0.00     0.210 HD
ENDBRANCH   9  29
TORSDOF 9
ENDMDL
MODEL 4
REMARK VINA RESULT: -5.759497992      1.278      1.466
REMARK  9 active torsions:
REMARK  status: ('A' for Active; 'I' for Inactive)
REMARK    1  A    between atoms: C2_2  and  C3_3 
REMARK    2  A    between atoms: C2_2  and  C4_5 
REMARK    3  A    between atoms: C4_5  and  C5_6 
REMARK    4  A    between atoms: C11_12  and  C12_13 
REMARK    5  A    between atoms: C12_13  and  O1_14 
REMARK    6  A    between atoms: C14_17  and  O2_18 
REMARK    7  A    between atoms: C15_20  and  C17_22 
REMARK    8  A    between atoms: C17_22  and  C18_23 
REMARK    9  A    between atoms: C18_23  and  O3_24 
ROOT
HETATM    1  C5  UNL     1       7.268   8.947   2.017  1.00  0.00     0.056 C 
HETATM    2  C6  UNL     1       8.414   9.265   2.903  1.00  0.00     0.021 C 
HETATM    3  C7  UNL     1       9.075  10.596   2.664  1.00  0.00    -0.039 C 
HETATM    4  C8  UNL     1       9.224  11.234   4.056  1.00  0.00     0.015 C 
HETATM    5  C9  UNL     1      10.439  10.435   2.099  1.00  0.00     0.010 C 
HETATM    6  C10 UNL     1      10.753  11.179   0.851  1.00  0.00     0.013 C 
HETATM    7  C11 UNL     1      10.368  12.629   1.044  1.00  0.00    -0.012 C 
HETATM    8  C13 UNL     1      10.198  13.380  -0.241  1.00  0.00     0.044 C 
HETATM    9  C14 UNL     1       9.172  14.474   0.048  1.00  0.00     0.127 C 
HETATM   10  C15 UNL     1       8.400  14.061   1.264  1.00  0.00    -0.011 C 
HETATM   11  C16 UNL     1       6.971  13.849   0.780  1.00  0.00     0.018 C 
HETATM   12  C19 UNL     1       9.058  12.817   1.751  1.00  0.00     0.012 C 
HETATM   13  C20 UNL     1       8.223  11.585   1.870  1.00  0.00     0.006 C 
HETATM   14  C21 UNL     1       7.661  10.992   0.628  1.00  0.00     0.084 C 
HETATM   15  C22 UNL     1       7.645   9.504   0.684  1.00  0.00     0.131 C 
HETATM   16  O4  UNL     1       7.923   8.875  -0.296  1.00  0.00    -0.298 OA
ENDROOT
BRANCH   1  17
HETATM   17  C4  UNL     1       6.935   7.513   1.866  1.00  0.00     0.017 C 
BRANCH  17  18
HETATM   18  C2  UNL     1       5.662   7.119   1.226  1.00  0.00    -0.008 C 
HETATM   19  C1  UNL     1       4.408   7.802   1.663  1.00  0.00     0.011 C 
BRANCH  18  20
HETATM   20  C3  UNL     1       5.449   5.616   1.528  1.00  0.00     0.090 C 
HETATM   21  S1  UNL     1       3.729   5.239   1.102  1.00  0.00    -0.097 SA
ENDBRANCH  18  20
ENDBRANCH  17  18
ENDBRANCH   1  17
BRANCH   7  22
HETATM   22  C12 UNL     1      11.546  13.265   1.796  1.00  0.00     0.174 C 
BRANCH  22  23
HETATM   23  O1  UNL     1      12.416  13.885   0.904  1.00  0.00    -0.400 OA
ATOM     24  H1  UNL     1      13.281  13.968   1.287  1.00  0.00     0.209 HD
ENDBRANCH  22  23
ENDBRANCH   7  22
BRANCH  10  25
HETATM   25  C17 UNL     1       8.319  15.078   2.356  1.00  0.00     0.038 C 
BRANCH  25  26
HETATM   26  C18 UNL     1       7.263  14.947   3.370  1.00  0.00     0.165 C 
BRANCH  26  27
HETATM   27  O3  UNL     1       7.914  14.621   4.596  1.00  0.00    -0.401 OA
ATOM     28  H3  UNL     1       8.622  15.246   4.701  1.00  0.00     0.209 HD
ENDBRANCH  26  27
ENDBRANCH  25  26
ENDBRANCH  10  25
BRANCH   9  29
HETATM   29  O2  UNL     1       9.814  15.670   0.100  1.00  0.00    -0.395 OA
ATOM     30  H2  UNL     1       9.305  16.310  -0.384  1.00  0.00     0.210 HD
ENDBRANCH   9  29
TORSDOF 9
ENDMDL
MODEL 5
REMARK VINA RESULT: -5.679715339      1.793      2.200
REMARK  9 active torsions:
REMARK  status: ('A' for Active; 'I' for Inactive)
REMARK    1  A    between atoms: C2_2  and  C3_3 
REMARK    2  A    between atoms: C2_2  and  C4_5 
REMARK    3  A    between atoms: C4_5  and  C5_6 
REMARK    4  A    between atoms: C11_12  and  C12_13 
REMARK    5  A    between atoms: C12_13  and  O1_14 
REMARK    6  A    between atoms: C14_17  and  O2_18 
REMARK    7  A    between atoms: C15_20  and  C17_22 
REMARK    8  A    between atoms: C17_22  and  C18_23 
REMARK    9  A    between atoms: C18_23  and  O3_24 
ROOT
HETATM    1  C5  UNL     1       7.368   9.286   1.885  1.00  0.00     0.056 C 
HETATM    2  C6  UNL     1       8.428   9.663   2.850  1.00  0.00     0.021 C 
HETATM    3  C7  UNL     1       9.137  10.961   2.568  1.00  0.00    -0.039 C 
HETATM    4  C8  UNL     1       9.162  11.713   3.910  1.00  0.00     0.015 C 
HETATM    5  C9  UNL     1      10.547  10.735   2.157  1.00  0.00     0.010 C 
HETATM    6  C10 UNL     1      10.997  11.366   0.889  1.00  0.00     0.013 C 
HETATM    7  C11 UNL     1      10.625  12.831   0.921  1.00  0.00    -0.012 C 
HETATM    8  C13 UNL     1      10.597  13.473  -0.433  1.00  0.00     0.044 C 
HETATM    9  C14 UNL     1       9.571  14.600  -0.340  1.00  0.00     0.127 C 
HETATM   10  C15 UNL     1       8.675  14.302   0.824  1.00  0.00    -0.011 C 
HETATM   11  C16 UNL     1       7.297  14.067   0.219  1.00  0.00     0.018 C 
HETATM   12  C19 UNL     1       9.257  13.095   1.476  1.00  0.00     0.012 C 
HETATM   13  C20 UNL     1       8.388  11.889   1.613  1.00  0.00     0.006 C 
HETATM   14  C21 UNL     1       7.939  11.199   0.376  1.00  0.00     0.084 C 
HETATM   15  C22 UNL     1       7.886   9.722   0.554  1.00  0.00     0.131 C 
HETATM   16  O4  UNL     1       8.245   9.008  -0.338  1.00  0.00    -0.298 OA
ENDROOT
BRANCH   1  17
HETATM   17  C4  UNL     1       7.021   7.848   1.821  1.00  0.00     0.017 C 
BRANCH  17  18
HETATM   18  C2  UNL     1       5.736   7.429   1.222  1.00  0.00    -0.008 C 
HETATM   19  C1  UNL     1       4.486   8.103   1.683  1.00  0.00     0.011 C 
BRANCH  18  20
HETATM   20  C3  UNL     1       5.551   5.929   1.552  1.00  0.00     0.090 C 
HETATM   21  S1  UNL     1       3.831   5.519   1.159  1.00  0.00    -0.097 SA
ENDBRANCH  18  20
ENDBRANCH  17  18
ENDBRANCH   1  17
BRANCH   7  22
HETATM   22  C12 UNL     1      11.737  13.514   1.730  1.00  0.00     0.174 C 
BRANCH  22  23
HETATM   23  O1  UNL     1      12.660  14.116   0.880  1.00  0.00    -0.400 OA
ATOM     24  H1  UNL     1      12.731  15.044   1.070  1.00  0.00     0.209 HD
ENDBRANCH  22  23
ENDBRANCH   7  22
BRANCH  10  25
HETATM   25  C17 UNL     1       8.510  15.409   1.814  1.00  0.00     0.038 C 
BRANCH  25  26
HETATM   26  C18 UNL     1       7.439  16.395   1.601  1.00  0.00     0.165 C 
BRANCH  26  27
HETATM   27  O3  UNL     1       8.041  17.516   0.958  1.00  0.00    -0.401 OA
ATOM     28  H3  UNL     1       8.372  17.204   0.123  1.00  0.00     0.209 HD
ENDBRANCH  26  27
ENDBRANCH  25  26
ENDBRANCH  10  25
BRANCH   9  29
HETATM   29  O2  UNL     1      10.230  15.788  -0.324  1.00  0.00    -0.395 OA
ATOM     30  H2  UNL     1      10.146  16.171   0.542  1.00  0.00     0.210 HD
ENDBRANCH   9  29
TORSDOF 9
ENDMDL
