MODEL 1
REMARK VINA RESULT: -6.694646012      0.000      0.000
REMARK  6 active torsions:
REMARK  status: ('A' for Active; 'I' for Inactive)
REMARK    1  A    between atoms: C2_2  and  C3_3 
REMARK    2  A    between atoms: C3_3  and  N1_4 
REMARK    3  A    between atoms: N1_4  and  C4_6 
REMARK    4  A    between atoms: C5_9  and  N3_10 
REMARK    5  A    between atoms: C6_12  and  C7_13 
REMARK    6  A    between atoms: C7_13  and  C8_14 
ROOT
HETATM    1  C4  UNL     1       5.500  51.641  73.983  1.00  0.00     0.125 A 
HETATM    2  N2  UNL     1       6.662  51.260  73.493  1.00  0.00    -0.176 N 
ATOM      3  H2  UNL     1       7.134  50.486  73.960  1.00  0.00     0.186 HD
HETATM    4  C5  UNL     1       7.295  51.821  72.398  1.00  0.00     0.683 A 
HETATM    5  N4  UNL     1       6.643  52.829  71.818  1.00  0.00    -0.195 N 
ATOM      6  H4  UNL     1       7.059  53.284  71.006  1.00  0.00     0.184 HD
HETATM    7  C10 UNL     1       5.432  53.272  72.280  1.00  0.00     0.037 A 
HETATM    8  C11 UNL     1       4.834  52.700  73.361  1.00  0.00     0.014 A 
HETATM    9  C12 UNL     1       3.550  53.343  73.667  1.00  0.00     0.029 C 
HETATM   10  C13 UNL     1       2.339  52.503  73.332  1.00  0.00     0.010 C 
HETATM   11  C14 UNL     1       1.331  53.598  72.959  1.00  0.00     0.001 C 
HETATM   12  C15 UNL     1       2.124  54.512  72.084  1.00  0.00     0.005 C 
HETATM   13  C16 UNL     1       3.506  54.533  72.748  1.00  0.00    -0.000 C 
HETATM   14  C17 UNL     1       4.586  54.369  71.751  1.00  0.00     0.063 C 
ENDROOT
BRANCH   4  15
HETATM   15  N3  UNL     1       8.380  51.340  72.074  1.00  0.00    -0.205 N 
HETATM   16  C6  UNL     1       9.019  50.168  71.828  1.00  0.00     0.079 C 
ATOM     17  H3  UNL     1       9.044  52.103  71.943  1.00  0.00     0.183 HD
BRANCH  16  18
HETATM   18  C7  UNL     1       8.291  48.853  72.033  1.00  0.00     0.045 C 
BRANCH  18  19
HETATM   19  C8  UNL     1       9.118  47.799  71.294  1.00  0.00     0.001 C 
HETATM   20  C9  UNL     1       8.191  46.839  70.598  1.00  0.00     0.005 C 
ENDBRANCH  18  19
ENDBRANCH  16  18
ENDBRANCH   4  15
BRANCH   1  21
HETATM   21  N1  UNL     1       4.922  51.110  75.003  1.00  0.00    -0.372 N 
ATOM     22  H1  UNL     1       4.284  50.332  74.834  1.00  0.00     0.161 HD
BRANCH  21  23
HETATM   23  C3  UNL     1       5.109  51.531  76.355  1.00  0.00     0.147 C 
BRANCH  23  24
HETATM   24  C2  UNL     1       3.752  51.898  76.908  1.00  0.00    -0.018 C 
HETATM   25  C1  UNL     1       3.392  51.506  78.119  1.00  0.00     0.008 C 
ENDBRANCH  23  24
ENDBRANCH  21  23
ENDBRANCH   1  21
TORSDOF 6
ENDMDL
MODEL 2
REMARK VINA RESULT: -6.408921703      2.625      4.702
REMARK  6 active torsions:
REMARK  status: ('A' for Active; 'I' for Inactive)
REMARK    1  A    between atoms: C2_2  and  C3_3 
REMARK    2  A    between atoms: C3_3  and  N1_4 
REMARK    3  A    between atoms: N1_4  and  C4_6 
REMARK    4  A    between atoms: C5_9  and  N3_10 
REMARK    5  A    between atoms: C6_12  and  C7_13 
REMARK    6  A    between atoms: C7_13  and  C8_14 
ROOT
HETATM    1  C4  UNL     1       3.499  53.764  71.458  1.00  0.00     0.125 A 
HETATM    2  N2  UNL     1       4.289  52.809  71.905  1.00  0.00    -0.176 N 
ATOM      3  H2  UNL     1       3.936  51.853  71.860  1.00  0.00     0.186 HD
HETATM    4  C5  UNL     1       5.556  52.993  72.428  1.00  0.00     0.683 A 
HETATM    5  N4  UNL     1       5.977  54.257  72.467  1.00  0.00    -0.195 N 
ATOM      6  H4  UNL     1       6.904  54.458  72.843  1.00  0.00     0.184 HD
HETATM    7  C10 UNL     1       5.204  55.294  72.019  1.00  0.00     0.037 A 
HETATM    8  C11 UNL     1       3.960  55.082  71.509  1.00  0.00     0.014 A 
HETATM    9  C12 UNL     1       3.325  56.341  71.098  1.00  0.00     0.029 C 
HETATM   10  C13 UNL     1       3.229  56.528  69.601  1.00  0.00     0.010 C 
HETATM   11  C14 UNL     1       3.353  58.054  69.500  1.00  0.00     0.001 C 
HETATM   12  C15 UNL     1       4.481  58.370  70.426  1.00  0.00     0.005 C 
HETATM   13  C16 UNL     1       4.263  57.405  71.597  1.00  0.00    -0.000 C 
HETATM   14  C17 UNL     1       5.525  56.742  71.992  1.00  0.00     0.063 C 
ENDROOT
BRANCH   4  15
HETATM   15  N3  UNL     1       6.158  51.986  72.799  1.00  0.00    -0.205 N 
HETATM   16  C6  UNL     1       7.302  51.277  72.623  1.00  0.00     0.079 C 
ATOM     17  H3  UNL     1       5.586  51.509  73.496  1.00  0.00     0.183 HD
BRANCH  16  18
HETATM   18  C7  UNL     1       8.307  51.713  71.574  1.00  0.00     0.045 C 
BRANCH  18  19
HETATM   19  C8  UNL     1       9.260  50.530  71.393  1.00  0.00     0.001 C 
HETATM   20  C9  UNL     1       8.676  49.315  72.061  1.00  0.00     0.005 C 
ENDBRANCH  18  19
ENDBRANCH  16  18
ENDBRANCH   4  15
BRANCH   1  21
HETATM   21  N1  UNL     1       2.321  53.578  70.973  1.00  0.00    -0.372 N 
ATOM     22  H1  UNL     1       1.583  54.219  71.264  1.00  0.00     0.161 HD
BRANCH  21  23
HETATM   23  C3  UNL     1       1.973  52.539  70.057  1.00  0.00     0.147 C 
BRANCH  23  24
HETATM   24  C2  UNL     1       1.869  53.161  68.684  1.00  0.00    -0.018 C 
HETATM   25  C1  UNL     1       0.814  53.887  68.353  1.00  0.00     0.008 C 
ENDBRANCH  23  24
ENDBRANCH  21  23
ENDBRANCH   1  21
TORSDOF 6
ENDMDL
MODEL 3
REMARK VINA RESULT: -6.369941789      2.576      4.642
REMARK  6 active torsions:
REMARK  status: ('A' for Active; 'I' for Inactive)
REMARK    1  A    between atoms: C2_2  and  C3_3 
REMARK    2  A    between atoms: C3_3  and  N1_4 
REMARK    3  A    between atoms: N1_4  and  C4_6 
REMARK    4  A    between atoms: C5_9  and  N3_10 
REMARK    5  A    between atoms: C6_12  and  C7_13 
REMARK    6  A    between atoms: C7_13  and  C8_14 
ROOT
HETATM    1  C4  UNL     1       3.098  52.831  71.440  1.00  0.00     0.125 A 
HETATM    2  N2  UNL     1       3.574  51.845  72.173  1.00  0.00    -0.176 N 
ATOM      3  H2  UNL     1       3.075  50.956  72.140  1.00  0.00     0.186 HD
HETATM    4  C5  UNL     1       4.694  51.914  72.983  1.00  0.00     0.683 A 
HETATM    5  N4  UNL     1       5.315  53.093  72.996  1.00  0.00    -0.195 N 
ATOM      6  H4  UNL     1       6.147  53.206  73.573  1.00  0.00     0.184 HD
HETATM    7  C10 UNL     1       4.870  54.156  72.256  1.00  0.00     0.037 A 
HETATM    8  C11 UNL     1       3.764  54.058  71.469  1.00  0.00     0.014 A 
HETATM    9  C12 UNL     1       3.482  55.323  70.778  1.00  0.00     0.029 C 
HETATM   10  C13 UNL     1       3.778  55.300  69.296  1.00  0.00     0.010 C 
HETATM   11  C14 UNL     1       4.196  56.760  69.070  1.00  0.00     0.001 C 
HETATM   12  C15 UNL     1       5.112  57.037  70.216  1.00  0.00     0.005 C 
HETATM   13  C16 UNL     1       4.453  56.298  71.387  1.00  0.00    -0.000 C 
HETATM   14  C17 UNL     1       5.444  55.520  72.161  1.00  0.00     0.063 C 
ENDROOT
BRANCH   4  15
HETATM   15  N3  UNL     1       4.999  50.894  73.600  1.00  0.00    -0.205 N 
HETATM   16  C6  UNL     1       6.033  50.058  73.875  1.00  0.00     0.079 C 
ATOM     17  H3  UNL     1       4.169  50.551  74.083  1.00  0.00     0.183 HD
BRANCH  16  18
HETATM   18  C7  UNL     1       7.380  50.280  73.214  1.00  0.00     0.045 C 
BRANCH  18  19
HETATM   19  C8  UNL     1       7.920  48.886  72.889  1.00  0.00     0.001 C 
HETATM   20  C9  UNL     1       8.836  48.974  71.698  1.00  0.00     0.005 C 
ENDBRANCH  18  19
ENDBRANCH  16  18
ENDBRANCH   4  15
BRANCH   1  21
HETATM   21  N1  UNL     1       2.054  52.753  70.690  1.00  0.00    -0.372 N 
ATOM     22  H1  UNL     1       1.342  53.476  70.794  1.00  0.00     0.161 HD
BRANCH  21  23
HETATM   23  C3  UNL     1       1.821  51.727  69.725  1.00  0.00     0.147 C 
BRANCH  23  24
HETATM   24  C2  UNL     1       1.521  52.403  68.408  1.00  0.00    -0.018 C 
HETATM   25  C1  UNL     1       0.745  53.473  68.364  1.00  0.00     0.008 C 
ENDBRANCH  23  24
ENDBRANCH  21  23
ENDBRANCH   1  21
TORSDOF 6
ENDMDL
MODEL 4
REMARK VINA RESULT: -6.369819497      2.155      3.535
REMARK  6 active torsions:
REMARK  status: ('A' for Active; 'I' for Inactive)
REMARK    1  A    between atoms: C2_2  and  C3_3 
REMARK    2  A    between atoms: C3_3  and  N1_4 
REMARK    3  A    between atoms: N1_4  and  C4_6 
REMARK    4  A    between atoms: C5_9  and  N3_10 
REMARK    5  A    between atoms: C6_12  and  C7_13 
REMARK    6  A    between atoms: C7_13  and  C8_14 
ROOT
HETATM    1  C4  UNL     1       3.350  51.765  72.640  1.00  0.00     0.125 A 
HETATM    2  N2  UNL     1       4.183  50.816  73.016  1.00  0.00    -0.176 N 
ATOM      3  H2  UNL     1       3.790  49.891  73.191  1.00  0.00     0.186 HD
HETATM    4  C5  UNL     1       5.547  50.969  73.195  1.00  0.00     0.683 A 
HETATM    5  N4  UNL     1       6.018  52.193  72.957  1.00  0.00    -0.195 N 
ATOM      6  H4  UNL     1       7.016  52.369  73.071  1.00  0.00     0.184 HD
HETATM    7  C10 UNL     1       5.203  53.221  72.563  1.00  0.00     0.037 A 
HETATM    8  C11 UNL     1       3.864  53.040  72.397  1.00  0.00     0.014 A 
HETATM    9  C12 UNL     1       3.203  54.282  71.976  1.00  0.00     0.029 C 
HETATM   10  C13 UNL     1       2.752  54.286  70.533  1.00  0.00     0.010 C 
HETATM   11  C14 UNL     1       2.913  55.774  70.193  1.00  0.00     0.001 C 
HETATM   12  C15 UNL     1       4.245  56.118  70.773  1.00  0.00     0.005 C 
HETATM   13  C16 UNL     1       4.279  55.327  72.085  1.00  0.00    -0.000 C 
HETATM   14  C17 UNL     1       5.569  54.625  72.260  1.00  0.00     0.063 C 
ENDROOT
BRANCH   4  15
HETATM   15  N3  UNL     1       6.177  49.974  73.550  1.00  0.00    -0.205 N 
HETATM   16  C6  UNL     1       7.355  49.318  73.386  1.00  0.00     0.079 C 
ATOM     17  H3  UNL     1       5.605  49.450  74.211  1.00  0.00     0.183 HD
BRANCH  16  18
HETATM   18  C7  UNL     1       8.372  49.830  72.385  1.00  0.00     0.045 C 
BRANCH  18  19
HETATM   19  C8  UNL     1       8.882  48.595  71.640  1.00  0.00     0.001 C 
HETATM   20  C9  UNL     1       8.592  47.366  72.458  1.00  0.00     0.005 C 
ENDBRANCH  18  19
ENDBRANCH  16  18
ENDBRANCH   4  15
BRANCH   1  21
HETATM   21  N1  UNL     1       2.082  51.608  72.478  1.00  0.00    -0.372 N 
ATOM     22  H1  UNL     1       1.464  52.329  72.852  1.00  0.00     0.161 HD
BRANCH  21  23
HETATM   23  C3  UNL     1       1.478  50.498  71.812  1.00  0.00     0.147 C 
BRANCH  23  24
HETATM   24  C2  UNL     1       1.814  50.613  70.344  1.00  0.00    -0.018 C 
HETATM   25  C1  UNL     1       0.949  51.144  69.496  1.00  0.00     0.008 C 
ENDBRANCH  23  24
ENDBRANCH  21  23
ENDBRANCH   1  21
TORSDOF 6
ENDMDL
MODEL 5
REMARK VINA RESULT: -6.332431542      2.718      5.330
REMARK  6 active torsions:
REMARK  status: ('A' for Active; 'I' for Inactive)
REMARK    1  A    between atoms: C2_2  and  C3_3 
REMARK    2  A    between atoms: C3_3  and  N1_4 
REMARK    3  A    between atoms: N1_4  and  C4_6 
REMARK    4  A    between atoms: C5_9  and  N3_10 
REMARK    5  A    between atoms: C6_12  and  C7_13 
REMARK    6  A    between atoms: C7_13  and  C8_14 
ROOT
HETATM    1  C4  UNL     1       3.603  54.030  71.385  1.00  0.00     0.125 A 
HETATM    2  N2  UNL     1       4.455  53.098  71.762  1.00  0.00    -0.176 N 
ATOM      3  H2  UNL     1       4.144  52.128  71.701  1.00  0.00     0.186 HD
HETATM    4  C5  UNL     1       5.736  53.324  72.232  1.00  0.00     0.683 A 
HETATM    5  N4  UNL     1       6.102  54.604  72.296  1.00  0.00    -0.195 N 
ATOM      6  H4  UNL     1       7.035  54.835  72.635  1.00  0.00     0.184 HD
HETATM    7  C10 UNL     1       5.262  55.618  71.919  1.00  0.00     0.037 A 
HETATM    8  C11 UNL     1       4.006  55.365  71.460  1.00  0.00     0.014 A 
HETATM    9  C12 UNL     1       3.296  56.605  71.123  1.00  0.00     0.029 C 
HETATM   10  C13 UNL     1       3.121  56.836  69.639  1.00  0.00     0.010 C 
HETATM   11  C14 UNL     1       3.172  58.369  69.585  1.00  0.00     0.001 C 
HETATM   12  C15 UNL     1       4.327  58.707  70.468  1.00  0.00     0.005 C 
HETATM   13  C16 UNL     1       4.208  57.696  71.614  1.00  0.00    -0.000 C 
HETATM   14  C17 UNL     1       5.516  57.079  71.928  1.00  0.00     0.063 C 
ENDROOT
BRANCH   4  15
HETATM   15  N3  UNL     1       6.399  52.334  72.541  1.00  0.00    -0.205 N 
HETATM   16  C6  UNL     1       6.348  51.160  73.221  1.00  0.00     0.079 C 
ATOM     17  H3  UNL     1       7.330  52.432  72.135  1.00  0.00     0.183 HD
BRANCH  16  18
HETATM   18  C7  UNL     1       5.101  50.794  74.002  1.00  0.00     0.045 C 
BRANCH  18  19
HETATM   19  C8  UNL     1       5.228  51.507  75.350  1.00  0.00     0.001 C 
HETATM   20  C9  UNL     1       3.870  51.987  75.786  1.00  0.00     0.005 C 
ENDBRANCH  18  19
ENDBRANCH  16  18
ENDBRANCH   4  15
BRANCH   1  21
HETATM   21  N1  UNL     1       2.412  53.805  70.948  1.00  0.00    -0.372 N 
ATOM     22  H1  UNL     1       1.669  54.433  71.255  1.00  0.00     0.161 HD
BRANCH  21  23
HETATM   23  C3  UNL     1       2.057  52.739  70.066  1.00  0.00     0.147 C 
BRANCH  23  24
HETATM   24  C2  UNL     1       1.863  53.334  68.691  1.00  0.00    -0.018 C 
HETATM   25  C1  UNL     1       0.820  54.106  68.435  1.00  0.00     0.008 C 
ENDBRANCH  23  24
ENDBRANCH  21  23
ENDBRANCH   1  21
TORSDOF 6
ENDMDL
