MODEL 1
REMARK VINA RESULT: -6.526480185      0.000      0.000
REMARK  5 active torsions:
REMARK  status: ('A' for Active; 'I' for Inactive)
REMARK    1  A    between atoms: C3_3  and  C4_4 
REMARK    2  A    between atoms: C4_4  and  C5_5 
REMARK    3  A    between atoms: C5_5  and  C6_6 
REMARK    4  A    between atoms: C6_6  and  N1_7 
REMARK       I    between atoms: N1_7  and  C7_9 
REMARK       I    between atoms: C7_9  and  N2_11 
REMARK    5  A    between atoms: N2_11  and  C8_13 
ROOT
HETATM    1  C1  UNL     1       7.313  45.908  69.890  1.00  0.00     0.012 C 
HETATM    2  C2  UNL     1       8.065  46.368  70.725  1.00  0.00    -0.117 C 
HETATM    3  C3  UNL     1       8.964  46.945  71.724  1.00  0.00     0.093 C 
ENDROOT
BRANCH   3   4
HETATM    4  C4  UNL     1       8.842  48.463  71.755  1.00  0.00     0.014 C 
BRANCH   4   5
HETATM    5  C5  UNL     1       7.800  48.897  72.770  1.00  0.00     0.021 C 
BRANCH   5   6
HETATM    6  C6  UNL     1       7.921  50.395  72.946  1.00  0.00     0.124 C 
BRANCH   6   7
HETATM    7  N1  UNL     1       6.656  51.038  73.114  1.00  0.00    -0.343 N 
HETATM    8  C7  UNL     1       6.334  52.268  72.487  1.00  0.00     0.316 C 
HETATM    9  O1  UNL     1       7.194  52.808  71.756  1.00  0.00    -0.247 OA
HETATM   10  N2  UNL     1       5.064  52.844  72.705  1.00  0.00    -0.334 N 
ATOM     11  H2  UNL     1       4.417  52.347  73.316  1.00  0.00     0.165 HD
ATOM     12  H1  UNL     1       5.957  50.594  73.709  1.00  0.00     0.164 HD
BRANCH  10  13
HETATM   13  C8  UNL     1       4.622  54.080  72.127  1.00  0.00     0.035 C 
HETATM   14  C9  UNL     1       4.287  53.891  70.684  1.00  0.00     0.035 C 
HETATM   15  C10 UNL     1       3.679  55.166  70.141  1.00  0.00    -0.012 C 
HETATM   16  C11 UNL     1       2.459  55.540  70.950  1.00  0.00     0.009 C 
HETATM   17  C15 UNL     1       4.694  56.290  70.203  1.00  0.00     0.009 C 
HETATM   18  C12 UNL     1       2.888  55.843  72.373  1.00  0.00    -0.012 C 
HETATM   19  C13 UNL     1       3.962  56.896  72.440  1.00  0.00     0.009 C 
HETATM   20  C17 UNL     1       3.431  54.552  72.939  1.00  0.00     0.035 C 
HETATM   21  C14 UNL     1       5.148  56.450  71.633  1.00  0.00    -0.012 C 
HETATM   22  C16 UNL     1       5.670  55.171  72.233  1.00  0.00     0.035 C 
ENDBRANCH  10  13
ENDBRANCH   6   7
ENDBRANCH   5   6
ENDBRANCH   4   5
ENDBRANCH   3   4
TORSDOF 5
ENDMDL
MODEL 2
REMARK VINA RESULT: -6.503979146      0.212      1.612
REMARK  5 active torsions:
REMARK  status: ('A' for Active; 'I' for Inactive)
REMARK    1  A    between atoms: C3_3  and  C4_4 
REMARK    2  A    between atoms: C4_4  and  C5_5 
REMARK    3  A    between atoms: C5_5  and  C6_6 
REMARK    4  A    between atoms: C6_6  and  N1_7 
REMARK       I    between atoms: N1_7  and  C7_9 
REMARK       I    between atoms: C7_9  and  N2_11 
REMARK    5  A    between atoms: N2_11  and  C8_13 
ROOT
HETATM    1  C1  UNL     1       7.296  45.932  69.899  1.00  0.00     0.012 C 
HETATM    2  C2  UNL     1       7.985  46.354  70.806  1.00  0.00    -0.117 C 
HETATM    3  C3  UNL     1       8.810  46.885  71.890  1.00  0.00     0.093 C 
ENDROOT
BRANCH   3   4
HETATM    4  C4  UNL     1       8.833  48.408  71.862  1.00  0.00     0.014 C 
BRANCH   4   5
HETATM    5  C5  UNL     1       7.804  48.979  72.820  1.00  0.00     0.021 C 
BRANCH   5   6
HETATM    6  C6  UNL     1       7.932  50.486  72.794  1.00  0.00     0.124 C 
BRANCH   6   7
HETATM    7  N1  UNL     1       6.719  51.152  73.147  1.00  0.00    -0.343 N 
HETATM    8  C7  UNL     1       6.296  52.354  72.523  1.00  0.00     0.316 C 
HETATM    9  O1  UNL     1       7.017  52.845  71.626  1.00  0.00    -0.247 OA
HETATM   10  N2  UNL     1       5.087  52.956  72.930  1.00  0.00    -0.334 N 
ATOM     11  H2  UNL     1       4.555  52.499  73.670  1.00  0.00     0.165 HD
ATOM     12  H1  UNL     1       6.133  50.748  73.878  1.00  0.00     0.164 HD
BRANCH  10  13
HETATM   13  C8  UNL     1       4.555  54.167  72.374  1.00  0.00     0.035 C 
HETATM   14  C9  UNL     1       5.606  55.227  72.330  1.00  0.00     0.035 C 
HETATM   15  C10 UNL     1       5.066  56.437  71.601  1.00  0.00    -0.012 C 
HETATM   16  C11 UNL     1       4.616  56.044  70.214  1.00  0.00     0.009 C 
HETATM   17  C15 UNL     1       3.895  57.022  72.367  1.00  0.00     0.009 C 
HETATM   18  C12 UNL     1       3.464  55.064  70.330  1.00  0.00    -0.012 C 
HETATM   19  C13 UNL     1       2.331  55.602  71.166  1.00  0.00     0.009 C 
HETATM   20  C17 UNL     1       4.020  53.828  70.995  1.00  0.00     0.035 C 
HETATM   21  C14 UNL     1       2.845  55.952  72.533  1.00  0.00    -0.012 C 
HETATM   22  C16 UNL     1       3.378  54.695  73.170  1.00  0.00     0.035 C 
ENDBRANCH  10  13
ENDBRANCH   6   7
ENDBRANCH   5   6
ENDBRANCH   4   5
ENDBRANCH   3   4
TORSDOF 5
ENDMDL
MODEL 3
REMARK VINA RESULT: -6.416885374      1.467      1.935
REMARK  5 active torsions:
REMARK  status: ('A' for Active; 'I' for Inactive)
REMARK    1  A    between atoms: C3_3  and  C4_4 
REMARK    2  A    between atoms: C4_4  and  C5_5 
REMARK    3  A    between atoms: C5_5  and  C6_6 
REMARK    4  A    between atoms: C6_6  and  N1_7 
REMARK       I    between atoms: N1_7  and  C7_9 
REMARK       I    between atoms: C7_9  and  N2_11 
REMARK    5  A    between atoms: N2_11  and  C8_13 
ROOT
HETATM    1  C1  UNL     1       8.783  45.989  72.366  1.00  0.00     0.012 C 
HETATM    2  C2  UNL     1       8.853  47.128  71.951  1.00  0.00    -0.117 C 
HETATM    3  C3  UNL     1       8.925  48.507  71.471  1.00  0.00     0.093 C 
ENDROOT
BRANCH   3   4
HETATM    4  C4  UNL     1       8.349  49.473  72.498  1.00  0.00     0.014 C 
BRANCH   4   5
HETATM    5  C5  UNL     1       8.382  50.897  71.974  1.00  0.00     0.021 C 
BRANCH   5   6
HETATM    6  C6  UNL     1       7.157  51.612  72.500  1.00  0.00     0.124 C 
BRANCH   6   7
HETATM    7  N1  UNL     1       7.204  53.024  72.285  1.00  0.00    -0.343 N 
HETATM    8  C7  UNL     1       6.051  53.789  71.972  1.00  0.00     0.316 C 
HETATM    9  O1  UNL     1       4.951  53.200  71.883  1.00  0.00    -0.247 OA
HETATM   10  N2  UNL     1       6.178  55.180  71.770  1.00  0.00    -0.334 N 
ATOM     11  H2  UNL     1       7.108  55.589  71.856  1.00  0.00     0.165 HD
ATOM     12  H1  UNL     1       8.102  53.502  72.360  1.00  0.00     0.164 HD
BRANCH  10  13
HETATM   13  C8  UNL     1       5.089  56.057  71.451  1.00  0.00     0.035 C 
HETATM   14  C9  UNL     1       4.459  55.658  70.157  1.00  0.00     0.035 C 
HETATM   15  C10 UNL     1       3.222  56.498  69.923  1.00  0.00    -0.012 C 
HETATM   16  C11 UNL     1       2.264  56.338  71.080  1.00  0.00     0.009 C 
HETATM   17  C15 UNL     1       3.609  57.958  69.782  1.00  0.00     0.009 C 
HETATM   18  C12 UNL     1       2.918  56.879  72.338  1.00  0.00    -0.012 C 
HETATM   19  C13 UNL     1       3.386  58.302  72.178  1.00  0.00     0.009 C 
HETATM   20  C17 UNL     1       4.113  55.996  72.611  1.00  0.00     0.035 C 
HETATM   21  C14 UNL     1       4.348  58.382  71.026  1.00  0.00    -0.012 C 
HETATM   22  C16 UNL     1       5.530  57.503  71.340  1.00  0.00     0.035 C 
ENDBRANCH  10  13
ENDBRANCH   6   7
ENDBRANCH   5   6
ENDBRANCH   4   5
ENDBRANCH   3   4
TORSDOF 5
ENDMDL
MODEL 4
REMARK VINA RESULT: -6.344587662      1.032      2.022
REMARK  5 active torsions:
REMARK  status: ('A' for Active; 'I' for Inactive)
REMARK    1  A    between atoms: C3_3  and  C4_4 
REMARK    2  A    between atoms: C4_4  and  C5_5 
REMARK    3  A    between atoms: C5_5  and  C6_6 
REMARK    4  A    between atoms: C6_6  and  N1_7 
REMARK       I    between atoms: N1_7  and  C7_9 
REMARK       I    between atoms: C7_9  and  N2_11 
REMARK    5  A    between atoms: N2_11  and  C8_13 
ROOT
HETATM    1  C1  UNL     1       7.715  46.283  70.008  1.00  0.00     0.012 C 
HETATM    2  C2  UNL     1       8.182  46.815  70.995  1.00  0.00    -0.117 C 
HETATM    3  C3  UNL     1       8.723  47.466  72.187  1.00  0.00     0.093 C 
ENDROOT
BRANCH   3   4
HETATM    4  C4  UNL     1       7.659  48.308  72.879  1.00  0.00     0.014 C 
BRANCH   4   5
HETATM    5  C5  UNL     1       8.031  49.779  72.842  1.00  0.00     0.021 C 
BRANCH   5   6
HETATM    6  C6  UNL     1       6.795  50.578  73.193  1.00  0.00     0.124 C 
BRANCH   6   7
HETATM    7  N1  UNL     1       6.891  51.949  72.800  1.00  0.00    -0.343 N 
HETATM    8  C7  UNL     1       5.756  52.727  72.456  1.00  0.00     0.316 C 
HETATM    9  O1  UNL     1       4.627  52.189  72.502  1.00  0.00    -0.247 OA
HETATM   10  N2  UNL     1       5.931  54.074  72.074  1.00  0.00    -0.334 N 
ATOM     11  H2  UNL     1       6.882  54.442  72.058  1.00  0.00     0.165 HD
ATOM     12  H1  UNL     1       7.812  52.385  72.766  1.00  0.00     0.164 HD
BRANCH  10  13
HETATM   13  C8  UNL     1       4.864  54.960  71.707  1.00  0.00     0.035 C 
HETATM   14  C9  UNL     1       3.824  54.996  72.778  1.00  0.00     0.035 C 
HETATM   15  C10 UNL     1       2.793  56.050  72.438  1.00  0.00    -0.012 C 
HETATM   16  C11 UNL     1       3.465  57.392  72.272  1.00  0.00     0.009 C 
HETATM   17  C15 UNL     1       2.077  55.677  71.154  1.00  0.00     0.009 C 
HETATM   18  C12 UNL     1       4.413  57.324  71.090  1.00  0.00    -0.012 C 
HETATM   19  C13 UNL     1       3.729  56.868  69.827  1.00  0.00     0.009 C 
HETATM   20  C17 UNL     1       5.482  56.323  71.457  1.00  0.00     0.035 C 
HETATM   21  C14 UNL     1       3.103  55.522  70.059  1.00  0.00    -0.012 C 
HETATM   22  C16 UNL     1       4.198  54.549  70.409  1.00  0.00     0.035 C 
ENDBRANCH  10  13
ENDBRANCH   6   7
ENDBRANCH   5   6
ENDBRANCH   4   5
ENDBRANCH   3   4
TORSDOF 5
ENDMDL
MODEL 5
REMARK VINA RESULT: -6.315295848      0.181      1.699
REMARK  5 active torsions:
REMARK  status: ('A' for Active; 'I' for Inactive)
REMARK    1  A    between atoms: C3_3  and  C4_4 
REMARK    2  A    between atoms: C4_4  and  C5_5 
REMARK    3  A    between atoms: C5_5  and  C6_6 
REMARK    4  A    between atoms: C6_6  and  N1_7 
REMARK       I    between atoms: N1_7  and  C7_9 
REMARK       I    between atoms: C7_9  and  N2_11 
REMARK    5  A    between atoms: N2_11  and  C8_13 
ROOT
HETATM    1  C1  UNL     1       7.277  45.925  69.883  1.00  0.00     0.012 C 
HETATM    2  C2  UNL     1       8.001  46.384  70.743  1.00  0.00    -0.117 C 
HETATM    3  C3  UNL     1       8.867  46.959  71.771  1.00  0.00     0.093 C 
ENDROOT
BRANCH   3   4
HETATM    4  C4  UNL     1       8.763  48.479  71.784  1.00  0.00     0.014 C 
BRANCH   4   5
HETATM    5  C5  UNL     1       7.774  48.941  72.839  1.00  0.00     0.021 C 
BRANCH   5   6
HETATM    6  C6  UNL     1       7.870  50.447  72.935  1.00  0.00     0.124 C 
BRANCH   6   7
HETATM    7  N1  UNL     1       6.606  51.069  73.176  1.00  0.00    -0.343 N 
HETATM    8  C7  UNL     1       6.220  52.285  72.554  1.00  0.00     0.316 C 
HETATM    9  O1  UNL     1       7.021  52.830  71.762  1.00  0.00    -0.247 OA
HETATM   10  N2  UNL     1       4.957  52.840  72.846  1.00  0.00    -0.334 N 
ATOM     11  H2  UNL     1       4.359  52.340  73.504  1.00  0.00     0.165 HD
ATOM     12  H1  UNL     1       5.955  50.622  73.820  1.00  0.00     0.164 HD
BRANCH  10  13
HETATM   13  C8  UNL     1       4.455  54.059  72.281  1.00  0.00     0.035 C 
HETATM   14  C9  UNL     1       3.313  54.579  73.090  1.00  0.00     0.035 C 
HETATM   15  C10 UNL     1       2.906  55.939  72.565  1.00  0.00    -0.012 C 
HETATM   16  C11 UNL     1       4.086  56.880  72.604  1.00  0.00     0.009 C 
HETATM   17  C15 UNL     1       2.403  55.813  71.141  1.00  0.00     0.009 C 
HETATM   18  C12 UNL     1       5.159  56.362  71.664  1.00  0.00    -0.012 C 
HETATM   19  C13 UNL     1       4.644  56.148  70.264  1.00  0.00     0.009 C 
HETATM   20  C17 UNL     1       5.615  55.036  72.226  1.00  0.00     0.035 C 
HETATM   21  C14 UNL     1       3.488  55.189  70.300  1.00  0.00    -0.012 C 
HETATM   22  C16 UNL     1       3.983  53.878  70.851  1.00  0.00     0.035 C 
ENDBRANCH  10  13
ENDBRANCH   6   7
ENDBRANCH   5   6
ENDBRANCH   4   5
ENDBRANCH   3   4
TORSDOF 5
ENDMDL
