MODEL 1
REMARK VINA RESULT: -6.895938155      0.000      0.000
REMARK  5 active torsions:
REMARK  status: ('A' for Active; 'I' for Inactive)
REMARK       I    between atoms: C1_2  and  N3_13 
REMARK    1  A    between atoms: N2_3  and  C2_5 
REMARK    2  A    between atoms: C2_5  and  C3_6 
REMARK    3  A    between atoms: C3_6  and  C4_7 
REMARK    4  A    between atoms: C4_7  and  C5_8 
REMARK    5  A    between atoms: N3_13  and  C10_15 
ROOT
HETATM    1  N1  UNL     1       6.110  51.346  74.667  1.00  0.00    -0.064 NA
HETATM    2  C1  UNL     1       5.585  50.638  73.565  1.00  0.00     0.184 C 
HETATM    3  N2  UNL     1       6.217  49.625  73.108  1.00  0.00    -0.365 N 
ATOM      4  H2  UNL     1       5.809  49.136  72.311  1.00  0.00     0.162 HD
HETATM    5  N3  UNL     1       4.376  51.057  72.985  1.00  0.00    -0.355 N 
ATOM      6  H3  UNL     1       3.785  50.338  72.567  1.00  0.00     0.163 HD
ENDROOT
BRANCH   3   7
HETATM    7  C2  UNL     1       7.453  49.123  73.629  1.00  0.00     0.122 C 
BRANCH   7   8
HETATM    8  C3  UNL     1       8.186  48.270  72.627  1.00  0.00     0.020 C 
BRANCH   8   9
HETATM    9  C4  UNL     1       7.270  47.202  72.109  1.00  0.00     0.006 C 
BRANCH   9  10
HETATM   10  C5  UNL     1       8.000  46.074  71.427  1.00  0.00    -0.014 C 
HETATM   11  C6  UNL     1       7.539  45.810  70.036  1.00  0.00     0.004 C 
HETATM   12  C7  UNL     1       6.156  45.235  70.230  1.00  0.00     0.000 C 
HETATM   13  C8  UNL     1       6.185  44.568  71.566  1.00  0.00     0.000 C 
HETATM   14  C9  UNL     1       7.572  44.789  72.147  1.00  0.00     0.004 C 
ENDBRANCH   9  10
ENDBRANCH   8   9
ENDBRANCH   7   8
ENDBRANCH   3   7
BRANCH   5  15
HETATM   15  C10 UNL     1       3.904  52.398  72.931  1.00  0.00     0.037 C 
HETATM   16  C11 UNL     1       3.299  52.869  74.260  1.00  0.00     0.036 C 
HETATM   17  C12 UNL     1       2.367  53.966  73.724  1.00  0.00    -0.011 C 
HETATM   18  C13 UNL     1       3.162  55.057  73.084  1.00  0.00     0.009 C 
HETATM   19  C17 UNL     1       1.629  53.147  72.655  1.00  0.00     0.012 C 
HETATM   20  C14 UNL     1       4.125  54.551  72.053  1.00  0.00    -0.011 C 
HETATM   21  C15 UNL     1       3.315  53.768  71.017  1.00  0.00     0.012 C 
HETATM   22  C18 UNL     1       4.990  53.412  72.611  1.00  0.00     0.036 C 
HETATM   23  C16 UNL     1       2.845  52.598  71.892  1.00  0.00     0.014 C 
ENDBRANCH   5  15
TORSDOF 5
ENDMDL
MODEL 2
REMARK VINA RESULT: -6.769263613      1.490      1.989
REMARK  5 active torsions:
REMARK  status: ('A' for Active; 'I' for Inactive)
REMARK       I    between atoms: C1_2  and  N3_13 
REMARK    1  A    between atoms: N2_3  and  C2_5 
REMARK    2  A    between atoms: C2_5  and  C3_6 
REMARK    3  A    between atoms: C3_6  and  C4_7 
REMARK    4  A    between atoms: C4_7  and  C5_8 
REMARK    5  A    between atoms: N3_13  and  C10_15 
ROOT
HETATM    1  N1  UNL     1       4.705  51.537  72.821  1.00  0.00    -0.064 NA
HETATM    2  C1  UNL     1       5.901  52.179  72.433  1.00  0.00     0.184 C 
HETATM    3  N2  UNL     1       7.024  51.616  72.673  1.00  0.00    -0.365 N 
ATOM      4  H2  UNL     1       7.868  52.107  72.379  1.00  0.00     0.162 HD
HETATM    5  N3  UNL     1       5.841  53.426  71.789  1.00  0.00    -0.355 N 
ATOM      6  H3  UNL     1       6.578  53.639  71.118  1.00  0.00     0.163 HD
ENDROOT
BRANCH   3   7
HETATM    7  C2  UNL     1       7.187  50.350  73.324  1.00  0.00     0.122 C 
BRANCH   7   8
HETATM    8  C3  UNL     1       8.296  49.537  72.710  1.00  0.00     0.020 C 
BRANCH   8   9
HETATM    9  C4  UNL     1       7.952  48.080  72.781  1.00  0.00     0.006 C 
BRANCH   9  10
HETATM   10  C5  UNL     1       9.013  47.189  72.189  1.00  0.00    -0.014 C 
HETATM   11  C6  UNL     1       9.036  47.185  70.700  1.00  0.00     0.004 C 
HETATM   12  C7  UNL     1       7.761  46.463  70.334  1.00  0.00     0.000 C 
HETATM   13  C8  UNL     1       7.488  45.535  71.471  1.00  0.00     0.000 C 
HETATM   14  C9  UNL     1       8.587  45.748  72.498  1.00  0.00     0.004 C 
ENDBRANCH   9  10
ENDBRANCH   8   9
ENDBRANCH   7   8
ENDBRANCH   3   7
BRANCH   5  15
HETATM   15  C10 UNL     1       4.839  54.415  71.993  1.00  0.00     0.037 C 
HETATM   16  C11 UNL     1       3.961  54.128  73.218  1.00  0.00     0.036 C 
HETATM   17  C12 UNL     1       2.702  54.901  72.796  1.00  0.00    -0.011 C 
HETATM   18  C13 UNL     1       3.001  56.360  72.684  1.00  0.00     0.009 C 
HETATM   19  C17 UNL     1       2.505  54.289  71.401  1.00  0.00     0.012 C 
HETATM   20  C14 UNL     1       4.184  56.649  71.812  1.00  0.00    -0.011 C 
HETATM   21  C15 UNL     1       3.904  56.030  70.441  1.00  0.00     0.012 C 
HETATM   22  C18 UNL     1       5.400  55.809  72.226  1.00  0.00     0.036 C 
HETATM   23  C16 UNL     1       3.908  54.544  70.828  1.00  0.00     0.014 C 
ENDBRANCH   5  15
TORSDOF 5
ENDMDL
MODEL 3
REMARK VINA RESULT: -6.719173289      1.162      1.875
REMARK  5 active torsions:
REMARK  status: ('A' for Active; 'I' for Inactive)
REMARK       I    between atoms: C1_2  and  N3_13 
REMARK    1  A    between atoms: N2_3  and  C2_5 
REMARK    2  A    between atoms: C2_5  and  C3_6 
REMARK    3  A    between atoms: C3_6  and  C4_7 
REMARK    4  A    between atoms: C4_7  and  C5_8 
REMARK    5  A    between atoms: N3_13  and  C10_15 
ROOT
HETATM    1  N1  UNL     1       6.819  52.515  71.913  1.00  0.00    -0.064 NA
HETATM    2  C1  UNL     1       6.220  51.815  72.982  1.00  0.00     0.184 C 
HETATM    3  N2  UNL     1       6.719  50.702  73.364  1.00  0.00    -0.365 N 
ATOM      4  H2  UNL     1       6.262  50.224  74.140  1.00  0.00     0.162 HD
HETATM    5  N3  UNL     1       5.085  52.353  73.612  1.00  0.00    -0.355 N 
ATOM      6  H3  UNL     1       4.960  52.145  74.603  1.00  0.00     0.163 HD
ENDROOT
BRANCH   3   7
HETATM    7  C2  UNL     1       7.870  50.074  72.786  1.00  0.00     0.122 C 
BRANCH   7   8
HETATM    8  C3  UNL     1       8.028  48.648  73.244  1.00  0.00     0.020 C 
BRANCH   8   9
HETATM    9  C4  UNL     1       7.368  47.727  72.263  1.00  0.00     0.006 C 
BRANCH   9  10
HETATM   10  C5  UNL     1       8.340  46.826  71.547  1.00  0.00    -0.014 C 
HETATM   11  C6  UNL     1       7.891  46.409  70.190  1.00  0.00     0.004 C 
HETATM   12  C7  UNL     1       6.734  45.482  70.475  1.00  0.00     0.000 C 
HETATM   13  C8  UNL     1       7.022  44.884  71.812  1.00  0.00     0.000 C 
HETATM   14  C9  UNL     1       8.325  45.491  72.304  1.00  0.00     0.004 C 
ENDBRANCH   9  10
ENDBRANCH   8   9
ENDBRANCH   7   8
ENDBRANCH   3   7
BRANCH   5  15
HETATM   15  C10 UNL     1       4.095  53.161  72.986  1.00  0.00     0.037 C 
HETATM   16  C11 UNL     1       3.318  52.411  71.896  1.00  0.00     0.036 C 
HETATM   17  C12 UNL     1       2.875  53.613  71.048  1.00  0.00    -0.011 C 
HETATM   18  C13 UNL     1       1.968  54.499  71.836  1.00  0.00     0.009 C 
HETATM   19  C17 UNL     1       4.244  54.285  70.859  1.00  0.00     0.012 C 
HETATM   20  C14 UNL     1       2.545  54.898  73.160  1.00  0.00    -0.011 C 
HETATM   21  C15 UNL     1       3.889  55.576  72.887  1.00  0.00     0.012 C 
HETATM   22  C18 UNL     1       3.034  53.674  73.946  1.00  0.00     0.036 C 
HETATM   23  C16 UNL     1       4.671  54.378  72.332  1.00  0.00     0.014 C 
ENDBRANCH   5  15
TORSDOF 5
ENDMDL
MODEL 4
REMARK VINA RESULT: -6.710400666      0.699      1.389
REMARK  5 active torsions:
REMARK  status: ('A' for Active; 'I' for Inactive)
REMARK       I    between atoms: C1_2  and  N3_13 
REMARK    1  A    between atoms: N2_3  and  C2_5 
REMARK    2  A    between atoms: C2_5  and  C3_6 
REMARK    3  A    between atoms: C3_6  and  C4_7 
REMARK    4  A    between atoms: C4_7  and  C5_8 
REMARK    5  A    between atoms: N3_13  and  C10_15 
ROOT
HETATM    1  N1  UNL     1       5.877  51.615  74.402  1.00  0.00    -0.064 NA
HETATM    2  C1  UNL     1       5.447  50.746  73.376  1.00  0.00     0.184 C 
HETATM    3  N2  UNL     1       6.279  49.930  72.853  1.00  0.00    -0.365 N 
ATOM      4  H2  UNL     1       5.935  49.315  72.115  1.00  0.00     0.162 HD
HETATM    5  N3  UNL     1       4.110  50.790  72.947  1.00  0.00    -0.355 N 
ATOM      6  H3  UNL     1       3.700  49.919  72.609  1.00  0.00     0.163 HD
ENDROOT
BRANCH   3   7
HETATM    7  C2  UNL     1       7.658  49.811  73.221  1.00  0.00     0.122 C 
BRANCH   7   8
HETATM    8  C3  UNL     1       8.390  48.811  72.366  1.00  0.00     0.020 C 
BRANCH   8   9
HETATM    9  C4  UNL     1       7.548  47.584  72.191  1.00  0.00     0.006 C 
BRANCH   9  10
HETATM   10  C5  UNL     1       8.257  46.476  71.456  1.00  0.00    -0.014 C 
HETATM   11  C6  UNL     1       7.674  46.168  70.121  1.00  0.00     0.004 C 
HETATM   12  C7  UNL     1       6.343  45.538  70.458  1.00  0.00     0.000 C 
HETATM   13  C8  UNL     1       6.533  44.896  71.793  1.00  0.00     0.000 C 
HETATM   14  C9  UNL     1       7.959  45.186  72.232  1.00  0.00     0.004 C 
ENDBRANCH   9  10
ENDBRANCH   8   9
ENDBRANCH   7   8
ENDBRANCH   3   7
BRANCH   5  15
HETATM   15  C10 UNL     1       3.279  51.945  72.942  1.00  0.00     0.037 C 
HETATM   16  C11 UNL     1       1.845  51.644  72.486  1.00  0.00     0.036 C 
HETATM   17  C12 UNL     1       1.456  53.041  71.981  1.00  0.00    -0.011 C 
HETATM   18  C13 UNL     1       1.462  54.021  73.108  1.00  0.00     0.009 C 
HETATM   19  C17 UNL     1       2.649  53.296  71.047  1.00  0.00     0.012 C 
HETATM   20  C14 UNL     1       2.745  54.015  73.882  1.00  0.00    -0.011 C 
HETATM   21  C15 UNL     1       3.877  54.296  72.891  1.00  0.00     0.012 C 
HETATM   22  C18 UNL     1       3.130  52.592  74.309  1.00  0.00     0.036 C 
HETATM   23  C16 UNL     1       3.791  53.023  72.038  1.00  0.00     0.014 C 
ENDBRANCH   5  15
TORSDOF 5
ENDMDL
MODEL 5
REMARK VINA RESULT: -6.664815539      1.105      1.125
REMARK  5 active torsions:
REMARK  status: ('A' for Active; 'I' for Inactive)
REMARK       I    between atoms: C1_2  and  N3_13 
REMARK    1  A    between atoms: N2_3  and  C2_5 
REMARK    2  A    between atoms: C2_5  and  C3_6 
REMARK    3  A    between atoms: C3_6  and  C4_7 
REMARK    4  A    between atoms: C4_7  and  C5_8 
REMARK    5  A    between atoms: N3_13  and  C10_15 
ROOT
HETATM    1  N1  UNL     1       6.781  52.532  71.969  1.00  0.00    -0.064 NA
HETATM    2  C1  UNL     1       6.234  51.779  73.030  1.00  0.00     0.184 C 
HETATM    3  N2  UNL     1       6.754  50.652  73.336  1.00  0.00    -0.365 N 
ATOM      4  H2  UNL     1       6.335  50.135  74.108  1.00  0.00     0.162 HD
HETATM    5  N3  UNL     1       5.125  52.278  73.734  1.00  0.00    -0.355 N 
ATOM      6  H3  UNL     1       5.045  52.024  74.718  1.00  0.00     0.163 HD
ENDROOT
BRANCH   3   7
HETATM    7  C2  UNL     1       7.882  50.061  72.679  1.00  0.00     0.122 C 
BRANCH   7   8
HETATM    8  C3  UNL     1       8.099  48.632  73.103  1.00  0.00     0.020 C 
BRANCH   8   9
HETATM    9  C4  UNL     1       7.400  47.711  72.149  1.00  0.00     0.006 C 
BRANCH   9  10
HETATM   10  C5  UNL     1       8.332  46.744  71.466  1.00  0.00    -0.014 C 
HETATM   11  C6  UNL     1       7.859  46.293  70.128  1.00  0.00     0.004 C 
HETATM   12  C7  UNL     1       6.668  45.424  70.454  1.00  0.00     0.000 C 
HETATM   13  C8  UNL     1       6.941  44.867  71.812  1.00  0.00     0.000 C 
HETATM   14  C9  UNL     1       8.269  45.442  72.275  1.00  0.00     0.004 C 
ENDBRANCH   9  10
ENDBRANCH   8   9
ENDBRANCH   7   8
ENDBRANCH   3   7
BRANCH   5  15
HETATM   15  C10 UNL     1       4.105  53.108  73.191  1.00  0.00     0.037 C 
HETATM   16  C11 UNL     1       3.032  53.481  74.223  1.00  0.00     0.036 C 
HETATM   17  C12 UNL     1       1.863  53.755  73.264  1.00  0.00    -0.011 C 
HETATM   18  C13 UNL     1       2.179  54.916  72.379  1.00  0.00     0.009 C 
HETATM   19  C17 UNL     1       1.905  52.446  72.461  1.00  0.00     0.012 C 
HETATM   20  C14 UNL     1       3.493  54.774  71.674  1.00  0.00    -0.011 C 
HETATM   21  C15 UNL     1       3.448  53.465  70.883  1.00  0.00     0.012 C 
HETATM   22  C18 UNL     1       4.620  54.436  72.660  1.00  0.00     0.036 C 
HETATM   23  C16 UNL     1       3.385  52.466  72.047  1.00  0.00     0.014 C 
ENDBRANCH   5  15
TORSDOF 5
ENDMDL
