MODEL 1
REMARK VINA RESULT: -5.876416874      0.000      0.000
REMARK  5 active torsions:
REMARK  status: ('A' for Active; 'I' for Inactive)
REMARK    1  A    between atoms: C2_2  and  N1_3 
REMARK    2  A    between atoms: N1_3  and  C5_6 
REMARK    3  A    between atoms: C5_6  and  C6_7 
REMARK    4  A    between atoms: C8_9  and  C9_10 
REMARK    5  A    between atoms: C9_10  and  C10_11 
ROOT
HETATM    1  C6  UNL     1       7.217  49.090  72.661  1.00  0.00     0.106 C 
HETATM    2  C7  UNL     1       6.542  49.549  73.910  1.00  0.00     0.041 C 
HETATM    3  C8  UNL     1       6.277  51.054  73.711  1.00  0.00     0.085 C 
HETATM    4  N2  UNL     1       7.286  51.435  72.772  1.00  0.00    -0.356 N 
ATOM      5  H2  UNL     1       7.477  52.400  72.505  1.00  0.00     0.162 HD
HETATM    6  C17 UNL     1       7.994  50.317  72.254  1.00  0.00     0.223 C 
HETATM    7  O1  UNL     1       9.063  50.342  71.583  1.00  0.00    -0.273 OA
ENDROOT
BRANCH   3   8
HETATM    8  C9  UNL     1       4.879  51.178  73.239  1.00  0.00     0.029 C 
BRANCH   8   9
HETATM    9  C10 UNL     1       4.516  52.440  72.546  1.00  0.00    -0.013 C 
HETATM   10  C11 UNL     1       3.055  52.534  72.180  1.00  0.00     0.005 C 
HETATM   11  C12 UNL     1       2.826  53.081  70.814  1.00  0.00     0.000 C 
HETATM   12  C13 UNL     1       3.814  54.119  70.386  1.00  0.00     0.000 C 
HETATM   13  C14 UNL     1       4.158  55.121  71.433  1.00  0.00     0.000 C 
HETATM   14  C15 UNL     1       5.398  54.703  72.235  1.00  0.00     0.000 C 
HETATM   15  C16 UNL     1       4.901  53.696  73.256  1.00  0.00     0.005 C 
ENDBRANCH   8   9
ENDBRANCH   3   8
BRANCH   1  16
HETATM   16  C5  UNL     1       8.201  47.989  72.810  1.00  0.00     0.250 C 
BRANCH  16  17
HETATM   17  N1  UNL     1       8.092  46.878  71.939  1.00  0.00    -0.074 N 
HETATM   18  C3  UNL     1       8.787  45.724  72.542  1.00  0.00     0.272 C 
HETATM   19  C4  UNL     1       8.652  47.052  70.636  1.00  0.00     0.272 C 
BRANCH  17  20
HETATM   20  C2  UNL     1       6.712  46.465  71.759  1.00  0.00     0.232 C 
HETATM   21  C1  UNL     1       6.472  45.668  70.523  1.00  0.00     0.034 C 
ENDBRANCH  17  20
ENDBRANCH  16  17
ENDBRANCH   1  16
TORSDOF 5
ENDMDL
MODEL 2
REMARK VINA RESULT: -5.845590572      0.838      1.030
REMARK  5 active torsions:
REMARK  status: ('A' for Active; 'I' for Inactive)
REMARK    1  A    between atoms: C2_2  and  N1_3 
REMARK    2  A    between atoms: N1_3  and  C5_6 
REMARK    3  A    between atoms: C5_6  and  C6_7 
REMARK    4  A    between atoms: C8_9  and  C9_10 
REMARK    5  A    between atoms: C9_10  and  C10_11 
ROOT
HETATM    1  C6  UNL     1       7.240  48.921  72.686  1.00  0.00     0.106 C 
HETATM    2  C7  UNL     1       6.508  49.356  73.911  1.00  0.00     0.041 C 
HETATM    3  C8  UNL     1       6.279  50.870  73.744  1.00  0.00     0.085 C 
HETATM    4  N2  UNL     1       7.342  51.261  72.872  1.00  0.00    -0.356 N 
ATOM      5  H2  UNL     1       7.563  52.230  72.644  1.00  0.00     0.162 HD
HETATM    6  C17 UNL     1       8.058  50.146  72.357  1.00  0.00     0.223 C 
HETATM    7  O1  UNL     1       9.161  50.171  71.744  1.00  0.00    -0.273 OA
ENDROOT
BRANCH   3   8
HETATM    8  C9  UNL     1       4.910  51.034  73.204  1.00  0.00     0.029 C 
BRANCH   8   9
HETATM    9  C10 UNL     1       4.417  52.425  73.041  1.00  0.00    -0.013 C 
HETATM   10  C11 UNL     1       3.475  52.868  74.134  1.00  0.00     0.005 C 
HETATM   11  C12 UNL     1       2.301  53.629  73.624  1.00  0.00     0.000 C 
HETATM   12  C13 UNL     1       2.586  54.487  72.433  1.00  0.00     0.000 C 
HETATM   13  C14 UNL     1       3.865  55.247  72.504  1.00  0.00     0.000 C 
HETATM   14  C15 UNL     1       5.020  54.478  71.850  1.00  0.00     0.000 C 
HETATM   15  C16 UNL     1       5.475  53.467  72.887  1.00  0.00     0.005 C 
ENDBRANCH   8   9
ENDBRANCH   3   8
BRANCH   1  16
HETATM   16  C5  UNL     1       8.197  47.799  72.852  1.00  0.00     0.250 C 
BRANCH  16  17
HETATM   17  N1  UNL     1       8.090  46.699  71.967  1.00  0.00    -0.074 N 
HETATM   18  C3  UNL     1       8.753  45.529  72.573  1.00  0.00     0.272 C 
HETATM   19  C4  UNL     1       8.684  46.878  70.679  1.00  0.00     0.272 C 
BRANCH  17  20
HETATM   20  C2  UNL     1       6.709  46.309  71.750  1.00  0.00     0.232 C 
HETATM   21  C1  UNL     1       6.471  45.604  70.460  1.00  0.00     0.034 C 
ENDBRANCH  17  20
ENDBRANCH  16  17
ENDBRANCH   1  16
TORSDOF 5
ENDMDL
MODEL 3
REMARK VINA RESULT: -5.756074011      0.895      1.420
REMARK  5 active torsions:
REMARK  status: ('A' for Active; 'I' for Inactive)
REMARK    1  A    between atoms: C2_2  and  N1_3 
REMARK    2  A    between atoms: N1_3  and  C5_6 
REMARK    3  A    between atoms: C5_6  and  C6_7 
REMARK    4  A    between atoms: C8_9  and  C9_10 
REMARK    5  A    between atoms: C9_10  and  C10_11 
ROOT
HETATM    1  C6  UNL     1       7.211  49.144  72.707  1.00  0.00     0.106 C 
HETATM    2  C7  UNL     1       6.456  49.565  73.923  1.00  0.00     0.041 C 
HETATM    3  C8  UNL     1       6.201  51.075  73.754  1.00  0.00     0.085 C 
HETATM    4  N2  UNL     1       7.267  51.484  72.894  1.00  0.00    -0.356 N 
ATOM      5  H2  UNL     1       7.473  52.458  72.669  1.00  0.00     0.162 HD
HETATM    6  C17 UNL     1       8.010  50.383  72.389  1.00  0.00     0.223 C 
HETATM    7  O1  UNL     1       9.119  50.428  71.789  1.00  0.00    -0.273 OA
ENDROOT
BRANCH   3   8
HETATM    8  C9  UNL     1       4.836  51.213  73.197  1.00  0.00     0.029 C 
BRANCH   8   9
HETATM    9  C10 UNL     1       4.305  52.594  73.062  1.00  0.00    -0.013 C 
HETATM   10  C11 UNL     1       4.533  53.201  71.699  1.00  0.00     0.005 C 
HETATM   11  C12 UNL     1       4.973  54.623  71.757  1.00  0.00     0.000 C 
HETATM   12  C13 UNL     1       4.385  55.411  72.884  1.00  0.00     0.000 C 
HETATM   13  C14 UNL     1       2.933  55.176  73.117  1.00  0.00     0.000 C 
HETATM   14  C15 UNL     1       2.695  54.076  74.160  1.00  0.00     0.000 C 
HETATM   15  C16 UNL     1       2.865  52.765  73.414  1.00  0.00     0.005 C 
ENDBRANCH   8   9
ENDBRANCH   3   8
BRANCH   1  16
HETATM   16  C5  UNL     1       8.186  48.039  72.886  1.00  0.00     0.250 C 
BRANCH  16  17
HETATM   17  N1  UNL     1       8.123  46.947  71.987  1.00  0.00    -0.074 N 
HETATM   18  C3  UNL     1       8.758  45.772  72.614  1.00  0.00     0.272 C 
HETATM   19  C4  UNL     1       8.777  47.137  70.730  1.00  0.00     0.272 C 
BRANCH  17  20
HETATM   20  C2  UNL     1       6.754  46.558  71.701  1.00  0.00     0.232 C 
HETATM   21  C1  UNL     1       6.584  45.831  70.411  1.00  0.00     0.034 C 
ENDBRANCH  17  20
ENDBRANCH  16  17
ENDBRANCH   1  16
TORSDOF 5
ENDMDL
MODEL 4
REMARK VINA RESULT: -5.684214104      6.505      8.167
REMARK  5 active torsions:
REMARK  status: ('A' for Active; 'I' for Inactive)
REMARK    1  A    between atoms: C2_2  and  N1_3 
REMARK    2  A    between atoms: N1_3  and  C5_6 
REMARK    3  A    between atoms: C5_6  and  C6_7 
REMARK    4  A    between atoms: C8_9  and  C9_10 
REMARK    5  A    between atoms: C9_10  and  C10_11 
ROOT
HETATM    1  C6  UNL     1       2.285  54.677  69.351  1.00  0.00     0.106 C 
HETATM    2  C7  UNL     1       2.774  55.477  70.512  1.00  0.00     0.041 C 
HETATM    3  C8  UNL     1       4.233  55.843  70.180  1.00  0.00     0.085 C 
HETATM    4  N2  UNL     1       4.629  54.800  69.286  1.00  0.00    -0.356 N 
ATOM      5  H2  UNL     1       5.586  54.666  68.959  1.00  0.00     0.162 HD
HETATM    6  C17 UNL     1       3.540  53.971  68.905  1.00  0.00     0.223 C 
HETATM    7  O1  UNL     1       3.606  52.860  68.309  1.00  0.00    -0.273 OA
ENDROOT
BRANCH   3   8
HETATM    8  C9  UNL     1       4.206  57.208  69.606  1.00  0.00     0.029 C 
BRANCH   8   9
HETATM    9  C10 UNL     1       3.356  58.208  70.301  1.00  0.00    -0.013 C 
HETATM   10  C11 UNL     1       3.882  58.617  71.655  1.00  0.00     0.005 C 
HETATM   11  C12 UNL     1       2.819  58.713  72.693  1.00  0.00     0.000 C 
HETATM   12  C13 UNL     1       1.495  59.189  72.185  1.00  0.00     0.000 C 
HETATM   13  C14 UNL     1       1.567  60.328  71.229  1.00  0.00     0.000 C 
HETATM   14  C15 UNL     1       1.615  59.847  69.773  1.00  0.00     0.000 C 
HETATM   15  C16 UNL     1       3.058  59.447  69.523  1.00  0.00     0.005 C 
ENDBRANCH   8   9
ENDBRANCH   3   8
BRANCH   1  16
HETATM   16  C5  UNL     1       1.283  53.624  69.651  1.00  0.00     0.250 C 
BRANCH  16  17
HETATM   17  N1  UNL     1       0.020  53.709  69.017  1.00  0.00    -0.074 N 
HETATM   18  C3  UNL     1      -0.381  55.127  68.934  1.00  0.00     0.272 C 
HETATM   19  C4  UNL     1      -1.051  53.023  69.669  1.00  0.00     0.272 C 
BRANCH  17  20
HETATM   20  C2  UNL     1       0.067  53.227  67.649  1.00  0.00     0.232 C 
HETATM   21  C1  UNL     1       0.325  51.765  67.527  1.00  0.00     0.034 C 
ENDBRANCH  17  20
ENDBRANCH  16  17
ENDBRANCH   1  16
TORSDOF 5
ENDMDL
MODEL 5
REMARK VINA RESULT: -5.679984466      4.288      9.111
REMARK  5 active torsions:
REMARK  status: ('A' for Active; 'I' for Inactive)
REMARK    1  A    between atoms: C2_2  and  N1_3 
REMARK    2  A    between atoms: N1_3  and  C5_6 
REMARK    3  A    between atoms: C5_6  and  C6_7 
REMARK    4  A    between atoms: C8_9  and  C9_10 
REMARK    5  A    between atoms: C9_10  and  C10_11 
ROOT
HETATM    1  C6  UNL     1       3.137  56.782  70.551  1.00  0.00     0.106 C 
HETATM    2  C7  UNL     1       2.704  55.464  71.099  1.00  0.00     0.041 C 
HETATM    3  C8  UNL     1       3.961  54.572  71.082  1.00  0.00     0.085 C 
HETATM    4  N2  UNL     1       4.750  55.153  70.042  1.00  0.00    -0.356 N 
ATOM      5  H2  UNL     1       5.608  54.735  69.680  1.00  0.00     0.162 HD
HETATM    6  C17 UNL     1       4.206  56.377  69.567  1.00  0.00     0.223 C 
HETATM    7  O1  UNL     1       4.549  57.006  68.528  1.00  0.00    -0.273 OA
ENDROOT
BRANCH   3   8
HETATM    8  C9  UNL     1       4.542  54.635  72.443  1.00  0.00     0.029 C 
BRANCH   8   9
HETATM    9  C10 UNL     1       4.706  53.345  73.161  1.00  0.00    -0.013 C 
HETATM   10  C11 UNL     1       3.409  52.760  73.662  1.00  0.00     0.005 C 
HETATM   11  C12 UNL     1       3.510  52.205  75.041  1.00  0.00     0.000 C 
HETATM   12  C13 UNL     1       4.832  51.587  75.367  1.00  0.00     0.000 C 
HETATM   13  C14 UNL     1       5.407  50.739  74.287  1.00  0.00     0.000 C 
HETATM   14  C15 UNL     1       6.345  51.539  73.373  1.00  0.00     0.000 C 
HETATM   15  C16 UNL     1       5.438  52.283  72.410  1.00  0.00     0.005 C 
ENDBRANCH   8   9
ENDBRANCH   3   8
BRANCH   1  16
HETATM   16  C5  UNL     1       2.119  57.544  69.787  1.00  0.00     0.250 C 
BRANCH  16  17
HETATM   17  N1  UNL     1       1.692  58.789  70.310  1.00  0.00    -0.074 N 
HETATM   18  C3  UNL     1       2.270  58.969  71.656  1.00  0.00     0.272 C 
HETATM   19  C4  UNL     1       0.279  58.953  70.451  1.00  0.00     0.272 C 
BRANCH  17  20
HETATM   20  C2  UNL     1       2.174  59.905  69.516  1.00  0.00     0.232 C 
HETATM   21  C1  UNL     1       1.544  61.211  69.856  1.00  0.00     0.034 C 
ENDBRANCH  17  20
ENDBRANCH  16  17
ENDBRANCH   1  16
TORSDOF 5
ENDMDL
