MODEL 1
REMARK VINA RESULT: -5.947128148      0.000      0.000
REMARK  7 active torsions:
REMARK  status: ('A' for Active; 'I' for Inactive)
REMARK    1  A    between atoms: C2_2  and  C3_3 
REMARK    2  A    between atoms: C3_3  and  C4_4 
REMARK    3  A    between atoms: C4_4  and  N1_5 
REMARK    4  A    between atoms: N1_5  and  C5_7 
REMARK    5  A    between atoms: C5_7  and  N2_9 
REMARK    6  A    between atoms: N2_9  and  C6_11 
REMARK    7  A    between atoms: C6_11  and  C7_12 
ROOT
HETATM    1  C6  UNL     1       5.763  51.146  74.290  1.00  0.00     0.131 C 
ENDROOT
BRANCH   1   2
HETATM    2  N2  UNL     1       5.752  49.767  73.883  1.00  0.00    -0.367 N 
ATOM      3  H2  UNL     1       4.917  49.199  74.023  1.00  0.00     0.161 HD
BRANCH   2   4
HETATM    4  C5  UNL     1       6.901  49.204  73.290  1.00  0.00     0.167 C 
HETATM    5  S1  UNL     1       8.038  50.226  72.667  1.00  0.00    -0.041 SA
BRANCH   4   6
HETATM    6  N1  UNL     1       7.144  47.816  73.181  1.00  0.00    -0.367 N 
ATOM      7  H1  UNL     1       6.374  47.172  73.359  1.00  0.00     0.161 HD
BRANCH   6   8
HETATM    8  C4  UNL     1       8.441  47.268  72.827  1.00  0.00     0.122 C 
BRANCH   8   9
HETATM    9  C3  UNL     1       8.338  46.066  71.945  1.00  0.00     0.019 C 
BRANCH   9  10
HETATM   10  C2  UNL     1       8.029  46.434  70.509  1.00  0.00    -0.003 C 
HETATM   11  C1  UNL     1       6.778  45.723  70.037  1.00  0.00     0.005 C 
ENDBRANCH   9  10
ENDBRANCH   8   9
ENDBRANCH   6   8
ENDBRANCH   4   6
ENDBRANCH   2   4
ENDBRANCH   1   2
BRANCH   1  12
HETATM   12  C7  UNL     1       4.695  51.959  73.625  1.00  0.00    -0.023 C 
HETATM   13  C8  UNL     1       3.785  51.065  72.785  1.00  0.00     0.015 C 
HETATM   14  C9  UNL     1       2.671  51.880  72.219  1.00  0.00    -0.013 C 
HETATM   15  C10 UNL     1       3.155  53.029  71.371  1.00  0.00     0.009 C 
HETATM   16  C14 UNL     1       1.840  52.470  73.330  1.00  0.00     0.009 C 
HETATM   17  C11 UNL     1       4.147  53.869  72.158  1.00  0.00    -0.013 C 
HETATM   18  C12 UNL     1       3.310  54.478  73.291  1.00  0.00     0.009 C 
HETATM   19  C16 UNL     1       5.246  53.020  72.726  1.00  0.00     0.015 C 
HETATM   20  C13 UNL     1       2.740  53.380  74.156  1.00  0.00    -0.013 C 
HETATM   21  C15 UNL     1       3.836  52.541  74.735  1.00  0.00     0.015 C 
ENDBRANCH   1  12
TORSDOF 7
ENDMDL
MODEL 2
REMARK VINA RESULT: -5.927696920      0.074      1.693
REMARK  7 active torsions:
REMARK  status: ('A' for Active; 'I' for Inactive)
REMARK    1  A    between atoms: C2_2  and  C3_3 
REMARK    2  A    between atoms: C3_3  and  C4_4 
REMARK    3  A    between atoms: C4_4  and  N1_5 
REMARK    4  A    between atoms: N1_5  and  C5_7 
REMARK    5  A    between atoms: C5_7  and  N2_9 
REMARK    6  A    between atoms: N2_9  and  C6_11 
REMARK    7  A    between atoms: C6_11  and  C7_12 
ROOT
HETATM    1  C6  UNL     1       5.750  51.153  74.229  1.00  0.00     0.131 C 
ENDROOT
BRANCH   1   2
HETATM    2  N2  UNL     1       5.757  49.764  73.861  1.00  0.00    -0.367 N 
ATOM      3  H2  UNL     1       4.933  49.186  74.028  1.00  0.00     0.161 HD
BRANCH   2   4
HETATM    4  C5  UNL     1       6.907  49.203  73.269  1.00  0.00     0.167 C 
HETATM    5  S1  UNL     1       8.047  50.227  72.656  1.00  0.00    -0.041 SA
BRANCH   4   6
HETATM    6  N1  UNL     1       7.148  47.815  73.153  1.00  0.00    -0.367 N 
ATOM      7  H1  UNL     1       6.373  47.171  73.306  1.00  0.00     0.161 HD
BRANCH   6   8
HETATM    8  C4  UNL     1       8.453  47.267  72.825  1.00  0.00     0.122 C 
BRANCH   8   9
HETATM    9  C3  UNL     1       8.367  46.069  71.936  1.00  0.00     0.019 C 
BRANCH   9  10
HETATM   10  C2  UNL     1       8.039  46.441  70.505  1.00  0.00    -0.003 C 
HETATM   11  C1  UNL     1       6.785  45.726  70.047  1.00  0.00     0.005 C 
ENDBRANCH   9  10
ENDBRANCH   8   9
ENDBRANCH   6   8
ENDBRANCH   4   6
ENDBRANCH   2   4
ENDBRANCH   1   2
BRANCH   1  12
HETATM   12  C7  UNL     1       4.597  51.907  73.642  1.00  0.00    -0.023 C 
HETATM   13  C8  UNL     1       3.764  52.558  74.745  1.00  0.00     0.015 C 
HETATM   14  C9  UNL     1       2.686  53.387  74.132  1.00  0.00    -0.013 C 
HETATM   15  C10 UNL     1       1.777  52.593  73.229  1.00  0.00     0.009 C 
HETATM   16  C14 UNL     1       3.287  54.489  73.296  1.00  0.00     0.009 C 
HETATM   17  C11 UNL     1       2.600  51.852  72.189  1.00  0.00    -0.013 C 
HETATM   18  C12 UNL     1       3.215  52.966  71.330  1.00  0.00     0.009 C 
HETATM   19  C16 UNL     1       3.684  51.039  72.835  1.00  0.00     0.015 C 
HETATM   20  C13 UNL     1       4.099  53.842  72.182  1.00  0.00    -0.013 C 
HETATM   21  C15 UNL     1       5.190  53.036  72.816  1.00  0.00     0.015 C 
ENDBRANCH   1  12
TORSDOF 7
ENDMDL
MODEL 3
REMARK VINA RESULT: -5.792866313      0.094      1.710
REMARK  7 active torsions:
REMARK  status: ('A' for Active; 'I' for Inactive)
REMARK    1  A    between atoms: C2_2  and  C3_3 
REMARK    2  A    between atoms: C3_3  and  C4_4 
REMARK    3  A    between atoms: C4_4  and  N1_5 
REMARK    4  A    between atoms: N1_5  and  C5_7 
REMARK    5  A    between atoms: C5_7  and  N2_9 
REMARK    6  A    between atoms: N2_9  and  C6_11 
REMARK    7  A    between atoms: C6_11  and  C7_12 
ROOT
HETATM    1  C6  UNL     1       5.739  51.123  74.318  1.00  0.00     0.131 C 
ENDROOT
BRANCH   1   2
HETATM    2  N2  UNL     1       5.718  49.773  73.824  1.00  0.00    -0.367 N 
ATOM      3  H2  UNL     1       4.860  49.225  73.871  1.00  0.00     0.161 HD
BRANCH   2   4
HETATM    4  C5  UNL     1       6.889  49.212  73.274  1.00  0.00     0.167 C 
HETATM    5  S1  UNL     1       8.029  50.234  72.658  1.00  0.00    -0.041 SA
BRANCH   4   6
HETATM    6  N1  UNL     1       7.151  47.825  73.204  1.00  0.00    -0.367 N 
ATOM      7  H1  UNL     1       6.406  47.175  73.454  1.00  0.00     0.161 HD
BRANCH   6   8
HETATM    8  C4  UNL     1       8.435  47.285  72.790  1.00  0.00     0.122 C 
BRANCH   8   9
HETATM    9  C3  UNL     1       8.300  46.062  71.942  1.00  0.00     0.019 C 
BRANCH   9  10
HETATM   10  C2  UNL     1       8.014  46.399  70.493  1.00  0.00    -0.003 C 
HETATM   11  C1  UNL     1       6.761  45.693  70.022  1.00  0.00     0.005 C 
ENDBRANCH   9  10
ENDBRANCH   8   9
ENDBRANCH   6   8
ENDBRANCH   4   6
ENDBRANCH   2   4
ENDBRANCH   1   2
BRANCH   1  12
HETATM   12  C7  UNL     1       4.639  51.968  73.755  1.00  0.00    -0.023 C 
HETATM   13  C8  UNL     1       5.212  53.089  72.891  1.00  0.00     0.015 C 
HETATM   14  C9  UNL     1       4.098  53.852  72.259  1.00  0.00    -0.013 C 
HETATM   15  C10 UNL     1       3.144  54.443  73.266  1.00  0.00     0.009 C 
HETATM   16  C14 UNL     1       3.289  52.947  71.363  1.00  0.00     0.009 C 
HETATM   17  C11 UNL     1       2.646  53.356  74.204  1.00  0.00    -0.013 C 
HETATM   18  C12 UNL     1       1.817  52.430  73.303  1.00  0.00     0.009 C 
HETATM   19  C16 UNL     1       3.789  52.599  74.813  1.00  0.00     0.015 C 
HETATM   20  C13 UNL     1       2.697  51.841  72.227  1.00  0.00    -0.013 C 
HETATM   21  C15 UNL     1       3.830  51.072  72.831  1.00  0.00     0.015 C 
ENDBRANCH   1  12
TORSDOF 7
ENDMDL
MODEL 4
REMARK VINA RESULT: -5.750198954      2.484      3.406
REMARK  7 active torsions:
REMARK  status: ('A' for Active; 'I' for Inactive)
REMARK    1  A    between atoms: C2_2  and  C3_3 
REMARK    2  A    between atoms: C3_3  and  C4_4 
REMARK    3  A    between atoms: C4_4  and  N1_5 
REMARK    4  A    between atoms: N1_5  and  C5_7 
REMARK    5  A    between atoms: C5_7  and  N2_9 
REMARK    6  A    between atoms: N2_9  and  C6_11 
REMARK    7  A    between atoms: C6_11  and  C7_12 
ROOT
HETATM    1  C6  UNL     1       5.033  53.482  72.697  1.00  0.00     0.131 C 
ENDROOT
BRANCH   1   2
HETATM    2  N2  UNL     1       6.195  52.845  72.141  1.00  0.00    -0.367 N 
ATOM      3  H2  UNL     1       6.643  53.232  71.310  1.00  0.00     0.161 HD
BRANCH   2   4
HETATM    4  C5  UNL     1       6.715  51.684  72.751  1.00  0.00     0.167 C 
HETATM    5  S1  UNL     1       5.855  50.997  73.980  1.00  0.00    -0.041 SA
BRANCH   4   6
HETATM    6  N1  UNL     1       7.935  51.070  72.386  1.00  0.00    -0.367 N 
ATOM      7  H1  UNL     1       8.638  51.631  71.905  1.00  0.00     0.161 HD
BRANCH   6   8
HETATM    8  C4  UNL     1       8.230  49.676  72.666  1.00  0.00     0.122 C 
BRANCH   8   9
HETATM    9  C3  UNL     1       8.934  48.998  71.535  1.00  0.00     0.019 C 
BRANCH   9  10
HETATM   10  C2  UNL     1       8.988  47.495  71.714  1.00  0.00    -0.003 C 
HETATM   11  C1  UNL     1       8.285  46.800  70.567  1.00  0.00     0.005 C 
ENDBRANCH   9  10
ENDBRANCH   8   9
ENDBRANCH   6   8
ENDBRANCH   4   6
ENDBRANCH   2   4
ENDBRANCH   1   2
BRANCH   1  12
HETATM   12  C7  UNL     1       4.696  54.775  72.021  1.00  0.00    -0.023 C 
HETATM   13  C8  UNL     1       4.253  54.528  70.580  1.00  0.00     0.015 C 
HETATM   14  C9  UNL     1       3.825  55.816  69.962  1.00  0.00    -0.013 C 
HETATM   15  C10 UNL     1       4.910  56.862  69.973  1.00  0.00     0.009 C 
HETATM   16  C14 UNL     1       2.650  56.390  70.714  1.00  0.00     0.009 C 
HETATM   17  C11 UNL     1       5.437  57.044  71.386  1.00  0.00    -0.013 C 
HETATM   18  C12 UNL     1       4.250  57.632  72.161  1.00  0.00     0.009 C 
HETATM   19  C16 UNL     1       5.847  55.730  71.985  1.00  0.00     0.015 C 
HETATM   20  C13 UNL     1       3.096  56.659  72.146  1.00  0.00    -0.013 C 
HETATM   21  C15 UNL     1       3.497  55.352  72.756  1.00  0.00     0.015 C 
ENDBRANCH   1  12
TORSDOF 7
ENDMDL
MODEL 5
REMARK VINA RESULT: -5.738596380      2.531      3.900
REMARK  7 active torsions:
REMARK  status: ('A' for Active; 'I' for Inactive)
REMARK    1  A    between atoms: C2_2  and  C3_3 
REMARK    2  A    between atoms: C3_3  and  C4_4 
REMARK    3  A    between atoms: C4_4  and  N1_5 
REMARK    4  A    between atoms: N1_5  and  C5_7 
REMARK    5  A    between atoms: C5_7  and  N2_9 
REMARK    6  A    between atoms: N2_9  and  C6_11 
REMARK    7  A    between atoms: C6_11  and  C7_12 
ROOT
HETATM    1  C6  UNL     1       4.819  53.459  72.578  1.00  0.00     0.131 C 
ENDROOT
BRANCH   1   2
HETATM    2  N2  UNL     1       6.078  52.956  72.104  1.00  0.00    -0.367 N 
ATOM      3  H2  UNL     1       6.561  53.424  71.338  1.00  0.00     0.161 HD
BRANCH   2   4
HETATM    4  C5  UNL     1       6.643  51.811  72.703  1.00  0.00     0.167 C 
HETATM    5  S1  UNL     1       5.839  51.111  73.963  1.00  0.00    -0.041 SA
BRANCH   4   6
HETATM    6  N1  UNL     1       7.865  51.223  72.303  1.00  0.00    -0.367 N 
ATOM      7  H1  UNL     1       8.506  51.772  71.731  1.00  0.00     0.161 HD
BRANCH   6   8
HETATM    8  C4  UNL     1       8.247  49.871  72.672  1.00  0.00     0.122 C 
BRANCH   8   9
HETATM    9  C3  UNL     1       8.909  49.133  71.553  1.00  0.00     0.019 C 
BRANCH   9  10
HETATM   10  C2  UNL     1       8.974  47.642  71.810  1.00  0.00    -0.003 C 
HETATM   11  C1  UNL     1       8.386  46.878  70.643  1.00  0.00     0.005 C 
ENDBRANCH   9  10
ENDBRANCH   8   9
ENDBRANCH   6   8
ENDBRANCH   4   6
ENDBRANCH   2   4
ENDBRANCH   1   2
BRANCH   1  12
HETATM   12  C7  UNL     1       4.501  54.826  72.053  1.00  0.00    -0.023 C 
HETATM   13  C8  UNL     1       5.741  55.716  72.090  1.00  0.00     0.015 C 
HETATM   14  C9  UNL     1       5.427  57.034  71.467  1.00  0.00    -0.013 C 
HETATM   15  C10 UNL     1       4.284  57.748  72.145  1.00  0.00     0.009 C 
HETATM   16  C14 UNL     1       5.036  56.848  70.022  1.00  0.00     0.009 C 
HETATM   17  C11 UNL     1       3.073  56.834  72.212  1.00  0.00    -0.013 C 
HETATM   18  C12 UNL     1       2.663  56.640  70.746  1.00  0.00     0.009 C 
HETATM   19  C16 UNL     1       3.423  55.513  72.831  1.00  0.00     0.015 C 
HETATM   20  C13 UNL     1       3.786  55.979  69.984  1.00  0.00    -0.013 C 
HETATM   21  C15 UNL     1       4.128  54.654  70.589  1.00  0.00     0.015 C 
ENDBRANCH   1  12
TORSDOF 7
ENDMDL
