MODEL 1
REMARK VINA RESULT: -7.558230475      0.000      0.000
REMARK  8 active torsions:
REMARK  status: ('A' for Active; 'I' for Inactive)
REMARK    1  A    between atoms: C3_4  and  N2_5 
REMARK    2  A    between atoms: N2_5  and  C4_7 
REMARK    3  A    between atoms: N8_21  and  C8_22 
REMARK    4  A    between atoms: C8_22  and  C9_23 
REMARK    5  A    between atoms: C9_23  and  C10_24 
REMARK    6  A    between atoms: C10_24  and  N9_25 
REMARK    7  A    between atoms: C10_24  and  N10_29 
REMARK    8  A    between atoms: N10_29  and  N11_30 
ROOT
HETATM    1  C4  UNL     1     127.876-110.918 101.314  1.00  0.00     0.153 A 
HETATM    2  N3  UNL     1     127.232-110.504 100.215  1.00  0.00    -0.174 N 
ATOM      3  H3  UNL     1     127.745-109.990  99.499  1.00  0.00     0.186 HD
HETATM    4  C5  UNL     1     125.903-110.759 100.036  1.00  0.00     0.679 A 
HETATM    5  N4  UNL     1     125.322-110.345  98.965  1.00  0.00    -0.234 N 
ATOM      6  H41 UNL     1     124.328-110.535  98.831  1.00  0.00     0.174 HD
ATOM      7  H42 UNL     1     125.840-109.831  98.252  1.00  0.00     0.174 HD
HETATM    8  N5  UNL     1     125.221-111.436 100.972  1.00  0.00    -0.173 N 
ATOM      9  H5  UNL     1     124.228-111.618 100.823  1.00  0.00     0.186 HD
HETATM   10  C6  UNL     1     125.802-111.884 102.105  1.00  0.00     0.168 A 
HETATM   11  C7  UNL     1     127.165-111.608 102.263  1.00  0.00     0.137 A 
HETATM   12  N6  UNL     1     127.470-112.164 103.461  1.00  0.00    -0.277 N 
ATOM     13  H6  UNL     1     128.393-112.152 103.895  1.00  0.00     0.184 HD
HETATM   14  N7  UNL     1     126.390-112.728 103.986  1.00  0.00    -0.018 NA
HETATM   15  N8  UNL     1     125.357-112.572 103.179  1.00  0.00    -0.258 N 
ENDROOT
BRANCH  15  16
HETATM   16  C8  UNL     1     123.985-113.020 103.342  1.00  0.00     0.152 C 
BRANCH  16  17
HETATM   17  C9  UNL     1     123.334-112.302 104.508  1.00  0.00     0.073 C 
BRANCH  17  18
HETATM   18  C10 UNL     1     123.173-113.338 105.617  1.00  0.00     0.296 C 
BRANCH  18  19
HETATM   19  N9  UNL     1     123.738-114.574 105.124  1.00  0.00    -0.060 N 
ATOM     20  H93 UNL     1     124.640-114.448 104.666  1.00  0.00     0.276 HD
ATOM     21  H92 UNL     1     124.057-115.195 105.869  1.00  0.00     0.276 HD
ATOM     22  H91 UNL     1     123.037-115.001 104.519  1.00  0.00     0.276 HD
ENDBRANCH  18  19
BRANCH  18  23
HETATM   23  N10 UNL     1     121.762-113.474 105.947  1.00  0.00    -0.115 NA
BRANCH  23  24
HETATM   24  N11 UNL     1     121.247-114.692 105.490  1.00  0.00    -0.346 N 
ATOM     25 2H11 UNL     1     120.882-114.830 104.547  1.00  0.00     0.172 HD
ATOM     26 1H11 UNL     1     121.287-115.409 106.214  1.00  0.00     0.172 HD
ENDBRANCH  23  24
ENDBRANCH  18  23
ENDBRANCH  17  18
ENDBRANCH  16  17
ENDBRANCH  15  16
BRANCH   1  27
HETATM   27  N2  UNL     1     129.121-110.670 101.466  1.00  0.00    -0.338 N 
ATOM     28  H2  UNL     1     129.771-111.436 101.289  1.00  0.00     0.167 HD
BRANCH  27  29
HETATM   29  C3  UNL     1     129.672-109.450 101.851  1.00  0.00     0.068 A 
HETATM   30  C2  UNL     1     130.899-108.959 101.485  1.00  0.00     0.140 A 
HETATM   31  N1  UNL     1     131.022-107.763 102.079  1.00  0.00    -0.306 N 
HETATM   32  C1  UNL     1     132.148-106.855 101.995  1.00  0.00     0.177 C 
HETATM   33  N12 UNL     1     129.937-107.500 102.787  1.00  0.00    -0.308 N 
HETATM   34  C11 UNL     1     129.083-108.519 102.670  1.00  0.00     0.138 A 
ATOM     35  H12 UNL     1     129.778-106.655 103.334  1.00  0.00     0.186 HD
ENDBRANCH  27  29
ENDBRANCH   1  27
TORSDOF 8
ENDMDL
MODEL 2
REMARK VINA RESULT: -7.528038871      1.981      8.023
REMARK  8 active torsions:
REMARK  status: ('A' for Active; 'I' for Inactive)
REMARK    1  A    between atoms: C3_4  and  N2_5 
REMARK    2  A    between atoms: N2_5  and  C4_7 
REMARK    3  A    between atoms: N8_21  and  C8_22 
REMARK    4  A    between atoms: C8_22  and  C9_23 
REMARK    5  A    between atoms: C9_23  and  C10_24 
REMARK    6  A    between atoms: C10_24  and  N9_25 
REMARK    7  A    between atoms: C10_24  and  N10_29 
REMARK    8  A    between atoms: N10_29  and  N11_30 
ROOT
HETATM    1  C4  UNL     1     124.200-113.448 104.503  1.00  0.00     0.153 A 
HETATM    2  N3  UNL     1     123.397-112.933 103.561  1.00  0.00    -0.174 N 
ATOM      3  H3  UNL     1     122.389-113.067 103.635  1.00  0.00     0.186 HD
HETATM    4  C5  UNL     1     123.905-112.232 102.506  1.00  0.00     0.679 A 
HETATM    5  N4  UNL     1     123.100-111.754 101.622  1.00  0.00    -0.234 N 
ATOM      6  H41 UNL     1     123.480-111.230 100.833  1.00  0.00     0.174 HD
ATOM      7  H42 UNL     1     122.093-111.891 101.702  1.00  0.00     0.174 HD
HETATM    8  N5  UNL     1     125.231-112.051 102.400  1.00  0.00    -0.173 N 
ATOM      9  H5  UNL     1     125.594-111.525 101.605  1.00  0.00     0.186 HD
HETATM   10  C6  UNL     1     126.100-112.540 103.309  1.00  0.00     0.168 A 
HETATM   11  C7  UNL     1     125.552-113.254 104.381  1.00  0.00     0.137 A 
HETATM   12  N6  UNL     1     126.634-113.615 105.115  1.00  0.00    -0.277 N 
ATOM     13  H6  UNL     1     126.601-114.154 105.979  1.00  0.00     0.184 HD
HETATM   14  N7  UNL     1     127.740-113.162 104.542  1.00  0.00    -0.018 NA
HETATM   15  N8  UNL     1     127.445-112.501 103.438  1.00  0.00    -0.258 N 
ENDROOT
BRANCH  15  16
HETATM   16  C8  UNL     1     128.329-111.838 102.496  1.00  0.00     0.152 C 
BRANCH  16  17
HETATM   17  C9  UNL     1     128.642-110.432 102.970  1.00  0.00     0.073 C 
BRANCH  17  18
HETATM   18  C10 UNL     1     128.730-109.563 101.718  1.00  0.00     0.296 C 
BRANCH  18  19
HETATM   19  N9  UNL     1     130.073-109.705 101.201  1.00  0.00    -0.060 N 
ATOM     20  H93 UNL     1     130.112-109.714 100.182  1.00  0.00     0.276 HD
ATOM     21  H92 UNL     1     130.648-108.874 101.345  1.00  0.00     0.276 HD
ATOM     22  H91 UNL     1     130.468-110.544 101.626  1.00  0.00     0.276 HD
ENDBRANCH  18  19
BRANCH  18  23
HETATM   23  N10 UNL     1     128.419-108.185 102.065  1.00  0.00    -0.115 NA
BRANCH  23  24
HETATM   24  N11 UNL     1     129.253-107.716 103.086  1.00  0.00    -0.346 N 
ATOM     25 2H11 UNL     1     130.254-107.910 103.129  1.00  0.00     0.172 HD
ATOM     26 1H11 UNL     1     128.733-107.162 103.767  1.00  0.00     0.172 HD
ENDBRANCH  23  24
ENDBRANCH  18  23
ENDBRANCH  17  18
ENDBRANCH  16  17
ENDBRANCH  15  16
BRANCH   1  27
HETATM   27  N2  UNL     1     123.707-114.102 105.484  1.00  0.00    -0.338 N 
ATOM     28  H2  UNL     1     124.367-114.556 106.116  1.00  0.00     0.167 HD
BRANCH  27  29
HETATM   29  C3  UNL     1     122.353-114.253 105.771  1.00  0.00     0.068 A 
HETATM   30  C2  UNL     1     121.357-114.540 104.871  1.00  0.00     0.140 A 
HETATM   31  N1  UNL     1     120.215-114.594 105.574  1.00  0.00    -0.306 N 
HETATM   32  C1  UNL     1     118.887-114.867 105.064  1.00  0.00     0.177 C 
HETATM   33  N12 UNL     1     120.463-114.356 106.851  1.00  0.00    -0.308 N 
HETATM   34  C11 UNL     1     121.770-114.141 107.009  1.00  0.00     0.138 A 
ATOM     35  H12 UNL     1     119.766-114.339 107.595  1.00  0.00     0.186 HD
ENDBRANCH  27  29
ENDBRANCH   1  27
TORSDOF 8
ENDMDL
MODEL 3
REMARK VINA RESULT: -7.491670271      1.395      7.639
REMARK  8 active torsions:
REMARK  status: ('A' for Active; 'I' for Inactive)
REMARK    1  A    between atoms: C3_4  and  N2_5 
REMARK    2  A    between atoms: N2_5  and  C4_7 
REMARK    3  A    between atoms: N8_21  and  C8_22 
REMARK    4  A    between atoms: C8_22  and  C9_23 
REMARK    5  A    between atoms: C9_23  and  C10_24 
REMARK    6  A    between atoms: C10_24  and  N9_25 
REMARK    7  A    between atoms: C10_24  and  N10_29 
REMARK    8  A    between atoms: N10_29  and  N11_30 
ROOT
HETATM    1  C4  UNL     1     125.788-112.793 102.119  1.00  0.00     0.153 A 
HETATM    2  N3  UNL     1     125.455-112.700 100.825  1.00  0.00    -0.174 N 
ATOM      3  H3  UNL     1     124.690-113.269 100.463  1.00  0.00     0.186 HD
HETATM    4  C5  UNL     1     126.120-111.856  99.983  1.00  0.00     0.679 A 
HETATM    5  N4  UNL     1     125.769-111.796  98.746  1.00  0.00    -0.234 N 
ATOM      6  H41 UNL     1     126.266-111.166  98.116  1.00  0.00     0.174 HD
ATOM      7  H42 UNL     1     125.004-112.368  98.390  1.00  0.00     0.174 HD
HETATM    8  N5  UNL     1     127.128-111.103 100.451  1.00  0.00    -0.173 N 
ATOM      9  H5  UNL     1     127.615-110.478  99.808  1.00  0.00     0.186 HD
HETATM   10  C6  UNL     1     127.519-111.144 101.742  1.00  0.00     0.168 A 
HETATM   11  C7  UNL     1     126.820-112.017 102.583  1.00  0.00     0.137 A 
HETATM   12  N6  UNL     1     127.416-111.850 103.789  1.00  0.00    -0.277 N 
ATOM     13  H6  UNL     1     127.154-112.339 104.644  1.00  0.00     0.184 HD
HETATM   14  N7  UNL     1     128.390-110.956 103.691  1.00  0.00    -0.018 NA
HETATM   15  N8  UNL     1     128.476-110.507 102.453  1.00  0.00    -0.258 N 
ENDROOT
BRANCH  15  16
HETATM   16  C8  UNL     1     129.387-109.529 101.888  1.00  0.00     0.152 C 
BRANCH  16  17
HETATM   17  C9  UNL     1     129.309-108.229 102.665  1.00  0.00     0.073 C 
BRANCH  17  18
HETATM   18  C10 UNL     1     130.718-107.641 102.665  1.00  0.00     0.296 C 
BRANCH  18  19
HETATM   19  N9  UNL     1     130.745-106.614 103.684  1.00  0.00    -0.060 N 
ATOM     20  H93 UNL     1     131.428-106.797 104.419  1.00  0.00     0.276 HD
ATOM     21  H92 UNL     1     131.142-105.733 103.354  1.00  0.00     0.276 HD
ATOM     22  H91 UNL     1     129.793-106.519 104.035  1.00  0.00     0.276 HD
ENDBRANCH  18  19
BRANCH  18  23
HETATM   23  N10 UNL     1     131.019-107.110 101.345  1.00  0.00    -0.115 NA
BRANCH  23  24
HETATM   24  N11 UNL     1     132.365-106.742 101.237  1.00  0.00    -0.346 N 
ATOM     25 2H11 UNL     1     132.989-106.654 102.038  1.00  0.00     0.172 HD
ATOM     26 1H11 UNL     1     132.629-106.580 100.265  1.00  0.00     0.172 HD
ENDBRANCH  23  24
ENDBRANCH  18  23
ENDBRANCH  17  18
ENDBRANCH  16  17
ENDBRANCH  15  16
BRANCH   1  27
HETATM   27  N2  UNL     1     125.154-113.589 102.894  1.00  0.00    -0.338 N 
ATOM     28  H2  UNL     1     125.633-114.447 103.167  1.00  0.00     0.167 HD
BRANCH  27  29
HETATM   29  C3  UNL     1     123.871-113.393 103.398  1.00  0.00     0.068 A 
HETATM   30  C2  UNL     1     122.742-114.088 103.044  1.00  0.00     0.140 A 
HETATM   31  N1  UNL     1     121.738-113.574 103.770  1.00  0.00    -0.306 N 
HETATM   32  C1  UNL     1     120.347-113.979 103.748  1.00  0.00     0.177 C 
HETATM   33  N12 UNL     1     122.195-112.605 104.545  1.00  0.00    -0.308 N 
HETATM   34  C11 UNL     1     123.505-112.466 104.342  1.00  0.00     0.138 A 
ATOM     35  H12 UNL     1     121.634-112.054 105.195  1.00  0.00     0.186 HD
ENDBRANCH  27  29
ENDBRANCH   1  27
TORSDOF 8
ENDMDL
MODEL 4
REMARK VINA RESULT: -7.444774709      3.123      4.702
REMARK  8 active torsions:
REMARK  status: ('A' for Active; 'I' for Inactive)
REMARK    1  A    between atoms: C3_4  and  N2_5 
REMARK    2  A    between atoms: N2_5  and  C4_7 
REMARK    3  A    between atoms: N8_21  and  C8_22 
REMARK    4  A    between atoms: C8_22  and  C9_23 
REMARK    5  A    between atoms: C9_23  and  C10_24 
REMARK    6  A    between atoms: C10_24  and  N9_25 
REMARK    7  A    between atoms: C10_24  and  N10_29 
REMARK    8  A    between atoms: N10_29  and  N11_30 
ROOT
HETATM    1  C4  UNL     1     126.435-112.224 102.813  1.00  0.00     0.153 A 
HETATM    2  N3  UNL     1     127.465-112.969 103.238  1.00  0.00    -0.174 N 
ATOM      3  H3  UNL     1     128.394-112.805 102.852  1.00  0.00     0.186 HD
HETATM    4  C5  UNL     1     127.291-113.943 104.178  1.00  0.00     0.679 A 
HETATM    5  N4  UNL     1     128.306-114.637 104.560  1.00  0.00    -0.234 N 
ATOM      6  H41 UNL     1     128.177-115.365 105.263  1.00  0.00     0.174 HD
ATOM      7  H42 UNL     1     129.233-114.467 104.171  1.00  0.00     0.174 HD
HETATM    8  N5  UNL     1     126.071-114.167 104.691  1.00  0.00    -0.173 N 
ATOM      9  H5  UNL     1     125.959-114.899 105.393  1.00  0.00     0.186 HD
HETATM   10  C6  UNL     1     124.989-113.457 104.311  1.00  0.00     0.168 A 
HETATM   11  C7  UNL     1     125.195-112.464 103.346  1.00  0.00     0.137 A 
HETATM   12  N6  UNL     1     123.963-111.929 103.165  1.00  0.00    -0.277 N 
ATOM     13  H6  UNL     1     123.743-111.169 102.522  1.00  0.00     0.184 HD
HETATM   14  N7  UNL     1     123.085-112.540 103.949  1.00  0.00    -0.018 NA
HETATM   15  N8  UNL     1     123.683-113.477 104.661  1.00  0.00    -0.258 N 
ENDROOT
BRANCH  15  16
HETATM   16  C8  UNL     1     123.122-114.389 105.641  1.00  0.00     0.152 C 
BRANCH  16  17
HETATM   17  C9  UNL     1     121.842-113.816 106.219  1.00  0.00     0.073 C 
BRANCH  17  18
HETATM   18  C10 UNL     1     120.713-114.733 105.758  1.00  0.00     0.296 C 
BRANCH  18  19
HETATM   19  N9  UNL     1     120.846-114.878 104.325  1.00  0.00    -0.060 N 
ATOM     20  H93 UNL     1     120.641-114.020 103.814  1.00  0.00     0.276 HD
ATOM     21  H92 UNL     1     121.814-114.983 104.021  1.00  0.00     0.276 HD
ATOM     22  H91 UNL     1     120.252-115.660 104.049  1.00  0.00     0.276 HD
ENDBRANCH  18  19
BRANCH  18  23
HETATM   23  N10 UNL     1     119.434-114.148 106.132  1.00  0.00    -0.115 NA
BRANCH  23  24
HETATM   24  N11 UNL     1     118.556-114.102 105.043  1.00  0.00    -0.346 N 
ATOM     25 2H11 UNL     1     118.304-114.921 104.489  1.00  0.00     0.172 HD
ATOM     26 1H11 UNL     1     118.209-113.157 104.884  1.00  0.00     0.172 HD
ENDBRANCH  23  24
ENDBRANCH  18  23
ENDBRANCH  17  18
ENDBRANCH  16  17
ENDBRANCH  15  16
BRANCH   1  27
HETATM   27  N2  UNL     1     126.616-111.316 101.930  1.00  0.00    -0.338 N 
ATOM     28  H2  UNL     1     127.156-110.499 102.212  1.00  0.00     0.167 HD
BRANCH  27  29
HETATM   29  C3  UNL     1     126.143-111.341 100.621  1.00  0.00     0.068 A 
HETATM   30  C2  UNL     1     126.402-112.304  99.679  1.00  0.00     0.140 A 
HETATM   31  N1  UNL     1     125.751-111.932  98.567  1.00  0.00    -0.306 N 
HETATM   32  C1  UNL     1     125.719-112.628  97.297  1.00  0.00     0.177 C 
HETATM   33  N12 UNL     1     125.110-110.795  98.782  1.00  0.00    -0.308 N 
HETATM   34  C11 UNL     1     125.329-110.402 100.037  1.00  0.00     0.138 A 
ATOM     35  H12 UNL     1     124.539-110.300  98.097  1.00  0.00     0.186 HD
ENDBRANCH  27  29
ENDBRANCH   1  27
TORSDOF 8
ENDMDL
MODEL 5
REMARK VINA RESULT: -7.435108205      2.359      7.822
REMARK  8 active torsions:
REMARK  status: ('A' for Active; 'I' for Inactive)
REMARK    1  A    between atoms: C3_4  and  N2_5 
REMARK    2  A    between atoms: N2_5  and  C4_7 
REMARK    3  A    between atoms: N8_21  and  C8_22 
REMARK    4  A    between atoms: C8_22  and  C9_23 
REMARK    5  A    between atoms: C9_23  and  C10_24 
REMARK    6  A    between atoms: C10_24  and  N9_25 
REMARK    7  A    between atoms: C10_24  and  N10_29 
REMARK    8  A    between atoms: N10_29  and  N11_30 
ROOT
HETATM    1  C4  UNL     1     124.641-112.694 104.037  1.00  0.00     0.153 A 
HETATM    2  N3  UNL     1     125.641-113.277 104.710  1.00  0.00    -0.174 N 
ATOM      3  H3  UNL     1     125.515-113.507 105.695  1.00  0.00     0.186 HD
HETATM    4  C5  UNL     1     126.827-113.570 104.100  1.00  0.00     0.679 A 
HETATM    5  N4  UNL     1     127.764-114.131 104.782  1.00  0.00    -0.234 N 
ATOM      6  H41 UNL     1     128.650-114.350 104.326  1.00  0.00     0.174 HD
ATOM      7  H42 UNL     1     127.631-114.358 105.767  1.00  0.00     0.174 HD
HETATM    8  N5  UNL     1     127.002-113.272 102.803  1.00  0.00    -0.173 N 
ATOM      9  H5  UNL     1     127.895-113.497 102.363  1.00  0.00     0.186 HD
HETATM   10  C6  UNL     1     126.040-112.685 102.062  1.00  0.00     0.168 A 
HETATM   11  C7  UNL     1     124.834-112.395 102.712  1.00  0.00     0.137 A 
HETATM   12  N6  UNL     1     124.075-111.824 101.745  1.00  0.00    -0.277 N 
ATOM     13  H6  UNL     1     123.122-111.487 101.873  1.00  0.00     0.184 HD
HETATM   14  N7  UNL     1     124.756-111.770 100.609  1.00  0.00    -0.018 NA
HETATM   15  N8  UNL     1     125.959-112.289 100.772  1.00  0.00    -0.258 N 
ENDROOT
BRANCH  15  16
HETATM   16  C8  UNL     1     127.036-112.439  99.811  1.00  0.00     0.152 C 
BRANCH  16  17
HETATM   17  C9  UNL     1     127.967-111.244  99.874  1.00  0.00     0.073 C 
BRANCH  17  18
HETATM   18  C10 UNL     1     129.311-111.769 100.369  1.00  0.00     0.296 C 
BRANCH  18  19
HETATM   19  N9  UNL     1     129.342-113.187 100.082  1.00  0.00    -0.060 N 
ATOM     20  H93 UNL     1     129.458-113.393  99.090  1.00  0.00     0.276 HD
ATOM     21  H92 UNL     1     130.192-113.644 100.411  1.00  0.00     0.276 HD
ATOM     22  H91 UNL     1     128.492-113.587 100.478  1.00  0.00     0.276 HD
ENDBRANCH  18  19
BRANCH  18  23
HETATM   23  N10 UNL     1     129.440-111.496 101.792  1.00  0.00    -0.115 NA
BRANCH  23  24
HETATM   24  N11 UNL     1     128.863-110.267 102.130  1.00  0.00    -0.346 N 
ATOM     25 2H11 UNL     1     129.362-109.378 102.079  1.00  0.00     0.172 HD
ATOM     26 1H11 UNL     1     127.895-110.379 102.429  1.00  0.00     0.172 HD
ENDBRANCH  23  24
ENDBRANCH  18  23
ENDBRANCH  17  18
ENDBRANCH  16  17
ENDBRANCH  15  16
BRANCH   1  27
HETATM   27  N2  UNL     1     123.537-112.426 104.624  1.00  0.00    -0.338 N 
ATOM     28  H2  UNL     1     123.400-111.465 104.936  1.00  0.00     0.167 HD
BRANCH  27  29
HETATM   29  C3  UNL     1     122.505-113.326 104.878  1.00  0.00     0.068 A 
HETATM   30  C2  UNL     1     122.045-113.711 106.113  1.00  0.00     0.140 A 
HETATM   31  N1  UNL     1     121.051-114.584 105.892  1.00  0.00    -0.306 N 
HETATM   32  C1  UNL     1     120.252-115.270 106.887  1.00  0.00     0.177 C 
HETATM   33  N12 UNL     1     120.881-114.750 104.591  1.00  0.00    -0.308 N 
HETATM   34  C11 UNL     1     121.759-113.990 103.936  1.00  0.00     0.138 A 
ATOM     35  H12 UNL     1     120.188-115.361 104.159  1.00  0.00     0.186 HD
ENDBRANCH  27  29
ENDBRANCH   1  27
TORSDOF 8
ENDMDL
