MODEL 1
REMARK VINA RESULT: -8.431402953      0.000      0.000
REMARK  6 active torsions:
REMARK  status: ('A' for Active; 'I' for Inactive)
REMARK    1  A    between atoms: N1_1  and  C1_4 
REMARK    2  A    between atoms: N3_11  and  C5_13 
REMARK    3  A    between atoms: C5_13  and  C6_14 
REMARK    4  A    between atoms: C6_14  and  C7_15 
REMARK    5  A    between atoms: C7_15  and  O2_16 
REMARK    6  A    between atoms: C7_15  and  C8_18 
ROOT
HETATM    1  C1  UNL     1     128.060-113.094  99.967  1.00  0.00     0.680 A 
HETATM    2  N2  UNL     1     126.929-112.364  99.958  1.00  0.00    -0.155 N 
ATOM      3  H2  UNL     1     126.643-111.868  99.114  1.00  0.00     0.187 HD
HETATM    4  C2  UNL     1     126.181-112.293 101.068  1.00  0.00     0.277 A 
HETATM    5  O1  UNL     1     125.112-111.629 101.133  1.00  0.00    -0.267 OA
HETATM    6  C3  UNL     1     126.596-112.973 102.185  1.00  0.00     0.121 A 
HETATM    7  C4  UNL     1     125.822-112.906 103.348  1.00  0.00     0.121 A 
HETATM    8  N3  UNL     1     124.737-112.204 103.338  1.00  0.00    -0.375 N 
ATOM      9  H3  UNL     1     124.424-111.697 102.510  1.00  0.00     0.161 HD
HETATM   10  N8  UNL     1     126.264-113.587 104.421  1.00  0.00    -0.338 N 
ATOM     11  H8  UNL     1     125.721-113.557 105.284  1.00  0.00     0.168 HD
HETATM   12  C9  UNL     1     127.400-114.307 104.391  1.00  0.00     0.183 A 
HETATM   13  N9  UNL     1     128.166-114.393 103.291  1.00  0.00    -0.337 N 
ATOM     14  H9  UNL     1     129.024-114.946 103.288  1.00  0.00     0.168 HD
HETATM   15  C10 UNL     1     127.760-113.719 102.177  1.00  0.00     0.141 A 
HETATM   16  N10 UNL     1     128.484-113.767 101.047  1.00  0.00    -0.176 N 
ATOM     17  H10 UNL     1     129.347-114.309 101.010  1.00  0.00     0.186 HD
ENDROOT
BRANCH   8  18
HETATM   18  C5  UNL     1     123.980-112.185 104.605  1.00  0.00     0.124 C 
BRANCH  18  19
HETATM   19  C6  UNL     1     122.565-112.604 104.385  1.00  0.00     0.059 C 
BRANCH  19  20
HETATM   20  C7  UNL     1     122.367-114.079 104.254  1.00  0.00     0.189 C 
BRANCH  20  21
HETATM   21  O2  UNL     1     123.477-114.700 104.911  1.00  0.00    -0.388 OA
ATOM     22  H2  UNL     1     123.680-115.485 104.416  1.00  0.00     0.210 HD
ENDBRANCH  20  21
BRANCH  20  23
HETATM   23  C8  UNL     1     121.191-114.543 105.069  1.00  0.00     0.139 A 
HETATM   24  N4  UNL     1     120.109-115.193 104.527  1.00  0.00    -0.273 N 
HETATM   25  N5  UNL     1     119.286-115.460 105.517  1.00  0.00    -0.225 N 
ATOM     26  H4  UNL     1     119.971-115.424 103.544  1.00  0.00     0.189 HD
HETATM   27  N6  UNL     1     119.765-115.023 106.668  1.00  0.00    -0.005 NA
ATOM     28  H5  UNL     1     118.393-115.942 105.409  1.00  0.00     0.205 HD
HETATM   29  N7  UNL     1     120.927-114.468 106.371  1.00  0.00    -0.268 N 
ATOM     30  H7  UNL     1     121.546-114.034 107.056  1.00  0.00     0.185 HD
ENDBRANCH  20  23
ENDBRANCH  19  20
ENDBRANCH  18  19
ENDBRANCH   8  18
BRANCH   1  31
HETATM   31  N1  UNL     1     128.784-113.157  98.877  1.00  0.00    -0.234 N 
ATOM     32  H12 UNL     1     128.316-113.399  98.004  1.00  0.00     0.174 HD
ATOM     33  H11 UNL     1     129.784-112.966  98.936  1.00  0.00     0.174 HD
ENDBRANCH   1  31
TORSDOF 6
ENDMDL
MODEL 2
REMARK VINA RESULT: -8.293775896      4.857      8.589
REMARK  6 active torsions:
REMARK  status: ('A' for Active; 'I' for Inactive)
REMARK    1  A    between atoms: N1_1  and  C1_4 
REMARK    2  A    between atoms: N3_11  and  C5_13 
REMARK    3  A    between atoms: C5_13  and  C6_14 
REMARK    4  A    between atoms: C6_14  and  C7_15 
REMARK    5  A    between atoms: C7_15  and  O2_16 
REMARK    6  A    between atoms: C7_15  and  C8_18 
ROOT
HETATM    1  C1  UNL     1     125.238-113.457 104.200  1.00  0.00     0.680 A 
HETATM    2  N2  UNL     1     126.465-113.072 104.596  1.00  0.00    -0.155 N 
ATOM      3  H2  UNL     1     126.828-113.365 105.503  1.00  0.00     0.187 HD
HETATM    4  C2  UNL     1     127.208-112.303 103.788  1.00  0.00     0.277 A 
HETATM    5  O1  UNL     1     128.364-111.905 104.093  1.00  0.00    -0.267 OA
HETATM    6  C3  UNL     1     126.687-111.930 102.574  1.00  0.00     0.121 A 
HETATM    7  C4  UNL     1     127.454-111.126 101.724  1.00  0.00     0.121 A 
HETATM    8  N3  UNL     1     128.632-110.758 102.106  1.00  0.00    -0.375 N 
ATOM      9  H3  UNL     1     129.024-111.033 103.007  1.00  0.00     0.161 HD
HETATM   10  N8  UNL     1     126.907-110.783 100.544  1.00  0.00    -0.338 N 
ATOM     11  H8  UNL     1     127.443-110.198  99.902  1.00  0.00     0.168 HD
HETATM   12  C9  UNL     1     125.676-111.187 100.184  1.00  0.00     0.183 A 
HETATM   13  N9  UNL     1     124.913-111.959 100.975  1.00  0.00    -0.337 N 
ATOM     14  H9  UNL     1     123.982-112.256 100.682  1.00  0.00     0.168 HD
HETATM   15  C10 UNL     1     125.424-112.333 102.183  1.00  0.00     0.141 A 
HETATM   16  N10 UNL     1     124.709-113.104 103.018  1.00  0.00    -0.176 N 
ATOM     17  H10 UNL     1     123.775-113.418 102.758  1.00  0.00     0.186 HD
ENDROOT
BRANCH   8  18
HETATM   18  C5  UNL     1     129.375-109.912 101.151  1.00  0.00     0.124 C 
BRANCH  18  19
HETATM   19  C6  UNL     1     130.446-109.139 101.846  1.00  0.00     0.059 C 
BRANCH  19  20
HETATM   20  C7  UNL     1     130.079-107.729 102.177  1.00  0.00     0.189 C 
BRANCH  20  21
HETATM   21  O2  UNL     1     128.905-107.793 102.992  1.00  0.00    -0.388 OA
ATOM     22  H2  UNL     1     128.169-107.891 102.400  1.00  0.00     0.210 HD
ENDBRANCH  20  21
BRANCH  20  23
HETATM   23  C8  UNL     1     131.094-107.106 103.096  1.00  0.00     0.139 A 
HETATM   24  N4  UNL     1     130.760-106.255 104.120  1.00  0.00    -0.273 N 
HETATM   25  N5  UNL     1     131.880-105.916 104.720  1.00  0.00    -0.225 N 
ATOM     26  H4  UNL     1     129.821-105.945 104.369  1.00  0.00     0.189 HD
HETATM   27  N6  UNL     1     132.922-106.494 104.147  1.00  0.00    -0.005 NA
ATOM     28  H5  UNL     1     131.937-105.289 105.522  1.00  0.00     0.205 HD
HETATM   29  N7  UNL     1     132.418-107.215 103.161  1.00  0.00    -0.268 N 
ATOM     30  H7  UNL     1     132.977-107.784 102.525  1.00  0.00     0.185 HD
ENDBRANCH  20  23
ENDBRANCH  19  20
ENDBRANCH  18  19
ENDBRANCH   8  18
BRANCH   1  31
HETATM   31  N1  UNL     1     124.520-114.210 104.996  1.00  0.00    -0.234 N 
ATOM     32  H12 UNL     1     123.564-113.917 105.199  1.00  0.00     0.174 HD
ATOM     33  H11 UNL     1     124.935-115.056 105.385  1.00  0.00     0.174 HD
ENDBRANCH   1  31
TORSDOF 6
ENDMDL
MODEL 3
REMARK VINA RESULT: -8.235287608      5.123      8.857
REMARK  6 active torsions:
REMARK  status: ('A' for Active; 'I' for Inactive)
REMARK    1  A    between atoms: N1_1  and  C1_4 
REMARK    2  A    between atoms: N3_11  and  C5_13 
REMARK    3  A    between atoms: C5_13  and  C6_14 
REMARK    4  A    between atoms: C6_14  and  C7_15 
REMARK    5  A    between atoms: C7_15  and  O2_16 
REMARK    6  A    between atoms: C7_15  and  C8_18 
ROOT
HETATM    1  C1  UNL     1     126.811-113.522 103.574  1.00  0.00     0.680 A 
HETATM    2  N2  UNL     1     127.220-112.297 103.952  1.00  0.00    -0.155 N 
ATOM      3  H2  UNL     1     126.891-111.892 104.829  1.00  0.00     0.187 HD
HETATM    4  C2  UNL     1     128.064-111.611 103.168  1.00  0.00     0.277 A 
HETATM    5  O1  UNL     1     128.488-110.460 103.458  1.00  0.00    -0.267 OA
HETATM    6  C3  UNL     1     128.486-112.188 101.996  1.00  0.00     0.121 A 
HETATM    7  C4  UNL     1     129.367-111.481 101.171  1.00  0.00     0.121 A 
HETATM    8  N3  UNL     1     129.758-110.305 101.535  1.00  0.00    -0.375 N 
ATOM      9  H3  UNL     1     129.447-109.872 102.406  1.00  0.00     0.161 HD
HETATM   10  N8  UNL     1     129.757-112.081 100.031  1.00  0.00    -0.338 N 
ATOM     11  H8  UNL     1     130.399-111.591  99.408  1.00  0.00     0.168 HD
HETATM   12  C9  UNL     1     129.326-113.308  99.687  1.00  0.00     0.183 A 
HETATM   13  N9  UNL     1     128.481-114.014 100.457  1.00  0.00    -0.337 N 
ATOM     14  H9  UNL     1     128.167-114.944 100.178  1.00  0.00     0.168 HD
HETATM   15  C10 UNL     1     128.056-113.447 101.622  1.00  0.00     0.141 A 
HETATM   16  N10 UNL     1     127.211-114.104 102.434  1.00  0.00    -0.176 N 
ATOM     17  H10 UNL     1     126.877-115.035 102.185  1.00  0.00     0.186 HD
ENDROOT
BRANCH   8  18
HETATM   18  C5  UNL     1     130.686-109.627 100.607  1.00  0.00     0.124 C 
BRANCH  18  19
HETATM   19  C6  UNL     1     131.662-108.783 101.355  1.00  0.00     0.059 C 
BRANCH  19  20
HETATM   20  C7  UNL     1     131.189-107.395 101.645  1.00  0.00     0.189 C 
BRANCH  20  21
HETATM   21  O2  UNL     1     129.798-107.497 101.967  1.00  0.00    -0.388 OA
ATOM     22  H2  UNL     1     129.604-108.425 102.037  1.00  0.00     0.210 HD
ENDBRANCH  20  21
BRANCH  20  23
HETATM   23  C8  UNL     1     131.792-106.872 102.920  1.00  0.00     0.139 A 
HETATM   24  N4  UNL     1     131.047-106.346 103.945  1.00  0.00    -0.273 N 
HETATM   25  N5  UNL     1     131.887-106.004 104.897  1.00  0.00    -0.225 N 
ATOM     26  H4  UNL     1     130.033-106.240 103.965  1.00  0.00     0.189 HD
HETATM   27  N6  UNL     1     133.134-106.276 104.552  1.00  0.00    -0.005 NA
ATOM     28  H5  UNL     1     131.612-105.584 105.785  1.00  0.00     0.205 HD
HETATM   29  N7  UNL     1     133.052-106.804 103.344  1.00  0.00    -0.268 N 
ATOM     30  H7  UNL     1     133.856-107.121 102.802  1.00  0.00     0.185 HD
ENDBRANCH  20  23
ENDBRANCH  19  20
ENDBRANCH  18  19
ENDBRANCH   8  18
BRANCH   1  31
HETATM   31  N1  UNL     1     125.987-114.184 104.348  1.00  0.00    -0.234 N 
ATOM     32  H12 UNL     1     125.342-114.841 103.909  1.00  0.00     0.174 HD
ATOM     33  H11 UNL     1     126.015-114.022 105.354  1.00  0.00     0.174 HD
ENDBRANCH   1  31
TORSDOF 6
ENDMDL
MODEL 4
REMARK VINA RESULT: -8.213469116      1.893      2.381
REMARK  6 active torsions:
REMARK  status: ('A' for Active; 'I' for Inactive)
REMARK    1  A    between atoms: N1_1  and  C1_4 
REMARK    2  A    between atoms: N3_11  and  C5_13 
REMARK    3  A    between atoms: C5_13  and  C6_14 
REMARK    4  A    between atoms: C6_14  and  C7_15 
REMARK    5  A    between atoms: C7_15  and  O2_16 
REMARK    6  A    between atoms: C7_15  and  C8_18 
ROOT
HETATM    1  C1  UNL     1     125.784-110.311  99.397  1.00  0.00     0.680 A 
HETATM    2  N2  UNL     1     124.676-110.868  99.920  1.00  0.00    -0.155 N 
ATOM      3  H2  UNL     1     123.790-110.821  99.416  1.00  0.00     0.187 HD
HETATM    4  C2  UNL     1     124.744-111.487 101.106  1.00  0.00     0.277 A 
HETATM    5  O1  UNL     1     123.749-112.030 101.656  1.00  0.00    -0.267 OA
HETATM    6  C3  UNL     1     125.953-111.532 101.755  1.00  0.00     0.121 A 
HETATM    7  C4  UNL     1     126.036-112.175 102.994  1.00  0.00     0.121 A 
HETATM    8  N3  UNL     1     124.971-112.709 103.494  1.00  0.00    -0.375 N 
ATOM      9  H3  UNL     1     124.070-112.679 103.015  1.00  0.00     0.161 HD
HETATM   10  N8  UNL     1     127.239-112.197 103.597  1.00  0.00    -0.338 N 
ATOM     11  H8  UNL     1     127.331-112.659 104.502  1.00  0.00     0.168 HD
HETATM   12  C9  UNL     1     128.325-111.628 103.042  1.00  0.00     0.183 A 
HETATM   13  N9  UNL     1     128.281-111.003 101.854  1.00  0.00    -0.337 N 
ATOM     14  H9  UNL     1     129.116-110.579 101.451  1.00  0.00     0.168 HD
HETATM   15  C10 UNL     1     127.082-110.954 101.205  1.00  0.00     0.141 A 
HETATM   16  N10 UNL     1     126.975-110.343 100.013  1.00  0.00    -0.176 N 
ATOM     17  H10 UNL     1     127.790-109.908  99.582  1.00  0.00     0.186 HD
ENDROOT
BRANCH   8  18
HETATM   18  C5  UNL     1     125.144-113.367 104.804  1.00  0.00     0.124 C 
BRANCH  18  19
HETATM   19  C6  UNL     1     123.891-114.063 105.219  1.00  0.00     0.059 C 
BRANCH  19  20
HETATM   20  C7  UNL     1     122.834-113.161 105.770  1.00  0.00     0.189 C 
BRANCH  20  21
HETATM   21  O2  UNL     1     122.415-112.317 104.693  1.00  0.00    -0.388 OA
ATOM     22  H2  UNL     1     121.617-111.889 104.980  1.00  0.00     0.210 HD
ENDBRANCH  20  21
BRANCH  20  23
HETATM   23  C8  UNL     1     121.584-113.931 106.101  1.00  0.00     0.139 A 
HETATM   24  N4  UNL     1     121.061-114.903 105.285  1.00  0.00    -0.273 N 
HETATM   25  N5  UNL     1     119.987-115.370 105.883  1.00  0.00    -0.225 N 
ATOM     26  H4  UNL     1     121.434-115.206 104.386  1.00  0.00     0.189 HD
HETATM   27  N6  UNL     1     119.780-114.760 107.037  1.00  0.00    -0.005 NA
ATOM     28  H5  UNL     1     119.392-116.107 105.505  1.00  0.00     0.205 HD
HETATM   29  N7  UNL     1     120.766-113.888 107.149  1.00  0.00    -0.268 N 
ATOM     30  H7  UNL     1     120.884-113.257 107.942  1.00  0.00     0.185 HD
ENDBRANCH  20  23
ENDBRANCH  19  20
ENDBRANCH  18  19
ENDBRANCH   8  18
BRANCH   1  31
HETATM   31  N1  UNL     1     125.707-109.709  98.237  1.00  0.00    -0.234 N 
ATOM     32  H12 UNL     1     124.918-109.084  98.073  1.00  0.00     0.174 HD
ATOM     33  H11 UNL     1     126.430-109.884  97.539  1.00  0.00     0.174 HD
ENDBRANCH   1  31
TORSDOF 6
ENDMDL
MODEL 5
REMARK VINA RESULT: -8.201804896      1.998      6.625
REMARK  6 active torsions:
REMARK  status: ('A' for Active; 'I' for Inactive)
REMARK    1  A    between atoms: N1_1  and  C1_4 
REMARK    2  A    between atoms: N3_11  and  C5_13 
REMARK    3  A    between atoms: C5_13  and  C6_14 
REMARK    4  A    between atoms: C6_14  and  C7_15 
REMARK    5  A    between atoms: C7_15  and  O2_16 
REMARK    6  A    between atoms: C7_15  and  C8_18 
ROOT
HETATM    1  C1  UNL     1     120.035-114.996 105.232  1.00  0.00     0.680 A 
HETATM    2  N2  UNL     1     120.058-114.613 103.942  1.00  0.00    -0.155 N 
ATOM      3  H2  UNL     1     119.298-114.873 103.314  1.00  0.00     0.187 HD
HETATM    4  C2  UNL     1     121.088-113.885 103.488  1.00  0.00     0.277 A 
HETATM    5  O1  UNL     1     121.176-113.491 102.294  1.00  0.00    -0.267 OA
HETATM    6  C3  UNL     1     122.092-113.552 104.362  1.00  0.00     0.121 A 
HETATM    7  C4  UNL     1     123.172-112.792 103.899  1.00  0.00     0.121 A 
HETATM    8  N3  UNL     1     123.192-112.425 102.660  1.00  0.00    -0.375 N 
ATOM      9  H3  UNL     1     122.447-112.669 102.007  1.00  0.00     0.161 HD
HETATM   10  N8  UNL     1     124.136-112.488 104.787  1.00  0.00    -0.338 N 
ATOM     11  H8  UNL     1     124.935-111.934 104.479  1.00  0.00     0.168 HD
HETATM   12  C9  UNL     1     124.077-112.890 106.069  1.00  0.00     0.183 A 
HETATM   13  N9  UNL     1     123.056-113.620 106.547  1.00  0.00    -0.337 N 
ATOM     14  H9  UNL     1     123.030-113.914 107.524  1.00  0.00     0.168 HD
HETATM   15  C10 UNL     1     122.054-113.954 105.684  1.00  0.00     0.141 A 
HETATM   16  N10 UNL     1     121.006-114.683 106.103  1.00  0.00    -0.176 N 
ATOM     17  H10 UNL     1     120.949-114.994 107.072  1.00  0.00     0.186 HD
ENDROOT
BRANCH   8  18
HETATM   18  C5  UNL     1     124.366-111.627 102.253  1.00  0.00     0.124 C 
BRANCH  18  19
HETATM   19  C6  UNL     1     125.197-112.373 101.262  1.00  0.00     0.059 C 
BRANCH  19  20
HETATM   20  C7  UNL     1     126.671-112.259 101.477  1.00  0.00     0.189 C 
BRANCH  20  21
HETATM   21  O2  UNL     1     126.954-110.865 101.637  1.00  0.00    -0.388 OA
ATOM     22  H2  UNL     1     127.881-110.798 101.835  1.00  0.00     0.210 HD
ENDBRANCH  20  21
BRANCH  20  23
HETATM   23  C8  UNL     1     127.072-112.838 102.806  1.00  0.00     0.139 A 
HETATM   24  N4  UNL     1     126.909-114.163 103.129  1.00  0.00    -0.273 N 
HETATM   25  N5  UNL     1     127.374-114.321 104.349  1.00  0.00    -0.225 N 
ATOM     26  H4  UNL     1     126.505-114.887 102.536  1.00  0.00     0.189 HD
HETATM   27  N6  UNL     1     127.828-113.180 104.839  1.00  0.00    -0.005 NA
ATOM     28  H5  UNL     1     127.382-115.209 104.852  1.00  0.00     0.205 HD
HETATM   29  N7  UNL     1     127.634-112.291 103.881  1.00  0.00    -0.268 N 
ATOM     30  H7  UNL     1     127.884-111.305 103.957  1.00  0.00     0.185 HD
ENDBRANCH  20  23
ENDBRANCH  19  20
ENDBRANCH  18  19
ENDBRANCH   8  18
BRANCH   1  31
HETATM   31  N1  UNL     1     119.024-115.707 105.666  1.00  0.00    -0.234 N 
ATOM     32  H12 UNL     1     118.554-116.325 105.004  1.00  0.00     0.174 HD
ATOM     33  H11 UNL     1     118.741-115.621 106.642  1.00  0.00     0.174 HD
ENDBRANCH   1  31
TORSDOF 6
ENDMDL
