MODEL 1
REMARK VINA RESULT: -7.161456671      0.000      0.000
REMARK  5 active torsions:
REMARK  status: ('A' for Active; 'I' for Inactive)
REMARK    1  A    between atoms: O1_1  and  C1_3 
REMARK    2  A    between atoms: C1_3  and  C2_4 
REMARK    3  A    between atoms: C2_4  and  N1_5 
REMARK    4  A    between atoms: C4_7  and  C5_8 
REMARK    5  A    between atoms: C7_11  and  C8_12 
ROOT
HETATM    1  C5  UNL     1      -8.924  -3.770  12.449  1.00  0.00     0.051 A 
HETATM    2  C6  UNL     1     -10.191  -3.305  12.236  1.00  0.00     0.082 A 
HETATM    3  S1  UNL     1     -10.963  -4.685  11.540  1.00  0.00    -0.084 SA
HETATM    4  C7  UNL     1      -9.603  -5.748  11.578  1.00  0.00     0.082 A 
HETATM    5  N3  UNL     1      -8.686  -4.998  12.101  1.00  0.00    -0.351 N 
ATOM      6  H3  UNL     1      -7.752  -5.382  12.244  1.00  0.00     0.166 HD
ENDROOT
BRANCH   1   7
HETATM    7  C4  UNL     1      -7.884  -2.906  13.048  1.00  0.00     0.009 A 
HETATM    8  C3  UNL     1      -6.993  -2.104  12.376  1.00  0.00     0.105 A 
HETATM    9  N1  UNL     1      -6.187  -1.456  13.233  1.00  0.00    -0.348 N 
HETATM   10  C13 UNL     1      -6.557  -1.841  14.462  1.00  0.00     0.082 A 
HETATM   11  C12 UNL     1      -7.600  -2.735  14.398  1.00  0.00     0.052 A 
HETATM   12 BR1  UNL     1      -5.750  -1.233  16.094  1.00  0.00    -0.031 Br
BRANCH   9  13
HETATM   13  C2  UNL     1      -5.120  -0.521  12.929  1.00  0.00     0.155 C 
BRANCH  13  14
HETATM   14  C1  UNL     1      -5.149  -0.159  11.448  1.00  0.00     0.184 C 
BRANCH  14  15
HETATM   15  O1  UNL     1      -5.747   1.087  11.320  1.00  0.00    -0.399 OA
ATOM     16  H1  UNL     1      -5.697   1.346  10.408  1.00  0.00     0.209 HD
ENDBRANCH  14  15
ENDBRANCH  13  14
ENDBRANCH   9  13
ENDBRANCH   1   7
BRANCH   4  17
HETATM   17  C8  UNL     1      -9.508  -7.167  11.122  1.00  0.00     0.242 C 
HETATM   18  C9  UNL     1      -8.304  -7.788  11.789  1.00  0.00     0.041 C 
HETATM   19  C10 UNL     1      -8.069  -8.999  10.875  1.00  0.00     0.030 C 
HETATM   20  C11 UNL     1      -8.805  -8.664   9.597  1.00  0.00     0.233 C 
HETATM   21  N2  UNL     1      -9.148  -7.259   9.721  1.00  0.00    -0.065 N 
ATOM     22  H22 UNL     1      -9.858  -6.927   9.068  1.00  0.00     0.278 HD
ATOM     23  H21 UNL     1      -8.426  -6.607   9.415  1.00  0.00     0.278 HD
ENDBRANCH   4  17
TORSDOF 5
ENDMDL
MODEL 2
REMARK VINA RESULT: -7.114943787      3.743      6.885
REMARK  5 active torsions:
REMARK  status: ('A' for Active; 'I' for Inactive)
REMARK    1  A    between atoms: O1_1  and  C1_3 
REMARK    2  A    between atoms: C1_3  and  C2_4 
REMARK    3  A    between atoms: C2_4  and  N1_5 
REMARK    4  A    between atoms: C4_7  and  C5_8 
REMARK    5  A    between atoms: C7_11  and  C8_12 
ROOT
HETATM    1  C5  UNL     1      -8.242  -3.872  13.057  1.00  0.00     0.051 A 
HETATM    2  C6  UNL     1      -8.606  -3.953  14.371  1.00  0.00     0.082 A 
HETATM    3  S1  UNL     1      -7.591  -2.756  15.094  1.00  0.00    -0.084 SA
HETATM    4  C7  UNL     1      -6.782  -2.247  13.657  1.00  0.00     0.082 A 
HETATM    5  N3  UNL     1      -7.326  -3.002  12.756  1.00  0.00    -0.351 N 
ATOM      6  H3  UNL     1      -7.026  -2.912  11.786  1.00  0.00     0.166 HD
ENDROOT
BRANCH   1   7
HETATM    7  C4  UNL     1      -8.869  -4.739  12.036  1.00  0.00     0.009 A 
HETATM    8  C3  UNL     1      -9.831  -4.374  11.126  1.00  0.00     0.105 A 
HETATM    9  N1  UNL     1     -10.177  -5.413  10.347  1.00  0.00    -0.348 N 
HETATM   10  C13 UNL     1      -9.434  -6.452  10.755  1.00  0.00     0.082 A 
HETATM   11  C12 UNL     1      -8.613  -6.084  11.795  1.00  0.00     0.052 A 
HETATM   12 BR1  UNL     1      -9.502  -8.215   9.999  1.00  0.00    -0.031 Br
BRANCH   9  13
HETATM   13  C2  UNL     1     -11.150  -5.444   9.272  1.00  0.00     0.155 C 
BRANCH  13  14
HETATM   14  C1  UNL     1     -12.100  -4.259   9.393  1.00  0.00     0.184 C 
BRANCH  14  15
HETATM   15  O1  UNL     1     -13.228  -4.679  10.084  1.00  0.00    -0.399 OA
ATOM     16  H1  UNL     1     -13.154  -4.377  10.982  1.00  0.00     0.209 HD
ENDBRANCH  14  15
ENDBRANCH  13  14
ENDBRANCH   9  13
ENDBRANCH   1   7
BRANCH   4  17
HETATM   17  C8  UNL     1      -5.725  -1.205  13.494  1.00  0.00     0.242 C 
HETATM   18  C9  UNL     1      -5.671  -0.823  12.033  1.00  0.00     0.041 C 
HETATM   19  C10 UNL     1      -4.283  -0.173  11.962  1.00  0.00     0.030 C 
HETATM   20  C11 UNL     1      -3.559  -0.680  13.190  1.00  0.00     0.233 C 
HETATM   21  N2  UNL     1      -4.398  -1.747  13.705  1.00  0.00    -0.065 N 
ATOM     22  H22 UNL     1      -4.194  -2.035  14.662  1.00  0.00     0.278 HD
ATOM     23  H21 UNL     1      -4.234  -2.666  13.292  1.00  0.00     0.278 HD
ENDBRANCH   4  17
TORSDOF 5
ENDMDL
MODEL 3
REMARK VINA RESULT: -7.063955221      3.725      7.008
REMARK  5 active torsions:
REMARK  status: ('A' for Active; 'I' for Inactive)
REMARK    1  A    between atoms: O1_1  and  C1_3 
REMARK    2  A    between atoms: C1_3  and  C2_4 
REMARK    3  A    between atoms: C2_4  and  N1_5 
REMARK    4  A    between atoms: C4_7  and  C5_8 
REMARK    5  A    between atoms: C7_11  and  C8_12 
ROOT
HETATM    1  C5  UNL     1      -7.997  -3.196  13.783  1.00  0.00     0.051 A 
HETATM    2  C6  UNL     1      -8.281  -3.479  15.089  1.00  0.00     0.082 A 
HETATM    3  S1  UNL     1      -7.170  -2.453  15.924  1.00  0.00    -0.084 SA
HETATM    4  C7  UNL     1      -6.430  -1.743  14.535  1.00  0.00     0.082 A 
HETATM    5  N3  UNL     1      -7.063  -2.321  13.564  1.00  0.00    -0.351 N 
ATOM      6  H3  UNL     1      -6.821  -2.083  12.602  1.00  0.00     0.166 HD
ENDROOT
BRANCH   1   7
HETATM    7  C4  UNL     1      -8.725  -3.862  12.681  1.00  0.00     0.009 A 
HETATM    8  C3  UNL     1      -9.738  -3.326  11.923  1.00  0.00     0.105 A 
HETATM    9  N1  UNL     1     -10.174  -4.208  11.008  1.00  0.00    -0.348 N 
HETATM   10  C13 UNL     1      -9.440  -5.318  11.176  1.00  0.00     0.082 A 
HETATM   11  C12 UNL     1      -8.534  -5.151  12.197  1.00  0.00     0.052 A 
HETATM   12 BR1  UNL     1      -9.622  -6.923  10.140  1.00  0.00    -0.031 Br
BRANCH   9  13
HETATM   13  C2  UNL     1     -11.223  -4.034  10.021  1.00  0.00     0.155 C 
BRANCH  13  14
HETATM   14  C1  UNL     1     -12.542  -4.574  10.561  1.00  0.00     0.184 C 
BRANCH  14  15
HETATM   15  O1  UNL     1     -12.978  -3.722  11.567  1.00  0.00    -0.399 OA
ATOM     16  H1  UNL     1     -13.655  -3.162  11.207  1.00  0.00     0.209 HD
ENDBRANCH  14  15
ENDBRANCH  13  14
ENDBRANCH   9  13
ENDBRANCH   1   7
BRANCH   4  17
HETATM   17  C8  UNL     1      -5.340  -0.725  14.469  1.00  0.00     0.242 C 
HETATM   18  C9  UNL     1      -5.123  -0.371  13.017  1.00  0.00     0.041 C 
HETATM   19  C10 UNL     1      -3.721   0.251  13.084  1.00  0.00     0.030 C 
HETATM   20  C11 UNL     1      -3.143  -0.249  14.390  1.00  0.00     0.233 C 
HETATM   21  N2  UNL     1      -4.055  -1.289  14.829  1.00  0.00    -0.065 N 
ATOM     22  H22 UNL     1      -3.960  -1.565  15.807  1.00  0.00     0.278 HD
ATOM     23  H21 UNL     1      -3.868  -2.218  14.451  1.00  0.00     0.278 HD
ENDBRANCH   4  17
TORSDOF 5
ENDMDL
MODEL 4
REMARK VINA RESULT: -7.025229117      1.880      2.390
REMARK  5 active torsions:
REMARK  status: ('A' for Active; 'I' for Inactive)
REMARK    1  A    between atoms: O1_1  and  C1_3 
REMARK    2  A    between atoms: C1_3  and  C2_4 
REMARK    3  A    between atoms: C2_4  and  N1_5 
REMARK    4  A    between atoms: C4_7  and  C5_8 
REMARK    5  A    between atoms: C7_11  and  C8_12 
ROOT
HETATM    1  C5  UNL     1      -8.926  -3.747  12.276  1.00  0.00     0.051 A 
HETATM    2  C6  UNL     1     -10.217  -3.307  12.203  1.00  0.00     0.082 A 
HETATM    3  S1  UNL     1     -11.034  -4.702  11.595  1.00  0.00    -0.084 SA
HETATM    4  C7  UNL     1      -9.659  -5.740  11.483  1.00  0.00     0.082 A 
HETATM    5  N3  UNL     1      -8.704  -4.972  11.904  1.00  0.00    -0.351 N 
ATOM      6  H3  UNL     1      -7.753  -5.338  11.944  1.00  0.00     0.166 HD
ENDROOT
BRANCH   1   7
HETATM    7  C4  UNL     1      -7.844  -2.863  12.758  1.00  0.00     0.009 A 
HETATM    8  C3  UNL     1      -7.447  -2.683  14.061  1.00  0.00     0.105 A 
HETATM    9  N1  UNL     1      -6.433  -1.806  14.140  1.00  0.00    -0.348 N 
HETATM   10  C13 UNL     1      -6.172  -1.418  12.883  1.00  0.00     0.082 A 
HETATM   11  C12 UNL     1      -7.018  -2.043  11.997  1.00  0.00     0.052 A 
HETATM   12 BR1  UNL     1      -4.810  -0.163  12.380  1.00  0.00    -0.031 Br
BRANCH   9  13
HETATM   13  C2  UNL     1      -5.733  -1.346  15.325  1.00  0.00     0.155 C 
BRANCH  13  14
HETATM   14  C1  UNL     1      -6.576  -1.614  16.566  1.00  0.00     0.184 C 
BRANCH  14  15
HETATM   15  O1  UNL     1      -6.283  -0.636  17.506  1.00  0.00    -0.399 OA
ATOM     16  H1  UNL     1      -6.251  -1.049  18.362  1.00  0.00     0.209 HD
ENDBRANCH  14  15
ENDBRANCH  13  14
ENDBRANCH   9  13
ENDBRANCH   1   7
BRANCH   4  17
HETATM   17  C8  UNL     1      -9.587  -7.157  11.020  1.00  0.00     0.242 C 
HETATM   18  C9  UNL     1      -8.488  -7.844  11.796  1.00  0.00     0.041 C 
HETATM   19  C10 UNL     1      -8.220  -9.057  10.894  1.00  0.00     0.030 C 
HETATM   20  C11 UNL     1      -8.805  -8.673   9.553  1.00  0.00     0.233 C 
HETATM   21  N2  UNL     1      -9.091  -7.254   9.661  1.00  0.00    -0.065 N 
ATOM     22  H22 UNL     1      -9.713  -6.881   8.945  1.00  0.00     0.278 HD
ATOM     23  H21 UNL     1      -8.310  -6.636   9.439  1.00  0.00     0.278 HD
ENDBRANCH   4  17
TORSDOF 5
ENDMDL
MODEL 5
REMARK VINA RESULT: -6.981678280      1.164      1.174
REMARK  5 active torsions:
REMARK  status: ('A' for Active; 'I' for Inactive)
REMARK    1  A    between atoms: O1_1  and  C1_3 
REMARK    2  A    between atoms: C1_3  and  C2_4 
REMARK    3  A    between atoms: C2_4  and  N1_5 
REMARK    4  A    between atoms: C4_7  and  C5_8 
REMARK    5  A    between atoms: C7_11  and  C8_12 
ROOT
HETATM    1  C5  UNL     1      -8.907  -3.746  12.623  1.00  0.00     0.051 A 
HETATM    2  C6  UNL     1     -10.143  -3.251  12.318  1.00  0.00     0.082 A 
HETATM    3  S1  UNL     1     -10.907  -4.622  11.596  1.00  0.00    -0.084 SA
HETATM    4  C7  UNL     1      -9.584  -5.721  11.742  1.00  0.00     0.082 A 
HETATM    5  N3  UNL     1      -8.682  -4.987  12.312  1.00  0.00    -0.351 N 
ATOM      6  H3  UNL     1      -7.771  -5.393  12.523  1.00  0.00     0.166 HD
ENDROOT
BRANCH   1   7
HETATM    7  C4  UNL     1      -7.885  -2.900  13.274  1.00  0.00     0.009 A 
HETATM    8  C3  UNL     1      -6.949  -2.111  12.650  1.00  0.00     0.105 A 
HETATM    9  N1  UNL     1      -6.176  -1.477  13.547  1.00  0.00    -0.348 N 
HETATM   10  C13 UNL     1      -6.614  -1.857  14.756  1.00  0.00     0.082 A 
HETATM   11  C12 UNL     1      -7.667  -2.734  14.638  1.00  0.00     0.052 A 
HETATM   12 BR1  UNL     1      -5.880  -1.264  16.427  1.00  0.00    -0.031 Br
BRANCH   9  13
HETATM   13  C2  UNL     1      -5.080  -0.560  13.299  1.00  0.00     0.155 C 
BRANCH  13  14
HETATM   14  C1  UNL     1      -3.943  -1.285  12.589  1.00  0.00     0.184 C 
BRANCH  14  15
HETATM   15  O1  UNL     1      -3.320  -2.117  13.510  1.00  0.00    -0.399 OA
ATOM     16  H1  UNL     1      -2.641  -2.603  13.057  1.00  0.00     0.209 HD
ENDBRANCH  14  15
ENDBRANCH  13  14
ENDBRANCH   9  13
ENDBRANCH   1   7
BRANCH   4  17
HETATM   17  C8  UNL     1      -9.499  -7.150  11.318  1.00  0.00     0.242 C 
HETATM   18  C9  UNL     1      -8.108  -7.647  11.635  1.00  0.00     0.041 C 
HETATM   19  C10 UNL     1      -8.035  -8.882  10.727  1.00  0.00     0.030 C 
HETATM   20  C11 UNL     1      -9.124  -8.667   9.699  1.00  0.00     0.233 C 
HETATM   21  N2  UNL     1      -9.537  -7.286   9.875  1.00  0.00    -0.065 N 
ATOM     22  H22 UNL     1     -10.426  -7.041   9.440  1.00  0.00     0.278 HD
ATOM     23  H21 UNL     1      -8.987  -6.599   9.360  1.00  0.00     0.278 HD
ENDBRANCH   4  17
TORSDOF 5
ENDMDL
