MODEL 1
REMARK VINA RESULT: -8.760937357      0.000      0.000
REMARK  4 active torsions:
REMARK  status: ('A' for Active; 'I' for Inactive)
REMARK    1  A    between atoms: C1_2  and  C2_3 
REMARK       I    between atoms: C1_2  and  N2_12 
REMARK    2  A    between atoms: C2_3  and  N1_4 
REMARK    3  A    between atoms: N1_4  and  C3_6 
REMARK    4  A    between atoms: N2_12  and  C9_14 
ROOT
HETATM    1  O1  UNL     1     -10.717  -2.969  12.599  1.00  0.00    -0.267 OA
HETATM    2  C1  UNL     1     -10.120  -4.077  12.364  1.00  0.00     0.260 C 
HETATM    3  N2  UNL     1      -8.761  -4.231  12.590  1.00  0.00    -0.322 N 
ATOM      4  H2  UNL     1      -8.356  -5.138  12.359  1.00  0.00     0.169 HD
ENDROOT
BRANCH   3   5
HETATM    5  C9  UNL     1      -7.880  -3.253  13.108  1.00  0.00     0.039 A 
HETATM    6  C10 UNL     1      -7.690  -2.960  14.433  1.00  0.00     0.056 A 
HETATM    7  C11 UNL     1      -6.824  -1.968  14.883  1.00  0.00     0.072 A 
HETATM    8 CL1  UNL     1      -6.617  -1.634  16.584  1.00  0.00    -0.081 Cl
HETATM    9  C12 UNL     1      -6.129  -1.254  13.958  1.00  0.00     0.123 A 
HETATM   10  C13 UNL     1      -6.267  -1.491  12.587  1.00  0.00     0.105 A 
HETATM   11  O3  UNL     1      -5.287  -0.284  14.482  1.00  0.00    -0.346 OA
HETATM   12  C14 UNL     1      -7.129  -2.473  12.214  1.00  0.00     0.069 A 
HETATM   13  O2  UNL     1      -5.637  -0.858  11.505  1.00  0.00    -0.348 OA
HETATM   14  C15 UNL     1      -5.066   0.430  11.560  1.00  0.00     0.178 C 
HETATM   15  C16 UNL     1      -3.990   0.562  12.604  1.00  0.00     0.053 C 
HETATM   16  C17 UNL     1      -4.524   0.762  13.992  1.00  0.00     0.178 C 
ENDBRANCH   3   5
BRANCH   2  17
HETATM   17  C2  UNL     1     -10.956  -5.166  11.838  1.00  0.00     0.158 C 
BRANCH  17  18
HETATM   18  N1  UNL     1     -10.706  -6.419  12.430  1.00  0.00    -0.390 N 
ATOM     19  H1  UNL     1     -10.926  -6.592  13.410  1.00  0.00     0.159 HD
BRANCH  18  20
HETATM   20  C3  UNL     1     -10.135  -7.438  11.610  1.00  0.00     0.081 C 
HETATM   21  C4  UNL     1     -10.033  -6.838  10.199  1.00  0.00     0.025 C 
HETATM   22  C5  UNL     1      -8.985  -7.533   9.373  1.00  0.00     0.002 C 
HETATM   23  C6  UNL     1      -8.578  -8.869   9.923  1.00  0.00     0.000 C 
HETATM   24  C7  UNL     1      -8.035  -8.773  11.330  1.00  0.00     0.002 C 
HETATM   25  C8  UNL     1      -8.678  -7.617  12.062  1.00  0.00     0.025 C 
ENDBRANCH  18  20
ENDBRANCH  17  18
ENDBRANCH   2  17
TORSDOF 4
ENDMDL
MODEL 2
REMARK VINA RESULT: -8.713529625      1.538      2.370
REMARK  4 active torsions:
REMARK  status: ('A' for Active; 'I' for Inactive)
REMARK    1  A    between atoms: C1_2  and  C2_3 
REMARK       I    between atoms: C1_2  and  N2_12 
REMARK    2  A    between atoms: C2_3  and  N1_4 
REMARK    3  A    between atoms: N1_4  and  C3_6 
REMARK    4  A    between atoms: N2_12  and  C9_14 
ROOT
HETATM    1  O1  UNL     1     -10.680  -2.941  12.595  1.00  0.00    -0.267 OA
HETATM    2  C1  UNL     1     -10.074  -4.042  12.350  1.00  0.00     0.260 C 
HETATM    3  N2  UNL     1      -8.695  -4.149  12.449  1.00  0.00    -0.322 N 
ATOM      4  H2  UNL     1      -8.287  -5.055  12.219  1.00  0.00     0.169 HD
ENDROOT
BRANCH   3   5
HETATM    5  C9  UNL     1      -7.800  -3.126  12.837  1.00  0.00     0.039 A 
HETATM    6  C10 UNL     1      -7.059  -2.339  11.995  1.00  0.00     0.056 A 
HETATM    7  C11 UNL     1      -6.175  -1.360  12.437  1.00  0.00     0.072 A 
HETATM    8 CL1  UNL     1      -5.254  -0.383  11.321  1.00  0.00    -0.081 Cl
HETATM    9  C12 UNL     1      -6.040  -1.175  13.777  1.00  0.00     0.123 A 
HETATM   10  C13 UNL     1      -6.760  -1.936  14.704  1.00  0.00     0.105 A 
HETATM   11  O3  UNL     1      -5.142  -0.183  14.142  1.00  0.00    -0.346 OA
HETATM   12  C14 UNL     1      -7.606  -2.876  14.206  1.00  0.00     0.069 A 
HETATM   13  O2  UNL     1      -6.745  -1.882  16.106  1.00  0.00    -0.348 OA
HETATM   14  C15 UNL     1      -5.688  -1.347  16.870  1.00  0.00     0.178 C 
HETATM   15  C16 UNL     1      -5.386   0.091  16.548  1.00  0.00     0.053 C 
HETATM   16  C17 UNL     1      -4.554   0.266  15.312  1.00  0.00     0.178 C 
ENDBRANCH   3   5
BRANCH   2  17
HETATM   17  C2  UNL     1     -10.922  -5.175  11.955  1.00  0.00     0.158 C 
BRANCH  17  18
HETATM   18  N1  UNL     1     -10.555  -6.400  12.543  1.00  0.00    -0.390 N 
ATOM     19  H1  UNL     1     -10.659  -6.556  13.546  1.00  0.00     0.159 HD
BRANCH  18  20
HETATM   20  C3  UNL     1     -10.033  -7.417  11.689  1.00  0.00     0.081 C 
HETATM   21  C4  UNL     1     -10.021  -6.816  10.275  1.00  0.00     0.025 C 
HETATM   22  C5  UNL     1      -9.024  -7.507   9.384  1.00  0.00     0.002 C 
HETATM   23  C6  UNL     1      -8.579  -8.843   9.906  1.00  0.00     0.000 C 
HETATM   24  C7  UNL     1      -7.950  -8.746  11.277  1.00  0.00     0.002 C 
HETATM   25  C8  UNL     1      -8.550  -7.592  12.049  1.00  0.00     0.025 C 
ENDBRANCH  18  20
ENDBRANCH  17  18
ENDBRANCH   2  17
TORSDOF 4
ENDMDL
MODEL 3
REMARK VINA RESULT: -8.506596144      0.653      1.184
REMARK  4 active torsions:
REMARK  status: ('A' for Active; 'I' for Inactive)
REMARK    1  A    between atoms: C1_2  and  C2_3 
REMARK       I    between atoms: C1_2  and  N2_12 
REMARK    2  A    between atoms: C2_3  and  N1_4 
REMARK    3  A    between atoms: N1_4  and  C3_6 
REMARK    4  A    between atoms: N2_12  and  C9_14 
ROOT
HETATM    1  O1  UNL     1     -10.929  -2.873  12.684  1.00  0.00    -0.267 OA
HETATM    2  C1  UNL     1     -10.329  -3.792  12.024  1.00  0.00     0.260 C 
HETATM    3  N2  UNL     1      -8.947  -3.899  12.022  1.00  0.00    -0.322 N 
ATOM      4  H2  UNL     1      -8.545  -4.646  11.456  1.00  0.00     0.169 HD
ENDROOT
BRANCH   3   5
HETATM    5  C9  UNL     1      -8.041  -3.075  12.727  1.00  0.00     0.039 A 
HETATM    6  C10 UNL     1      -7.920  -2.989  14.090  1.00  0.00     0.056 A 
HETATM    7  C11 UNL     1      -7.022  -2.141  14.729  1.00  0.00     0.072 A 
HETATM    8 CL1  UNL     1      -6.908  -2.070  16.470  1.00  0.00    -0.081 Cl
HETATM    9  C12 UNL     1      -6.222  -1.355  13.962  1.00  0.00     0.123 A 
HETATM   10  C13 UNL     1      -6.283  -1.383  12.564  1.00  0.00     0.105 A 
HETATM   11  O3  UNL     1      -5.354  -0.537  14.669  1.00  0.00    -0.346 OA
HETATM   12  C14 UNL     1      -7.181  -2.233  12.002  1.00  0.00     0.069 A 
HETATM   13  O2  UNL     1      -5.542  -0.650  11.625  1.00  0.00    -0.348 OA
HETATM   14  C15 UNL     1      -4.892   0.571  11.902  1.00  0.00     0.178 C 
HETATM   15  C16 UNL     1      -3.882   0.470  13.013  1.00  0.00     0.053 C 
HETATM   16  C17 UNL     1      -4.493   0.509  14.383  1.00  0.00     0.178 C 
ENDBRANCH   3   5
BRANCH   2  17
HETATM   17  C2  UNL     1     -11.189  -4.715  11.269  1.00  0.00     0.158 C 
BRANCH  17  18
HETATM   18  N1  UNL     1     -11.108  -6.054  11.695  1.00  0.00    -0.390 N 
ATOM     19  H1  UNL     1     -11.943  -6.571  11.971  1.00  0.00     0.159 HD
BRANCH  18  20
HETATM   20  C3  UNL     1      -9.818  -6.664  11.729  1.00  0.00     0.081 C 
HETATM   21  C4  UNL     1      -9.951  -7.885  12.650  1.00  0.00     0.025 C 
HETATM   22  C5  UNL     1      -8.892  -8.916  12.365  1.00  0.00     0.002 C 
HETATM   23  C6  UNL     1      -7.732  -8.381  11.576  1.00  0.00     0.000 C 
HETATM   24  C7  UNL     1      -8.157  -7.808  10.243  1.00  0.00     0.002 C 
HETATM   25  C8  UNL     1      -9.562  -7.255  10.335  1.00  0.00     0.025 C 
ENDBRANCH  18  20
ENDBRANCH  17  18
ENDBRANCH   2  17
TORSDOF 4
ENDMDL
MODEL 4
REMARK VINA RESULT: -8.176236640      1.691      2.670
REMARK  4 active torsions:
REMARK  status: ('A' for Active; 'I' for Inactive)
REMARK    1  A    between atoms: C1_2  and  C2_3 
REMARK       I    between atoms: C1_2  and  N2_12 
REMARK    2  A    between atoms: C2_3  and  N1_4 
REMARK    3  A    between atoms: N1_4  and  C3_6 
REMARK    4  A    between atoms: N2_12  and  C9_14 
ROOT
HETATM    1  O1  UNL     1     -10.036  -2.529  11.544  1.00  0.00    -0.267 OA
HETATM    2  C1  UNL     1      -9.801  -3.658  12.100  1.00  0.00     0.260 C 
HETATM    3  N2  UNL     1      -8.675  -3.859  12.885  1.00  0.00    -0.322 N 
ATOM      4  H2  UNL     1      -8.549  -4.792  13.278  1.00  0.00     0.169 HD
ENDROOT
BRANCH   3   5
HETATM    5  C9  UNL     1      -7.686  -2.898  13.195  1.00  0.00     0.039 A 
HETATM    6  C10 UNL     1      -6.878  -2.252  12.295  1.00  0.00     0.056 A 
HETATM    7  C11 UNL     1      -5.904  -1.330  12.662  1.00  0.00     0.072 A 
HETATM    8 CL1  UNL     1      -4.901  -0.534  11.476  1.00  0.00    -0.081 Cl
HETATM    9  C12 UNL     1      -5.745  -1.055  13.984  1.00  0.00     0.123 A 
HETATM   10  C13 UNL     1      -6.529  -1.671  14.965  1.00  0.00     0.105 A 
HETATM   11  O3  UNL     1      -4.756  -0.126  14.273  1.00  0.00    -0.346 OA
HETATM   12  C14 UNL     1      -7.462  -2.562  14.540  1.00  0.00     0.069 A 
HETATM   13  O2  UNL     1      -6.502  -1.509  16.359  1.00  0.00    -0.348 OA
HETATM   14  C15 UNL     1      -5.395  -1.019  17.081  1.00  0.00     0.178 C 
HETATM   15  C16 UNL     1      -4.961   0.355  16.649  1.00  0.00     0.053 C 
HETATM   16  C17 UNL     1      -4.122   0.355  15.405  1.00  0.00     0.178 C 
ENDBRANCH   3   5
BRANCH   2  17
HETATM   17  C2  UNL     1     -10.785  -4.722  11.854  1.00  0.00     0.158 C 
BRANCH  17  18
HETATM   18  N1  UNL     1     -10.518  -5.497  10.710  1.00  0.00    -0.390 N 
ATOM     19  H1  UNL     1     -11.006  -5.326   9.831  1.00  0.00     0.159 HD
BRANCH  18  20
HETATM   20  C3  UNL     1      -9.542  -6.532  10.822  1.00  0.00     0.081 C 
HETATM   21  C4  UNL     1      -9.872  -7.285  12.120  1.00  0.00     0.025 C 
HETATM   22  C5  UNL     1      -9.321  -8.686  12.106  1.00  0.00     0.002 C 
HETATM   23  C6  UNL     1      -8.259  -8.902  11.067  1.00  0.00     0.000 C 
HETATM   24  C7  UNL     1      -8.753  -8.610   9.668  1.00  0.00     0.002 C 
HETATM   25  C8  UNL     1      -9.825  -7.544   9.703  1.00  0.00     0.025 C 
ENDBRANCH  18  20
ENDBRANCH  17  18
ENDBRANCH   2  17
TORSDOF 4
ENDMDL
MODEL 5
REMARK VINA RESULT: -7.698617205      2.228      2.622
REMARK  4 active torsions:
REMARK  status: ('A' for Active; 'I' for Inactive)
REMARK    1  A    between atoms: C1_2  and  C2_3 
REMARK       I    between atoms: C1_2  and  N2_12 
REMARK    2  A    between atoms: C2_3  and  N1_4 
REMARK    3  A    between atoms: N1_4  and  C3_6 
REMARK    4  A    between atoms: N2_12  and  C9_14 
ROOT
HETATM    1  O1  UNL     1      -8.547  -2.768  11.661  1.00  0.00    -0.267 OA
HETATM    2  C1  UNL     1      -9.243  -3.492  12.456  1.00  0.00     0.260 C 
HETATM    3  N2  UNL     1      -8.803  -3.791  13.737  1.00  0.00    -0.322 N 
ATOM      4  H2  UNL     1      -9.406  -4.389  14.302  1.00  0.00     0.169 HD
ENDROOT
BRANCH   3   5
HETATM    5  C9  UNL     1      -7.602  -3.349  14.336  1.00  0.00     0.039 A 
HETATM    6  C10 UNL     1      -7.493  -2.411  15.330  1.00  0.00     0.056 A 
HETATM    7  C11 UNL     1      -6.277  -1.999  15.866  1.00  0.00     0.072 A 
HETATM    8 CL1  UNL     1      -6.193  -0.800  17.133  1.00  0.00    -0.081 Cl
HETATM    9  C12 UNL     1      -5.137  -2.556  15.379  1.00  0.00     0.123 A 
HETATM   10  C13 UNL     1      -5.162  -3.520  14.365  1.00  0.00     0.105 A 
HETATM   11  O3  UNL     1      -3.966  -2.096  15.962  1.00  0.00    -0.346 OA
HETATM   12  C14 UNL     1      -6.382  -3.878  13.884  1.00  0.00     0.069 A 
HETATM   13  O2  UNL     1      -4.097  -4.193  13.749  1.00  0.00    -0.348 OA
HETATM   14  C15 UNL     1      -2.767  -3.724  13.724  1.00  0.00     0.178 C 
HETATM   15  C16 UNL     1      -2.185  -3.509  15.095  1.00  0.00     0.053 C 
HETATM   16  C17 UNL     1      -2.607  -2.216  15.729  1.00  0.00     0.178 C 
ENDBRANCH   3   5
BRANCH   2  17
HETATM   17  C2  UNL     1     -10.523  -3.987  11.931  1.00  0.00     0.158 C 
BRANCH  17  18
HETATM   18  N1  UNL     1     -10.403  -5.107  11.087  1.00  0.00    -0.390 N 
ATOM     19  H1  UNL     1     -11.000  -5.217  10.267  1.00  0.00     0.159 HD
BRANCH  18  20
HETATM   20  C3  UNL     1      -9.417  -6.085  11.418  1.00  0.00     0.081 C 
HETATM   21  C4  UNL     1     -10.140  -7.145  12.263  1.00  0.00     0.025 C 
HETATM   22  C5  UNL     1      -9.426  -8.470  12.224  1.00  0.00     0.002 C 
HETATM   23  C6  UNL     1      -8.008  -8.372  11.742  1.00  0.00     0.000 C 
HETATM   24  C7  UNL     1      -7.909  -7.779  10.355  1.00  0.00     0.002 C 
HETATM   25  C8  UNL     1      -9.047  -6.812  10.117  1.00  0.00     0.025 C 
ENDBRANCH  18  20
ENDBRANCH  17  18
ENDBRANCH   2  17
TORSDOF 4
ENDMDL
