MODEL 1
REMARK VINA RESULT: -6.982757181      0.000      0.000
REMARK  5 active torsions:
REMARK  status: ('A' for Active; 'I' for Inactive)
REMARK    1  A    between atoms: C2_2  and  N1_3 
REMARK    2  A    between atoms: C7_10  and  O1_11 
REMARK    3  A    between atoms: C12_19  and  C14_21 
REMARK    4  A    between atoms: C14_21  and  C15_22 
REMARK    5  A    between atoms: C15_22  and  O3_23 
ROOT
HETATM    1  N1  UNL     1     -11.014  -4.695  11.695  1.00  0.00     0.096 N 
HETATM    2  C3  UNL     1     -10.643  -3.468  12.308  1.00  0.00     0.332 C 
HETATM    3  C4  UNL     1      -9.332  -3.465  12.980  1.00  0.00     0.073 A 
HETATM    4  N2  UNL     1      -8.973  -2.613  13.990  1.00  0.00    -0.355 N 
ATOM      5  H2  UNL     1      -9.569  -1.892  14.396  1.00  0.00     0.166 HD
HETATM    6  C5  UNL     1      -7.697  -2.880  14.364  1.00  0.00     0.048 A 
HETATM    7  C6  UNL     1      -6.877  -2.313  15.324  1.00  0.00     0.068 A 
HETATM    8  C7  UNL     1      -5.600  -2.799  15.482  1.00  0.00     0.089 A 
HETATM    9  C8  UNL     1      -5.141  -3.837  14.696  1.00  0.00     0.068 A 
HETATM   10 CL1  UNL     1      -3.514  -4.447  14.903  1.00  0.00    -0.081 Cl
HETATM   11  C9  UNL     1      -5.928  -4.405  13.751  1.00  0.00     0.043 A 
HETATM   12  C10 UNL     1      -7.218  -3.919  13.586  1.00  0.00     0.028 A 
HETATM   13  C11 UNL     1      -8.259  -4.285  12.712  1.00  0.00     0.106 A 
HETATM   14  O2  UNL     1      -8.077  -5.314  11.800  1.00  0.00    -0.336 OA
HETATM   15  C12 UNL     1      -9.112  -6.167  11.316  1.00  0.00     0.092 C 
HETATM   16  C13 UNL     1      -9.683  -6.955  12.473  1.00  0.00     0.048 C 
HETATM   17  C17 UNL     1     -10.132  -5.221  10.709  1.00  0.00     0.310 C 
ENDROOT
BRANCH  15  18
HETATM   18  C14 UNL     1      -8.499  -7.089  10.281  1.00  0.00     0.066 C 
BRANCH  18  19
HETATM   19  C15 UNL     1      -9.618  -7.758   9.531  1.00  0.00     0.170 C 
BRANCH  19  20
HETATM   20  O3  UNL     1      -9.602  -9.124   9.671  1.00  0.00    -0.396 OA
HETATM   21  C16 UNL     1      -8.536  -9.633  10.388  1.00  0.00     0.201 C 
ENDBRANCH  19  20
ENDBRANCH  18  19
ENDBRANCH  15  18
BRANCH   1  22
HETATM   22  C2  UNL     1     -12.290  -4.447  11.002  1.00  0.00     0.268 C 
HETATM   23  C1  UNL     1     -12.033  -4.448   9.532  1.00  0.00     0.037 C 
ENDBRANCH   1  22
BRANCH   8  24
HETATM   24  O1  UNL     1      -4.785  -2.210  16.462  1.00  0.00    -0.359 OA
ATOM     25  H1  UNL     1      -3.842  -2.288  16.366  1.00  0.00     0.217 HD
ENDBRANCH   8  24
TORSDOF 5
ENDMDL
MODEL 2
REMARK VINA RESULT: -6.019082677      5.425      7.871
REMARK  5 active torsions:
REMARK  status: ('A' for Active; 'I' for Inactive)
REMARK    1  A    between atoms: C2_2  and  N1_3 
REMARK    2  A    between atoms: C7_10  and  O1_11 
REMARK    3  A    between atoms: C12_19  and  C14_21 
REMARK    4  A    between atoms: C14_21  and  C15_22 
REMARK    5  A    between atoms: C15_22  and  O3_23 
ROOT
HETATM    1  N1  UNL     1      -3.233   1.675  12.866  1.00  0.00     0.096 N 
HETATM    2  C3  UNL     1      -3.422   0.966  14.083  1.00  0.00     0.332 C 
HETATM    3  C4  UNL     1      -4.503  -0.036  14.074  1.00  0.00     0.073 A 
HETATM    4  N2  UNL     1      -5.162  -0.486  15.186  1.00  0.00    -0.355 N 
ATOM      5  H2  UNL     1      -4.987  -0.178  16.143  1.00  0.00     0.166 HD
HETATM    6  C5  UNL     1      -6.084  -1.408  14.813  1.00  0.00     0.048 A 
HETATM    7  C6  UNL     1      -6.993  -2.153  15.543  1.00  0.00     0.068 A 
HETATM    8  C7  UNL     1      -7.819  -3.032  14.881  1.00  0.00     0.089 A 
HETATM    9  C8  UNL     1      -7.744  -3.169  13.510  1.00  0.00     0.068 A 
HETATM   10 CL1  UNL     1      -8.797  -4.292  12.677  1.00  0.00    -0.081 Cl
HETATM   11  C9  UNL     1      -6.860  -2.449  12.778  1.00  0.00     0.043 A 
HETATM   12  C10 UNL     1      -6.024  -1.561  13.439  1.00  0.00     0.028 A 
HETATM   13  C11 UNL     1      -5.020  -0.688  12.977  1.00  0.00     0.106 A 
HETATM   14  O2  UNL     1      -4.726  -0.615  11.624  1.00  0.00    -0.336 OA
HETATM   15  C12 UNL     1      -4.237   0.547  10.957  1.00  0.00     0.092 C 
HETATM   16  C13 UNL     1      -5.276   1.641  11.047  1.00  0.00     0.048 C 
HETATM   17  C17 UNL     1      -2.963   0.904  11.701  1.00  0.00     0.310 C 
ENDROOT
BRANCH  15  18
HETATM   18  C14 UNL     1      -3.971   0.169   9.514  1.00  0.00     0.066 C 
BRANCH  18  19
HETATM   19  C15 UNL     1      -4.381   1.326   8.645  1.00  0.00     0.170 C 
BRANCH  19  20
HETATM   20  O3  UNL     1      -4.995   0.922   7.485  1.00  0.00    -0.396 OA
HETATM   21  C16 UNL     1      -4.601   1.593   6.342  1.00  0.00     0.201 C 
ENDBRANCH  19  20
ENDBRANCH  18  19
ENDBRANCH  15  18
BRANCH   1  22
HETATM   22  C2  UNL     1      -2.052   2.534  13.063  1.00  0.00     0.268 C 
HETATM   23  C1  UNL     1      -1.618   3.046  11.730  1.00  0.00     0.037 C 
ENDBRANCH   1  22
BRANCH   8  24
HETATM   24  O1  UNL     1      -8.735  -3.778  15.640  1.00  0.00    -0.359 OA
ATOM     25  H1  UNL     1      -9.215  -4.474  15.205  1.00  0.00     0.217 HD
ENDBRANCH   8  24
TORSDOF 5
ENDMDL
MODEL 3
REMARK VINA RESULT: -5.869357788      2.332      3.318
REMARK  5 active torsions:
REMARK  status: ('A' for Active; 'I' for Inactive)
REMARK    1  A    between atoms: C2_2  and  N1_3 
REMARK    2  A    between atoms: C7_10  and  O1_11 
REMARK    3  A    between atoms: C12_19  and  C14_21 
REMARK    4  A    between atoms: C14_21  and  C15_22 
REMARK    5  A    between atoms: C15_22  and  O3_23 
ROOT
HETATM    1  N1  UNL     1      -9.716  -6.754  13.235  1.00  0.00     0.096 N 
HETATM    2  C3  UNL     1      -9.566  -5.770  14.249  1.00  0.00     0.332 C 
HETATM    3  C4  UNL     1      -8.690  -4.635  13.906  1.00  0.00     0.073 A 
HETATM    4  N2  UNL     1      -8.040  -3.846  14.817  1.00  0.00    -0.355 N 
ATOM      5  H2  UNL     1      -8.079  -3.956  15.830  1.00  0.00     0.166 HD
HETATM    6  C5  UNL     1      -7.335  -2.894  14.156  1.00  0.00     0.048 A 
HETATM    7  C6  UNL     1      -6.523  -1.867  14.605  1.00  0.00     0.068 A 
HETATM    8  C7  UNL     1      -5.927  -1.037  13.683  1.00  0.00     0.089 A 
HETATM    9  C8  UNL     1      -6.134  -1.225  12.332  1.00  0.00     0.068 A 
HETATM   10 CL1  UNL     1      -5.373  -0.162  11.168  1.00  0.00    -0.081 Cl
HETATM   11  C9  UNL     1      -6.925  -2.224  11.872  1.00  0.00     0.043 A 
HETATM   12  C10 UNL     1      -7.530  -3.065  12.797  1.00  0.00     0.028 A 
HETATM   13  C11 UNL     1      -8.390  -4.169  12.646  1.00  0.00     0.106 A 
HETATM   14  O2  UNL     1      -8.771  -4.590  11.381  1.00  0.00    -0.336 OA
HETATM   15  C12 UNL     1      -9.090  -5.936  11.030  1.00  0.00     0.092 C 
HETATM   16  C13 UNL     1      -7.864  -6.799  11.223  1.00  0.00     0.048 C 
HETATM   17  C17 UNL     1     -10.214  -6.318  11.976  1.00  0.00     0.310 C 
ENDROOT
BRANCH  15  18
HETATM   18  C14 UNL     1      -9.534  -5.938   9.582  1.00  0.00     0.066 C 
BRANCH  18  19
HETATM   19  C15 UNL     1     -10.393  -4.725   9.354  1.00  0.00     0.170 C 
BRANCH  19  20
HETATM   20  O3  UNL     1     -11.716  -5.043   9.173  1.00  0.00    -0.396 OA
HETATM   21  C16 UNL     1     -12.595  -4.452  10.063  1.00  0.00     0.201 C 
ENDBRANCH  19  20
ENDBRANCH  18  19
ENDBRANCH  15  18
BRANCH   1  22
HETATM   22  C2  UNL     1     -10.700  -7.727  13.742  1.00  0.00     0.268 C 
HETATM   23  C1  UNL     1     -10.032  -9.057  13.851  1.00  0.00     0.037 C 
ENDBRANCH   1  22
BRANCH   8  24
HETATM   24  O1  UNL     1      -5.106  -0.002  14.159  1.00  0.00    -0.359 OA
ATOM     25  H1  UNL     1      -5.492   0.643  14.740  1.00  0.00     0.217 HD
ENDBRANCH   8  24
TORSDOF 5
ENDMDL
MODEL 4
REMARK VINA RESULT: -5.838291773      2.756      6.408
REMARK  5 active torsions:
REMARK  status: ('A' for Active; 'I' for Inactive)
REMARK    1  A    between atoms: C2_2  and  N1_3 
REMARK    2  A    between atoms: C7_10  and  O1_11 
REMARK    3  A    between atoms: C12_19  and  C14_21 
REMARK    4  A    between atoms: C14_21  and  C15_22 
REMARK    5  A    between atoms: C15_22  and  O3_23 
ROOT
HETATM    1  N1  UNL     1      -6.979  -2.437  15.334  1.00  0.00     0.096 N 
HETATM    2  C3  UNL     1      -8.381  -2.643  15.231  1.00  0.00     0.332 C 
HETATM    3  C4  UNL     1      -8.837  -3.308  13.997  1.00  0.00     0.073 A 
HETATM    4  N2  UNL     1     -10.095  -3.201  13.470  1.00  0.00    -0.355 N 
ATOM      5  H2  UNL     1     -10.857  -2.647  13.863  1.00  0.00     0.166 HD
HETATM    6  C5  UNL     1     -10.169  -3.949  12.341  1.00  0.00     0.048 A 
HETATM    7  C6  UNL     1     -11.202  -4.178  11.450  1.00  0.00     0.068 A 
HETATM    8  C7  UNL     1     -10.982  -5.004  10.372  1.00  0.00     0.089 A 
HETATM    9  C8  UNL     1      -9.751  -5.596  10.180  1.00  0.00     0.068 A 
HETATM   10 CL1  UNL     1      -9.482  -6.648   8.808  1.00  0.00    -0.081 Cl
HETATM   11  C9  UNL     1      -8.727  -5.386  11.042  1.00  0.00     0.043 A 
HETATM   12  C10 UNL     1      -8.942  -4.553  12.132  1.00  0.00     0.028 A 
HETATM   13  C11 UNL     1      -8.102  -4.142  13.185  1.00  0.00     0.106 A 
HETATM   14  O2  UNL     1      -6.790  -4.588  13.248  1.00  0.00    -0.336 OA
HETATM   15  C12 UNL     1      -5.708  -3.858  13.821  1.00  0.00     0.092 C 
HETATM   16  C13 UNL     1      -5.502  -2.582  13.036  1.00  0.00     0.048 C 
HETATM   17  C17 UNL     1      -6.146  -3.588  15.249  1.00  0.00     0.310 C 
ENDROOT
BRANCH  15  18
HETATM   18  C14 UNL     1      -4.477  -4.739  13.757  1.00  0.00     0.066 C 
BRANCH  18  19
HETATM   19  C15 UNL     1      -3.933  -4.883  15.152  1.00  0.00     0.170 C 
BRANCH  19  20
HETATM   20  O3  UNL     1      -2.889  -5.772  15.221  1.00  0.00    -0.396 OA
HETATM   21  C16 UNL     1      -3.250  -7.098  15.375  1.00  0.00     0.201 C 
ENDBRANCH  19  20
ENDBRANCH  18  19
ENDBRANCH  15  18
BRANCH   1  22
HETATM   22  C2  UNL     1      -6.739  -1.865  16.671  1.00  0.00     0.268 C 
HETATM   23  C1  UNL     1      -5.596  -0.911  16.574  1.00  0.00     0.037 C 
ENDBRANCH   1  22
BRANCH   8  24
HETATM   24  O1  UNL     1     -12.044  -5.222   9.479  1.00  0.00    -0.359 OA
ATOM     25  H1  UNL     1     -12.048  -6.030   8.977  1.00  0.00     0.217 HD
ENDBRANCH   8  24
TORSDOF 5
ENDMDL
MODEL 5
REMARK VINA RESULT: -5.773066619      2.977      6.631
REMARK  5 active torsions:
REMARK  status: ('A' for Active; 'I' for Inactive)
REMARK    1  A    between atoms: C2_2  and  N1_3 
REMARK    2  A    between atoms: C7_10  and  O1_11 
REMARK    3  A    between atoms: C12_19  and  C14_21 
REMARK    4  A    between atoms: C14_21  and  C15_22 
REMARK    5  A    between atoms: C15_22  and  O3_23 
ROOT
HETATM    1  N1  UNL     1      -4.549  -1.589  13.854  1.00  0.00     0.096 N 
HETATM    2  C3  UNL     1      -5.713  -1.126  13.183  1.00  0.00     0.332 C 
HETATM    3  C4  UNL     1      -6.726  -2.154  12.885  1.00  0.00     0.073 A 
HETATM    4  N2  UNL     1      -7.661  -2.067  11.889  1.00  0.00    -0.355 N 
ATOM      5  H2  UNL     1      -7.759  -1.289  11.236  1.00  0.00     0.166 HD
HETATM    6  C5  UNL     1      -8.436  -3.179  11.908  1.00  0.00     0.048 A 
HETATM    7  C6  UNL     1      -9.505  -3.574  11.123  1.00  0.00     0.068 A 
HETATM    8  C7  UNL     1     -10.112  -4.782  11.382  1.00  0.00     0.089 A 
HETATM    9  C8  UNL     1      -9.662  -5.588  12.407  1.00  0.00     0.068 A 
HETATM   10 CL1  UNL     1     -10.442  -7.121  12.730  1.00  0.00    -0.081 Cl
HETATM   11  C9  UNL     1      -8.617  -5.219  13.187  1.00  0.00     0.043 A 
HETATM   12  C10 UNL     1      -8.001  -4.002  12.932  1.00  0.00     0.028 A 
HETATM   13  C11 UNL     1      -6.917  -3.347  13.546  1.00  0.00     0.106 A 
HETATM   14  O2  UNL     1      -6.262  -3.934  14.619  1.00  0.00    -0.336 OA
HETATM   15  C12 UNL     1      -4.885  -3.743  14.937  1.00  0.00     0.092 C 
HETATM   16  C13 UNL     1      -4.039  -4.276  13.803  1.00  0.00     0.048 C 
HETATM   17  C17 UNL     1      -4.738  -2.241  15.104  1.00  0.00     0.310 C 
ENDROOT
BRANCH  15  18
HETATM   18  C14 UNL     1      -4.604  -4.493  16.223  1.00  0.00     0.066 C 
BRANCH  18  19
HETATM   19  C15 UNL     1      -3.364  -5.321  16.020  1.00  0.00     0.170 C 
BRANCH  19  20
HETATM   20  O3  UNL     1      -3.553  -6.640  16.349  1.00  0.00    -0.396 OA
HETATM   21  C16 UNL     1      -3.043  -7.554  15.445  1.00  0.00     0.201 C 
ENDBRANCH  19  20
ENDBRANCH  18  19
ENDBRANCH  15  18
BRANCH   1  22
HETATM   22  C2  UNL     1      -3.732  -0.397  14.141  1.00  0.00     0.268 C 
HETATM   23  C1  UNL     1      -4.542   0.535  14.979  1.00  0.00     0.037 C 
ENDBRANCH   1  22
BRANCH   8  24
HETATM   24  O1  UNL     1     -11.194  -5.164  10.573  1.00  0.00    -0.359 OA
ATOM     25  H1  UNL     1     -11.681  -5.943  10.817  1.00  0.00     0.217 HD
ENDBRANCH   8  24
TORSDOF 5
ENDMDL
