MODEL 1
REMARK VINA RESULT: -6.527614560      0.000      0.000
REMARK  4 active torsions:
REMARK  status: ('A' for Active; 'I' for Inactive)
REMARK    1  A    between atoms: C2_3  and  C3_5 
REMARK    2  A    between atoms: C4_6  and  S1_8 
REMARK    3  A    between atoms: S1_8  and  C6_9 
REMARK    4  A    between atoms: C9_14  and  C10_15 
ROOT
HETATM    1  C1  UNL     1      -5.373  -4.364  16.415  1.00  0.00     0.264 C 
HETATM    2  N1  UNL     1      -6.499  -3.808  15.850  1.00  0.00    -0.417 NA
HETATM    3  C2  UNL     1      -7.615  -3.259  15.291  1.00  0.00     0.311 C 
HETATM    4  O1  UNL     1      -8.731  -3.114  15.852  1.00  0.00    -0.252 OA
ENDROOT
BRANCH   3   5
HETATM    5  C3  UNL     1      -7.609  -2.754  13.891  1.00  0.00     0.103 C 
HETATM    6  C4  UNL     1      -8.193  -3.354  12.900  1.00  0.00    -0.014 C 
HETATM    7  C5  UNL     1      -8.079  -2.694  11.546  1.00  0.00     0.056 C 
BRANCH   6   8
HETATM    8  S1  UNL     1      -9.101  -4.847  13.114  1.00  0.00    -0.092 SA
BRANCH   8   9
HETATM    9  C6  UNL     1      -9.647  -5.525  11.508  1.00  0.00     0.047 A 
HETATM   10  C7  UNL     1      -8.973  -6.486  10.844  1.00  0.00     0.036 A 
HETATM   11 BR1  UNL     1      -7.331  -7.300  11.489  1.00  0.00    -0.049 Br
HETATM   12  C8  UNL     1      -9.492  -6.903   9.650  1.00  0.00     0.071 A 
HETATM   13  S2  UNL     1     -10.896  -5.954   9.484  1.00  0.00    -0.092 SA
HETATM   14  C9  UNL     1     -10.788  -5.056  10.926  1.00  0.00     0.099 A 
BRANCH  14  15
HETATM   15  C10 UNL     1     -11.718  -4.025  11.398  1.00  0.00     0.218 C 
HETATM   16  O2  UNL     1     -12.866  -4.000  10.929  1.00  0.00    -0.643 OA
HETATM   17  O3  UNL     1     -11.357  -3.093  12.341  1.00  0.00    -0.643 OA
ENDBRANCH  14  15
ENDBRANCH   8   9
ENDBRANCH   6   8
ENDBRANCH   3   5
TORSDOF 3
ENDMDL
MODEL 2
REMARK VINA RESULT: -5.899755813      3.384      4.928
REMARK  4 active torsions:
REMARK  status: ('A' for Active; 'I' for Inactive)
REMARK    1  A    between atoms: C2_3  and  C3_5 
REMARK    2  A    between atoms: C4_6  and  S1_8 
REMARK    3  A    between atoms: S1_8  and  C6_9 
REMARK    4  A    between atoms: C9_14  and  C10_15 
ROOT
HETATM    1  C1  UNL     1     -12.742  -4.401   8.609  1.00  0.00     0.264 C 
HETATM    2  N1  UNL     1     -12.473  -4.049   9.913  1.00  0.00    -0.417 NA
HETATM    3  C2  UNL     1     -12.207  -3.700  11.204  1.00  0.00     0.311 C 
HETATM    4  O1  UNL     1     -13.047  -3.311  12.055  1.00  0.00    -0.252 OA
ENDROOT
BRANCH   3   5
HETATM    5  C3  UNL     1     -10.822  -3.750  11.748  1.00  0.00     0.103 C 
HETATM    6  C4  UNL     1     -10.228  -4.841  12.121  1.00  0.00    -0.014 C 
HETATM    7  C5  UNL     1      -8.820  -4.699  12.651  1.00  0.00     0.056 C 
BRANCH   6   8
HETATM    8  S1  UNL     1     -11.000  -6.418  11.993  1.00  0.00    -0.092 SA
BRANCH   8   9
HETATM    9  C6  UNL     1      -9.847  -7.666  11.321  1.00  0.00     0.047 A 
HETATM   10  C7  UNL     1      -9.318  -8.659  12.064  1.00  0.00     0.036 A 
HETATM   11 BR1  UNL     1      -9.700  -8.922  13.951  1.00  0.00    -0.049 Br
HETATM   12  C8  UNL     1      -8.467  -9.526  11.436  1.00  0.00     0.071 A 
HETATM   13  S2  UNL     1      -8.427  -8.940   9.837  1.00  0.00    -0.092 SA
HETATM   14  C9  UNL     1      -9.484  -7.617  10.007  1.00  0.00     0.099 A 
BRANCH  14  15
HETATM   15  C10 UNL     1      -9.886  -6.666   8.965  1.00  0.00     0.218 C 
HETATM   16  O2  UNL     1     -10.691  -7.037   8.099  1.00  0.00    -0.643 OA
HETATM   17  O3  UNL     1      -9.398  -5.381   8.922  1.00  0.00    -0.643 OA
ENDBRANCH  14  15
ENDBRANCH   8   9
ENDBRANCH   6   8
ENDBRANCH   3   5
TORSDOF 3
ENDMDL
MODEL 3
REMARK VINA RESULT: -5.630364782      1.697      2.185
REMARK  4 active torsions:
REMARK  status: ('A' for Active; 'I' for Inactive)
REMARK    1  A    between atoms: C2_3  and  C3_5 
REMARK    2  A    between atoms: C4_6  and  S1_8 
REMARK    3  A    between atoms: S1_8  and  C6_9 
REMARK    4  A    between atoms: C9_14  and  C10_15 
ROOT
HETATM    1  C1  UNL     1      -5.777  -3.414  13.520  1.00  0.00     0.264 C 
HETATM    2  N1  UNL     1      -7.055  -3.571  14.011  1.00  0.00    -0.417 NA
HETATM    3  C2  UNL     1      -8.319  -3.726  14.497  1.00  0.00     0.311 C 
HETATM    4  O1  UNL     1      -9.028  -2.828  15.018  1.00  0.00    -0.252 OA
ENDROOT
BRANCH   3   5
HETATM    5  C3  UNL     1      -9.007  -5.045  14.452  1.00  0.00     0.103 C 
HETATM    6  C4  UNL     1      -9.432  -5.606  13.362  1.00  0.00    -0.014 C 
HETATM    7  C5  UNL     1     -10.110  -6.947  13.510  1.00  0.00     0.056 C 
BRANCH   6   8
HETATM    8  S1  UNL     1      -9.208  -4.865  11.780  1.00  0.00    -0.092 SA
BRANCH   8   9
HETATM    9  C6  UNL     1      -9.644  -6.027  10.439  1.00  0.00     0.047 A 
HETATM   10  C7  UNL     1      -8.921  -7.131  10.155  1.00  0.00     0.036 A 
HETATM   11 BR1  UNL     1      -7.320  -7.656  11.121  1.00  0.00    -0.049 Br
HETATM   12  C8  UNL     1      -9.359  -7.916   9.124  1.00  0.00     0.071 A 
HETATM   13  S2  UNL     1     -10.754  -7.104   8.583  1.00  0.00    -0.092 SA
HETATM   14  C9  UNL     1     -10.747  -5.796   9.672  1.00  0.00     0.099 A 
BRANCH  14  15
HETATM   15  C10 UNL     1     -11.713  -4.694   9.738  1.00  0.00     0.218 C 
HETATM   16  O2  UNL     1     -11.684  -3.825   8.855  1.00  0.00    -0.643 OA
HETATM   17  O3  UNL     1     -12.646  -4.601  10.744  1.00  0.00    -0.643 OA
ENDBRANCH  14  15
ENDBRANCH   8   9
ENDBRANCH   6   8
ENDBRANCH   3   5
TORSDOF 3
ENDMDL
MODEL 4
REMARK VINA RESULT: -5.484966180      3.386      5.495
REMARK  4 active torsions:
REMARK  status: ('A' for Active; 'I' for Inactive)
REMARK    1  A    between atoms: C2_3  and  C3_5 
REMARK    2  A    between atoms: C4_6  and  S1_8 
REMARK    3  A    between atoms: S1_8  and  C6_9 
REMARK    4  A    between atoms: C9_14  and  C10_15 
ROOT
HETATM    1  C1  UNL     1     -10.352  -7.483   8.114  1.00  0.00     0.264 C 
HETATM    2  N1  UNL     1      -9.894  -8.183   9.208  1.00  0.00    -0.417 NA
HETATM    3  C2  UNL     1      -9.440  -8.876  10.291  1.00  0.00     0.311 C 
HETATM    4  O1  UNL     1      -8.615  -9.825  10.272  1.00  0.00    -0.252 OA
ENDROOT
BRANCH   3   5
HETATM    5  C3  UNL     1      -9.909  -8.553  11.666  1.00  0.00     0.103 C 
HETATM    6  C4  UNL     1      -9.415  -7.601  12.397  1.00  0.00    -0.014 C 
HETATM    7  C5  UNL     1     -10.016  -7.421  13.771  1.00  0.00     0.056 C 
BRANCH   6   8
HETATM    8  S1  UNL     1      -8.130  -6.547  11.817  1.00  0.00    -0.092 SA
BRANCH   8   9
HETATM    9  C6  UNL     1      -8.501  -4.794  12.178  1.00  0.00     0.047 A 
HETATM   10  C7  UNL     1      -7.695  -4.007  12.919  1.00  0.00     0.036 A 
HETATM   11 BR1  UNL     1      -6.025  -4.605  13.710  1.00  0.00    -0.049 Br
HETATM   12  C8  UNL     1      -8.092  -2.713  13.113  1.00  0.00     0.071 A 
HETATM   13  S2  UNL     1      -9.565  -2.626  12.263  1.00  0.00    -0.092 SA
HETATM   14  C9  UNL     1      -9.640  -4.226  11.687  1.00  0.00     0.099 A 
BRANCH  14  15
HETATM   15  C10 UNL     1     -10.697  -4.821  10.863  1.00  0.00     0.218 C 
HETATM   16  O2  UNL     1     -10.568  -4.809   9.630  1.00  0.00    -0.643 OA
HETATM   17  O3  UNL     1     -11.820  -5.391  11.416  1.00  0.00    -0.643 OA
ENDBRANCH  14  15
ENDBRANCH   8   9
ENDBRANCH   6   8
ENDBRANCH   3   5
TORSDOF 3
ENDMDL
MODEL 5
REMARK VINA RESULT: -5.345927565      3.783      6.706
REMARK  4 active torsions:
REMARK  status: ('A' for Active; 'I' for Inactive)
REMARK    1  A    between atoms: C2_3  and  C3_5 
REMARK    2  A    between atoms: C4_6  and  S1_8 
REMARK    3  A    between atoms: S1_8  and  C6_9 
REMARK    4  A    between atoms: C9_14  and  C10_15 
ROOT
HETATM    1  C1  UNL     1     -10.206  -6.438  12.321  1.00  0.00     0.264 C 
HETATM    2  N1  UNL     1      -9.768  -5.139  12.459  1.00  0.00    -0.417 NA
HETATM    3  C2  UNL     1      -9.335  -3.854  12.595  1.00  0.00     0.311 C 
HETATM    4  O1  UNL     1      -9.213  -3.010  11.671  1.00  0.00    -0.252 OA
ENDROOT
BRANCH   3   5
HETATM    5  C3  UNL     1      -8.946  -3.306  13.924  1.00  0.00     0.103 C 
HETATM    6  C4  UNL     1      -7.737  -3.329  14.394  1.00  0.00    -0.014 C 
HETATM    7  C5  UNL     1      -7.530  -2.727  15.764  1.00  0.00     0.056 C 
BRANCH   6   8
HETATM    8  S1  UNL     1      -6.390  -3.998  13.477  1.00  0.00    -0.092 SA
BRANCH   8   9
HETATM    9  C6  UNL     1      -4.841  -3.094  13.826  1.00  0.00     0.047 A 
HETATM   10  C7  UNL     1      -4.548  -1.895  13.281  1.00  0.00     0.036 A 
HETATM   11 BR1  UNL     1      -5.718  -0.946  12.055  1.00  0.00    -0.049 Br
HETATM   12  C8  UNL     1      -3.353  -1.327  13.627  1.00  0.00     0.071 A 
HETATM   13  S2  UNL     1      -2.674  -2.467  14.694  1.00  0.00    -0.092 SA
HETATM   14  C9  UNL     1      -3.917  -3.630  14.674  1.00  0.00     0.099 A 
BRANCH  14  15
HETATM   15  C10 UNL     1      -3.952  -4.901  15.405  1.00  0.00     0.218 C 
HETATM   16  O2  UNL     1      -4.503  -4.934  16.515  1.00  0.00    -0.643 OA
HETATM   17  O3  UNL     1      -3.396  -6.051  14.896  1.00  0.00    -0.643 OA
ENDBRANCH  14  15
ENDBRANCH   8   9
ENDBRANCH   6   8
ENDBRANCH   3   5
TORSDOF 3
ENDMDL
