MODEL 1
REMARK VINA RESULT: -6.959153973      0.000      0.000
REMARK  12 active torsions:
REMARK  status: ('A' for Active; 'I' for Inactive)
REMARK    1  A    between atoms: C2_2  and  O2_4 
REMARK    2  A    between atoms: O2_4  and  C3_5 
REMARK    3  A    between atoms: C4_7  and  O4_8 
REMARK    4  A    between atoms: O4_8  and  N1_9 
REMARK    5  A    between atoms: N1_9  and  C5_10 
REMARK    6  A    between atoms: C8_16  and  C9_17 
REMARK    7  A    between atoms: C9_17  and  O5_18 
REMARK    8  A    between atoms: C9_17  and  C10_20 
REMARK    9  A    between atoms: C10_20  and  O6_21 
REMARK   10  A    between atoms: C15_30  and  O7_31 
REMARK   11  A    between atoms: C16_36  and  O8_37 
REMARK   12  A    between atoms: C17_39  and  O9_40 
ROOT
HETATM    1  C5  UNL     1     -45.548  81.468 151.381  1.00  0.00     0.182 C 
HETATM    2  C6  UNL     1     -44.255  80.814 151.241  1.00  0.00     0.028 C 
HETATM    3  N2  UNL     1     -43.373  80.681 152.164  1.00  0.00    -0.299 N 
ATOM      4  H2  UNL     1     -43.589  81.066 153.083  1.00  0.00     0.177 HD
HETATM    5  C7  UNL     1     -42.137  80.047 152.002  1.00  0.00     0.181 C 
HETATM    6  N3  UNL     1     -41.118  79.511 151.855  1.00  0.00    -0.172 NA
HETATM    7  C8  UNL     1     -44.057  80.285 149.830  1.00  0.00     0.068 C 
HETATM    8  C14 UNL     1     -45.531  79.952 149.558  1.00  0.00     0.047 C 
HETATM    9  C15 UNL     1     -46.241  81.175 150.093  1.00  0.00     0.146 C 
ENDROOT
BRANCH   1  10
HETATM   10  N1  UNL     1     -46.302  80.868 152.459  1.00  0.00    -0.083 NA
BRANCH  10  11
HETATM   11  O4  UNL     1     -45.921  79.632 152.752  1.00  0.00    -0.225 OA
BRANCH  11  12
HETATM   12  C4  UNL     1     -46.964  78.808 153.162  1.00  0.00     0.493 C 
HETATM   13  O3  UNL     1     -46.427  77.724 153.858  1.00  0.00    -0.304 OA
HETATM   14  C3  UNL     1     -47.288  76.628 153.880  1.00  0.00     0.307 C 
HETATM   15  C17 UNL     1     -48.684  77.138 153.752  1.00  0.00     0.230 C 
HETATM   16  C16 UNL     1     -48.843  77.691 152.348  1.00  0.00     0.358 C 
HETATM   17  N5  UNL     1     -47.637  78.348 151.953  1.00  0.00     0.005 N 
ATOM     18  H52 UNL     1     -47.796  79.096 151.280  1.00  0.00     0.286 HD
ATOM     19  H51 UNL     1     -47.041  77.763 151.367  1.00  0.00     0.286 HD
BRANCH  14  20
HETATM   20  O2  UNL     1     -47.024  75.913 155.056  1.00  0.00    -0.287 OA
BRANCH  20  21
HETATM   21  C2  UNL     1     -46.828  74.556 155.073  1.00  0.00     0.257 C 
HETATM   22  C1  UNL     1     -46.036  73.837 156.102  1.00  0.00     0.126 C 
HETATM   23  O1  UNL     1     -47.368  73.913 154.140  1.00  0.00    -0.266 OA
ENDBRANCH  20  21
ENDBRANCH  14  20
BRANCH  15  24
HETATM   24  O9  UNL     1     -49.626  76.086 153.836  1.00  0.00    -0.386 OA
ATOM     25  H9  UNL     1     -49.820  75.726 152.978  1.00  0.00     0.210 HD
ENDBRANCH  15  24
BRANCH  16  26
HETATM   26  O8  UNL     1     -49.908  78.613 152.324  1.00  0.00    -0.367 OA
ATOM     27  H8  UNL     1     -50.280  78.645 151.451  1.00  0.00     0.212 HD
ENDBRANCH  16  26
ENDBRANCH  11  12
ENDBRANCH  10  11
ENDBRANCH   1  10
BRANCH   7  28
HETATM   28  C9  UNL     1     -43.592  81.372 148.929  1.00  0.00     0.164 C 
BRANCH  28  29
HETATM   29  O5  UNL     1     -43.133  82.446 149.805  1.00  0.00    -0.392 OA
ATOM     30  H5  UNL     1     -43.502  83.246 149.448  1.00  0.00     0.210 HD
ENDBRANCH  28  29
BRANCH  28  31
HETATM   31  C10 UNL     1     -42.404  81.115 148.089  1.00  0.00     0.109 C 
HETATM   32  C11 UNL     1     -41.054  81.503 148.534  1.00  0.00     0.069 C 
HETATM   33  C12 UNL     1     -40.252  81.134 147.265  1.00  0.00     0.235 C 
HETATM   34  N4  UNL     1     -41.153  81.361 146.171  1.00  0.00    -0.072 N 
HETATM   35  C13 UNL     1     -42.444  81.803 146.718  1.00  0.00     0.272 C 
ATOM     36  H42 UNL     1     -40.776  82.011 145.480  1.00  0.00     0.277 HD
ATOM     37  H41 UNL     1     -41.242  80.549 145.561  1.00  0.00     0.277 HD
BRANCH  31  38
HETATM   38  O6  UNL     1     -42.375  79.733 147.805  1.00  0.00    -0.385 OA
ATOM     39  H6  UNL     1     -41.901  79.306 148.508  1.00  0.00     0.210 HD
ENDBRANCH  31  38
ENDBRANCH  28  31
ENDBRANCH   7  28
BRANCH   9  40
HETATM   40  O7  UNL     1     -47.595  80.900 150.324  1.00  0.00    -0.393 OA
ATOM     41  H7  UNL     1     -48.078  80.918 149.507  1.00  0.00     0.210 HD
ENDBRANCH   9  40
TORSDOF 12
ENDMDL
MODEL 2
REMARK VINA RESULT: -6.856474201      2.763      7.988
REMARK  12 active torsions:
REMARK  status: ('A' for Active; 'I' for Inactive)
REMARK    1  A    between atoms: C2_2  and  O2_4 
REMARK    2  A    between atoms: O2_4  and  C3_5 
REMARK    3  A    between atoms: C4_7  and  O4_8 
REMARK    4  A    between atoms: O4_8  and  N1_9 
REMARK    5  A    between atoms: N1_9  and  C5_10 
REMARK    6  A    between atoms: C8_16  and  C9_17 
REMARK    7  A    between atoms: C9_17  and  O5_18 
REMARK    8  A    between atoms: C9_17  and  C10_20 
REMARK    9  A    between atoms: C10_20  and  O6_21 
REMARK   10  A    between atoms: C15_30  and  O7_31 
REMARK   11  A    between atoms: C16_36  and  O8_37 
REMARK   12  A    between atoms: C17_39  and  O9_40 
ROOT
HETATM    1  C5  UNL     1     -47.284  81.643 148.590  1.00  0.00     0.182 C 
HETATM    2  C6  UNL     1     -46.484  81.116 149.687  1.00  0.00     0.028 C 
HETATM    3  N2  UNL     1     -45.248  80.776 149.624  1.00  0.00    -0.299 N 
ATOM      4  H2  UNL     1     -44.774  80.882 148.727  1.00  0.00     0.177 HD
HETATM    5  C7  UNL     1     -44.503  80.272 150.694  1.00  0.00     0.181 C 
HETATM    6  N3  UNL     1     -43.894  79.862 151.593  1.00  0.00    -0.172 NA
HETATM    7  C8  UNL     1     -47.303  81.010 150.962  1.00  0.00     0.068 C 
HETATM    8  C14 UNL     1     -48.201  82.227 150.697  1.00  0.00     0.047 C 
HETATM    9  C15 UNL     1     -48.564  82.048 149.240  1.00  0.00     0.146 C 
ENDROOT
BRANCH   1  10
HETATM   10  N1  UNL     1     -46.657  82.819 148.030  1.00  0.00    -0.083 NA
BRANCH  10  11
HETATM   11  O4  UNL     1     -46.387  82.715 146.736  1.00  0.00    -0.225 OA
BRANCH  11  12
HETATM   12  C4  UNL     1     -45.027  82.754 146.444  1.00  0.00     0.493 C 
HETATM   13  O3  UNL     1     -44.432  81.593 146.940  1.00  0.00    -0.304 OA
HETATM   14  C3  UNL     1     -43.061  81.744 147.142  1.00  0.00     0.307 C 
HETATM   15  C17 UNL     1     -42.571  82.792 146.202  1.00  0.00     0.230 C 
HETATM   16  C16 UNL     1     -43.149  84.121 146.653  1.00  0.00     0.358 C 
HETATM   17  N5  UNL     1     -44.485  83.926 147.119  1.00  0.00     0.005 N 
ATOM     18  H52 UNL     1     -45.069  84.754 147.004  1.00  0.00     0.286 HD
ATOM     19  H51 UNL     1     -44.544  83.860 148.136  1.00  0.00     0.286 HD
BRANCH  14  20
HETATM   20  O2  UNL     1     -42.474  80.482 146.982  1.00  0.00    -0.287 OA
BRANCH  20  21
HETATM   21  C2  UNL     1     -42.051  79.719 148.040  1.00  0.00     0.257 C 
HETATM   22  C1  UNL     1     -41.096  80.183 149.078  1.00  0.00     0.126 C 
HETATM   23  O1  UNL     1     -42.523  78.558 148.102  1.00  0.00    -0.266 OA
ENDBRANCH  20  21
ENDBRANCH  14  20
BRANCH  15  24
HETATM   24  O9  UNL     1     -41.169  82.956 146.298  1.00  0.00    -0.386 OA
ATOM     25  H9  UNL     1     -40.724  82.117 146.342  1.00  0.00     0.210 HD
ENDBRANCH  15  24
BRANCH  16  26
HETATM   26  O8  UNL     1     -43.156  85.022 145.570  1.00  0.00    -0.367 OA
ATOM     27  H8  UNL     1     -43.529  84.596 144.807  1.00  0.00     0.212 HD
ENDBRANCH  16  26
ENDBRANCH  11  12
ENDBRANCH  10  11
ENDBRANCH   1  10
BRANCH   7  28
HETATM   28  C9  UNL     1     -48.106  79.758 150.961  1.00  0.00     0.164 C 
BRANCH  28  29
HETATM   29  O5  UNL     1     -47.285  78.760 150.279  1.00  0.00    -0.392 OA
ATOM     30  H5  UNL     1     -47.152  79.093 149.399  1.00  0.00     0.210 HD
ENDBRANCH  28  29
BRANCH  28  31
HETATM   31  C10 UNL     1     -48.382  79.111 152.260  1.00  0.00     0.109 C 
HETATM   32  C11 UNL     1     -47.597  79.441 153.461  1.00  0.00     0.069 C 
HETATM   33  C12 UNL     1     -48.202  78.418 154.449  1.00  0.00     0.235 C 
HETATM   34  N4  UNL     1     -48.552  77.280 153.647  1.00  0.00    -0.072 N 
HETATM   35  C13 UNL     1     -48.227  77.585 152.246  1.00  0.00     0.272 C 
ATOM     36  H42 UNL     1     -48.113  76.419 153.974  1.00  0.00     0.277 HD
ATOM     37  H41 UNL     1     -49.524  76.996 153.772  1.00  0.00     0.277 HD
BRANCH  31  38
HETATM   38  O6  UNL     1     -49.741  79.338 152.566  1.00  0.00    -0.385 OA
ATOM     39  H6  UNL     1     -50.155  79.691 151.788  1.00  0.00     0.210 HD
ENDBRANCH  31  38
ENDBRANCH  28  31
ENDBRANCH   7  28
BRANCH   9  40
HETATM   40  O7  UNL     1     -49.025  83.252 148.693  1.00  0.00    -0.393 OA
ATOM     41  H7  UNL     1     -49.889  83.133 148.318  1.00  0.00     0.210 HD
ENDBRANCH   9  40
TORSDOF 12
ENDMDL
MODEL 3
REMARK VINA RESULT: -6.781908424      1.951      2.728
REMARK  12 active torsions:
REMARK  status: ('A' for Active; 'I' for Inactive)
REMARK    1  A    between atoms: C2_2  and  O2_4 
REMARK    2  A    between atoms: O2_4  and  C3_5 
REMARK    3  A    between atoms: C4_7  and  O4_8 
REMARK    4  A    between atoms: O4_8  and  N1_9 
REMARK    5  A    between atoms: N1_9  and  C5_10 
REMARK    6  A    between atoms: C8_16  and  C9_17 
REMARK    7  A    between atoms: C9_17  and  O5_18 
REMARK    8  A    between atoms: C9_17  and  C10_20 
REMARK    9  A    between atoms: C10_20  and  O6_21 
REMARK   10  A    between atoms: C15_30  and  O7_31 
REMARK   11  A    between atoms: C16_36  and  O8_37 
REMARK   12  A    between atoms: C17_39  and  O9_40 
ROOT
HETATM    1  C5  UNL     1     -43.530  81.334 152.149  1.00  0.00     0.182 C 
HETATM    2  C6  UNL     1     -43.312  80.866 150.787  1.00  0.00     0.028 C 
HETATM    3  N2  UNL     1     -42.805  79.736 150.450  1.00  0.00    -0.299 N 
ATOM      4  H2  UNL     1     -42.527  79.101 151.197  1.00  0.00     0.177 HD
HETATM    5  C7  UNL     1     -42.607  79.311 149.133  1.00  0.00     0.181 C 
HETATM    6  N3  UNL     1     -42.455  78.968 148.034  1.00  0.00    -0.172 NA
HETATM    7  C8  UNL     1     -43.769  81.900 149.772  1.00  0.00     0.068 C 
HETATM    8  C14 UNL     1     -44.929  82.465 150.603  1.00  0.00     0.047 C 
HETATM    9  C15 UNL     1     -44.307  82.595 151.976  1.00  0.00     0.146 C 
ENDROOT
BRANCH   1  10
HETATM   10  N1  UNL     1     -44.341  80.388 152.882  1.00  0.00    -0.083 NA
BRANCH  10  11
HETATM   11  O4  UNL     1     -44.918  79.473 152.115  1.00  0.00    -0.225 OA
BRANCH  11  12
HETATM   12  C4  UNL     1     -46.300  79.407 152.265  1.00  0.00     0.493 C 
HETATM   13  O3  UNL     1     -46.632  78.151 152.773  1.00  0.00    -0.304 OA
HETATM   14  C3  UNL     1     -47.956  77.804 152.505  1.00  0.00     0.307 C 
HETATM   15  C17 UNL     1     -48.742  79.063 152.365  1.00  0.00     0.230 C 
HETATM   16  C16 UNL     1     -48.285  79.751 151.092  1.00  0.00     0.358 C 
HETATM   17  N5  UNL     1     -46.875  79.583 150.937  1.00  0.00     0.005 N 
ATOM     18  H52 UNL     1     -46.441  80.344 150.416  1.00  0.00     0.286 HD
ATOM     19  H51 UNL     1     -46.634  78.826 150.298  1.00  0.00     0.286 HD
BRANCH  14  20
HETATM   20  O2  UNL     1     -48.380  76.951 153.533  1.00  0.00    -0.287 OA
BRANCH  20  21
HETATM   21  C2  UNL     1     -48.849  75.684 153.301  1.00  0.00     0.257 C 
HETATM   22  C1  UNL     1     -49.573  74.862 154.304  1.00  0.00     0.126 C 
HETATM   23  O1  UNL     1     -48.633  75.220 152.155  1.00  0.00    -0.266 OA
ENDBRANCH  20  21
ENDBRANCH  14  20
BRANCH  15  24
HETATM   24  O9  UNL     1     -50.115  78.794 152.160  1.00  0.00    -0.386 OA
ATOM     25  H9  UNL     1     -50.506  78.387 152.924  1.00  0.00     0.210 HD
ENDBRANCH  15  24
BRANCH  16  26
HETATM   26  O8  UNL     1     -48.590  81.124 151.164  1.00  0.00    -0.367 OA
ATOM     27  H8  UNL     1     -48.080  81.525 151.858  1.00  0.00     0.212 HD
ENDBRANCH  16  26
ENDBRANCH  11  12
ENDBRANCH  10  11
ENDBRANCH   1  10
BRANCH   7  28
HETATM   28  C9  UNL     1     -42.717  82.932 149.573  1.00  0.00     0.164 C 
BRANCH  28  29
HETATM   29  O5  UNL     1     -41.445  82.253 149.804  1.00  0.00    -0.392 OA
ATOM     30  H5  UNL     1     -41.078  82.650 150.585  1.00  0.00     0.210 HD
ENDBRANCH  28  29
BRANCH  28  31
HETATM   31  C10 UNL     1     -42.540  83.489 148.217  1.00  0.00     0.109 C 
HETATM   32  C11 UNL     1     -43.696  83.766 147.347  1.00  0.00     0.069 C 
HETATM   33  C12 UNL     1     -42.951  84.191 146.061  1.00  0.00     0.235 C 
HETATM   34  N4  UNL     1     -41.736  83.425 146.059  1.00  0.00    -0.072 N 
HETATM   35  C13 UNL     1     -41.703  82.608 147.280  1.00  0.00     0.272 C 
ATOM     36  H42 UNL     1     -41.624  82.869 145.211  1.00  0.00     0.277 HD
ATOM     37  H41 UNL     1     -40.906  84.008 145.953  1.00  0.00     0.277 HD
BRANCH  31  38
HETATM   38  O6  UNL     1     -41.807  84.689 148.342  1.00  0.00    -0.385 OA
ATOM     39  H6  UNL     1     -42.363  85.397 148.037  1.00  0.00     0.210 HD
ENDBRANCH  31  38
ENDBRANCH  28  31
ENDBRANCH   7  28
BRANCH   9  40
HETATM   40  O7  UNL     1     -45.297  82.693 152.962  1.00  0.00    -0.393 OA
ATOM     41  H7  UNL     1     -45.052  83.340 153.611  1.00  0.00     0.210 HD
ENDBRANCH   9  40
TORSDOF 12
ENDMDL
MODEL 4
REMARK VINA RESULT: -6.685230702      2.083      2.849
REMARK  12 active torsions:
REMARK  status: ('A' for Active; 'I' for Inactive)
REMARK    1  A    between atoms: C2_2  and  O2_4 
REMARK    2  A    between atoms: O2_4  and  C3_5 
REMARK    3  A    between atoms: C4_7  and  O4_8 
REMARK    4  A    between atoms: O4_8  and  N1_9 
REMARK    5  A    between atoms: N1_9  and  C5_10 
REMARK    6  A    between atoms: C8_16  and  C9_17 
REMARK    7  A    between atoms: C9_17  and  O5_18 
REMARK    8  A    between atoms: C9_17  and  C10_20 
REMARK    9  A    between atoms: C10_20  and  O6_21 
REMARK   10  A    between atoms: C15_30  and  O7_31 
REMARK   11  A    between atoms: C16_36  and  O8_37 
REMARK   12  A    between atoms: C17_39  and  O9_40 
ROOT
HETATM    1  C5  UNL     1     -45.801  80.669 151.061  1.00  0.00     0.182 C 
HETATM    2  C6  UNL     1     -45.010  80.735 149.840  1.00  0.00     0.028 C 
HETATM    3  N2  UNL     1     -43.844  80.228 149.668  1.00  0.00    -0.299 N 
ATOM      4  H2  UNL     1     -43.425  79.730 150.453  1.00  0.00     0.177 HD
HETATM    5  C7  UNL     1     -43.106  80.307 148.484  1.00  0.00     0.181 C 
HETATM    6  N3  UNL     1     -42.507  80.374 147.492  1.00  0.00    -0.172 NA
HETATM    7  C8  UNL     1     -45.745  81.498 148.751  1.00  0.00     0.068 C 
HETATM    8  C14 UNL     1     -47.162  81.073 149.161  1.00  0.00     0.047 C 
HETATM    9  C15 UNL     1     -47.123  81.234 150.665  1.00  0.00     0.146 C 
ENDROOT
BRANCH   1  10
HETATM   10  N1  UNL     1     -45.989  79.293 151.465  1.00  0.00    -0.083 NA
BRANCH  10  11
HETATM   11  O4  UNL     1     -45.984  79.118 152.780  1.00  0.00    -0.225 OA
BRANCH  11  12
HETATM   12  C4  UNL     1     -47.045  78.346 153.244  1.00  0.00     0.493 C 
HETATM   13  O3  UNL     1     -46.531  77.309 154.024  1.00  0.00    -0.304 OA
HETATM   14  C3  UNL     1     -47.412  76.234 154.124  1.00  0.00     0.307 C 
HETATM   15  C17 UNL     1     -48.797  76.757 153.949  1.00  0.00     0.230 C 
HETATM   16  C16 UNL     1     -48.940  77.205 152.506  1.00  0.00     0.358 C 
HETATM   17  N5  UNL     1     -47.720  77.808 152.070  1.00  0.00     0.005 N 
ATOM     18  H52 UNL     1     -47.862  78.506 151.341  1.00  0.00     0.286 HD
ATOM     19  H51 UNL     1     -47.132  77.170 151.534  1.00  0.00     0.286 HD
BRANCH  14  20
HETATM   20  O2  UNL     1     -47.167  75.606 155.352  1.00  0.00    -0.287 OA
BRANCH  20  21
HETATM   21  C2  UNL     1     -46.956  74.255 155.468  1.00  0.00     0.257 C 
HETATM   22  C1  UNL     1     -45.906  73.642 156.319  1.00  0.00     0.126 C 
HETATM   23  O1  UNL     1     -47.719  73.522 154.794  1.00  0.00    -0.266 OA
ENDBRANCH  20  21
ENDBRANCH  14  20
BRANCH  15  24
HETATM   24  O9  UNL     1     -49.760  75.732 154.107  1.00  0.00    -0.386 OA
ATOM     25  H9  UNL     1     -49.789  75.165 153.345  1.00  0.00     0.210 HD
ENDBRANCH  15  24
BRANCH  16  26
HETATM   26  O8  UNL     1     -49.988  78.142 152.406  1.00  0.00    -0.367 OA
ATOM     27  H8  UNL     1     -50.238  78.431 153.276  1.00  0.00     0.212 HD
ENDBRANCH  16  26
ENDBRANCH  11  12
ENDBRANCH  10  11
ENDBRANCH   1  10
BRANCH   7  28
HETATM   28  C9  UNL     1     -45.566  82.964 148.934  1.00  0.00     0.164 C 
BRANCH  28  29
HETATM   29  O5  UNL     1     -44.193  83.142 149.397  1.00  0.00    -0.392 OA
ATOM     30  H5  UNL     1     -44.260  83.418 150.303  1.00  0.00     0.210 HD
ENDBRANCH  28  29
BRANCH  28  31
HETATM   31  C10 UNL     1     -45.613  83.822 147.733  1.00  0.00     0.109 C 
HETATM   32  C11 UNL     1     -46.692  83.690 146.739  1.00  0.00     0.069 C 
HETATM   33  C12 UNL     1     -46.188  84.696 145.680  1.00  0.00     0.235 C 
HETATM   34  N4  UNL     1     -44.755  84.637 145.756  1.00  0.00    -0.072 N 
HETATM   35  C13 UNL     1     -44.387  83.690 146.819  1.00  0.00     0.272 C 
ATOM     36  H42 UNL     1     -44.323  84.409 144.860  1.00  0.00     0.277 HD
ATOM     37  H41 UNL     1     -44.331  85.555 145.884  1.00  0.00     0.277 HD
BRANCH  31  38
HETATM   38  O6  UNL     1     -45.601  85.165 148.169  1.00  0.00    -0.385 OA
ATOM     39  H6  UNL     1     -46.439  85.547 147.941  1.00  0.00     0.210 HD
ENDBRANCH  31  38
ENDBRANCH  28  31
ENDBRANCH   7  28
BRANCH   9  40
HETATM   40  O7  UNL     1     -48.160  80.509 151.267  1.00  0.00    -0.393 OA
ATOM     41  H7  UNL     1     -48.985  80.967 151.162  1.00  0.00     0.210 HD
ENDBRANCH   9  40
TORSDOF 12
ENDMDL
MODEL 5
REMARK VINA RESULT: -6.520999505      2.094      2.999
REMARK  12 active torsions:
REMARK  status: ('A' for Active; 'I' for Inactive)
REMARK    1  A    between atoms: C2_2  and  O2_4 
REMARK    2  A    between atoms: O2_4  and  C3_5 
REMARK    3  A    between atoms: C4_7  and  O4_8 
REMARK    4  A    between atoms: O4_8  and  N1_9 
REMARK    5  A    between atoms: N1_9  and  C5_10 
REMARK    6  A    between atoms: C8_16  and  C9_17 
REMARK    7  A    between atoms: C9_17  and  O5_18 
REMARK    8  A    between atoms: C9_17  and  C10_20 
REMARK    9  A    between atoms: C10_20  and  O6_21 
REMARK   10  A    between atoms: C15_30  and  O7_31 
REMARK   11  A    between atoms: C16_36  and  O8_37 
REMARK   12  A    between atoms: C17_39  and  O9_40 
ROOT
HETATM    1  C5  UNL     1     -46.019  81.499 152.378  1.00  0.00     0.182 C 
HETATM    2  C6  UNL     1     -45.451  81.006 151.131  1.00  0.00     0.028 C 
HETATM    3  N2  UNL     1     -44.298  80.459 150.991  1.00  0.00    -0.299 N 
ATOM      4  H2  UNL     1     -43.720  80.356 151.825  1.00  0.00     0.177 HD
HETATM    5  C7  UNL     1     -43.777  79.994 149.780  1.00  0.00     0.181 C 
HETATM    6  N3  UNL     1     -43.359  79.605 148.770  1.00  0.00    -0.172 NA
HETATM    7  C8  UNL     1     -46.409  81.216 149.971  1.00  0.00     0.068 C 
HETATM    8  C14 UNL     1     -47.704  81.036 150.775  1.00  0.00     0.047 C 
HETATM    9  C15 UNL     1     -47.424  81.848 152.020  1.00  0.00     0.146 C 
ENDROOT
BRANCH   1  10
HETATM   10  N1  UNL     1     -46.041  80.449 153.371  1.00  0.00    -0.083 NA
BRANCH  10  11
HETATM   11  O4  UNL     1     -45.997  79.227 152.856  1.00  0.00    -0.225 OA
BRANCH  11  12
HETATM   12  C4  UNL     1     -47.034  78.403 153.282  1.00  0.00     0.493 C 
HETATM   13  O3  UNL     1     -46.493  77.366 154.042  1.00  0.00    -0.304 OA
HETATM   14  C3  UNL     1     -47.334  76.255 154.098  1.00  0.00     0.307 C 
HETATM   15  C17 UNL     1     -48.735  76.730 153.914  1.00  0.00     0.230 C 
HETATM   16  C16 UNL     1     -48.872  77.212 152.481  1.00  0.00     0.358 C 
HETATM   17  N5  UNL     1     -47.669  77.872 152.083  1.00  0.00     0.005 N 
ATOM     18  H52 UNL     1     -47.826  78.584 151.370  1.00  0.00     0.286 HD
ATOM     19  H51 UNL     1     -47.049  77.272 151.539  1.00  0.00     0.286 HD
BRANCH  14  20
HETATM   20  O2  UNL     1     -47.084  75.604 155.314  1.00  0.00    -0.287 OA
BRANCH  20  21
HETATM   21  C2  UNL     1     -46.882  74.250 155.403  1.00  0.00     0.257 C 
HETATM   22  C1  UNL     1     -45.830  73.614 156.236  1.00  0.00     0.126 C 
HETATM   23  O1  UNL     1     -47.655  73.534 154.723  1.00  0.00    -0.266 OA
ENDBRANCH  20  21
ENDBRANCH  14  20
BRANCH  15  24
HETATM   24  O9  UNL     1     -49.660  75.665 154.028  1.00  0.00    -0.386 OA
ATOM     25  H9  UNL     1     -50.548  75.987 154.126  1.00  0.00     0.210 HD
ENDBRANCH  15  24
BRANCH  16  26
HETATM   26  O8  UNL     1     -49.953  78.110 152.389  1.00  0.00    -0.367 OA
ATOM     27  H8  UNL     1     -49.958  78.679 153.149  1.00  0.00     0.212 HD
ENDBRANCH  16  26
ENDBRANCH  11  12
ENDBRANCH  10  11
ENDBRANCH   1  10
BRANCH   7  28
HETATM   28  C9  UNL     1     -46.302  82.608 149.456  1.00  0.00     0.164 C 
BRANCH  28  29
HETATM   29  O5  UNL     1     -44.879  82.932 149.475  1.00  0.00    -0.392 OA
ATOM     30  H5  UNL     1     -44.427  82.105 149.600  1.00  0.00     0.210 HD
ENDBRANCH  28  29
BRANCH  28  31
HETATM   31  C10 UNL     1     -46.667  82.854 148.045  1.00  0.00     0.109 C 
HETATM   32  C11 UNL     1     -47.873  82.254 147.451  1.00  0.00     0.069 C 
HETATM   33  C12 UNL     1     -47.695  82.719 145.988  1.00  0.00     0.235 C 
HETATM   34  N4  UNL     1     -46.275  82.764 145.777  1.00  0.00    -0.072 N 
HETATM   35  C13 UNL     1     -45.609  82.392 147.034  1.00  0.00     0.272 C 
ATOM     36  H42 UNL     1     -45.976  82.189 144.989  1.00  0.00     0.277 HD
ATOM     37  H41 UNL     1     -45.960  83.665 145.417  1.00  0.00     0.277 HD
BRANCH  31  38
HETATM   38  O6  UNL     1     -46.758  84.251 147.868  1.00  0.00    -0.385 OA
ATOM     39  H6  UNL     1     -46.854  84.643 148.727  1.00  0.00     0.210 HD
ENDBRANCH  31  38
ENDBRANCH  28  31
ENDBRANCH   7  28
BRANCH   9  40
HETATM   40  O7  UNL     1     -48.293  81.480 153.056  1.00  0.00    -0.393 OA
ATOM     41  H7  UNL     1     -49.119  81.175 152.700  1.00  0.00     0.210 HD
ENDBRANCH   9  40
TORSDOF 12
ENDMDL
