MODEL 1
REMARK VINA RESULT: -7.493711359      0.000      0.000
REMARK  12 active torsions:
REMARK  status: ('A' for Active; 'I' for Inactive)
REMARK    1  A    between atoms: C2_2  and  C3_4 
REMARK    2  A    between atoms: C4_5  and  O2_6 
REMARK    3  A    between atoms: O2_6  and  C5_7 
REMARK    4  A    between atoms: N2_13  and  C8_14 
REMARK    5  A    between atoms: C8_14  and  C9_15 
REMARK    6  A    between atoms: C9_15  and  O4_16 
REMARK    7  A    between atoms: C9_15  and  C10_18 
REMARK    8  A    between atoms: C10_18  and  O5_19 
REMARK    9  A    between atoms: C12_25  and  N4_26 
REMARK   10  A    between atoms: N5_30  and  N6_31 
REMARK   11  A    between atoms: C16_39  and  O7_40 
REMARK   12  A    between atoms: C16_39  and  O8_42 
ROOT
HETATM    1  C5  UNL     1     -46.562  84.168 145.421  1.00  0.00     0.170 A 
HETATM    2  C6  UNL     1     -47.348  84.913 144.567  1.00  0.00     0.149 A 
HETATM    3  N1  UNL     1     -46.879  86.194 144.545  1.00  0.00    -0.314 N 
ATOM      4  H1  UNL     1     -47.261  86.969 144.003  1.00  0.00     0.170 HD
HETATM    5  C7  UNL     1     -45.820  86.246 145.371  1.00  0.00     0.328 A 
HETATM    6  O3  UNL     1     -45.115  87.268 145.616  1.00  0.00    -0.246 OA
HETATM    7  N2  UNL     1     -45.631  85.008 145.902  1.00  0.00    -0.276 N 
ENDROOT
BRANCH   7   8
HETATM    8  C8  UNL     1     -44.590  84.655 146.838  1.00  0.00     0.174 C 
BRANCH   8   9
HETATM    9  C9  UNL     1     -43.455  84.020 146.070  1.00  0.00     0.218 C 
BRANCH   9  10
HETATM   10  O4  UNL     1     -42.645  85.016 145.546  1.00  0.00    -0.387 OA
ATOM     11  H4  UNL     1     -41.770  84.929 145.906  1.00  0.00     0.210 HD
ENDBRANCH   9  10
BRANCH   9  12
HETATM   12  C10 UNL     1     -42.616  83.110 146.907  1.00  0.00     0.331 C 
HETATM   13  N3  UNL     1     -43.290  82.663 148.106  1.00  0.00    -0.021 N 
HETATM   14  C11 UNL     1     -42.485  81.493 148.474  1.00  0.00     0.288 C 
ATOM     15  H32 UNL     1     -43.394  83.368 148.836  1.00  0.00     0.282 HD
ATOM     16  H31 UNL     1     -44.290  82.489 148.004  1.00  0.00     0.282 HD
HETATM   17  C12 UNL     1     -41.944  80.929 147.195  1.00  0.00     0.306 C 
HETATM   18  N5  UNL     1     -42.450  81.856 146.185  1.00  0.00    -0.144 NA
BRANCH  12  19
HETATM   19  O5  UNL     1     -41.399  83.663 147.271  1.00  0.00    -0.350 OA
ATOM     20  H5  UNL     1     -41.086  83.362 148.116  1.00  0.00     0.214 HD
ENDBRANCH  12  19
BRANCH  17  21
HETATM   21  N4  UNL     1     -40.520  80.797 147.164  1.00  0.00    -0.059 N 
ATOM     22  H43 UNL     1     -40.153  80.674 148.108  1.00  0.00     0.276 HD
ATOM     23  H42 UNL     1     -40.254  79.902 146.755  1.00  0.00     0.276 HD
ATOM     24  H41 UNL     1     -40.036  81.562 146.692  1.00  0.00     0.276 HD
ENDBRANCH  17  21
BRANCH  18  25
HETATM   25  N6  UNL     1     -43.736  81.402 145.854  1.00  0.00    -0.357 NA
ATOM     26  H62 UNL     1     -43.897  81.693 144.889  1.00  0.00     0.171 HD
ATOM     27  H61 UNL     1     -43.687  80.385 145.799  1.00  0.00     0.171 HD
ENDBRANCH  18  25
ENDBRANCH   9  12
ENDBRANCH   8   9
ENDBRANCH   7   8
BRANCH   1  28
HETATM   28  O2  UNL     1     -46.684  82.809 145.742  1.00  0.00    -0.287 OA
BRANCH  28  29
HETATM   29  C4  UNL     1     -47.430  82.399 146.834  1.00  0.00     0.141 C 
HETATM   30  C3  UNL     1     -48.682  81.954 146.799  1.00  0.00     0.088 C 
HETATM   31  C16 UNL     1     -49.138  81.615 148.191  1.00  0.00     0.221 C 
HETATM   32  C14 UNL     1     -47.857  81.434 148.928  1.00  0.00     0.144 A 
HETATM   33  C13 UNL     1     -46.955  82.385 148.231  1.00  0.00     0.209 C 
HETATM   34  C15 UNL     1     -47.883  81.439 150.441  1.00  0.00     0.110 A 
HETATM   35  S1  UNL     1     -47.388  79.941 149.601  1.00  0.00    -0.142 SA
HETATM   36  O6  UNL     1     -46.005  83.022 148.742  1.00  0.00    -0.288 OA
BRANCH  30  37
HETATM   37  C2  UNL     1     -49.527  81.804 145.629  1.00  0.00     0.160 C 
HETATM   38  C1  UNL     1     -49.185  82.376 144.308  1.00  0.00     0.096 C 
HETATM   39  O1  UNL     1     -50.600  81.161 145.724  1.00  0.00    -0.293 OA
ENDBRANCH  30  37
BRANCH  31  40
HETATM   40  O7  UNL     1     -49.962  80.511 148.211  1.00  0.00    -0.360 OA
ATOM     41  H7  UNL     1     -50.463  80.454 149.015  1.00  0.00     0.213 HD
ENDBRANCH  31  40
BRANCH  31  42
HETATM   42  O8  UNL     1     -49.824  82.686 148.763  1.00  0.00    -0.360 OA
ATOM     43  H8  UNL     1     -49.498  82.868 149.636  1.00  0.00     0.213 HD
ENDBRANCH  31  42
ENDBRANCH  28  29
ENDBRANCH   1  28
TORSDOF 12
ENDMDL
MODEL 2
REMARK VINA RESULT: -7.250046983      2.898      6.111
REMARK  12 active torsions:
REMARK  status: ('A' for Active; 'I' for Inactive)
REMARK    1  A    between atoms: C2_2  and  C3_4 
REMARK    2  A    between atoms: C4_5  and  O2_6 
REMARK    3  A    between atoms: O2_6  and  C5_7 
REMARK    4  A    between atoms: N2_13  and  C8_14 
REMARK    5  A    between atoms: C8_14  and  C9_15 
REMARK    6  A    between atoms: C9_15  and  O4_16 
REMARK    7  A    between atoms: C9_15  and  C10_18 
REMARK    8  A    between atoms: C10_18  and  O5_19 
REMARK    9  A    between atoms: C12_25  and  N4_26 
REMARK   10  A    between atoms: N5_30  and  N6_31 
REMARK   11  A    between atoms: C16_39  and  O7_40 
REMARK   12  A    between atoms: C16_39  and  O8_42 
ROOT
HETATM    1  C5  UNL     1     -47.427  82.558 145.730  1.00  0.00     0.170 A 
HETATM    2  C6  UNL     1     -47.421  83.095 144.460  1.00  0.00     0.149 A 
HETATM    3  N1  UNL     1     -48.638  82.875 143.884  1.00  0.00    -0.314 N 
ATOM      4  H1  UNL     1     -48.924  83.161 142.948  1.00  0.00     0.170 HD
HETATM    5  C7  UNL     1     -49.389  82.211 144.780  1.00  0.00     0.328 A 
HETATM    6  O3  UNL     1     -50.584  81.827 144.612  1.00  0.00    -0.246 OA
HETATM    7  N2  UNL     1     -48.646  82.021 145.904  1.00  0.00    -0.276 N 
ENDROOT
BRANCH   7   8
HETATM    8  C8  UNL     1     -49.101  81.345 147.096  1.00  0.00     0.174 C 
BRANCH   8   9
HETATM    9  C9  UNL     1     -48.773  82.213 148.288  1.00  0.00     0.218 C 
BRANCH   9  10
HETATM   10  O4  UNL     1     -49.946  82.749 148.799  1.00  0.00    -0.387 OA
ATOM     11  H4  UNL     1     -49.994  82.565 149.730  1.00  0.00     0.210 HD
ENDBRANCH   9  10
BRANCH   9  12
HETATM   12  C10 UNL     1     -48.070  81.471 149.378  1.00  0.00     0.331 C 
HETATM   13  N3  UNL     1     -46.791  80.937 148.966  1.00  0.00    -0.021 N 
HETATM   14  C11 UNL     1     -46.148  80.689 150.261  1.00  0.00     0.288 C 
ATOM     15  H32 UNL     1     -46.836  80.133 148.340  1.00  0.00     0.282 HD
ATOM     16  H31 UNL     1     -46.261  81.525 148.322  1.00  0.00     0.282 HD
HETATM   17  C12 UNL     1     -46.705  81.702 151.214  1.00  0.00     0.306 C 
HETATM   18  N5  UNL     1     -47.668  82.434 150.394  1.00  0.00    -0.144 NA
BRANCH  12  19
HETATM   19  O5  UNL     1     -48.822  80.438 149.914  1.00  0.00    -0.350 OA
ATOM     20  H5  UNL     1     -48.505  79.576 149.671  1.00  0.00     0.214 HD
ENDBRANCH  12  19
BRANCH  17  21
HETATM   21  N4  UNL     1     -47.290  81.144 152.394  1.00  0.00    -0.059 N 
ATOM     22  H43 UNL     1     -48.068  80.531 152.149  1.00  0.00     0.276 HD
ATOM     23  H42 UNL     1     -46.659  80.464 152.817  1.00  0.00     0.276 HD
ATOM     24  H41 UNL     1     -47.585  81.835 153.085  1.00  0.00     0.276 HD
ENDBRANCH  17  21
BRANCH  18  25
HETATM   25  N6  UNL     1     -46.935  83.436 149.739  1.00  0.00    -0.357 NA
ATOM     26  H62 UNL     1     -46.360  83.878 150.457  1.00  0.00     0.171 HD
ATOM     27  H61 UNL     1     -46.260  82.965 149.138  1.00  0.00     0.171 HD
ENDBRANCH  18  25
ENDBRANCH   9  12
ENDBRANCH   8   9
ENDBRANCH   7   8
BRANCH   1  28
HETATM   28  O2  UNL     1     -46.390  82.556 146.672  1.00  0.00    -0.287 OA
BRANCH  28  29
HETATM   29  C4  UNL     1     -45.303  83.403 146.538  1.00  0.00     0.141 C 
HETATM   30  C3  UNL     1     -44.026  83.033 146.512  1.00  0.00     0.088 C 
HETATM   31  C16 UNL     1     -43.150  84.246 146.359  1.00  0.00     0.221 C 
HETATM   32  C14 UNL     1     -44.081  85.262 145.795  1.00  0.00     0.144 A 
HETATM   33  C13 UNL     1     -45.380  84.870 146.399  1.00  0.00     0.209 C 
HETATM   34  C15 UNL     1     -43.676  86.719 145.834  1.00  0.00     0.110 A 
HETATM   35  S1  UNL     1     -43.878  85.932 144.242  1.00  0.00    -0.142 SA
HETATM   36  O6  UNL     1     -46.319  85.638 146.712  1.00  0.00    -0.288 OA
BRANCH  30  37
HETATM   37  C2  UNL     1     -43.502  81.684 146.616  1.00  0.00     0.160 C 
HETATM   38  C1  UNL     1     -43.088  81.076 147.900  1.00  0.00     0.096 C 
HETATM   39  O1  UNL     1     -43.389  80.987 145.580  1.00  0.00    -0.293 OA
ENDBRANCH  30  37
BRANCH  31  40
HETATM   40  O7  UNL     1     -42.048  83.992 145.573  1.00  0.00    -0.360 OA
ATOM     41  H7  UNL     1     -41.289  84.488 145.852  1.00  0.00     0.213 HD
ENDBRANCH  31  40
BRANCH  31  42
HETATM   42  O8  UNL     1     -42.710  84.699 147.602  1.00  0.00    -0.360 OA
ATOM     43  H8  UNL     1     -42.288  84.000 148.086  1.00  0.00     0.213 HD
ENDBRANCH  31  42
ENDBRANCH  28  29
ENDBRANCH   1  28
TORSDOF 12
ENDMDL
MODEL 3
REMARK VINA RESULT: -7.244200911      6.452      9.409
REMARK  12 active torsions:
REMARK  status: ('A' for Active; 'I' for Inactive)
REMARK    1  A    between atoms: C2_2  and  C3_4 
REMARK    2  A    between atoms: C4_5  and  O2_6 
REMARK    3  A    between atoms: O2_6  and  C5_7 
REMARK    4  A    between atoms: N2_13  and  C8_14 
REMARK    5  A    between atoms: C8_14  and  C9_15 
REMARK    6  A    between atoms: C9_15  and  O4_16 
REMARK    7  A    between atoms: C9_15  and  C10_18 
REMARK    8  A    between atoms: C10_18  and  O5_19 
REMARK    9  A    between atoms: C12_25  and  N4_26 
REMARK   10  A    between atoms: N5_30  and  N6_31 
REMARK   11  A    between atoms: C16_39  and  O7_40 
REMARK   12  A    between atoms: C16_39  and  O8_42 
ROOT
HETATM    1  C5  UNL     1     -47.516  78.843 153.854  1.00  0.00     0.170 A 
HETATM    2  C6  UNL     1     -47.560  79.528 155.049  1.00  0.00     0.149 A 
HETATM    3  N1  UNL     1     -48.221  80.707 154.856  1.00  0.00    -0.314 N 
ATOM      4  H1  UNL     1     -48.407  81.419 155.562  1.00  0.00     0.170 HD
HETATM    5  C7  UNL     1     -48.581  80.754 153.561  1.00  0.00     0.328 A 
HETATM    6  O3  UNL     1     -49.214  81.694 152.998  1.00  0.00    -0.246 OA
HETATM    7  N2  UNL     1     -48.149  79.615 152.955  1.00  0.00    -0.276 N 
ENDROOT
BRANCH   7   8
HETATM    8  C8  UNL     1     -48.342  79.291 151.562  1.00  0.00     0.174 C 
BRANCH   8   9
HETATM    9  C9  UNL     1     -47.360  80.098 150.745  1.00  0.00     0.218 C 
BRANCH   9  10
HETATM   10  O4  UNL     1     -46.504  79.236 150.078  1.00  0.00    -0.387 OA
ATOM     11  H4  UNL     1     -45.615  79.564 150.144  1.00  0.00     0.210 HD
ENDBRANCH   9  10
BRANCH   9  12
HETATM   12  C10 UNL     1     -48.022  80.987 149.743  1.00  0.00     0.331 C 
HETATM   13  N3  UNL     1     -48.439  82.255 150.300  1.00  0.00    -0.021 N 
HETATM   14  C11 UNL     1     -48.613  83.062 149.087  1.00  0.00     0.288 C 
ATOM     15  H32 UNL     1     -49.251  82.214 150.916  1.00  0.00     0.282 HD
ATOM     16  H31 UNL     1     -47.812  82.650 151.000  1.00  0.00     0.282 HD
HETATM   17  C12 UNL     1     -47.646  82.527 148.077  1.00  0.00     0.306 C 
HETATM   18  N5  UNL     1     -47.015  81.412 148.781  1.00  0.00    -0.144 NA
BRANCH  12  19
HETATM   19  O5  UNL     1     -49.115  80.401 149.124  1.00  0.00    -0.350 OA
ATOM     20  H5  UNL     1     -49.678  81.026 148.682  1.00  0.00     0.214 HD
ENDBRANCH  12  19
BRANCH  17  21
HETATM   21  N4  UNL     1     -48.243  82.134 146.837  1.00  0.00    -0.059 N 
ATOM     22  H43 UNL     1     -49.241  81.964 146.961  1.00  0.00     0.276 HD
ATOM     23  H42 UNL     1     -48.280  82.925 146.194  1.00  0.00     0.276 HD
ATOM     24  H41 UNL     1     -47.797  81.332 146.391  1.00  0.00     0.276 HD
ENDBRANCH  17  21
BRANCH  18  25
HETATM   25  N6  UNL     1     -45.956  81.968 149.516  1.00  0.00    -0.357 NA
ATOM     26  H62 UNL     1     -45.196  82.109 148.850  1.00  0.00     0.171 HD
ATOM     27  H61 UNL     1     -46.238  82.914 149.772  1.00  0.00     0.171 HD
ENDBRANCH  18  25
ENDBRANCH   9  12
ENDBRANCH   8   9
ENDBRANCH   7   8
BRANCH   1  28
HETATM   28  O2  UNL     1     -46.936  77.594 153.596  1.00  0.00    -0.287 OA
BRANCH  28  29
HETATM   29  C4  UNL     1     -47.397  76.450 154.224  1.00  0.00     0.141 C 
HETATM   30  C3  UNL     1     -46.721  75.718 155.104  1.00  0.00     0.088 C 
HETATM   31  C16 UNL     1     -47.564  74.555 155.550  1.00  0.00     0.221 C 
HETATM   32  C14 UNL     1     -48.946  74.997 155.219  1.00  0.00     0.144 A 
HETATM   33  C13 UNL     1     -48.728  75.845 154.020  1.00  0.00     0.209 C 
HETATM   34  C15 UNL     1     -50.051  73.963 155.181  1.00  0.00     0.110 A 
HETATM   35  S1  UNL     1     -50.136  75.259 156.409  1.00  0.00    -0.142 SA
HETATM   36  O6  UNL     1     -49.519  75.998 153.060  1.00  0.00    -0.288 OA
BRANCH  30  37
HETATM   37  C2  UNL     1     -45.375  75.956 155.592  1.00  0.00     0.160 C 
HETATM   38  C1  UNL     1     -45.036  77.056 156.521  1.00  0.00     0.096 C 
HETATM   39  O1  UNL     1     -44.445  75.202 155.220  1.00  0.00    -0.293 OA
ENDBRANCH  30  37
BRANCH  31  40
HETATM   40  O7  UNL     1     -47.370  74.256 156.881  1.00  0.00    -0.360 OA
ATOM     41  H7  UNL     1     -47.820  73.460 157.136  1.00  0.00     0.213 HD
ENDBRANCH  31  40
BRANCH  31  42
HETATM   42  O8  UNL     1     -47.277  73.418 154.796  1.00  0.00    -0.360 OA
ATOM     43  H8  UNL     1     -47.237  72.647 155.350  1.00  0.00     0.213 HD
ENDBRANCH  31  42
ENDBRANCH  28  29
ENDBRANCH   1  28
TORSDOF 12
ENDMDL
MODEL 4
REMARK VINA RESULT: -7.117123464      1.648      2.161
REMARK  12 active torsions:
REMARK  status: ('A' for Active; 'I' for Inactive)
REMARK    1  A    between atoms: C2_2  and  C3_4 
REMARK    2  A    between atoms: C4_5  and  O2_6 
REMARK    3  A    between atoms: O2_6  and  C5_7 
REMARK    4  A    between atoms: N2_13  and  C8_14 
REMARK    5  A    between atoms: C8_14  and  C9_15 
REMARK    6  A    between atoms: C9_15  and  O4_16 
REMARK    7  A    between atoms: C9_15  and  C10_18 
REMARK    8  A    between atoms: C10_18  and  O5_19 
REMARK    9  A    between atoms: C12_25  and  N4_26 
REMARK   10  A    between atoms: N5_30  and  N6_31 
REMARK   11  A    between atoms: C16_39  and  O7_40 
REMARK   12  A    between atoms: C16_39  and  O8_42 
ROOT
HETATM    1  C5  UNL     1     -46.549  83.368 146.314  1.00  0.00     0.170 A 
HETATM    2  C6  UNL     1     -47.604  83.378 145.427  1.00  0.00     0.149 A 
HETATM    3  N1  UNL     1     -47.399  84.371 144.512  1.00  0.00    -0.314 N 
ATOM      4  H1  UNL     1     -48.014  84.614 143.736  1.00  0.00     0.170 HD
HETATM    5  C7  UNL     1     -46.236  84.967 144.825  1.00  0.00     0.328 A 
HETATM    6  O3  UNL     1     -45.705  85.935 144.207  1.00  0.00    -0.246 OA
HETATM    7  N2  UNL     1     -45.721  84.352 145.924  1.00  0.00    -0.276 N 
ENDROOT
BRANCH   7   8
HETATM    8  C8  UNL     1     -44.479  84.704 146.570  1.00  0.00     0.174 C 
BRANCH   8   9
HETATM    9  C9  UNL     1     -43.372  83.883 145.951  1.00  0.00     0.218 C 
BRANCH   9  10
HETATM   10  O4  UNL     1     -42.454  84.732 145.353  1.00  0.00    -0.387 OA
ATOM     11  H4  UNL     1     -42.066  85.291 146.016  1.00  0.00     0.210 HD
ENDBRANCH   9  10
BRANCH   9  12
HETATM   12  C10 UNL     1     -42.656  83.023 146.942  1.00  0.00     0.331 C 
HETATM   13  N3  UNL     1     -43.484  82.646 148.066  1.00  0.00    -0.021 N 
HETATM   14  C11 UNL     1     -42.742  81.500 148.601  1.00  0.00     0.288 C 
ATOM     15  H32 UNL     1     -43.676  83.392 148.734  1.00  0.00     0.282 HD
ATOM     16  H31 UNL     1     -44.463  82.466 147.844  1.00  0.00     0.282 HD
HETATM   17  C12 UNL     1     -42.043  80.864 147.439  1.00  0.00     0.306 C 
HETATM   18  N5  UNL     1     -42.407  81.730 146.320  1.00  0.00    -0.144 NA
BRANCH  12  19
HETATM   19  O5  UNL     1     -41.493  83.597 147.429  1.00  0.00    -0.350 OA
ATOM     20  H5  UNL     1     -41.214  83.234 148.261  1.00  0.00     0.214 HD
ENDBRANCH  12  19
BRANCH  17  21
HETATM   21  N4  UNL     1     -40.628  80.730 147.602  1.00  0.00    -0.059 N 
ATOM     22  H43 UNL     1     -40.135  81.325 146.935  1.00  0.00     0.276 HD
ATOM     23  H42 UNL     1     -40.328  81.163 148.475  1.00  0.00     0.276 HD
ATOM     24  H41 UNL     1     -40.286  79.771 147.543  1.00  0.00     0.276 HD
ENDBRANCH  17  21
BRANCH  18  25
HETATM   25  N6  UNL     1     -43.642  81.257 145.850  1.00  0.00    -0.357 NA
ATOM     26  H62 UNL     1     -44.072  82.038 145.354  1.00  0.00     0.171 HD
ATOM     27  H61 UNL     1     -43.440  80.579 145.116  1.00  0.00     0.171 HD
ENDBRANCH  18  25
ENDBRANCH   9  12
ENDBRANCH   8   9
ENDBRANCH   7   8
BRANCH   1  28
HETATM   28  O2  UNL     1     -46.351  82.516 147.409  1.00  0.00    -0.287 OA
BRANCH  28  29
HETATM   29  C4  UNL     1     -46.974  82.757 148.622  1.00  0.00     0.141 C 
HETATM   30  C3  UNL     1     -47.906  81.993 149.183  1.00  0.00     0.088 C 
HETATM   31  C16 UNL     1     -48.335  82.597 150.492  1.00  0.00     0.221 C 
HETATM   32  C14 UNL     1     -47.195  83.489 150.838  1.00  0.00     0.144 A 
HETATM   33  C13 UNL     1     -46.706  83.911 149.502  1.00  0.00     0.209 C 
HETATM   34  C15 UNL     1     -47.398  84.548 151.901  1.00  0.00     0.110 A 
HETATM   35  S1  UNL     1     -46.219  83.240 152.212  1.00  0.00    -0.142 SA
HETATM   36  O6  UNL     1     -46.184  85.012 149.212  1.00  0.00    -0.288 OA
BRANCH  30  37
HETATM   37  C2  UNL     1     -48.463  80.760 148.658  1.00  0.00     0.160 C 
HETATM   38  C1  UNL     1     -49.508  80.728 147.611  1.00  0.00     0.096 C 
HETATM   39  O1  UNL     1     -48.049  79.661 149.100  1.00  0.00    -0.293 OA
ENDBRANCH  30  37
BRANCH  31  40
HETATM   40  O7  UNL     1     -48.608  81.635 151.440  1.00  0.00    -0.360 OA
ATOM     41  H7  UNL     1     -48.651  80.765 151.063  1.00  0.00     0.213 HD
ENDBRANCH  31  40
BRANCH  31  42
HETATM   42  O8  UNL     1     -49.472  83.385 150.324  1.00  0.00    -0.360 OA
ATOM     43  H8  UNL     1     -49.644  83.899 151.104  1.00  0.00     0.213 HD
ENDBRANCH  31  42
ENDBRANCH  28  29
ENDBRANCH   1  28
TORSDOF 12
ENDMDL
MODEL 5
REMARK VINA RESULT: -7.115382139      5.739      8.676
REMARK  12 active torsions:
REMARK  status: ('A' for Active; 'I' for Inactive)
REMARK    1  A    between atoms: C2_2  and  C3_4 
REMARK    2  A    between atoms: C4_5  and  O2_6 
REMARK    3  A    between atoms: O2_6  and  C5_7 
REMARK    4  A    between atoms: N2_13  and  C8_14 
REMARK    5  A    between atoms: C8_14  and  C9_15 
REMARK    6  A    between atoms: C9_15  and  O4_16 
REMARK    7  A    between atoms: C9_15  and  C10_18 
REMARK    8  A    between atoms: C10_18  and  O5_19 
REMARK    9  A    between atoms: C12_25  and  N4_26 
REMARK   10  A    between atoms: N5_30  and  N6_31 
REMARK   11  A    between atoms: C16_39  and  O7_40 
REMARK   12  A    between atoms: C16_39  and  O8_42 
ROOT
HETATM    1  C5  UNL     1     -47.351  80.753 152.361  1.00  0.00     0.170 A 
HETATM    2  C6  UNL     1     -46.668  81.607 153.200  1.00  0.00     0.149 A 
HETATM    3  N1  UNL     1     -46.042  80.869 154.163  1.00  0.00    -0.314 N 
ATOM      4  H1  UNL     1     -45.463  81.230 154.920  1.00  0.00     0.170 HD
HETATM    5  C7  UNL     1     -46.332  79.578 153.927  1.00  0.00     0.328 A 
HETATM    6  O3  UNL     1     -45.932  78.588 154.607  1.00  0.00    -0.246 OA
HETATM    7  N2  UNL     1     -47.130  79.512 152.827  1.00  0.00    -0.276 N 
ENDROOT
BRANCH   7   8
HETATM    8  C8  UNL     1     -47.656  78.297 152.252  1.00  0.00     0.174 C 
BRANCH   8   9
HETATM    9  C9  UNL     1     -48.830  77.846 153.089  1.00  0.00     0.218 C 
BRANCH   9  10
HETATM   10  O4  UNL     1     -49.991  77.945 152.336  1.00  0.00    -0.387 OA
ATOM     11  H4  UNL     1     -49.946  78.723 151.793  1.00  0.00     0.210 HD
ENDBRANCH   9  10
BRANCH   9  12
HETATM   12  C10 UNL     1     -48.695  76.441 153.580  1.00  0.00     0.331 C 
HETATM   13  N3  UNL     1     -47.323  76.058 153.829  1.00  0.00    -0.021 N 
HETATM   14  C11 UNL     1     -47.500  74.885 154.692  1.00  0.00     0.288 C 
ATOM     15  H32 UNL     1     -46.756  75.904 152.995  1.00  0.00     0.282 HD
ATOM     16  H31 UNL     1     -46.728  76.794 154.210  1.00  0.00     0.282 HD
HETATM   17  C12 UNL     1     -48.776  75.101 155.447  1.00  0.00     0.306 C 
HETATM   18  N5  UNL     1     -49.261  76.375 154.921  1.00  0.00    -0.144 NA
BRANCH  12  19
HETATM   19  O5  UNL     1     -49.263  75.504 152.732  1.00  0.00    -0.350 OA
ATOM     20  H5  UNL     1     -49.241  75.761 151.818  1.00  0.00     0.214 HD
ENDBRANCH  12  19
BRANCH  17  21
HETATM   21  N4  UNL     1     -49.730  74.043 155.309  1.00  0.00    -0.059 N 
ATOM     22  H43 UNL     1     -49.410  73.364 154.618  1.00  0.00     0.276 HD
ATOM     23  H42 UNL     1     -49.733  73.456 156.143  1.00  0.00     0.276 HD
ATOM     24  H41 UNL     1     -50.676  74.356 155.090  1.00  0.00     0.276 HD
ENDBRANCH  17  21
BRANCH  18  25
HETATM   25  N6  UNL     1     -48.630  77.372 155.680  1.00  0.00    -0.357 NA
ATOM     26  H62 UNL     1     -47.805  76.933 156.090  1.00  0.00     0.171 HD
ATOM     27  H61 UNL     1     -48.247  78.050 155.021  1.00  0.00     0.171 HD
ENDBRANCH  18  25
ENDBRANCH   9  12
ENDBRANCH   8   9
ENDBRANCH   7   8
BRANCH   1  28
HETATM   28  O2  UNL     1     -48.127  81.081 151.241  1.00  0.00    -0.287 OA
BRANCH  28  29
HETATM   29  C4  UNL     1     -47.561  81.688 150.134  1.00  0.00     0.141 C 
HETATM   30  C3  UNL     1     -47.944  82.844 149.599  1.00  0.00     0.088 C 
HETATM   31  C16 UNL     1     -47.084  83.159 148.405  1.00  0.00     0.221 C 
HETATM   32  C14 UNL     1     -45.873  82.325 148.636  1.00  0.00     0.144 A 
HETATM   33  C13 UNL     1     -46.428  81.151 149.354  1.00  0.00     0.209 C 
HETATM   34  C15 UNL     1     -44.926  82.084 147.481  1.00  0.00     0.110 A 
HETATM   35  S1  UNL     1     -44.330  83.000 148.895  1.00  0.00    -0.142 SA
HETATM   36  O6  UNL     1     -46.008  79.973 149.295  1.00  0.00    -0.288 OA
BRANCH  30  37
HETATM   37  C2  UNL     1     -49.018  83.707 150.052  1.00  0.00     0.160 C 
HETATM   38  C1  UNL     1     -48.833  84.754 151.081  1.00  0.00     0.096 C 
HETATM   39  O1  UNL     1     -50.163  83.573 149.559  1.00  0.00    -0.293 OA
ENDBRANCH  30  37
BRANCH  31  40
HETATM   40  O7  UNL     1     -46.829  84.508 148.293  1.00  0.00    -0.360 OA
ATOM     41  H7  UNL     1     -45.942  84.725 148.555  1.00  0.00     0.213 HD
ENDBRANCH  31  40
BRANCH  31  42
HETATM   42  O8  UNL     1     -47.694  82.726 147.228  1.00  0.00    -0.360 OA
ATOM     43  H8  UNL     1     -47.643  83.395 146.557  1.00  0.00     0.213 HD
ENDBRANCH  31  42
ENDBRANCH  28  29
ENDBRANCH   1  28
TORSDOF 12
ENDMDL
