MODEL 1
REMARK VINA RESULT: -7.240322079      0.000      0.000
REMARK  23 active torsions:
REMARK  status: ('A' for Active; 'I' for Inactive)
REMARK    1  A    between atoms: C2_2  and  O1_3 
REMARK    2  A    between atoms: C3_6  and  C4_7 
REMARK    3  A    between atoms: C4_7  and  O2_8 
REMARK    4  A    between atoms: O2_8  and  C5_9 
REMARK    5  A    between atoms: C6_10  and  O3_11 
REMARK    6  A    between atoms: O3_11  and  C7_12 
REMARK    7  A    between atoms: C8_14  and  C9_15 
REMARK    8  A    between atoms: C9_15  and  O5_16 
REMARK    9  A    between atoms: C10_18  and  O6_19 
REMARK   10  A    between atoms: C11_21  and  O7_22 
REMARK   11  A    between atoms: C12_24  and  O8_25 
REMARK   12  A    between atoms: C13_27  and  O9_28 
REMARK   13  A    between atoms: C14_30  and  O10_31 
REMARK   14  A    between atoms: C15_33  and  O11_34 
REMARK   15  A    between atoms: C15_33  and  C16_36 
REMARK   16  A    between atoms: C16_36  and  O12_37 
REMARK   17  A    between atoms: C16_36  and  C17_39 
REMARK   18  A    between atoms: C17_39  and  S2_40 
REMARK   19  A    between atoms: S2_40  and  O13_41 
REMARK   20  A    between atoms: C18_44  and  C19_45 
REMARK   21  A    between atoms: C19_45  and  O15_46 
REMARK   22  A    between atoms: C20_48  and  O16_49 
REMARK   23  A    between atoms: C20_48  and  N1_51 
ROOT
HETATM    1  C5  UNL     1     -47.417 -33.240 143.922  1.00  0.00     0.192 C 
HETATM    2  C6  UNL     1     -46.847 -31.859 143.706  1.00  0.00     0.188 C 
HETATM    3  C13 UNL     1     -48.011 -30.913 143.520  1.00  0.00     0.181 C 
HETATM    4  C14 UNL     1     -49.151 -31.671 144.158  1.00  0.00     0.189 C 
HETATM    5  C15 UNL     1     -48.922 -33.095 143.703  1.00  0.00     0.141 C 
ENDROOT
BRANCH   1   6
HETATM    6  O2  UNL     1     -47.147 -33.607 145.238  1.00  0.00    -0.377 OA
BRANCH   6   7
HETATM    7  C4  UNL     1     -46.334 -34.732 145.343  1.00  0.00     0.211 C 
BRANCH   7   8
HETATM    8  C3  UNL     1     -46.794 -35.489 146.574  1.00  0.00     0.210 C 
HETATM    9  S1  UNL     1     -45.883 -34.950 148.051  1.00  0.00    -0.093 SA
HETATM   10  C2  UNL     1     -46.850 -35.549 149.477  1.00  0.00     0.158 C 
HETATM   11  C1  UNL     1     -46.575 -34.675 150.683  1.00  0.00     0.064 C 
HETATM   12  C20 UNL     1     -48.326 -35.495 149.200  1.00  0.00     0.214 C 
HETATM   13  C18 UNL     1     -48.698 -35.962 147.824  1.00  0.00     0.207 C 
HETATM   14  O14 UNL     1     -48.123 -35.258 146.811  1.00  0.00    -0.361 OA
BRANCH  10  15
HETATM   15  O1  UNL     1     -46.430 -36.838 149.807  1.00  0.00    -0.374 OA
ATOM     16  H1  UNL     1     -45.549 -36.938 149.465  1.00  0.00     0.211 HD
ENDBRANCH  10  15
BRANCH  12  17
HETATM   17  O16 UNL     1     -48.970 -36.297 150.131  1.00  0.00    -0.364 OA
ATOM     18  H16 UNL     1     -48.910 -37.199 149.838  1.00  0.00     0.213 HD
ENDBRANCH  12  17
BRANCH  12  19
HETATM   19  N1  UNL     1     -48.786 -34.152 149.383  1.00  0.00    -0.303 N 
HETATM   20  N2  UNL     1     -49.842 -33.811 148.824  1.00  0.00    -0.347 N 
ATOM     21  H22 UNL     1     -50.355 -34.482 148.253  1.00  0.00     0.176 HD
ATOM     22  H21 UNL     1     -50.169 -32.854 148.954  1.00  0.00     0.176 HD
ATOM     23  H1  UNL     1     -48.261 -33.491 149.957  1.00  0.00     0.183 HD
ENDBRANCH  12  19
BRANCH  13  24
HETATM   24  C19 UNL     1     -48.596 -37.450 147.622  1.00  0.00     0.201 C 
BRANCH  24  25
HETATM   25  O15 UNL     1     -49.826 -38.079 147.929  1.00  0.00    -0.398 OA
ATOM     26  H15 UNL     1     -49.863 -38.945 147.542  1.00  0.00     0.209 HD
ENDBRANCH  24  25
ENDBRANCH  13  24
ENDBRANCH   7   8
ENDBRANCH   6   7
ENDBRANCH   1   6
BRANCH   2  27
HETATM   27  O3  UNL     1     -46.037 -31.914 142.578  1.00  0.00    -0.348 OA
BRANCH  27  28
HETATM   28  C7  UNL     1     -44.863 -32.623 142.750  1.00  0.00     0.292 C 
HETATM   29  O4  UNL     1     -44.202 -31.986 143.817  1.00  0.00    -0.348 OA
HETATM   30  C8  UNL     1     -43.126 -32.730 144.300  1.00  0.00     0.179 C 
HETATM   31  C10 UNL     1     -42.481 -33.559 143.237  1.00  0.00     0.180 C 
HETATM   32  C11 UNL     1     -42.494 -32.758 141.949  1.00  0.00     0.183 C 
HETATM   33  C12 UNL     1     -43.942 -32.536 141.553  1.00  0.00     0.204 C 
BRANCH  30  34
HETATM   34  C9  UNL     1     -42.120 -31.707 144.803  1.00  0.00     0.198 C 
BRANCH  34  35
HETATM   35  O5  UNL     1     -41.559 -32.045 146.009  1.00  0.00    -0.398 OA
ATOM     36  H5  UNL     1     -40.802 -32.613 145.926  1.00  0.00     0.209 HD
ENDBRANCH  34  35
ENDBRANCH  30  34
BRANCH  31  37
HETATM   37  O6  UNL     1     -41.177 -33.887 143.596  1.00  0.00    -0.390 OA
ATOM     38  H6  UNL     1     -41.005 -33.635 144.496  1.00  0.00     0.210 HD
ENDBRANCH  31  37
BRANCH  32  39
HETATM   39  O7  UNL     1     -41.810 -33.493 140.993  1.00  0.00    -0.390 OA
ATOM     40  H7  UNL     1     -41.421 -32.877 140.384  1.00  0.00     0.210 HD
ENDBRANCH  32  39
BRANCH  33  41
HETATM   41  O8  UNL     1     -44.229 -33.459 140.568  1.00  0.00    -0.388 OA
ATOM     42  H8  UNL     1     -43.936 -34.338 140.774  1.00  0.00     0.210 HD
ENDBRANCH  33  41
ENDBRANCH  27  28
ENDBRANCH   2  27
BRANCH   5  43
HETATM   43  O11 UNL     1     -49.533 -33.989 144.549  1.00  0.00    -0.382 OA
ATOM     44  H11 UNL     1     -49.634 -33.549 145.385  1.00  0.00     0.211 HD
ENDBRANCH   5  43
BRANCH   5  45
HETATM   45  C16 UNL     1     -49.264 -33.333 142.289  1.00  0.00     0.169 C 
BRANCH  45  46
HETATM   46  O12 UNL     1     -50.194 -34.398 142.241  1.00  0.00    -0.392 OA
ATOM     47  H12 UNL     1     -51.005 -34.060 141.880  1.00  0.00     0.210 HD
ENDBRANCH  45  46
BRANCH  45  48
HETATM   48  C17 UNL     1     -49.766 -32.221 141.462  1.00  0.00     0.139 C 
BRANCH  48  49
HETATM   49  S2  UNL     1     -50.275 -32.609 139.790  1.00  0.00    -0.013 SA
BRANCH  49  50
HETATM   50  O13 UNL     1     -51.654 -33.598 139.672  1.00  0.00    -0.329 OA
ATOM     51  H13 UNL     1     -52.069 -33.605 138.818  1.00  0.00     0.227 HD
ENDBRANCH  49  50
ENDBRANCH  48  49
ENDBRANCH  45  48
ENDBRANCH   5  45
BRANCH   3  52
HETATM   52  O9  UNL     1     -47.847 -29.736 144.266  1.00  0.00    -0.390 OA
ATOM     53  H9  UNL     1     -47.001 -29.333 144.107  1.00  0.00     0.210 HD
ENDBRANCH   3  52
BRANCH   4  54
HETATM   54  O10 UNL     1     -49.002 -31.598 145.528  1.00  0.00    -0.390 OA
ATOM     55  H10 UNL     1     -49.856 -31.433 145.910  1.00  0.00     0.210 HD
ENDBRANCH   4  54
TORSDOF 23
ENDMDL
MODEL 2
REMARK VINA RESULT: -6.841637409      1.778      2.282
REMARK  23 active torsions:
REMARK  status: ('A' for Active; 'I' for Inactive)
REMARK    1  A    between atoms: C2_2  and  O1_3 
REMARK    2  A    between atoms: C3_6  and  C4_7 
REMARK    3  A    between atoms: C4_7  and  O2_8 
REMARK    4  A    between atoms: O2_8  and  C5_9 
REMARK    5  A    between atoms: C6_10  and  O3_11 
REMARK    6  A    between atoms: O3_11  and  C7_12 
REMARK    7  A    between atoms: C8_14  and  C9_15 
REMARK    8  A    between atoms: C9_15  and  O5_16 
REMARK    9  A    between atoms: C10_18  and  O6_19 
REMARK   10  A    between atoms: C11_21  and  O7_22 
REMARK   11  A    between atoms: C12_24  and  O8_25 
REMARK   12  A    between atoms: C13_27  and  O9_28 
REMARK   13  A    between atoms: C14_30  and  O10_31 
REMARK   14  A    between atoms: C15_33  and  O11_34 
REMARK   15  A    between atoms: C15_33  and  C16_36 
REMARK   16  A    between atoms: C16_36  and  O12_37 
REMARK   17  A    between atoms: C16_36  and  C17_39 
REMARK   18  A    between atoms: C17_39  and  S2_40 
REMARK   19  A    between atoms: S2_40  and  O13_41 
REMARK   20  A    between atoms: C18_44  and  C19_45 
REMARK   21  A    between atoms: C19_45  and  O15_46 
REMARK   22  A    between atoms: C20_48  and  O16_49 
REMARK   23  A    between atoms: C20_48  and  N1_51 
ROOT
HETATM    1  C5  UNL     1     -46.952 -32.982 144.814  1.00  0.00     0.192 C 
HETATM    2  C6  UNL     1     -46.350 -32.109 143.740  1.00  0.00     0.188 C 
HETATM    3  C13 UNL     1     -47.490 -31.427 143.019  1.00  0.00     0.181 C 
HETATM    4  C14 UNL     1     -48.612 -31.515 144.027  1.00  0.00     0.189 C 
HETATM    5  C15 UNL     1     -48.462 -32.909 144.595  1.00  0.00     0.141 C 
ENDROOT
BRANCH   1   6
HETATM    6  O2  UNL     1     -46.608 -32.433 146.046  1.00  0.00    -0.377 OA
BRANCH   6   7
HETATM    7  C4  UNL     1     -45.543 -33.084 146.664  1.00  0.00     0.211 C 
BRANCH   7   8
HETATM    8  C3  UNL     1     -46.127 -33.874 147.820  1.00  0.00     0.210 C 
HETATM    9  S1  UNL     1     -47.172 -32.821 148.869  1.00  0.00    -0.093 SA
HETATM   10  C2  UNL     1     -48.172 -33.963 149.880  1.00  0.00     0.158 C 
HETATM   11  C1  UNL     1     -49.458 -33.281 150.299  1.00  0.00     0.064 C 
HETATM   12  C20 UNL     1     -48.543 -35.198 149.107  1.00  0.00     0.214 C 
HETATM   13  C18 UNL     1     -47.418 -35.753 148.284  1.00  0.00     0.207 C 
HETATM   14  O14 UNL     1     -46.916 -34.893 147.355  1.00  0.00    -0.361 OA
BRANCH  10  15
HETATM   15  O1  UNL     1     -47.476 -34.272 151.049  1.00  0.00    -0.374 OA
ATOM     16  H1  UNL     1     -48.086 -34.166 151.770  1.00  0.00     0.211 HD
ENDBRANCH  10  15
BRANCH  12  17
HETATM   17  O16 UNL     1     -48.952 -36.168 150.011  1.00  0.00    -0.364 OA
ATOM     18  H16 UNL     1     -48.306 -36.216 150.706  1.00  0.00     0.213 HD
ENDBRANCH  12  17
BRANCH  12  19
HETATM   19  N1  UNL     1     -49.650 -34.898 148.251  1.00  0.00    -0.303 N 
HETATM   20  N2  UNL     1     -49.809 -35.590 147.231  1.00  0.00    -0.347 N 
ATOM     21  H22 UNL     1     -49.159 -36.347 147.024  1.00  0.00     0.176 HD
ATOM     22  H21 UNL     1     -50.598 -35.376 146.621  1.00  0.00     0.176 HD
ATOM     23  H1  UNL     1     -50.292 -34.137 148.471  1.00  0.00     0.183 HD
ENDBRANCH  12  19
BRANCH  13  24
HETATM   24  C19 UNL     1     -46.339 -36.434 149.082  1.00  0.00     0.201 C 
BRANCH  24  25
HETATM   25  O15 UNL     1     -46.607 -37.818 149.200  1.00  0.00    -0.398 OA
ATOM     26  H15 UNL     1     -47.540 -37.984 149.133  1.00  0.00     0.209 HD
ENDBRANCH  24  25
ENDBRANCH  13  24
ENDBRANCH   7   8
ENDBRANCH   6   7
ENDBRANCH   1   6
BRANCH   2  27
HETATM   27  O3  UNL     1     -45.619 -32.933 142.892  1.00  0.00    -0.348 OA
BRANCH  27  28
HETATM   28  C7  UNL     1     -44.319 -32.518 142.671  1.00  0.00     0.292 C 
HETATM   29  O4  UNL     1     -44.435 -31.216 142.148  1.00  0.00    -0.348 OA
HETATM   30  C8  UNL     1     -43.213 -30.544 142.115  1.00  0.00     0.179 C 
HETATM   31  C10 UNL     1     -42.055 -31.469 141.921  1.00  0.00     0.180 C 
HETATM   32  C11 UNL     1     -42.489 -32.562 140.962  1.00  0.00     0.183 C 
HETATM   33  C12 UNL     1     -43.607 -33.345 141.624  1.00  0.00     0.204 C 
BRANCH  30  34
HETATM   34  C9  UNL     1     -43.298 -29.608 140.920  1.00  0.00     0.198 C 
BRANCH  34  35
HETATM   35  O5  UNL     1     -43.617 -28.318 141.262  1.00  0.00    -0.398 OA
ATOM     36  H5  UNL     1     -43.139 -27.667 140.763  1.00  0.00     0.209 HD
ENDBRANCH  34  35
ENDBRANCH  30  34
BRANCH  31  37
HETATM   37  O6  UNL     1     -40.958 -30.781 141.412  1.00  0.00    -0.390 OA
ATOM     38  H6  UNL     1     -40.164 -31.293 141.516  1.00  0.00     0.210 HD
ENDBRANCH  31  37
BRANCH  32  39
HETATM   39  O7  UNL     1     -41.383 -33.361 140.713  1.00  0.00    -0.390 OA
ATOM     40  H7  UNL     1     -41.679 -34.263 140.703  1.00  0.00     0.210 HD
ENDBRANCH  32  39
BRANCH  33  41
HETATM   41  O8  UNL     1     -43.039 -34.499 142.127  1.00  0.00    -0.388 OA
ATOM     42  H8  UNL     1     -42.420 -34.342 142.830  1.00  0.00     0.210 HD
ENDBRANCH  33  41
ENDBRANCH  27  28
ENDBRANCH   2  27
BRANCH   5  43
HETATM   43  O11 UNL     1     -49.047 -33.003 145.836  1.00  0.00    -0.382 OA
ATOM     44  H11 UNL     1     -49.448 -32.161 146.013  1.00  0.00     0.211 HD
ENDBRANCH   5  43
BRANCH   5  45
HETATM   45  C16 UNL     1     -48.906 -33.977 143.681  1.00  0.00     0.169 C 
BRANCH  45  46
HETATM   46  O12 UNL     1     -48.845 -35.203 144.385  1.00  0.00    -0.392 OA
ATOM     47  H12 UNL     1     -49.341 -35.102 145.189  1.00  0.00     0.210 HD
ENDBRANCH  45  46
BRANCH  45  48
HETATM   48  C17 UNL     1     -50.216 -33.872 143.016  1.00  0.00     0.139 C 
BRANCH  48  49
HETATM   49  S2  UNL     1     -50.227 -33.334 141.308  1.00  0.00    -0.013 SA
BRANCH  49  50
HETATM   50  O13 UNL     1     -51.654 -33.692 140.454  1.00  0.00    -0.329 OA
ATOM     51  H13 UNL     1     -51.537 -33.834 139.522  1.00  0.00     0.227 HD
ENDBRANCH  49  50
ENDBRANCH  48  49
ENDBRANCH  45  48
ENDBRANCH   5  45
BRANCH   3  52
HETATM   52  O9  UNL     1     -47.237 -30.061 142.822  1.00  0.00    -0.390 OA
ATOM     53  H9  UNL     1     -47.861 -29.517 143.288  1.00  0.00     0.210 HD
ENDBRANCH   3  52
BRANCH   4  54
HETATM   54  O10 UNL     1     -48.369 -30.588 145.021  1.00  0.00    -0.390 OA
ATOM     55  H10 UNL     1     -49.200 -30.205 145.277  1.00  0.00     0.210 HD
ENDBRANCH   4  54
TORSDOF 23
ENDMDL
MODEL 3
REMARK VINA RESULT: -6.805286890      2.193      2.770
REMARK  23 active torsions:
REMARK  status: ('A' for Active; 'I' for Inactive)
REMARK    1  A    between atoms: C2_2  and  O1_3 
REMARK    2  A    between atoms: C3_6  and  C4_7 
REMARK    3  A    between atoms: C4_7  and  O2_8 
REMARK    4  A    between atoms: O2_8  and  C5_9 
REMARK    5  A    between atoms: C6_10  and  O3_11 
REMARK    6  A    between atoms: O3_11  and  C7_12 
REMARK    7  A    between atoms: C8_14  and  C9_15 
REMARK    8  A    between atoms: C9_15  and  O5_16 
REMARK    9  A    between atoms: C10_18  and  O6_19 
REMARK   10  A    between atoms: C11_21  and  O7_22 
REMARK   11  A    between atoms: C12_24  and  O8_25 
REMARK   12  A    between atoms: C13_27  and  O9_28 
REMARK   13  A    between atoms: C14_30  and  O10_31 
REMARK   14  A    between atoms: C15_33  and  O11_34 
REMARK   15  A    between atoms: C15_33  and  C16_36 
REMARK   16  A    between atoms: C16_36  and  O12_37 
REMARK   17  A    between atoms: C16_36  and  C17_39 
REMARK   18  A    between atoms: C17_39  and  S2_40 
REMARK   19  A    between atoms: S2_40  and  O13_41 
REMARK   20  A    between atoms: C18_44  and  C19_45 
REMARK   21  A    between atoms: C19_45  and  O15_46 
REMARK   22  A    between atoms: C20_48  and  O16_49 
REMARK   23  A    between atoms: C20_48  and  N1_51 
ROOT
HETATM    1  C5  UNL     1     -47.268 -32.421 144.794  1.00  0.00     0.192 C 
HETATM    2  C6  UNL     1     -46.185 -31.521 144.250  1.00  0.00     0.188 C 
HETATM    3  C13 UNL     1     -46.289 -30.199 144.975  1.00  0.00     0.181 C 
HETATM    4  C14 UNL     1     -47.042 -30.575 146.230  1.00  0.00     0.189 C 
HETATM    5  C15 UNL     1     -48.093 -31.541 145.731  1.00  0.00     0.141 C 
ENDROOT
BRANCH   1   6
HETATM    6  O2  UNL     1     -46.648 -33.446 145.503  1.00  0.00    -0.377 OA
BRANCH   6   7
HETATM    7  C4  UNL     1     -47.032 -34.718 145.086  1.00  0.00     0.211 C 
BRANCH   7   8
HETATM    8  C3  UNL     1     -47.288 -35.530 146.342  1.00  0.00     0.210 C 
HETATM    9  S1  UNL     1     -46.226 -34.975 147.706  1.00  0.00    -0.093 SA
HETATM   10  C2  UNL     1     -46.967 -35.663 149.224  1.00  0.00     0.158 C 
HETATM   11  C1  UNL     1     -46.588 -34.803 150.412  1.00  0.00     0.064 C 
HETATM   12  C20 UNL     1     -48.467 -35.689 149.139  1.00  0.00     0.214 C 
HETATM   13  C18 UNL     1     -48.987 -36.144 147.807  1.00  0.00     0.207 C 
HETATM   14  O14 UNL     1     -48.587 -35.383 146.752  1.00  0.00    -0.361 OA
BRANCH  10  15
HETATM   15  O1  UNL     1     -46.438 -36.933 149.458  1.00  0.00    -0.374 OA
ATOM     16  H1  UNL     1     -46.880 -37.530 148.865  1.00  0.00     0.211 HD
ENDBRANCH  10  15
BRANCH  12  17
HETATM   17  O16 UNL     1     -48.942 -36.549 150.119  1.00  0.00    -0.364 OA
ATOM     18  H16 UNL     1     -48.687 -37.434 149.885  1.00  0.00     0.213 HD
ENDBRANCH  12  17
BRANCH  12  19
HETATM   19  N1  UNL     1     -48.973 -34.379 149.421  1.00  0.00    -0.303 N 
HETATM   20  N2  UNL     1     -49.977 -33.991 148.801  1.00  0.00    -0.347 N 
ATOM     21  H22 UNL     1     -50.418 -34.602 148.113  1.00  0.00     0.176 HD
ATOM     22  H21 UNL     1     -50.337 -33.058 149.002  1.00  0.00     0.176 HD
ATOM     23  H1  UNL     1     -48.521 -33.780 150.112  1.00  0.00     0.183 HD
ENDBRANCH  12  19
BRANCH  13  24
HETATM   24  C19 UNL     1     -48.830 -37.618 147.548  1.00  0.00     0.201 C 
BRANCH  24  25
HETATM   25  O15 UNL     1     -49.953 -38.330 148.032  1.00  0.00    -0.398 OA
ATOM     26  H15 UNL     1     -49.681 -39.143 148.441  1.00  0.00     0.209 HD
ENDBRANCH  24  25
ENDBRANCH  13  24
ENDBRANCH   7   8
ENDBRANCH   6   7
ENDBRANCH   1   6
BRANCH   2  27
HETATM   27  O3  UNL     1     -46.402 -31.383 142.885  1.00  0.00    -0.348 OA
BRANCH  27  28
HETATM   28  C7  UNL     1     -45.335 -31.767 142.093  1.00  0.00     0.292 C 
HETATM   29  O4  UNL     1     -44.645 -32.731 142.852  1.00  0.00    -0.348 OA
HETATM   30  C8  UNL     1     -43.692 -33.418 142.100  1.00  0.00     0.179 C 
HETATM   31  C10 UNL     1     -43.113 -32.582 141.005  1.00  0.00     0.180 C 
HETATM   32  C11 UNL     1     -42.972 -31.165 141.528  1.00  0.00     0.183 C 
HETATM   33  C12 UNL     1     -44.362 -30.639 141.831  1.00  0.00     0.204 C 
BRANCH  30  34
HETATM   34  C9  UNL     1     -42.586 -33.778 143.080  1.00  0.00     0.198 C 
BRANCH  34  35
HETATM   35  O5  UNL     1     -42.228 -35.101 143.032  1.00  0.00    -0.398 OA
ATOM     36  H5  UNL     1     -42.489 -35.590 143.803  1.00  0.00     0.209 HD
ENDBRANCH  34  35
ENDBRANCH  30  34
BRANCH  31  37
HETATM   37  O6  UNL     1     -41.877 -33.082 140.608  1.00  0.00    -0.390 OA
ATOM     38  H6  UNL     1     -41.938 -33.481 139.748  1.00  0.00     0.210 HD
ENDBRANCH  31  37
BRANCH  32  39
HETATM   39  O7  UNL     1     -42.347 -30.417 140.541  1.00  0.00    -0.390 OA
ATOM     40  H7  UNL     1     -42.093 -29.588 140.928  1.00  0.00     0.210 HD
ENDBRANCH  32  39
BRANCH  33  41
HETATM   41  O8  UNL     1     -44.722 -29.835 140.769  1.00  0.00    -0.388 OA
ATOM     42  H8  UNL     1     -45.159 -29.034 141.031  1.00  0.00     0.210 HD
ENDBRANCH  33  41
ENDBRANCH  27  28
ENDBRANCH   2  27
BRANCH   5  43
HETATM   43  O11 UNL     1     -48.539 -32.354 146.746  1.00  0.00    -0.382 OA
ATOM     44  H11 UNL     1     -47.883 -32.319 147.432  1.00  0.00     0.211 HD
ENDBRANCH   5  43
BRANCH   5  45
HETATM   45  C16 UNL     1     -49.197 -30.897 144.998  1.00  0.00     0.169 C 
BRANCH  45  46
HETATM   46  O12 UNL     1     -50.146 -31.897 144.677  1.00  0.00    -0.392 OA
ATOM     47  H12 UNL     1     -50.438 -31.745 143.786  1.00  0.00     0.210 HD
ENDBRANCH  45  46
BRANCH  45  48
HETATM   48  C17 UNL     1     -49.897 -29.747 145.597  1.00  0.00     0.139 C 
BRANCH  48  49
HETATM   49  S2  UNL     1     -51.358 -30.095 146.573  1.00  0.00    -0.013 SA
BRANCH  49  50
HETATM   50  O13 UNL     1     -51.242 -31.470 147.567  1.00  0.00    -0.329 OA
ATOM     51  H13 UNL     1     -52.053 -31.954 147.676  1.00  0.00     0.227 HD
ENDBRANCH  49  50
ENDBRANCH  48  49
ENDBRANCH  45  48
ENDBRANCH   5  45
BRANCH   3  52
HETATM   52  O9  UNL     1     -45.032 -29.733 145.389  1.00  0.00    -0.390 OA
ATOM     53  H9  UNL     1     -44.736 -29.002 144.858  1.00  0.00     0.210 HD
ENDBRANCH   3  52
BRANCH   4  54
HETATM   54  O10 UNL     1     -46.171 -31.239 147.070  1.00  0.00    -0.390 OA
ATOM     55  H10 UNL     1     -46.685 -31.722 147.707  1.00  0.00     0.210 HD
ENDBRANCH   4  54
TORSDOF 23
ENDMDL
MODEL 4
REMARK VINA RESULT: -6.770983849      3.551      7.010
REMARK  23 active torsions:
REMARK  status: ('A' for Active; 'I' for Inactive)
REMARK    1  A    between atoms: C2_2  and  O1_3 
REMARK    2  A    between atoms: C3_6  and  C4_7 
REMARK    3  A    between atoms: C4_7  and  O2_8 
REMARK    4  A    between atoms: O2_8  and  C5_9 
REMARK    5  A    between atoms: C6_10  and  O3_11 
REMARK    6  A    between atoms: O3_11  and  C7_12 
REMARK    7  A    between atoms: C8_14  and  C9_15 
REMARK    8  A    between atoms: C9_15  and  O5_16 
REMARK    9  A    between atoms: C10_18  and  O6_19 
REMARK   10  A    between atoms: C11_21  and  O7_22 
REMARK   11  A    between atoms: C12_24  and  O8_25 
REMARK   12  A    between atoms: C13_27  and  O9_28 
REMARK   13  A    between atoms: C14_30  and  O10_31 
REMARK   14  A    between atoms: C15_33  and  O11_34 
REMARK   15  A    between atoms: C15_33  and  C16_36 
REMARK   16  A    between atoms: C16_36  and  O12_37 
REMARK   17  A    between atoms: C16_36  and  C17_39 
REMARK   18  A    between atoms: C17_39  and  S2_40 
REMARK   19  A    between atoms: S2_40  and  O13_41 
REMARK   20  A    between atoms: C18_44  and  C19_45 
REMARK   21  A    between atoms: C19_45  and  O15_46 
REMARK   22  A    between atoms: C20_48  and  O16_49 
REMARK   23  A    between atoms: C20_48  and  N1_51 
ROOT
HETATM    1  C5  UNL     1     -43.052 -31.380 143.588  1.00  0.00     0.192 C 
HETATM    2  C6  UNL     1     -43.773 -31.468 142.264  1.00  0.00     0.188 C 
HETATM    3  C13 UNL     1     -43.065 -32.514 141.433  1.00  0.00     0.181 C 
HETATM    4  C14 UNL     1     -42.341 -33.327 142.480  1.00  0.00     0.189 C 
HETATM    5  C15 UNL     1     -41.826 -32.280 143.442  1.00  0.00     0.141 C 
ENDROOT
BRANCH   1   6
HETATM    6  O2  UNL     1     -43.907 -31.873 144.569  1.00  0.00    -0.377 OA
BRANCH   6   7
HETATM    7  C4  UNL     1     -44.933 -30.992 144.902  1.00  0.00     0.211 C 
BRANCH   7   8
HETATM    8  C3  UNL     1     -46.182 -31.832 145.096  1.00  0.00     0.210 C 
HETATM    9  S1  UNL     1     -47.613 -30.790 145.503  1.00  0.00    -0.093 SA
HETATM   10  C2  UNL     1     -49.083 -31.832 145.219  1.00  0.00     0.158 C 
HETATM   11  C1  UNL     1     -50.279 -30.954 144.913  1.00  0.00     0.064 C 
HETATM   12  C20 UNL     1     -48.883 -32.754 144.050  1.00  0.00     0.214 C 
HETATM   13  C18 UNL     1     -47.524 -33.390 144.010  1.00  0.00     0.207 C 
HETATM   14  O14 UNL     1     -46.488 -32.510 143.946  1.00  0.00    -0.361 OA
BRANCH  10  15
HETATM   15  O1  UNL     1     -49.382 -32.532 146.388  1.00  0.00    -0.374 OA
ATOM     16  H1  UNL     1     -49.687 -31.893 147.023  1.00  0.00     0.211 HD
ENDBRANCH  10  15
BRANCH  12  17
HETATM   17  O16 UNL     1     -49.840 -33.756 144.121  1.00  0.00    -0.364 OA
ATOM     18  H16 UNL     1     -49.412 -34.556 144.402  1.00  0.00     0.213 HD
ENDBRANCH  12  17
BRANCH  12  19
HETATM   19  N1  UNL     1     -49.098 -32.024 142.837  1.00  0.00    -0.303 N 
HETATM   20  N2  UNL     1     -48.999 -32.634 141.759  1.00  0.00    -0.347 N 
ATOM     21  H22 UNL     1     -48.770 -33.628 141.756  1.00  0.00     0.176 HD
ATOM     22  H21 UNL     1     -49.153 -32.114 140.895  1.00  0.00     0.176 HD
ATOM     23  H1  UNL     1     -49.326 -31.030 142.857  1.00  0.00     0.183 HD
ENDBRANCH  12  19
BRANCH  13  24
HETATM   24  C19 UNL     1     -47.308 -34.462 145.044  1.00  0.00     0.201 C 
BRANCH  24  25
HETATM   25  O15 UNL     1     -47.679 -35.728 144.532  1.00  0.00    -0.398 OA
ATOM     26  H15 UNL     1     -47.088 -36.402 144.848  1.00  0.00     0.209 HD
ENDBRANCH  24  25
ENDBRANCH  13  24
ENDBRANCH   7   8
ENDBRANCH   6   7
ENDBRANCH   1   6
BRANCH   2  27
HETATM   27  O3  UNL     1     -43.720 -30.212 141.674  1.00  0.00    -0.348 OA
BRANCH  27  28
HETATM   28  C7  UNL     1     -44.696 -29.985 140.722  1.00  0.00     0.292 C 
HETATM   29  O4  UNL     1     -44.671 -28.595 140.497  1.00  0.00    -0.348 OA
HETATM   30  C8  UNL     1     -45.409 -28.224 139.374  1.00  0.00     0.179 C 
HETATM   31  C10 UNL     1     -46.567 -29.134 139.122  1.00  0.00     0.180 C 
HETATM   32  C11 UNL     1     -47.146 -29.533 140.466  1.00  0.00     0.183 C 
HETATM   33  C12 UNL     1     -46.087 -30.321 141.213  1.00  0.00     0.204 C 
BRANCH  30  34
HETATM   34  C9  UNL     1     -45.937 -26.831 139.678  1.00  0.00     0.198 C 
BRANCH  34  35
HETATM   35  O5  UNL     1     -45.981 -26.014 138.577  1.00  0.00    -0.398 OA
ATOM     36  H5  UNL     1     -46.523 -25.244 138.701  1.00  0.00     0.209 HD
ENDBRANCH  34  35
ENDBRANCH  30  34
BRANCH  31  37
HETATM   37  O6  UNL     1     -47.531 -28.497 138.345  1.00  0.00    -0.390 OA
ATOM     38  H6  UNL     1     -48.331 -28.371 138.842  1.00  0.00     0.210 HD
ENDBRANCH  31  37
BRANCH  32  39
HETATM   39  O7  UNL     1     -48.276 -30.299 140.223  1.00  0.00    -0.390 OA
ATOM     40  H7  UNL     1     -48.832 -30.240 140.991  1.00  0.00     0.210 HD
ENDBRANCH  32  39
BRANCH  33  41
HETATM   41  O8  UNL     1     -46.413 -31.656 141.074  1.00  0.00    -0.388 OA
ATOM     42  H8  UNL     1     -47.336 -31.805 140.906  1.00  0.00     0.210 HD
ENDBRANCH  33  41
ENDBRANCH  27  28
ENDBRANCH   2  27
BRANCH   5  43
HETATM   43  O11 UNL     1     -41.583 -32.822 144.681  1.00  0.00    -0.382 OA
ATOM     44  H11 UNL     1     -40.986 -33.549 144.548  1.00  0.00     0.211 HD
ENDBRANCH   5  43
BRANCH   5  45
HETATM   45  C16 UNL     1     -40.677 -31.511 142.929  1.00  0.00     0.169 C 
BRANCH  45  46
HETATM   46  O12 UNL     1     -40.897 -30.147 143.235  1.00  0.00    -0.392 OA
ATOM     47  H12 UNL     1     -40.487 -29.967 144.073  1.00  0.00     0.210 HD
ENDBRANCH  45  46
BRANCH  45  48
HETATM   48  C17 UNL     1     -39.311 -31.879 143.338  1.00  0.00     0.139 C 
BRANCH  48  49
HETATM   49  S2  UNL     1     -38.636 -31.054 144.777  1.00  0.00    -0.013 SA
BRANCH  49  50
HETATM   50  O13 UNL     1     -39.390 -31.452 146.249  1.00  0.00    -0.329 OA
ATOM     51  H13 UNL     1     -38.814 -31.831 146.903  1.00  0.00     0.227 HD
ENDBRANCH  49  50
ENDBRANCH  48  49
ENDBRANCH  45  48
ENDBRANCH   5  45
BRANCH   3  52
HETATM   52  O9  UNL     1     -43.973 -33.383 140.810  1.00  0.00    -0.390 OA
ATOM     53  H9  UNL     1     -43.658 -33.671 139.960  1.00  0.00     0.210 HD
ENDBRANCH   3  52
BRANCH   4  54
HETATM   54  O10 UNL     1     -43.268 -34.122 143.123  1.00  0.00    -0.390 OA
ATOM     55  H10 UNL     1     -43.190 -35.004 142.779  1.00  0.00     0.210 HD
ENDBRANCH   4  54
TORSDOF 23
ENDMDL
MODEL 5
REMARK VINA RESULT: -6.755075092      3.690      5.408
REMARK  23 active torsions:
REMARK  status: ('A' for Active; 'I' for Inactive)
REMARK    1  A    between atoms: C2_2  and  O1_3 
REMARK    2  A    between atoms: C3_6  and  C4_7 
REMARK    3  A    between atoms: C4_7  and  O2_8 
REMARK    4  A    between atoms: O2_8  and  C5_9 
REMARK    5  A    between atoms: C6_10  and  O3_11 
REMARK    6  A    between atoms: O3_11  and  C7_12 
REMARK    7  A    between atoms: C8_14  and  C9_15 
REMARK    8  A    between atoms: C9_15  and  O5_16 
REMARK    9  A    between atoms: C10_18  and  O6_19 
REMARK   10  A    between atoms: C11_21  and  O7_22 
REMARK   11  A    between atoms: C12_24  and  O8_25 
REMARK   12  A    between atoms: C13_27  and  O9_28 
REMARK   13  A    between atoms: C14_30  and  O10_31 
REMARK   14  A    between atoms: C15_33  and  O11_34 
REMARK   15  A    between atoms: C15_33  and  C16_36 
REMARK   16  A    between atoms: C16_36  and  O12_37 
REMARK   17  A    between atoms: C16_36  and  C17_39 
REMARK   18  A    between atoms: C17_39  and  S2_40 
REMARK   19  A    between atoms: S2_40  and  O13_41 
REMARK   20  A    between atoms: C18_44  and  C19_45 
REMARK   21  A    between atoms: C19_45  and  O15_46 
REMARK   22  A    between atoms: C20_48  and  O16_49 
REMARK   23  A    between atoms: C20_48  and  N1_51 
ROOT
HETATM    1  C5  UNL     1     -45.938 -29.214 140.754  1.00  0.00     0.192 C 
HETATM    2  C6  UNL     1     -44.488 -29.053 141.141  1.00  0.00     0.188 C 
HETATM    3  C13 UNL     1     -44.002 -27.752 140.544  1.00  0.00     0.181 C 
HETATM    4  C14 UNL     1     -45.291 -26.997 140.316  1.00  0.00     0.189 C 
HETATM    5  C15 UNL     1     -46.232 -28.061 139.795  1.00  0.00     0.141 C 
ENDROOT
BRANCH   1   6
HETATM    6  O2  UNL     1     -46.700 -29.093 141.913  1.00  0.00    -0.377 OA
BRANCH   6   7
HETATM    7  C4  UNL     1     -46.125 -29.712 143.020  1.00  0.00     0.211 C 
BRANCH   7   8
HETATM    8  C3  UNL     1     -46.796 -31.066 143.159  1.00  0.00     0.210 C 
HETATM    9  S1  UNL     1     -46.229 -31.925 144.655  1.00  0.00    -0.093 SA
HETATM   10  C2  UNL     1     -47.442 -33.255 144.954  1.00  0.00     0.158 C 
HETATM   11  C1  UNL     1     -47.456 -33.612 146.425  1.00  0.00     0.064 C 
HETATM   12  C20 UNL     1     -48.831 -32.825 144.575  1.00  0.00     0.214 C 
HETATM   13  C18 UNL     1     -48.894 -32.061 143.285  1.00  0.00     0.207 C 
HETATM   14  O14 UNL     1     -48.154 -30.920 143.264  1.00  0.00    -0.361 OA
BRANCH  10  15
HETATM   15  O1  UNL     1     -47.046 -34.401 144.262  1.00  0.00    -0.374 OA
ATOM     16  H1  UNL     1     -47.242 -35.143 144.822  1.00  0.00     0.211 HD
ENDBRANCH  10  15
BRANCH  12  17
HETATM   17  O16 UNL     1     -49.619 -33.961 144.457  1.00  0.00    -0.364 OA
ATOM     18  H16 UNL     1     -50.217 -33.833 143.731  1.00  0.00     0.213 HD
ENDBRANCH  12  17
BRANCH  12  19
HETATM   19  N1  UNL     1     -49.373 -32.020 145.627  1.00  0.00    -0.303 N 
HETATM   20  N2  UNL     1     -50.302 -31.241 145.352  1.00  0.00    -0.347 N 
ATOM     21  H22 UNL     1     -50.657 -31.190 144.397  1.00  0.00     0.176 HD
ATOM     22  H21 UNL     1     -50.688 -30.668 146.101  1.00  0.00     0.176 HD
ATOM     23  H1  UNL     1     -49.008 -32.083 146.577  1.00  0.00     0.183 HD
ENDBRANCH  12  19
BRANCH  13  24
HETATM   24  C19 UNL     1     -48.692 -32.902 142.053  1.00  0.00     0.201 C 
BRANCH  24  25
HETATM   25  O15 UNL     1     -49.927 -33.417 141.594  1.00  0.00    -0.398 OA
ATOM     26  H15 UNL     1     -49.908 -34.367 141.582  1.00  0.00     0.209 HD
ENDBRANCH  24  25
ENDBRANCH  13  24
ENDBRANCH   7   8
ENDBRANCH   6   7
ENDBRANCH   1   6
BRANCH   2  27
HETATM   27  O3  UNL     1     -43.796 -30.147 140.635  1.00  0.00    -0.348 OA
BRANCH  27  28
HETATM   28  C7  UNL     1     -43.488 -31.113 141.574  1.00  0.00     0.292 C 
HETATM   29  O4  UNL     1     -42.230 -30.740 142.083  1.00  0.00    -0.348 OA
HETATM   30  C8  UNL     1     -41.885 -31.456 143.230  1.00  0.00     0.179 C 
HETATM   31  C10 UNL     1     -42.464 -32.834 143.241  1.00  0.00     0.180 C 
HETATM   32  C11 UNL     1     -42.425 -33.367 141.822  1.00  0.00     0.183 C 
HETATM   33  C12 UNL     1     -43.323 -32.490 140.970  1.00  0.00     0.204 C 
BRANCH  30  34
HETATM   34  C9  UNL     1     -40.368 -31.562 143.200  1.00  0.00     0.198 C 
BRANCH  34  35
HETATM   35  O5  UNL     1     -39.780 -30.689 142.320  1.00  0.00    -0.398 OA
ATOM     36  H5  UNL     1     -38.846 -30.586 142.460  1.00  0.00     0.209 HD
ENDBRANCH  34  35
ENDBRANCH  30  34
BRANCH  31  37
HETATM   37  O6  UNL     1     -41.741 -33.662 144.095  1.00  0.00    -0.390 OA
ATOM     38  H6  UNL     1     -40.868 -33.814 143.752  1.00  0.00     0.210 HD
ENDBRANCH  31  37
BRANCH  32  39
HETATM   39  O7  UNL     1     -42.875 -34.678 141.856  1.00  0.00    -0.390 OA
ATOM     40  H7  UNL     1     -42.307 -35.189 141.292  1.00  0.00     0.210 HD
ENDBRANCH  32  39
BRANCH  33  41
HETATM   41  O8  UNL     1     -44.514 -33.171 140.817  1.00  0.00    -0.388 OA
ATOM     42  H8  UNL     1     -44.406 -34.113 140.755  1.00  0.00     0.210 HD
ENDBRANCH  33  41
ENDBRANCH  27  28
ENDBRANCH   2  27
BRANCH   5  43
HETATM   43  O11 UNL     1     -47.543 -27.703 139.997  1.00  0.00    -0.382 OA
ATOM     44  H11 UNL     1     -47.573 -26.753 139.977  1.00  0.00     0.211 HD
ENDBRANCH   5  43
BRANCH   5  45
HETATM   45  C16 UNL     1     -45.966 -28.465 138.403  1.00  0.00     0.169 C 
BRANCH  45  46
HETATM   46  O12 UNL     1     -47.110 -29.145 137.923  1.00  0.00    -0.392 OA
ATOM     47  H12 UNL     1     -47.063 -30.044 138.226  1.00  0.00     0.210 HD
ENDBRANCH  45  46
BRANCH  45  48
HETATM   48  C17 UNL     1     -45.560 -27.451 137.414  1.00  0.00     0.139 C 
BRANCH  48  49
HETATM   49  S2  UNL     1     -45.575 -27.937 135.690  1.00  0.00    -0.013 SA
BRANCH  49  50
HETATM   50  O13 UNL     1     -47.084 -28.465 135.109  1.00  0.00    -0.329 OA
ATOM     51  H13 UNL     1     -47.375 -28.042 134.310  1.00  0.00     0.227 HD
ENDBRANCH  49  50
ENDBRANCH  48  49
ENDBRANCH  45  48
ENDBRANCH   5  45
BRANCH   3  52
HETATM   52  O9  UNL     1     -43.258 -27.002 141.467  1.00  0.00    -0.390 OA
ATOM     53  H9  UNL     1     -42.536 -26.546 141.050  1.00  0.00     0.210 HD
ENDBRANCH   3  52
BRANCH   4  54
HETATM   54  O10 UNL     1     -45.744 -26.543 141.538  1.00  0.00    -0.390 OA
ATOM     55  H10 UNL     1     -46.629 -26.218 141.423  1.00  0.00     0.210 HD
ENDBRANCH   4  54
TORSDOF 23
ENDMDL
