MODEL 1
REMARK VINA RESULT: -6.814088110      0.000      0.000
REMARK  21 active torsions:
REMARK  status: ('A' for Active; 'I' for Inactive)
REMARK    1  A    between atoms: C2_2  and  O1_6 
REMARK    2  A    between atoms: O1_6  and  C3_7 
REMARK    3  A    between atoms: C3_7  and  C4_8 
REMARK    4  A    between atoms: C5_12  and  S1_13 
REMARK    5  A    between atoms: C6_15  and  O2_16 
REMARK    6  A    between atoms: C7_18  and  O3_19 
REMARK    7  A    between atoms: O3_19  and  C8_20 
REMARK    8  A    between atoms: C9_22  and  C10_23 
REMARK    9  A    between atoms: C10_23  and  O5_24 
REMARK   10  A    between atoms: O5_24  and  C11_25 
REMARK   11  A    between atoms: C12_27  and  C13_28 
REMARK   12  A    between atoms: C13_28  and  O7_29 
REMARK   13  A    between atoms: C13_28  and  C14_31 
REMARK   14  A    between atoms: C14_31  and  O8_32 
REMARK   15  A    between atoms: C14_31  and  C15_34 
REMARK   16  A    between atoms: C15_34  and  O9_35 
REMARK   17  A    between atoms: C16_37  and  O10_38 
REMARK   18  A    between atoms: C17_40  and  O11_41 
REMARK   19  A    between atoms: C18_43  and  O12_44 
REMARK   20  A    between atoms: C19_46  and  N3_47 
REMARK   21  A    between atoms: C20_51  and  O13_52 
ROOT
HETATM    1  C8  UNL     1     -48.112 -35.350 146.250  1.00  0.00     0.294 C 
HETATM    2  O4  UNL     1     -46.986 -34.752 145.756  1.00  0.00    -0.348 OA
HETATM    3  C9  UNL     1     -45.781 -35.187 146.225  1.00  0.00     0.179 C 
HETATM    4  C18 UNL     1     -45.730 -35.001 147.723  1.00  0.00     0.182 C 
HETATM    5  C19 UNL     1     -46.791 -35.908 148.306  1.00  0.00     0.247 C 
HETATM    6  C20 UNL     1     -48.114 -35.459 147.755  1.00  0.00     0.206 C 
ENDROOT
BRANCH   1   7
HETATM    7  O3  UNL     1     -49.180 -34.507 145.886  1.00  0.00    -0.326 OA
BRANCH   7   8
HETATM    8  C7  UNL     1     -48.770 -33.539 144.936  1.00  0.00     0.297 C 
HETATM    9  C6  UNL     1     -48.738 -32.249 145.672  1.00  0.00     0.215 C 
HETATM   10  C5  UNL     1     -49.076 -31.117 144.743  1.00  0.00     0.295 C 
HETATM   11  N2  UNL     1     -48.690 -31.570 143.391  1.00  0.00    -0.030 N 
HETATM   12  C4  UNL     1     -49.630 -32.581 143.014  1.00  0.00     0.349 C 
ATOM     13  H22 UNL     1     -47.720 -31.880 143.331  1.00  0.00     0.281 HD
ATOM     14  H21 UNL     1     -48.623 -30.809 142.715  1.00  0.00     0.281 HD
HETATM   15  O14 UNL     1     -49.648 -33.651 143.897  1.00  0.00    -0.324 OA
BRANCH   9  16
HETATM   16  O2  UNL     1     -47.434 -31.999 146.145  1.00  0.00    -0.388 OA
ATOM     17  H2  UNL     1     -47.521 -31.772 147.063  1.00  0.00     0.210 HD
ENDBRANCH   9  16
BRANCH  10  18
HETATM   18  S1  UNL     1     -48.176 -29.618 145.154  1.00  0.00    -0.049 SA
HETATM   19  S2  UNL     1     -49.303 -28.340 146.406  1.00  0.00    -0.011 SA
ENDBRANCH  10  18
BRANCH  12  20
HETATM   20  C3  UNL     1     -49.600 -32.970 141.571  1.00  0.00     0.238 C 
BRANCH  20  21
HETATM   21  O1  UNL     1     -48.642 -32.322 140.780  1.00  0.00    -0.336 OA
BRANCH  21  22
HETATM   22  C2  UNL     1     -48.897 -31.404 139.797  1.00  0.00     0.107 C 
HETATM   23  C1  UNL     1     -48.085 -30.177 139.633  1.00  0.00     0.097 C 
HETATM   24  N1  UNL     1     -49.909 -31.685 139.010  1.00  0.00    -0.384 N 
ATOM     25  H12 UNL     1     -50.100 -31.001 138.278  1.00  0.00     0.157 HD
ATOM     26  H11 UNL     1     -50.469 -32.530 139.124  1.00  0.00     0.157 HD
ENDBRANCH  21  22
ENDBRANCH  20  21
ENDBRANCH  12  20
ENDBRANCH   7   8
ENDBRANCH   1   7
BRANCH   6  27
HETATM   27  O13 UNL     1     -48.410 -34.216 148.348  1.00  0.00    -0.388 OA
ATOM     28  H13 UNL     1     -47.950 -34.117 149.174  1.00  0.00     0.210 HD
ENDBRANCH   6  27
BRANCH   3  29
HETATM   29  C10 UNL     1     -44.715 -34.281 145.592  1.00  0.00     0.205 C 
BRANCH  29  30
HETATM   30  O5  UNL     1     -45.368 -33.295 144.884  1.00  0.00    -0.356 OA
BRANCH  30  31
HETATM   31  C11 UNL     1     -44.527 -32.571 144.056  1.00  0.00     0.291 C 
HETATM   32  O6  UNL     1     -43.452 -33.366 143.599  1.00  0.00    -0.348 OA
HETATM   33  C12 UNL     1     -42.908 -32.465 142.650  1.00  0.00     0.187 C 
HETATM   34  C16 UNL     1     -44.081 -32.242 141.760  1.00  0.00     0.183 C 
HETATM   35  C17 UNL     1     -45.219 -32.133 142.784  1.00  0.00     0.204 C 
BRANCH  33  36
HETATM   36  C13 UNL     1     -41.697 -33.045 142.005  1.00  0.00     0.180 C 
BRANCH  36  37
HETATM   37  O7  UNL     1     -41.858 -33.171 140.615  1.00  0.00    -0.390 OA
ATOM     38  H7  UNL     1     -41.022 -33.201 140.165  1.00  0.00     0.210 HD
ENDBRANCH  36  37
BRANCH  36  39
HETATM   39  C14 UNL     1     -40.479 -32.211 142.217  1.00  0.00     0.173 C 
BRANCH  39  40
HETATM   40  O8  UNL     1     -40.634 -30.980 141.572  1.00  0.00    -0.391 OA
ATOM     41  H8  UNL     1     -41.047 -31.113 140.726  1.00  0.00     0.210 HD
ENDBRANCH  39  40
BRANCH  39  42
HETATM   42  C15 UNL     1     -40.067 -31.963 143.624  1.00  0.00     0.198 C 
BRANCH  42  43
HETATM   43  O9  UNL     1     -39.002 -32.704 144.086  1.00  0.00    -0.398 OA
ATOM     44  H9  UNL     1     -39.204 -33.376 144.726  1.00  0.00     0.209 HD
ENDBRANCH  42  43
ENDBRANCH  39  42
ENDBRANCH  36  39
ENDBRANCH  33  36
BRANCH  34  45
HETATM   45  O10 UNL     1     -44.356 -33.290 140.904  1.00  0.00    -0.390 OA
ATOM     46  H10 UNL     1     -45.272 -33.370 140.662  1.00  0.00     0.210 HD
ENDBRANCH  34  45
BRANCH  35  47
HETATM   47  O11 UNL     1     -46.270 -32.991 142.458  1.00  0.00    -0.388 OA
ATOM     48  H11 UNL     1     -47.083 -32.513 142.340  1.00  0.00     0.210 HD
ENDBRANCH  35  47
ENDBRANCH  30  31
ENDBRANCH  29  30
ENDBRANCH   3  29
BRANCH   5  49
HETATM   49  N3  UNL     1     -46.842 -35.803 149.757  1.00  0.00    -0.070 N 
ATOM     50  H33 UNL     1     -46.831 -36.723 150.198  1.00  0.00     0.274 HD
ATOM     51  H32 UNL     1     -45.968 -35.436 150.136  1.00  0.00     0.274 HD
ATOM     52  H31 UNL     1     -47.643 -35.252 150.062  1.00  0.00     0.274 HD
ENDBRANCH   5  49
BRANCH   4  53
HETATM   53  O12 UNL     1     -46.094 -33.690 147.998  1.00  0.00    -0.391 OA
ATOM     54  H12 UNL     1     -45.311 -33.220 148.260  1.00  0.00     0.210 HD
ENDBRANCH   4  53
TORSDOF 21
ENDMDL
MODEL 2
REMARK VINA RESULT: -6.692980467      2.707      7.239
REMARK  21 active torsions:
REMARK  status: ('A' for Active; 'I' for Inactive)
REMARK    1  A    between atoms: C2_2  and  O1_6 
REMARK    2  A    between atoms: O1_6  and  C3_7 
REMARK    3  A    between atoms: C3_7  and  C4_8 
REMARK    4  A    between atoms: C5_12  and  S1_13 
REMARK    5  A    between atoms: C6_15  and  O2_16 
REMARK    6  A    between atoms: C7_18  and  O3_19 
REMARK    7  A    between atoms: O3_19  and  C8_20 
REMARK    8  A    between atoms: C9_22  and  C10_23 
REMARK    9  A    between atoms: C10_23  and  O5_24 
REMARK   10  A    between atoms: O5_24  and  C11_25 
REMARK   11  A    between atoms: C12_27  and  C13_28 
REMARK   12  A    between atoms: C13_28  and  O7_29 
REMARK   13  A    between atoms: C13_28  and  C14_31 
REMARK   14  A    between atoms: C14_31  and  O8_32 
REMARK   15  A    between atoms: C14_31  and  C15_34 
REMARK   16  A    between atoms: C15_34  and  O9_35 
REMARK   17  A    between atoms: C16_37  and  O10_38 
REMARK   18  A    between atoms: C17_40  and  O11_41 
REMARK   19  A    between atoms: C18_43  and  O12_44 
REMARK   20  A    between atoms: C19_46  and  N3_47 
REMARK   21  A    between atoms: C20_51  and  O13_52 
ROOT
HETATM    1  C8  UNL     1     -43.058 -33.707 143.238  1.00  0.00     0.294 C 
HETATM    2  O4  UNL     1     -44.106 -32.829 143.240  1.00  0.00    -0.348 OA
HETATM    3  C9  UNL     1     -44.179 -31.931 142.216  1.00  0.00     0.179 C 
HETATM    4  C18 UNL     1     -42.927 -31.087 142.198  1.00  0.00     0.182 C 
HETATM    5  C19 UNL     1     -41.781 -32.025 141.888  1.00  0.00     0.247 C 
HETATM    6  C20 UNL     1     -41.727 -33.042 142.992  1.00  0.00     0.206 C 
ENDROOT
BRANCH   1   7
HETATM    7  O3  UNL     1     -43.022 -34.259 144.533  1.00  0.00    -0.326 OA
BRANCH   7   8
HETATM    8  C7  UNL     1     -44.145 -33.853 145.296  1.00  0.00     0.297 C 
HETATM    9  C6  UNL     1     -43.595 -33.037 146.410  1.00  0.00     0.215 C 
HETATM   10  C5  UNL     1     -44.457 -33.186 147.632  1.00  0.00     0.295 C 
HETATM   11  N2  UNL     1     -45.808 -33.523 147.139  1.00  0.00    -0.030 N 
HETATM   12  C4  UNL     1     -45.739 -34.861 146.637  1.00  0.00     0.349 C 
ATOM     13  H22 UNL     1     -46.167 -32.855 146.457  1.00  0.00     0.281 HD
ATOM     14  H21 UNL     1     -46.537 -33.393 147.841  1.00  0.00     0.281 HD
HETATM   15  O14 UNL     1     -44.803 -35.003 145.621  1.00  0.00    -0.324 OA
BRANCH   9  16
HETATM   16  O2  UNL     1     -43.626 -31.671 146.065  1.00  0.00    -0.388 OA
ATOM     17  H2  UNL     1     -44.488 -31.506 145.701  1.00  0.00     0.210 HD
ENDBRANCH   9  16
BRANCH  10  18
HETATM   18  S1  UNL     1     -44.529 -31.670 148.592  1.00  0.00    -0.049 SA
HETATM   19  S2  UNL     1     -42.698 -31.269 149.571  1.00  0.00    -0.011 SA
ENDBRANCH  10  18
BRANCH  12  20
HETATM   20  C3  UNL     1     -47.059 -35.504 146.355  1.00  0.00     0.238 C 
BRANCH  20  21
HETATM   21  O1  UNL     1     -48.192 -34.738 146.662  1.00  0.00    -0.336 OA
BRANCH  21  22
HETATM   22  C2  UNL     1     -49.059 -34.963 147.697  1.00  0.00     0.107 C 
HETATM   23  C1  UNL     1     -49.022 -34.169 148.945  1.00  0.00     0.097 C 
HETATM   24  N1  UNL     1     -49.926 -35.931 147.508  1.00  0.00    -0.384 N 
ATOM     25  H12 UNL     1     -50.572 -36.099 148.279  1.00  0.00     0.157 HD
ATOM     26  H11 UNL     1     -49.951 -36.479 146.648  1.00  0.00     0.157 HD
ENDBRANCH  21  22
ENDBRANCH  20  21
ENDBRANCH  12  20
ENDBRANCH   7   8
ENDBRANCH   1   7
BRANCH   6  27
HETATM   27  O13 UNL     1     -41.277 -32.377 144.149  1.00  0.00    -0.388 OA
ATOM     28  H13 UNL     1     -40.369 -32.591 144.331  1.00  0.00     0.210 HD
ENDBRANCH   6  27
BRANCH   3  29
HETATM   29  C10 UNL     1     -45.371 -31.013 142.528  1.00  0.00     0.205 C 
BRANCH  29  30
HETATM   30  O5  UNL     1     -46.210 -31.690 143.387  1.00  0.00    -0.356 OA
BRANCH  30  31
HETATM   31  C11 UNL     1     -47.547 -31.568 143.051  1.00  0.00     0.291 C 
HETATM   32  O6  UNL     1     -47.980 -32.666 142.272  1.00  0.00    -0.348 OA
HETATM   33  C12 UNL     1     -49.369 -32.386 142.264  1.00  0.00     0.187 C 
HETATM   34  C16 UNL     1     -49.668 -32.363 143.722  1.00  0.00     0.183 C 
HETATM   35  C17 UNL     1     -48.446 -31.612 144.267  1.00  0.00     0.204 C 
BRANCH  33  36
HETATM   36  C13 UNL     1     -50.106 -33.401 141.460  1.00  0.00     0.180 C 
BRANCH  36  37
HETATM   37  O7  UNL     1     -51.427 -33.561 141.909  1.00  0.00    -0.390 OA
ATOM     38  H7  UNL     1     -51.767 -34.423 141.703  1.00  0.00     0.210 HD
ENDBRANCH  36  37
BRANCH  36  39
HETATM   39  C14 UNL     1     -50.191 -33.037 140.016  1.00  0.00     0.173 C 
BRANCH  39  40
HETATM   40  O8  UNL     1     -51.531 -32.989 139.621  1.00  0.00    -0.391 OA
ATOM     41  H8  UNL     1     -51.847 -33.869 139.455  1.00  0.00     0.210 HD
ENDBRANCH  39  40
BRANCH  39  42
HETATM   42  C15 UNL     1     -49.525 -31.775 139.597  1.00  0.00     0.198 C 
BRANCH  42  43
HETATM   43  O9  UNL     1     -50.298 -30.887 138.883  1.00  0.00    -0.398 OA
ATOM     44  H9  UNL     1     -51.143 -30.669 139.259  1.00  0.00     0.209 HD
ENDBRANCH  42  43
ENDBRANCH  39  42
ENDBRANCH  36  39
ENDBRANCH  33  36
BRANCH  34  45
HETATM   45  O10 UNL     1     -49.720 -33.610 144.314  1.00  0.00    -0.390 OA
ATOM     46  H10 UNL     1     -50.598 -33.956 144.426  1.00  0.00     0.210 HD
ENDBRANCH  34  45
BRANCH  35  47
HETATM   47  O11 UNL     1     -47.850 -32.317 145.314  1.00  0.00    -0.388 OA
ATOM     48  H11 UNL     1     -47.572 -33.182 145.033  1.00  0.00     0.210 HD
ENDBRANCH  35  47
ENDBRANCH  30  31
ENDBRANCH  29  30
ENDBRANCH   3  29
BRANCH   5  49
HETATM   49  N3  UNL     1     -40.509 -31.318 141.857  1.00  0.00    -0.070 N 
ATOM     50  H33 UNL     1     -40.118 -31.295 140.915  1.00  0.00     0.274 HD
ATOM     51  H32 UNL     1     -40.635 -30.316 142.000  1.00  0.00     0.274 HD
ATOM     52  H31 UNL     1     -39.848 -31.712 142.526  1.00  0.00     0.274 HD
ENDBRANCH   5  49
BRANCH   4  53
HETATM   53  O12 UNL     1     -42.734 -30.590 143.480  1.00  0.00    -0.391 OA
ATOM     54  H12 UNL     1     -43.459 -30.010 143.679  1.00  0.00     0.210 HD
ENDBRANCH   4  53
TORSDOF 21
ENDMDL
MODEL 3
REMARK VINA RESULT: -6.644711335      2.749      6.845
REMARK  21 active torsions:
REMARK  status: ('A' for Active; 'I' for Inactive)
REMARK    1  A    between atoms: C2_2  and  O1_6 
REMARK    2  A    between atoms: O1_6  and  C3_7 
REMARK    3  A    between atoms: C3_7  and  C4_8 
REMARK    4  A    between atoms: C5_12  and  S1_13 
REMARK    5  A    between atoms: C6_15  and  O2_16 
REMARK    6  A    between atoms: C7_18  and  O3_19 
REMARK    7  A    between atoms: O3_19  and  C8_20 
REMARK    8  A    between atoms: C9_22  and  C10_23 
REMARK    9  A    between atoms: C10_23  and  O5_24 
REMARK   10  A    between atoms: O5_24  and  C11_25 
REMARK   11  A    between atoms: C12_27  and  C13_28 
REMARK   12  A    between atoms: C13_28  and  O7_29 
REMARK   13  A    between atoms: C13_28  and  C14_31 
REMARK   14  A    between atoms: C14_31  and  O8_32 
REMARK   15  A    between atoms: C14_31  and  C15_34 
REMARK   16  A    between atoms: C15_34  and  O9_35 
REMARK   17  A    between atoms: C16_37  and  O10_38 
REMARK   18  A    between atoms: C17_40  and  O11_41 
REMARK   19  A    between atoms: C18_43  and  O12_44 
REMARK   20  A    between atoms: C19_46  and  N3_47 
REMARK   21  A    between atoms: C20_51  and  O13_52 
ROOT
HETATM    1  C8  UNL     1     -43.989 -32.556 142.411  1.00  0.00     0.294 C 
HETATM    2  O4  UNL     1     -44.308 -33.496 143.351  1.00  0.00    -0.348 OA
HETATM    3  C9  UNL     1     -43.450 -33.657 144.400  1.00  0.00     0.179 C 
HETATM    4  C18 UNL     1     -42.085 -34.034 143.878  1.00  0.00     0.182 C 
HETATM    5  C19 UNL     1     -41.590 -32.852 143.074  1.00  0.00     0.247 C 
HETATM    6  C20 UNL     1     -42.557 -32.646 141.944  1.00  0.00     0.206 C 
ENDROOT
BRANCH   1   7
HETATM    7  O3  UNL     1     -44.813 -32.832 141.303  1.00  0.00    -0.326 OA
BRANCH   7   8
HETATM    8  C7  UNL     1     -45.427 -31.653 140.812  1.00  0.00     0.297 C 
HETATM    9  C6  UNL     1     -44.796 -30.536 141.563  1.00  0.00     0.215 C 
HETATM   10  C5  UNL     1     -45.781 -29.414 141.740  1.00  0.00     0.295 C 
HETATM   11  N2  UNL     1     -46.733 -29.525 140.616  1.00  0.00    -0.030 N 
HETATM   12  C4  UNL     1     -47.529 -30.688 140.867  1.00  0.00     0.349 C 
ATOM     13  H22 UNL     1     -46.278 -29.537 139.703  1.00  0.00     0.281 HD
ATOM     14  H21 UNL     1     -47.287 -28.681 140.472  1.00  0.00     0.281 HD
HETATM   15  O14 UNL     1     -46.768 -31.844 140.974  1.00  0.00    -0.324 OA
BRANCH   9  16
HETATM   16  O2  UNL     1     -43.721 -30.006 140.821  1.00  0.00    -0.388 OA
ATOM     17  H2  UNL     1     -43.166 -29.551 141.442  1.00  0.00     0.210 HD
ENDBRANCH   9  16
BRANCH  10  18
HETATM   18  S1  UNL     1     -44.984 -27.806 141.695  1.00  0.00    -0.049 SA
HETATM   19  S2  UNL     1     -43.958 -27.384 143.494  1.00  0.00    -0.011 SA
ENDBRANCH  10  18
BRANCH  12  20
HETATM   20  C3  UNL     1     -48.744 -30.825 140.006  1.00  0.00     0.238 C 
BRANCH  20  21
HETATM   21  O1  UNL     1     -49.127 -32.135 139.690  1.00  0.00    -0.336 OA
BRANCH  21  22
HETATM   22  C2  UNL     1     -50.154 -32.834 140.263  1.00  0.00     0.107 C 
HETATM   23  C1  UNL     1     -50.145 -33.223 141.692  1.00  0.00     0.097 C 
HETATM   24  N1  UNL     1     -51.150 -33.135 139.462  1.00  0.00    -0.384 N 
ATOM     25  H12 UNL     1     -51.916 -33.656 139.889  1.00  0.00     0.157 HD
ATOM     26  H11 UNL     1     -51.156 -32.867 138.478  1.00  0.00     0.157 HD
ENDBRANCH  21  22
ENDBRANCH  20  21
ENDBRANCH  12  20
ENDBRANCH   7   8
ENDBRANCH   1   7
BRANCH   6  27
HETATM   27  O13 UNL     1     -42.387 -33.721 141.050  1.00  0.00    -0.388 OA
ATOM     28  H13 UNL     1     -41.573 -34.180 141.223  1.00  0.00     0.210 HD
ENDBRANCH   6  27
BRANCH   3  29
HETATM   29  C10 UNL     1     -43.990 -34.834 145.226  1.00  0.00     0.205 C 
BRANCH  29  30
HETATM   30  O5  UNL     1     -45.030 -34.364 146.000  1.00  0.00    -0.356 OA
BRANCH  30  31
HETATM   31  C11 UNL     1     -46.189 -35.109 145.865  1.00  0.00     0.291 C 
HETATM   32  O6  UNL     1     -46.848 -35.255 147.107  1.00  0.00    -0.348 OA
HETATM   33  C12 UNL     1     -48.049 -35.846 146.642  1.00  0.00     0.187 C 
HETATM   34  C16 UNL     1     -48.525 -34.815 145.679  1.00  0.00     0.183 C 
HETATM   35  C17 UNL     1     -47.212 -34.417 144.992  1.00  0.00     0.204 C 
BRANCH  33  36
HETATM   36  C13 UNL     1     -48.962 -36.152 147.779  1.00  0.00     0.180 C 
BRANCH  36  37
HETATM   37  O7  UNL     1     -50.288 -36.327 147.349  1.00  0.00    -0.390 OA
ATOM     38  H7  UNL     1     -50.643 -37.160 147.635  1.00  0.00     0.210 HD
ENDBRANCH  36  37
BRANCH  36  39
HETATM   39  C14 UNL     1     -48.581 -37.401 148.500  1.00  0.00     0.173 C 
BRANCH  39  40
HETATM   40  O8  UNL     1     -48.733 -37.213 149.877  1.00  0.00    -0.391 OA
ATOM     41  H8  UNL     1     -49.640 -37.356 150.120  1.00  0.00     0.210 HD
ENDBRANCH  39  40
BRANCH  39  42
HETATM   42  C15 UNL     1     -49.289 -38.649 148.108  1.00  0.00     0.198 C 
BRANCH  42  43
HETATM   43  O9  UNL     1     -48.836 -39.273 146.967  1.00  0.00    -0.398 OA
ATOM     44  H9  UNL     1     -47.914 -39.162 146.766  1.00  0.00     0.209 HD
ENDBRANCH  42  43
ENDBRANCH  39  42
ENDBRANCH  36  39
ENDBRANCH  33  36
BRANCH  34  45
HETATM   45  O10 UNL     1     -49.073 -33.692 146.269  1.00  0.00    -0.390 OA
ATOM     46  H10 UNL     1     -49.998 -33.768 146.474  1.00  0.00     0.210 HD
ENDBRANCH  34  45
BRANCH  35  47
HETATM   47  O11 UNL     1     -47.038 -33.032 145.006  1.00  0.00    -0.388 OA
ATOM     48  H11 UNL     1     -47.799 -32.585 144.654  1.00  0.00     0.210 HD
ENDBRANCH  35  47
ENDBRANCH  30  31
ENDBRANCH  29  30
ENDBRANCH   3  29
BRANCH   5  49
HETATM   49  N3  UNL     1     -40.274 -33.108 142.507  1.00  0.00    -0.070 N 
ATOM     50  H33 UNL     1     -39.532 -32.888 143.171  1.00  0.00     0.274 HD
ATOM     51  H32 UNL     1     -40.100 -34.108 142.403  1.00  0.00     0.274 HD
ATOM     52  H31 UNL     1     -40.146 -32.613 141.625  1.00  0.00     0.274 HD
ENDBRANCH   5  49
BRANCH   4  53
HETATM   53  O12 UNL     1     -42.245 -35.103 143.007  1.00  0.00    -0.391 OA
ATOM     54  H12 UNL     1     -41.385 -35.465 142.831  1.00  0.00     0.210 HD
ENDBRANCH   4  53
TORSDOF 21
ENDMDL
MODEL 4
REMARK VINA RESULT: -6.470468878      2.784      7.117
REMARK  21 active torsions:
REMARK  status: ('A' for Active; 'I' for Inactive)
REMARK    1  A    between atoms: C2_2  and  O1_6 
REMARK    2  A    between atoms: O1_6  and  C3_7 
REMARK    3  A    between atoms: C3_7  and  C4_8 
REMARK    4  A    between atoms: C5_12  and  S1_13 
REMARK    5  A    between atoms: C6_15  and  O2_16 
REMARK    6  A    between atoms: C7_18  and  O3_19 
REMARK    7  A    between atoms: O3_19  and  C8_20 
REMARK    8  A    between atoms: C9_22  and  C10_23 
REMARK    9  A    between atoms: C10_23  and  O5_24 
REMARK   10  A    between atoms: O5_24  and  C11_25 
REMARK   11  A    between atoms: C12_27  and  C13_28 
REMARK   12  A    between atoms: C13_28  and  O7_29 
REMARK   13  A    between atoms: C13_28  and  C14_31 
REMARK   14  A    between atoms: C14_31  and  O8_32 
REMARK   15  A    between atoms: C14_31  and  C15_34 
REMARK   16  A    between atoms: C15_34  and  O9_35 
REMARK   17  A    between atoms: C16_37  and  O10_38 
REMARK   18  A    between atoms: C17_40  and  O11_41 
REMARK   19  A    between atoms: C18_43  and  O12_44 
REMARK   20  A    between atoms: C19_46  and  N3_47 
REMARK   21  A    between atoms: C20_51  and  O13_52 
ROOT
HETATM    1  C8  UNL     1     -43.289 -31.484 143.860  1.00  0.00     0.294 C 
HETATM    2  O4  UNL     1     -43.971 -32.631 144.156  1.00  0.00    -0.348 OA
HETATM    3  C9  UNL     1     -43.238 -33.746 144.442  1.00  0.00     0.179 C 
HETATM    4  C18 UNL     1     -42.352 -34.078 143.266  1.00  0.00     0.182 C 
HETATM    5  C19 UNL     1     -41.379 -32.928 143.121  1.00  0.00     0.247 C 
HETATM    6  C20 UNL     1     -42.188 -31.692 142.851  1.00  0.00     0.206 C 
ENDROOT
BRANCH   1   7
HETATM    7  O3  UNL     1     -44.237 -30.619 143.279  1.00  0.00    -0.326 OA
BRANCH   7   8
HETATM    8  C7  UNL     1     -45.559 -31.019 143.594  1.00  0.00     0.297 C 
HETATM    9  C6  UNL     1     -46.176 -31.409 142.300  1.00  0.00     0.215 C 
HETATM   10  C5  UNL     1     -47.651 -31.117 142.323  1.00  0.00     0.295 C 
HETATM   11  N2  UNL     1     -48.055 -31.171 143.743  1.00  0.00    -0.030 N 
HETATM   12  C4  UNL     1     -47.493 -30.015 144.373  1.00  0.00     0.349 C 
ATOM     13  H22 UNL     1     -47.798 -32.045 144.202  1.00  0.00     0.281 HD
ATOM     14  H21 UNL     1     -49.063 -31.251 143.872  1.00  0.00     0.281 HD
HETATM   15  O14 UNL     1     -46.110 -29.966 144.264  1.00  0.00    -0.324 OA
BRANCH   9  16
HETATM   16  O2  UNL     1     -46.049 -32.799 142.108  1.00  0.00    -0.388 OA
ATOM     17  H2  UNL     1     -45.335 -32.920 141.494  1.00  0.00     0.210 HD
ENDBRANCH   9  16
BRANCH  10  18
HETATM   18  S1  UNL     1     -48.590 -32.326 141.385  1.00  0.00    -0.049 SA
HETATM   19  S2  UNL     1     -48.853 -31.731 139.373  1.00  0.00    -0.011 SA
ENDBRANCH  10  18
BRANCH  12  20
HETATM   20  C3  UNL     1     -48.017 -29.720 145.742  1.00  0.00     0.238 C 
BRANCH  20  21
HETATM   21  O1  UNL     1     -48.793 -30.726 146.332  1.00  0.00    -0.336 OA
BRANCH  21  22
HETATM   22  C2  UNL     1     -50.139 -30.667 146.573  1.00  0.00     0.107 C 
HETATM   23  C1  UNL     1     -51.062 -29.892 145.714  1.00  0.00     0.097 C 
HETATM   24  N1  UNL     1     -50.557 -31.344 147.617  1.00  0.00    -0.384 N 
ATOM     25  H12 UNL     1     -51.560 -31.300 147.797  1.00  0.00     0.157 HD
ATOM     26  H11 UNL     1     -49.921 -31.878 148.210  1.00  0.00     0.157 HD
ENDBRANCH  21  22
ENDBRANCH  20  21
ENDBRANCH  12  20
ENDBRANCH   7   8
ENDBRANCH   1   7
BRANCH   6  27
HETATM   27  O13 UNL     1     -42.714 -31.816 141.551  1.00  0.00    -0.388 OA
ATOM     28  H13 UNL     1     -43.452 -32.414 141.540  1.00  0.00     0.210 HD
ENDBRANCH   6  27
BRANCH   3  29
HETATM   29  C10 UNL     1     -44.244 -34.893 144.624  1.00  0.00     0.205 C 
BRANCH  29  30
HETATM   30  O5  UNL     1     -44.911 -34.683 145.811  1.00  0.00    -0.356 OA
BRANCH  30  31
HETATM   31  C11 UNL     1     -46.249 -35.037 145.754  1.00  0.00     0.291 C 
HETATM   32  O6  UNL     1     -46.671 -35.635 146.963  1.00  0.00    -0.348 OA
HETATM   33  C12 UNL     1     -48.062 -35.691 146.699  1.00  0.00     0.187 C 
HETATM   34  C16 UNL     1     -48.366 -34.254 146.449  1.00  0.00     0.183 C 
HETATM   35  C17 UNL     1     -47.151 -33.831 145.612  1.00  0.00     0.204 C 
BRANCH  33  36
HETATM   36  C13 UNL     1     -48.789 -36.327 147.832  1.00  0.00     0.180 C 
BRANCH  36  37
HETATM   37  O7  UNL     1     -50.108 -36.661 147.482  1.00  0.00    -0.390 OA
ATOM     38  H7  UNL     1     -50.138 -37.410 146.899  1.00  0.00     0.210 HD
ENDBRANCH  36  37
BRANCH  36  39
HETATM   39  C14 UNL     1     -48.141 -37.588 148.294  1.00  0.00     0.173 C 
BRANCH  39  40
HETATM   40  O8  UNL     1     -47.753 -37.456 149.631  1.00  0.00    -0.391 OA
ATOM     41  H8  UNL     1     -47.376 -38.272 149.936  1.00  0.00     0.210 HD
ENDBRANCH  39  40
BRANCH  39  42
HETATM   42  C15 UNL     1     -48.924 -38.844 148.147  1.00  0.00     0.198 C 
BRANCH  42  43
HETATM   43  O9  UNL     1     -48.859 -39.462 146.918  1.00  0.00    -0.398 OA
ATOM     44  H9  UNL     1     -49.676 -39.808 146.578  1.00  0.00     0.209 HD
ENDBRANCH  42  43
ENDBRANCH  39  42
ENDBRANCH  36  39
ENDBRANCH  33  36
BRANCH  34  45
HETATM   45  O10 UNL     1     -48.411 -33.474 147.588  1.00  0.00    -0.390 OA
ATOM     46  H10 UNL     1     -47.563 -33.302 147.981  1.00  0.00     0.210 HD
ENDBRANCH  34  45
BRANCH  35  47
HETATM   47  O11 UNL     1     -46.554 -32.686 146.141  1.00  0.00    -0.388 OA
ATOM     48  H11 UNL     1     -45.738 -32.486 145.697  1.00  0.00     0.210 HD
ENDBRANCH  35  47
ENDBRANCH  30  31
ENDBRANCH  29  30
ENDBRANCH   3  29
BRANCH   5  49
HETATM   49  N3  UNL     1     -40.473 -33.135 142.001  1.00  0.00    -0.070 N 
ATOM     50  H33 UNL     1     -40.141 -34.099 141.962  1.00  0.00     0.274 HD
ATOM     51  H32 UNL     1     -40.969 -33.103 141.109  1.00  0.00     0.274 HD
ATOM     52  H31 UNL     1     -39.698 -32.473 142.022  1.00  0.00     0.274 HD
ENDBRANCH   5  49
BRANCH   4  53
HETATM   53  O12 UNL     1     -43.149 -34.104 142.129  1.00  0.00    -0.391 OA
ATOM     54  H12 UNL     1     -42.836 -33.428 141.540  1.00  0.00     0.210 HD
ENDBRANCH   4  53
TORSDOF 21
ENDMDL
MODEL 5
REMARK VINA RESULT: -6.401654153      3.005      7.298
REMARK  21 active torsions:
REMARK  status: ('A' for Active; 'I' for Inactive)
REMARK    1  A    between atoms: C2_2  and  O1_6 
REMARK    2  A    between atoms: O1_6  and  C3_7 
REMARK    3  A    between atoms: C3_7  and  C4_8 
REMARK    4  A    between atoms: C5_12  and  S1_13 
REMARK    5  A    between atoms: C6_15  and  O2_16 
REMARK    6  A    between atoms: C7_18  and  O3_19 
REMARK    7  A    between atoms: O3_19  and  C8_20 
REMARK    8  A    between atoms: C9_22  and  C10_23 
REMARK    9  A    between atoms: C10_23  and  O5_24 
REMARK   10  A    between atoms: O5_24  and  C11_25 
REMARK   11  A    between atoms: C12_27  and  C13_28 
REMARK   12  A    between atoms: C13_28  and  O7_29 
REMARK   13  A    between atoms: C13_28  and  C14_31 
REMARK   14  A    between atoms: C14_31  and  O8_32 
REMARK   15  A    between atoms: C14_31  and  C15_34 
REMARK   16  A    between atoms: C15_34  and  O9_35 
REMARK   17  A    between atoms: C16_37  and  O10_38 
REMARK   18  A    between atoms: C17_40  and  O11_41 
REMARK   19  A    between atoms: C18_43  and  O12_44 
REMARK   20  A    between atoms: C19_46  and  N3_47 
REMARK   21  A    between atoms: C20_51  and  O13_52 
ROOT
HETATM    1  C8  UNL     1     -44.160 -31.733 144.381  1.00  0.00     0.294 C 
HETATM    2  O4  UNL     1     -44.783 -32.472 145.348  1.00  0.00    -0.348 OA
HETATM    3  C9  UNL     1     -44.032 -33.392 146.021  1.00  0.00     0.179 C 
HETATM    4  C18 UNL     1     -43.458 -34.386 145.040  1.00  0.00     0.182 C 
HETATM    5  C19 UNL     1     -42.517 -33.611 144.144  1.00  0.00     0.247 C 
HETATM    6  C20 UNL     1     -43.333 -32.568 143.435  1.00  0.00     0.206 C 
ENDROOT
BRANCH   1   7
HETATM    7  O3  UNL     1     -45.194 -31.142 143.629  1.00  0.00    -0.326 OA
BRANCH   7   8
HETATM    8  C7  UNL     1     -46.462 -31.406 144.205  1.00  0.00     0.297 C 
HETATM    9  C6  UNL     1     -47.210 -32.181 143.180  1.00  0.00     0.215 C 
HETATM   10  C5  UNL     1     -48.679 -31.881 143.278  1.00  0.00     0.295 C 
HETATM   11  N2  UNL     1     -48.920 -31.475 144.678  1.00  0.00    -0.030 N 
HETATM   12  C4  UNL     1     -48.322 -30.185 144.840  1.00  0.00     0.349 C 
ATOM     13  H22 UNL     1     -48.591 -32.161 145.358  1.00  0.00     0.281 HD
ATOM     14  H21 UNL     1     -49.905 -31.499 144.940  1.00  0.00     0.281 HD
HETATM   15  O14 UNL     1     -46.962 -30.189 144.564  1.00  0.00    -0.324 OA
BRANCH   9  16
HETATM   16  O2  UNL     1     -47.069 -33.562 143.426  1.00  0.00    -0.388 OA
ATOM     17  H2  UNL     1     -47.216 -33.684 144.356  1.00  0.00     0.210 HD
ENDBRANCH   9  16
BRANCH  10  18
HETATM   18  S1  UNL     1     -49.686 -33.315 142.886  1.00  0.00    -0.049 SA
HETATM   19  S2  UNL     1     -50.492 -33.202 140.935  1.00  0.00    -0.011 SA
ENDBRANCH  10  18
BRANCH  12  20
HETATM   20  C3  UNL     1     -48.696 -29.464 146.095  1.00  0.00     0.238 C 
BRANCH  20  21
HETATM   21  O1  UNL     1     -48.656 -30.221 147.273  1.00  0.00    -0.336 OA
BRANCH  21  22
HETATM   22  C2  UNL     1     -47.576 -30.362 148.102  1.00  0.00     0.107 C 
HETATM   23  C1  UNL     1     -47.460 -29.626 149.381  1.00  0.00     0.097 C 
HETATM   24  N1  UNL     1     -46.650 -31.195 147.687  1.00  0.00    -0.384 N 
ATOM     25  H12 UNL     1     -45.845 -31.300 148.305  1.00  0.00     0.157 HD
ATOM     26  H11 UNL     1     -46.729 -31.702 146.806  1.00  0.00     0.157 HD
ENDBRANCH  21  22
ENDBRANCH  20  21
ENDBRANCH  12  20
ENDBRANCH   7   8
ENDBRANCH   1   7
BRANCH   6  27
HETATM   27  O13 UNL     1     -44.155 -33.242 142.511  1.00  0.00    -0.388 OA
ATOM     28  H13 UNL     1     -44.544 -32.631 141.896  1.00  0.00     0.210 HD
ENDBRANCH   6  27
BRANCH   3  29
HETATM   29  C10 UNL     1     -44.997 -34.140 146.953  1.00  0.00     0.205 C 
BRANCH  29  30
HETATM   30  O5  UNL     1     -46.282 -33.864 146.538  1.00  0.00    -0.356 OA
BRANCH  30  31
HETATM   31  C11 UNL     1     -47.082 -34.992 146.457  1.00  0.00     0.291 C 
HETATM   32  O6  UNL     1     -47.072 -35.713 147.672  1.00  0.00    -0.348 OA
HETATM   33  C12 UNL     1     -48.096 -36.647 147.373  1.00  0.00     0.187 C 
HETATM   34  C16 UNL     1     -49.236 -35.738 147.072  1.00  0.00     0.183 C 
HETATM   35  C17 UNL     1     -48.540 -34.642 146.255  1.00  0.00     0.204 C 
BRANCH  33  36
HETATM   36  C13 UNL     1     -48.294 -37.594 148.506  1.00  0.00     0.180 C 
BRANCH  36  37
HETATM   37  O7  UNL     1     -48.713 -36.930 149.671  1.00  0.00    -0.390 OA
ATOM     38  H7  UNL     1     -49.512 -36.436 149.526  1.00  0.00     0.210 HD
ENDBRANCH  36  37
BRANCH  36  39
HETATM   39  C14 UNL     1     -49.327 -38.630 148.213  1.00  0.00     0.173 C 
BRANCH  39  40
HETATM   40  O8  UNL     1     -48.920 -39.404 147.122  1.00  0.00    -0.391 OA
ATOM     41  H8  UNL     1     -48.728 -40.288 147.412  1.00  0.00     0.210 HD
ENDBRANCH  39  40
BRANCH  39  42
HETATM   42  C15 UNL     1     -49.706 -39.539 149.327  1.00  0.00     0.198 C 
BRANCH  42  43
HETATM   43  O9  UNL     1     -48.721 -40.389 149.781  1.00  0.00    -0.398 OA
ATOM     44  H9  UNL     1     -48.547 -40.369 150.715  1.00  0.00     0.209 HD
ENDBRANCH  42  43
ENDBRANCH  39  42
ENDBRANCH  36  39
ENDBRANCH  33  36
BRANCH  34  45
HETATM   45  O10 UNL     1     -49.815 -35.159 148.184  1.00  0.00    -0.390 OA
ATOM     46  H10 UNL     1     -49.736 -34.213 148.222  1.00  0.00     0.210 HD
ENDBRANCH  34  45
BRANCH  35  47
HETATM   47  O11 UNL     1     -48.832 -33.375 146.764  1.00  0.00    -0.388 OA
ATOM     48  H11 UNL     1     -49.763 -33.274 146.925  1.00  0.00     0.210 HD
ENDBRANCH  35  47
ENDBRANCH  30  31
ENDBRANCH  29  30
ENDBRANCH   3  29
BRANCH   5  49
HETATM   49  N3  UNL     1     -41.908 -34.472 143.141  1.00  0.00    -0.070 N 
ATOM     50  H33 UNL     1     -42.279 -35.421 143.189  1.00  0.00     0.274 HD
ATOM     51  H32 UNL     1     -42.218 -34.228 142.201  1.00  0.00     0.274 HD
ATOM     52  H31 UNL     1     -40.891 -34.466 143.213  1.00  0.00     0.274 HD
ENDBRANCH   5  49
BRANCH   4  53
HETATM   53  O12 UNL     1     -44.502 -34.855 144.254  1.00  0.00    -0.391 OA
ATOM     54  H12 UNL     1     -44.917 -34.105 143.846  1.00  0.00     0.210 HD
ENDBRANCH   4  53
TORSDOF 21
ENDMDL
