MODEL 1
REMARK VINA RESULT: -8.076656870      0.000      0.000
REMARK  19 active torsions:
REMARK  status: ('A' for Active; 'I' for Inactive)
REMARK    1  A    between atoms: N1_1  and  C1_4 
REMARK    2  A    between atoms: N3_10  and  C5_11 
REMARK    3  A    between atoms: C6_12  and  C7_13 
REMARK    4  A    between atoms: C7_13  and  O1_14 
REMARK    5  A    between atoms: O1_14  and  C8_15 
REMARK    6  A    between atoms: C9_19  and  O2_20 
REMARK    7  A    between atoms: C10_22  and  O3_23 
REMARK    8  A    between atoms: C11_25  and  N5_26 
REMARK    9  A    between atoms: C12_30  and  O4_31 
REMARK   10  A    between atoms: C13_33  and  C14_34 
REMARK   11  A    between atoms: C14_34  and  S1_35 
REMARK   12  A    between atoms: S1_35  and  C15_36 
REMARK   13  A    between atoms: C15_36  and  C16_37 
REMARK   14  A    between atoms: C16_37  and  C17_38 
REMARK   15  A    between atoms: C17_38  and  N6_39 
REMARK   16  A    between atoms: N6_39  and  C18_41 
REMARK   17  A    between atoms: C19_44  and  N8_45 
REMARK   18  A    between atoms: C20_55  and  O5_56 
REMARK   19  A    between atoms: C21_58  and  O6_59 
ROOT
HETATM    1  C5  UNL     1     -46.508 -29.954 139.829  1.00  0.00     0.155 C 
HETATM    2  C6  UNL     1     -45.534 -29.163 140.632  1.00  0.00    -0.025 C 
HETATM    3  C13 UNL     1     -45.835 -27.888 140.523  1.00  0.00    -0.033 C 
HETATM    4  C20 UNL     1     -47.023 -27.659 139.677  1.00  0.00     0.179 C 
HETATM    5  C21 UNL     1     -47.272 -28.961 138.998  1.00  0.00     0.178 C 
ENDROOT
BRANCH   3   6
HETATM    6  C14 UNL     1     -45.133 -26.686 141.158  1.00  0.00     0.111 C 
BRANCH   6   7
HETATM    7  S1  UNL     1     -43.616 -26.351 140.280  1.00  0.00    -0.165 SA
BRANCH   7   8
HETATM    8  C15 UNL     1     -43.444 -24.780 139.510  1.00  0.00     0.076 C 
BRANCH   8   9
HETATM    9  C16 UNL     1     -44.320 -24.437 138.351  1.00  0.00     0.030 C 
BRANCH   9  10
HETATM   10  C17 UNL     1     -43.765 -24.865 137.030  1.00  0.00     0.139 C 
BRANCH  10  11
HETATM   11  N6  UNL     1     -44.273 -26.213 136.759  1.00  0.00    -0.225 N 
ATOM     12  H6  UNL     1     -44.131 -26.932 137.467  1.00  0.00     0.177 HD
BRANCH  11  13
HETATM   13  C18 UNL     1     -44.950 -26.572 135.568  1.00  0.00     0.692 C 
HETATM   14  N7  UNL     1     -44.429 -26.337 134.396  1.00  0.00    -0.177 N 
HETATM   15  C19 UNL     1     -45.197 -26.739 133.244  1.00  0.00     0.416 C 
ATOM     16  H7  UNL     1     -43.519 -25.889 134.297  1.00  0.00     0.181 HD
HETATM   17  N9  UNL     1     -45.854 -27.995 133.405  1.00  0.00    -0.274 N 
HETATM   18  N10 UNL     1     -46.491 -28.165 134.610  1.00  0.00    -0.230 N 
ATOM     19  H9  UNL     1     -45.851 -28.713 132.680  1.00  0.00     0.185 HD
HETATM   20  N11 UNL     1     -46.225 -27.203 135.572  1.00  0.00    -0.118 N 
ATOM     21  H10 UNL     1     -47.119 -28.950 134.787  1.00  0.00     0.208 HD
ATOM     22  H11 UNL     1     -46.928 -26.952 136.267  1.00  0.00     0.207 HD
BRANCH  15  23
HETATM   23  N8  UNL     1     -44.249 -26.857 132.128  1.00  0.00    -0.039 N 
ATOM     24  H83 UNL     1     -44.020 -25.961 131.698  1.00  0.00     0.279 HD
ATOM     25  H82 UNL     1     -43.304 -27.100 132.426  1.00  0.00     0.279 HD
ATOM     26  H81 UNL     1     -44.651 -27.528 131.475  1.00  0.00     0.279 HD
ENDBRANCH  15  23
ENDBRANCH  11  13
ENDBRANCH  10  11
ENDBRANCH   9  10
ENDBRANCH   8   9
ENDBRANCH   7   8
ENDBRANCH   6   7
ENDBRANCH   3   6
BRANCH   2  27
HETATM   27  C7  UNL     1     -44.452 -29.782 141.420  1.00  0.00     0.207 C 
BRANCH  27  28
HETATM   28  O1  UNL     1     -43.976 -30.897 140.797  1.00  0.00    -0.353 OA
BRANCH  28  29
HETATM   29  C8  UNL     1     -42.730 -31.340 141.156  1.00  0.00     0.355 C 
HETATM   30  N4  UNL     1     -42.217 -30.588 142.313  1.00  0.00    -0.018 N 
HETATM   31  C9  UNL     1     -40.899 -31.114 142.590  1.00  0.00     0.352 C 
ATOM     32  H42 UNL     1     -42.228 -29.578 142.176  1.00  0.00     0.283 HD
ATOM     33  H41 UNL     1     -42.841 -30.612 143.120  1.00  0.00     0.283 HD
HETATM   34  C10 UNL     1     -41.107 -32.390 143.387  1.00  0.00     0.207 C 
HETATM   35  C11 UNL     1     -42.358 -33.108 142.913  1.00  0.00     0.249 C 
HETATM   36  C12 UNL     1     -42.627 -32.799 141.450  1.00  0.00     0.207 C 
BRANCH  31  37
HETATM   37  O2  UNL     1     -40.089 -30.212 143.275  1.00  0.00    -0.368 OA
ATOM     38  H2  UNL     1     -39.278 -30.024 142.818  1.00  0.00     0.212 HD
ENDBRANCH  31  37
BRANCH  34  39
HETATM   39  O3  UNL     1     -40.019 -33.230 143.207  1.00  0.00    -0.389 OA
ATOM     40  H3  UNL     1     -40.296 -34.133 143.309  1.00  0.00     0.210 HD
ENDBRANCH  34  39
BRANCH  35  41
HETATM   41  N5  UNL     1     -42.159 -34.521 143.064  1.00  0.00    -0.070 N 
ATOM     42  H53 UNL     1     -41.474 -34.745 143.786  1.00  0.00     0.274 HD
ATOM     43  H52 UNL     1     -42.963 -34.987 143.484  1.00  0.00     0.274 HD
ATOM     44  H51 UNL     1     -41.910 -34.914 142.156  1.00  0.00     0.274 HD
ENDBRANCH  35  41
BRANCH  36  45
HETATM   45  O4  UNL     1     -41.559 -33.366 140.712  1.00  0.00    -0.389 OA
ATOM     46  H4  UNL     1     -41.898 -33.822 139.950  1.00  0.00     0.210 HD
ENDBRANCH  36  45
ENDBRANCH  28  29
ENDBRANCH  27  28
ENDBRANCH   2  27
BRANCH   4  47
HETATM   47  O5  UNL     1     -46.819 -26.673 138.715  1.00  0.00    -0.388 OA
ATOM     48  H5  UNL     1     -47.504 -26.651 138.057  1.00  0.00     0.210 HD
ENDBRANCH   4  47
BRANCH   1  49
HETATM   49  N3  UNL     1     -47.411 -30.700 140.694  1.00  0.00    -0.316 N 
HETATM   50  C1  UNL     1     -48.387 -31.479 140.208  1.00  0.00     0.141 A 
HETATM   51  C2  UNL     1     -49.243 -32.184 141.024  1.00  0.00     0.166 A 
HETATM   52  C3  UNL     1     -49.117 -32.104 142.416  1.00  0.00     0.183 A 
HETATM   53  O8  UNL     1     -50.309 -33.040 140.779  1.00  0.00    -0.318 OA
HETATM   54  N2  UNL     1     -48.119 -31.306 142.866  1.00  0.00    -0.330 N 
HETATM   55  O7  UNL     1     -50.080 -32.892 143.021  1.00  0.00    -0.307 OA
HETATM   56  C4  UNL     1     -47.302 -30.633 142.035  1.00  0.00     0.187 A 
ATOM     57  H2  UNL     1     -47.982 -31.212 143.873  1.00  0.00     0.168 HD
HETATM   58  C22 UNL     1     -50.864 -33.462 141.991  1.00  0.00     0.354 A 
BRANCH  50  59
HETATM   59  N1  UNL     1     -48.541 -31.585 138.934  1.00  0.00    -0.383 N 
ATOM     60  H12 UNL     1     -49.123 -30.909 138.440  1.00  0.00     0.157 HD
ATOM     61  H11 UNL     1     -48.067 -32.350 138.455  1.00  0.00     0.157 HD
ENDBRANCH  50  59
ENDBRANCH   1  49
BRANCH   5  62
HETATM   62  O6  UNL     1     -46.798 -28.933 137.703  1.00  0.00    -0.390 OA
ATOM     63  H6  UNL     1     -47.491 -28.715 137.091  1.00  0.00     0.210 HD
ENDBRANCH   5  62
TORSDOF 19
ENDMDL
MODEL 2
REMARK VINA RESULT: -7.543851459      3.165      6.321
REMARK  19 active torsions:
REMARK  status: ('A' for Active; 'I' for Inactive)
REMARK    1  A    between atoms: N1_1  and  C1_4 
REMARK    2  A    between atoms: N3_10  and  C5_11 
REMARK    3  A    between atoms: C6_12  and  C7_13 
REMARK    4  A    between atoms: C7_13  and  O1_14 
REMARK    5  A    between atoms: O1_14  and  C8_15 
REMARK    6  A    between atoms: C9_19  and  O2_20 
REMARK    7  A    between atoms: C10_22  and  O3_23 
REMARK    8  A    between atoms: C11_25  and  N5_26 
REMARK    9  A    between atoms: C12_30  and  O4_31 
REMARK   10  A    between atoms: C13_33  and  C14_34 
REMARK   11  A    between atoms: C14_34  and  S1_35 
REMARK   12  A    between atoms: S1_35  and  C15_36 
REMARK   13  A    between atoms: C15_36  and  C16_37 
REMARK   14  A    between atoms: C16_37  and  C17_38 
REMARK   15  A    between atoms: C17_38  and  N6_39 
REMARK   16  A    between atoms: N6_39  and  C18_41 
REMARK   17  A    between atoms: C19_44  and  N8_45 
REMARK   18  A    between atoms: C20_55  and  O5_56 
REMARK   19  A    between atoms: C21_58  and  O6_59 
ROOT
HETATM    1  C5  UNL     1     -46.204 -33.640 144.467  1.00  0.00     0.155 C 
HETATM    2  C6  UNL     1     -46.963 -32.832 143.473  1.00  0.00    -0.025 C 
HETATM    3  C13 UNL     1     -48.234 -32.835 143.809  1.00  0.00    -0.033 C 
HETATM    4  C20 UNL     1     -48.490 -33.604 145.044  1.00  0.00     0.179 C 
HETATM    5  C21 UNL     1     -47.231 -34.361 145.296  1.00  0.00     0.178 C 
ENDROOT
BRANCH   3   6
HETATM    6  C14 UNL     1     -49.407 -32.151 143.105  1.00  0.00     0.111 C 
BRANCH   6   7
HETATM    7  S1  UNL     1     -49.958 -33.166 141.745  1.00  0.00    -0.165 SA
BRANCH   7   8
HETATM    8  C15 UNL     1     -49.900 -32.475 140.129  1.00  0.00     0.076 C 
BRANCH   8   9
HETATM    9  C16 UNL     1     -48.644 -31.815 139.665  1.00  0.00     0.030 C 
BRANCH   9  10
HETATM   10  C17 UNL     1     -48.705 -30.320 139.693  1.00  0.00     0.139 C 
BRANCH  10  11
HETATM   11  N6  UNL     1     -47.332 -29.831 139.854  1.00  0.00    -0.225 N 
ATOM     12  H6  UNL     1     -46.778 -30.197 140.628  1.00  0.00     0.177 HD
BRANCH  11  13
HETATM   13  C18 UNL     1     -46.733 -28.878 138.996  1.00  0.00     0.692 C 
HETATM   14  N7  UNL     1     -45.575 -28.346 139.276  1.00  0.00    -0.177 N 
HETATM   15  C19 UNL     1     -45.051 -27.385 138.339  1.00  0.00     0.416 C 
ATOM     16  H7  UNL     1     -45.064 -28.598 140.122  1.00  0.00     0.181 HD
HETATM   17  N9  UNL     1     -45.271 -27.737 136.975  1.00  0.00    -0.274 N 
HETATM   18  N10 UNL     1     -46.538 -28.187 136.690  1.00  0.00    -0.230 N 
ATOM     19  H9  UNL     1     -44.543 -27.661 136.264  1.00  0.00     0.185 HD
HETATM   20  N11 UNL     1     -47.345 -28.444 137.788  1.00  0.00    -0.118 N 
ATOM     21  H10 UNL     1     -46.863 -28.324 135.733  1.00  0.00     0.208 HD
ATOM     22  H11 UNL     1     -48.356 -28.323 137.731  1.00  0.00     0.207 HD
BRANCH  15  23
HETATM   23  N8  UNL     1     -43.601 -27.324 138.569  1.00  0.00    -0.039 N 
ATOM     24  H83 UNL     1     -43.066 -27.914 137.931  1.00  0.00     0.279 HD
ATOM     25  H82 UNL     1     -43.186 -26.434 138.297  1.00  0.00     0.279 HD
ATOM     26  H81 UNL     1     -43.453 -27.555 139.552  1.00  0.00     0.279 HD
ENDBRANCH  15  23
ENDBRANCH  11  13
ENDBRANCH  10  11
ENDBRANCH   9  10
ENDBRANCH   8   9
ENDBRANCH   7   8
ENDBRANCH   6   7
ENDBRANCH   3   6
BRANCH   2  27
HETATM   27  C7  UNL     1     -46.321 -32.143 142.339  1.00  0.00     0.207 C 
BRANCH  27  28
HETATM   28  O1  UNL     1     -45.510 -32.995 141.651  1.00  0.00    -0.353 OA
BRANCH  28  29
HETATM   29  C8  UNL     1     -44.289 -32.521 141.246  1.00  0.00     0.355 C 
HETATM   30  N4  UNL     1     -44.241 -31.052 141.329  1.00  0.00    -0.018 N 
HETATM   31  C9  UNL     1     -42.931 -30.660 140.859  1.00  0.00     0.352 C 
ATOM     32  H42 UNL     1     -45.004 -30.594 140.831  1.00  0.00     0.283 HD
ATOM     33  H41 UNL     1     -44.464 -30.692 142.257  1.00  0.00     0.283 HD
HETATM   34  C10 UNL     1     -41.982 -30.855 142.028  1.00  0.00     0.207 C 
HETATM   35  C11 UNL     1     -42.396 -32.066 142.845  1.00  0.00     0.249 C 
HETATM   36  C12 UNL     1     -43.111 -33.080 141.969  1.00  0.00     0.207 C 
BRANCH  31  37
HETATM   37  O2  UNL     1     -42.897 -29.350 140.387  1.00  0.00    -0.368 OA
ATOM     38  H2  UNL     1     -42.362 -28.779 140.926  1.00  0.00     0.212 HD
ENDBRANCH  31  37
BRANCH  34  39
HETATM   39  O3  UNL     1     -40.697 -31.062 141.550  1.00  0.00    -0.389 OA
ATOM     40  H3  UNL     1     -40.369 -31.892 141.875  1.00  0.00     0.210 HD
ENDBRANCH  34  39
BRANCH  35  41
HETATM   41  N5  UNL     1     -41.217 -32.670 143.396  1.00  0.00    -0.070 N 
ATOM     42  H53 UNL     1     -40.361 -32.324 142.964  1.00  0.00     0.274 HD
ATOM     43  H52 UNL     1     -41.028 -32.360 144.349  1.00  0.00     0.274 HD
ATOM     44  H51 UNL     1     -41.307 -33.684 143.326  1.00  0.00     0.274 HD
ENDBRANCH  35  41
BRANCH  36  45
HETATM   45  O4  UNL     1     -42.155 -33.558 141.039  1.00  0.00    -0.389 OA
ATOM     46  H4  UNL     1     -41.368 -33.026 141.081  1.00  0.00     0.210 HD
ENDBRANCH  36  45
ENDBRANCH  28  29
ENDBRANCH  27  28
ENDBRANCH   2  27
BRANCH   4  47
HETATM   47  O5  UNL     1     -49.545 -34.502 144.912  1.00  0.00    -0.388 OA
ATOM     48  H5  UNL     1     -50.225 -34.372 145.564  1.00  0.00     0.210 HD
ENDBRANCH   4  47
BRANCH   1  49
HETATM   49  N3  UNL     1     -45.375 -32.787 145.308  1.00  0.00    -0.316 N 
HETATM   50  C1  UNL     1     -44.167 -33.168 145.743  1.00  0.00     0.141 A 
HETATM   51  C2  UNL     1     -43.383 -32.364 146.539  1.00  0.00     0.166 A 
HETATM   52  C3  UNL     1     -43.836 -31.098 146.927  1.00  0.00     0.183 A 
HETATM   53  O8  UNL     1     -42.125 -32.518 147.110  1.00  0.00    -0.318 OA
HETATM   54  N2  UNL     1     -45.062 -30.751 146.467  1.00  0.00    -0.330 N 
HETATM   55  O7  UNL     1     -42.884 -30.480 147.719  1.00  0.00    -0.307 OA
HETATM   56  C4  UNL     1     -45.798 -31.567 145.689  1.00  0.00     0.187 A 
ATOM     57  H2  UNL     1     -45.441 -29.838 146.720  1.00  0.00     0.168 HD
HETATM   58  C22 UNL     1     -41.810 -31.388 147.869  1.00  0.00     0.354 A 
BRANCH  50  59
HETATM   59  N1  UNL     1     -43.707 -34.324 145.411  1.00  0.00    -0.383 N 
ATOM     60  H12 UNL     1     -42.742 -34.410 145.093  1.00  0.00     0.157 HD
ATOM     61  H11 UNL     1     -44.332 -35.127 145.479  1.00  0.00     0.157 HD
ENDBRANCH  50  59
ENDBRANCH   1  49
BRANCH   5  62
HETATM   62  O6  UNL     1     -47.362 -35.672 144.888  1.00  0.00    -0.390 OA
ATOM     63  H6  UNL     1     -46.848 -36.252 145.437  1.00  0.00     0.210 HD
ENDBRANCH   5  62
TORSDOF 19
ENDMDL
MODEL 3
REMARK VINA RESULT: -7.513882981      2.705      4.736
REMARK  19 active torsions:
REMARK  status: ('A' for Active; 'I' for Inactive)
REMARK    1  A    between atoms: N1_1  and  C1_4 
REMARK    2  A    between atoms: N3_10  and  C5_11 
REMARK    3  A    between atoms: C6_12  and  C7_13 
REMARK    4  A    between atoms: C7_13  and  O1_14 
REMARK    5  A    between atoms: O1_14  and  C8_15 
REMARK    6  A    between atoms: C9_19  and  O2_20 
REMARK    7  A    between atoms: C10_22  and  O3_23 
REMARK    8  A    between atoms: C11_25  and  N5_26 
REMARK    9  A    between atoms: C12_30  and  O4_31 
REMARK   10  A    between atoms: C13_33  and  C14_34 
REMARK   11  A    between atoms: C14_34  and  S1_35 
REMARK   12  A    between atoms: S1_35  and  C15_36 
REMARK   13  A    between atoms: C15_36  and  C16_37 
REMARK   14  A    between atoms: C16_37  and  C17_38 
REMARK   15  A    between atoms: C17_38  and  N6_39 
REMARK   16  A    between atoms: N6_39  and  C18_41 
REMARK   17  A    between atoms: C19_44  and  N8_45 
REMARK   18  A    between atoms: C20_55  and  O5_56 
REMARK   19  A    between atoms: C21_58  and  O6_59 
ROOT
HETATM    1  C5  UNL     1     -48.692 -33.179 143.223  1.00  0.00     0.155 C 
HETATM    2  C6  UNL     1     -48.054 -32.535 142.040  1.00  0.00    -0.025 C 
HETATM    3  C13 UNL     1     -48.951 -32.428 141.085  1.00  0.00    -0.033 C 
HETATM    4  C20 UNL     1     -50.272 -32.950 141.488  1.00  0.00     0.179 C 
HETATM    5  C21 UNL     1     -50.023 -33.697 142.753  1.00  0.00     0.178 C 
ENDROOT
BRANCH   3   6
HETATM    6  C14 UNL     1     -48.783 -31.838 139.683  1.00  0.00     0.111 C 
BRANCH   6   7
HETATM    7  S1  UNL     1     -48.757 -30.056 139.787  1.00  0.00    -0.165 SA
BRANCH   7   8
HETATM    8  C15 UNL     1     -47.199 -29.268 139.989  1.00  0.00     0.076 C 
BRANCH   8   9
HETATM    9  C16 UNL     1     -46.927 -27.995 139.258  1.00  0.00     0.030 C 
BRANCH   9  10
HETATM   10  C17 UNL     1     -45.902 -28.128 138.177  1.00  0.00     0.139 C 
BRANCH  10  11
HETATM   11  N6  UNL     1     -46.621 -28.382 136.924  1.00  0.00    -0.225 N 
ATOM     12  H6  UNL     1     -47.392 -29.049 136.938  1.00  0.00     0.177 HD
BRANCH  11  13
HETATM   13  C18 UNL     1     -46.303 -27.752 135.697  1.00  0.00     0.692 C 
HETATM   14  N7  UNL     1     -45.369 -26.845 135.622  1.00  0.00    -0.177 N 
HETATM   15  C19 UNL     1     -45.121 -26.263 134.327  1.00  0.00     0.416 C 
ATOM     16  H7  UNL     1     -44.835 -26.561 136.443  1.00  0.00     0.181 HD
HETATM   17  N9  UNL     1     -45.178 -27.204 133.256  1.00  0.00    -0.274 N 
HETATM   18  N10 UNL     1     -46.242 -28.072 133.304  1.00  0.00    -0.230 N 
ATOM     19  H9  UNL     1     -44.481 -27.230 132.512  1.00  0.00     0.185 HD
HETATM   20  N11 UNL     1     -46.974 -28.061 134.482  1.00  0.00    -0.118 N 
ATOM     21  H10 UNL     1     -46.477 -28.686 132.524  1.00  0.00     0.208 HD
ATOM     22  H11 UNL     1     -47.972 -28.270 134.476  1.00  0.00     0.207 HD
BRANCH  15  23
HETATM   23  N8  UNL     1     -43.765 -25.701 134.373  1.00  0.00    -0.039 N 
ATOM     24  H83 UNL     1     -43.037 -26.410 134.456  1.00  0.00     0.279 HD
ATOM     25  H82 UNL     1     -43.460 -25.310 133.482  1.00  0.00     0.279 HD
ATOM     26  H81 UNL     1     -43.757 -25.023 135.135  1.00  0.00     0.279 HD
ENDBRANCH  15  23
ENDBRANCH  11  13
ENDBRANCH  10  11
ENDBRANCH   9  10
ENDBRANCH   8   9
ENDBRANCH   7   8
ENDBRANCH   6   7
ENDBRANCH   3   6
BRANCH   2  27
HETATM   27  C7  UNL     1     -46.650 -32.089 142.028  1.00  0.00     0.207 C 
BRANCH  27  28
HETATM   28  O1  UNL     1     -45.861 -32.952 142.729  1.00  0.00    -0.353 OA
BRANCH  28  29
HETATM   29  C8  UNL     1     -44.516 -32.693 142.768  1.00  0.00     0.355 C 
HETATM   30  N4  UNL     1     -43.895 -32.937 141.456  1.00  0.00    -0.018 N 
HETATM   31  C9  UNL     1     -42.484 -32.660 141.615  1.00  0.00     0.352 C 
ATOM     32  H42 UNL     1     -44.085 -33.867 141.086  1.00  0.00     0.283 HD
ATOM     33  H41 UNL     1     -44.329 -32.409 140.699  1.00  0.00     0.283 HD
HETATM   34  C10 UNL     1     -42.332 -31.153 141.517  1.00  0.00     0.207 C 
HETATM   35  C11 UNL     1     -43.531 -30.460 142.139  1.00  0.00     0.249 C 
HETATM   36  C12 UNL     1     -44.138 -31.326 143.231  1.00  0.00     0.207 C 
BRANCH  31  37
HETATM   37  O2  UNL     1     -41.696 -33.314 140.672  1.00  0.00    -0.368 OA
ATOM     38  H2  UNL     1     -42.098 -33.344 139.812  1.00  0.00     0.212 HD
ENDBRANCH  31  37
BRANCH  34  39
HETATM   39  O3  UNL     1     -41.191 -30.758 142.199  1.00  0.00    -0.389 OA
ATOM     40  H3  UNL     1     -40.464 -31.316 141.950  1.00  0.00     0.210 HD
ENDBRANCH  34  39
BRANCH  35  41
HETATM   41  N5  UNL     1     -43.096 -29.219 142.714  1.00  0.00    -0.070 N 
ATOM     42  H53 UNL     1     -43.665 -28.428 142.412  1.00  0.00     0.274 HD
ATOM     43  H52 UNL     1     -43.293 -29.161 143.713  1.00  0.00     0.274 HD
ATOM     44  H51 UNL     1     -42.106 -29.092 142.502  1.00  0.00     0.274 HD
ENDBRANCH  35  41
BRANCH  36  45
HETATM   45  O4  UNL     1     -43.172 -31.414 144.262  1.00  0.00    -0.389 OA
ATOM     46  H4  UNL     1     -42.308 -31.229 143.914  1.00  0.00     0.210 HD
ENDBRANCH  36  45
ENDBRANCH  28  29
ENDBRANCH  27  28
ENDBRANCH   2  27
BRANCH   4  47
HETATM   47  O5  UNL     1     -50.822 -33.815 140.546  1.00  0.00    -0.388 OA
ATOM     48  H5  UNL     1     -51.763 -33.907 140.634  1.00  0.00     0.210 HD
ENDBRANCH   4  47
BRANCH   1  49
HETATM   49  N3  UNL     1     -48.869 -32.221 144.305  1.00  0.00    -0.316 N 
HETATM   50  C1  UNL     1     -48.051 -32.180 145.366  1.00  0.00     0.141 A 
HETATM   51  C2  UNL     1     -48.218 -31.276 146.390  1.00  0.00     0.166 A 
HETATM   52  C3  UNL     1     -49.271 -30.354 146.354  1.00  0.00     0.183 A 
HETATM   53  O8  UNL     1     -47.528 -31.031 147.571  1.00  0.00    -0.318 OA
HETATM   54  N2  UNL     1     -50.074 -30.429 145.266  1.00  0.00    -0.330 N 
HETATM   55  O7  UNL     1     -49.236 -29.555 147.484  1.00  0.00    -0.307 OA
HETATM   56  C4  UNL     1     -49.877 -31.328 144.283  1.00  0.00     0.187 A 
ATOM     57  H2  UNL     1     -50.857 -29.779 145.188  1.00  0.00     0.168 HD
HETATM   58  C22 UNL     1     -48.154 -30.001 148.279  1.00  0.00     0.354 A 
BRANCH  50  59
HETATM   59  N1  UNL     1     -47.068 -33.008 145.442  1.00  0.00    -0.383 N 
ATOM     60  H12 UNL     1     -46.264 -32.782 146.027  1.00  0.00     0.157 HD
ATOM     61  H11 UNL     1     -47.129 -33.876 144.910  1.00  0.00     0.157 HD
ENDBRANCH  50  59
ENDBRANCH   1  49
BRANCH   5  62
HETATM   62  O6  UNL     1     -49.968 -35.054 142.513  1.00  0.00    -0.390 OA
ATOM     63  H6  UNL     1     -49.729 -35.529 143.301  1.00  0.00     0.210 HD
ENDBRANCH   5  62
TORSDOF 19
ENDMDL
MODEL 4
REMARK VINA RESULT: -7.446141453      4.758      9.559
REMARK  19 active torsions:
REMARK  status: ('A' for Active; 'I' for Inactive)
REMARK    1  A    between atoms: N1_1  and  C1_4 
REMARK    2  A    between atoms: N3_10  and  C5_11 
REMARK    3  A    between atoms: C6_12  and  C7_13 
REMARK    4  A    between atoms: C7_13  and  O1_14 
REMARK    5  A    between atoms: O1_14  and  C8_15 
REMARK    6  A    between atoms: C9_19  and  O2_20 
REMARK    7  A    between atoms: C10_22  and  O3_23 
REMARK    8  A    between atoms: C11_25  and  N5_26 
REMARK    9  A    between atoms: C12_30  and  O4_31 
REMARK   10  A    between atoms: C13_33  and  C14_34 
REMARK   11  A    between atoms: C14_34  and  S1_35 
REMARK   12  A    between atoms: S1_35  and  C15_36 
REMARK   13  A    between atoms: C15_36  and  C16_37 
REMARK   14  A    between atoms: C16_37  and  C17_38 
REMARK   15  A    between atoms: C17_38  and  N6_39 
REMARK   16  A    between atoms: N6_39  and  C18_41 
REMARK   17  A    between atoms: C19_44  and  N8_45 
REMARK   18  A    between atoms: C20_55  and  O5_56 
REMARK   19  A    between atoms: C21_58  and  O6_59 
ROOT
HETATM    1  C5  UNL     1     -47.262 -30.659 143.010  1.00  0.00     0.155 C 
HETATM    2  C6  UNL     1     -46.029 -31.472 143.201  1.00  0.00    -0.025 C 
HETATM    3  C13 UNL     1     -45.827 -31.634 144.490  1.00  0.00    -0.033 C 
HETATM    4  C20 UNL     1     -46.871 -30.989 145.311  1.00  0.00     0.179 C 
HETATM    5  C21 UNL     1     -47.624 -30.118 144.365  1.00  0.00     0.178 C 
ENDROOT
BRANCH   3   6
HETATM    6  C14 UNL     1     -44.696 -32.391 145.190  1.00  0.00     0.111 C 
BRANCH   6   7
HETATM    7  S1  UNL     1     -45.120 -34.120 145.305  1.00  0.00    -0.165 SA
BRANCH   7   8
HETATM    8  C15 UNL     1     -46.781 -34.583 144.958  1.00  0.00     0.076 C 
BRANCH   8   9
HETATM    9  C16 UNL     1     -47.813 -34.444 146.027  1.00  0.00     0.030 C 
BRANCH   9  10
HETATM   10  C17 UNL     1     -48.147 -35.731 146.712  1.00  0.00     0.139 C 
BRANCH  10  11
HETATM   11  N6  UNL     1     -47.397 -35.761 147.972  1.00  0.00    -0.225 N 
ATOM     12  H6  UNL     1     -46.750 -34.997 148.165  1.00  0.00     0.177 HD
BRANCH  11  13
HETATM   13  C18 UNL     1     -47.521 -36.792 148.934  1.00  0.00     0.692 C 
HETATM   14  N7  UNL     1     -48.684 -37.301 149.236  1.00  0.00    -0.177 N 
HETATM   15  C19 UNL     1     -48.704 -38.346 150.229  1.00  0.00     0.416 C 
ATOM     16  H7  UNL     1     -49.540 -36.975 148.790  1.00  0.00     0.181 HD
HETATM   17  N9  UNL     1     -47.621 -39.267 150.113  1.00  0.00    -0.274 N 
HETATM   18  N10 UNL     1     -46.391 -38.691 149.909  1.00  0.00    -0.230 N 
ATOM     19  H9  UNL     1     -47.751 -40.277 150.176  1.00  0.00     0.185 HD
HETATM   20  N11 UNL     1     -46.402 -37.333 149.626  1.00  0.00    -0.118 N 
ATOM     21  H10 UNL     1     -45.524 -39.227 149.962  1.00  0.00     0.208 HD
ATOM     22  H11 UNL     1     -45.625 -36.735 149.907  1.00  0.00     0.207 HD
BRANCH  15  23
HETATM   23  N8  UNL     1     -49.958 -39.086 150.032  1.00  0.00    -0.039 N 
ATOM     24  H83 UNL     1     -50.193 -39.697 150.814  1.00  0.00     0.279 HD
ATOM     25  H82 UNL     1     -50.788 -38.494 150.079  1.00  0.00     0.279 HD
ATOM     26  H81 UNL     1     -49.867 -39.582 149.145  1.00  0.00     0.279 HD
ENDBRANCH  15  23
ENDBRANCH  11  13
ENDBRANCH  10  11
ENDBRANCH   9  10
ENDBRANCH   8   9
ENDBRANCH   7   8
ENDBRANCH   6   7
ENDBRANCH   3   6
BRANCH   2  27
HETATM   27  C7  UNL     1     -45.233 -32.002 142.080  1.00  0.00     0.207 C 
BRANCH  27  28
HETATM   28  O1  UNL     1     -44.343 -31.070 141.634  1.00  0.00    -0.353 OA
BRANCH  28  29
HETATM   29  C8  UNL     1     -43.016 -31.411 141.628  1.00  0.00     0.355 C 
HETATM   30  N4  UNL     1     -42.276 -30.664 142.658  1.00  0.00    -0.018 N 
HETATM   31  C9  UNL     1     -40.895 -31.078 142.548  1.00  0.00     0.352 C 
ATOM     32  H42 UNL     1     -42.401 -29.654 142.593  1.00  0.00     0.283 HD
ATOM     33  H41 UNL     1     -42.660 -30.779 143.596  1.00  0.00     0.283 HD
HETATM   34  C10 UNL     1     -40.785 -32.399 143.288  1.00  0.00     0.207 C 
HETATM   35  C11 UNL     1     -42.057 -33.210 143.110  1.00  0.00     0.249 C 
HETATM   36  C12 UNL     1     -42.726 -32.865 141.790  1.00  0.00     0.207 C 
BRANCH  31  37
HETATM   37  O2  UNL     1     -40.005 -30.134 143.056  1.00  0.00    -0.368 OA
ATOM     38  H2  UNL     1     -40.192 -29.253 142.754  1.00  0.00     0.212 HD
ENDBRANCH  31  37
BRANCH  34  39
HETATM   39  O3  UNL     1     -39.722 -33.129 142.778  1.00  0.00    -0.389 OA
ATOM     40  H3  UNL     1     -38.928 -32.610 142.830  1.00  0.00     0.210 HD
ENDBRANCH  34  39
BRANCH  35  41
HETATM   41  N5  UNL     1     -41.716 -34.603 143.113  1.00  0.00    -0.070 N 
ATOM     42  H53 UNL     1     -40.764 -34.774 142.789  1.00  0.00     0.274 HD
ATOM     43  H52 UNL     1     -41.612 -34.978 144.056  1.00  0.00     0.274 HD
ATOM     44  H51 UNL     1     -42.411 -35.110 142.566  1.00  0.00     0.274 HD
ENDBRANCH  35  41
BRANCH  36  45
HETATM   45  O4  UNL     1     -41.851 -33.301 140.766  1.00  0.00    -0.389 OA
ATOM     46  H4  UNL     1     -41.770 -34.248 140.789  1.00  0.00     0.210 HD
ENDBRANCH  36  45
ENDBRANCH  28  29
ENDBRANCH  27  28
ENDBRANCH   2  27
BRANCH   4  47
HETATM   47  O5  UNL     1     -46.347 -30.206 146.336  1.00  0.00    -0.388 OA
ATOM     48  H5  UNL     1     -46.996 -29.970 146.989  1.00  0.00     0.210 HD
ENDBRANCH   4  47
BRANCH   1  49
HETATM   49  N3  UNL     1     -48.345 -31.473 142.477  1.00  0.00    -0.316 N 
HETATM   50  C1  UNL     1     -48.627 -31.523 141.169  1.00  0.00     0.141 A 
HETATM   51  C2  UNL     1     -49.652 -32.291 140.664  1.00  0.00     0.166 A 
HETATM   52  C3  UNL     1     -50.448 -33.058 141.523  1.00  0.00     0.183 A 
HETATM   53  O8  UNL     1     -50.139 -32.512 139.382  1.00  0.00    -0.318 OA
HETATM   54  N2  UNL     1     -50.130 -32.980 142.837  1.00  0.00    -0.330 N 
HETATM   55  O7  UNL     1     -51.406 -33.740 140.793  1.00  0.00    -0.307 OA
HETATM   56  C4  UNL     1     -49.119 -32.217 143.292  1.00  0.00     0.187 A 
ATOM     57  H2  UNL     1     -50.678 -33.520 143.508  1.00  0.00     0.168 HD
HETATM   58  C22 UNL     1     -51.240 -33.372 139.437  1.00  0.00     0.354 A 
BRANCH  50  59
HETATM   59  N1  UNL     1     -47.921 -30.834 140.340  1.00  0.00    -0.383 N 
ATOM     60  H12 UNL     1     -46.910 -30.961 140.314  1.00  0.00     0.157 HD
ATOM     61  H11 UNL     1     -48.405 -30.177 139.728  1.00  0.00     0.157 HD
ENDBRANCH  50  59
ENDBRANCH   1  49
BRANCH   5  62
HETATM   62  O6  UNL     1     -47.227 -28.803 144.494  1.00  0.00    -0.390 OA
ATOM     63  H6  UNL     1     -46.552 -28.589 143.861  1.00  0.00     0.210 HD
ENDBRANCH   5  62
TORSDOF 19
ENDMDL
MODEL 5
REMARK VINA RESULT: -7.429807073      4.800      8.553
REMARK  19 active torsions:
REMARK  status: ('A' for Active; 'I' for Inactive)
REMARK    1  A    between atoms: N1_1  and  C1_4 
REMARK    2  A    between atoms: N3_10  and  C5_11 
REMARK    3  A    between atoms: C6_12  and  C7_13 
REMARK    4  A    between atoms: C7_13  and  O1_14 
REMARK    5  A    between atoms: O1_14  and  C8_15 
REMARK    6  A    between atoms: C9_19  and  O2_20 
REMARK    7  A    between atoms: C10_22  and  O3_23 
REMARK    8  A    between atoms: C11_25  and  N5_26 
REMARK    9  A    between atoms: C12_30  and  O4_31 
REMARK   10  A    between atoms: C13_33  and  C14_34 
REMARK   11  A    between atoms: C14_34  and  S1_35 
REMARK   12  A    between atoms: S1_35  and  C15_36 
REMARK   13  A    between atoms: C15_36  and  C16_37 
REMARK   14  A    between atoms: C16_37  and  C17_38 
REMARK   15  A    between atoms: C17_38  and  N6_39 
REMARK   16  A    between atoms: N6_39  and  C18_41 
REMARK   17  A    between atoms: C19_44  and  N8_45 
REMARK   18  A    between atoms: C20_55  and  O5_56 
REMARK   19  A    between atoms: C21_58  and  O6_59 
ROOT
HETATM    1  C5  UNL     1     -47.323 -30.738 143.094  1.00  0.00     0.155 C 
HETATM    2  C6  UNL     1     -46.089 -31.552 143.280  1.00  0.00    -0.025 C 
HETATM    3  C13 UNL     1     -45.905 -31.747 144.567  1.00  0.00    -0.033 C 
HETATM    4  C20 UNL     1     -46.962 -31.129 145.390  1.00  0.00     0.179 C 
HETATM    5  C21 UNL     1     -47.706 -30.235 144.459  1.00  0.00     0.178 C 
ENDROOT
BRANCH   3   6
HETATM    6  C14 UNL     1     -44.781 -32.519 145.261  1.00  0.00     0.111 C 
BRANCH   6   7
HETATM    7  S1  UNL     1     -45.159 -34.263 145.246  1.00  0.00    -0.165 SA
BRANCH   7   8
HETATM    8  C15 UNL     1     -46.847 -34.736 145.115  1.00  0.00     0.076 C 
BRANCH   8   9
HETATM    9  C16 UNL     1     -47.566 -35.211 146.334  1.00  0.00     0.030 C 
BRANCH   9  10
HETATM   10  C17 UNL     1     -47.244 -34.428 147.567  1.00  0.00     0.139 C 
BRANCH  10  11
HETATM   11  N6  UNL     1     -48.371 -34.586 148.491  1.00  0.00    -0.225 N 
ATOM     12  H6  UNL     1     -48.433 -35.449 149.030  1.00  0.00     0.177 HD
BRANCH  11  13
HETATM   13  C18 UNL     1     -49.377 -33.607 148.676  1.00  0.00     0.692 C 
HETATM   14  N7  UNL     1     -49.437 -32.546 147.921  1.00  0.00    -0.177 N 
HETATM   15  C19 UNL     1     -50.498 -31.608 148.190  1.00  0.00     0.416 C 
ATOM     16  H7  UNL     1     -48.764 -32.386 147.172  1.00  0.00     0.181 HD
HETATM   17  N9  UNL     1     -51.742 -32.229 148.511  1.00  0.00    -0.274 N 
HETATM   18  N10 UNL     1     -51.656 -33.272 149.400  1.00  0.00    -0.230 N 
ATOM     19  H9  UNL     1     -52.628 -31.920 148.110  1.00  0.00     0.185 HD
HETATM   20  N11 UNL     1     -50.373 -33.715 149.685  1.00  0.00    -0.118 N 
ATOM     21  H10 UNL     1     -52.483 -33.695 149.823  1.00  0.00     0.208 HD
ATOM     22  H11 UNL     1     -50.150 -34.109 150.599  1.00  0.00     0.207 HD
BRANCH  15  23
HETATM   23  N8  UNL     1     -50.681 -30.820 146.964  1.00  0.00    -0.039 N 
ATOM     24  H83 UNL     1     -50.217 -29.911 146.996  1.00  0.00     0.279 HD
ATOM     25  H82 UNL     1     -50.173 -31.194 146.164  1.00  0.00     0.279 HD
ATOM     26  H81 UNL     1     -51.687 -30.754 146.809  1.00  0.00     0.279 HD
ENDBRANCH  15  23
ENDBRANCH  11  13
ENDBRANCH  10  11
ENDBRANCH   9  10
ENDBRANCH   8   9
ENDBRANCH   7   8
ENDBRANCH   6   7
ENDBRANCH   3   6
BRANCH   2  27
HETATM   27  C7  UNL     1     -45.276 -32.048 142.156  1.00  0.00     0.207 C 
BRANCH  27  28
HETATM   28  O1  UNL     1     -44.406 -31.090 141.728  1.00  0.00    -0.353 OA
BRANCH  28  29
HETATM   29  C8  UNL     1     -43.075 -31.414 141.692  1.00  0.00     0.355 C 
HETATM   30  N4  UNL     1     -42.324 -30.663 142.711  1.00  0.00    -0.018 N 
HETATM   31  C9  UNL     1     -40.939 -31.057 142.570  1.00  0.00     0.352 C 
ATOM     32  H42 UNL     1     -42.464 -29.655 142.656  1.00  0.00     0.283 HD
ATOM     33  H41 UNL     1     -42.687 -30.789 143.656  1.00  0.00     0.283 HD
HETATM   34  C10 UNL     1     -40.796 -32.381 143.298  1.00  0.00     0.207 C 
HETATM   35  C11 UNL     1     -42.060 -33.208 143.141  1.00  0.00     0.249 C 
HETATM   36  C12 UNL     1     -42.762 -32.864 141.838  1.00  0.00     0.207 C 
BRANCH  31  37
HETATM   37  O2  UNL     1     -40.053 -30.104 143.066  1.00  0.00    -0.368 OA
ATOM     38  H2  UNL     1     -39.683 -29.556 142.384  1.00  0.00     0.212 HD
ENDBRANCH  31  37
BRANCH  34  39
HETATM   39  O3  UNL     1     -39.734 -33.092 142.761  1.00  0.00    -0.389 OA
ATOM     40  H3  UNL     1     -40.066 -33.790 142.209  1.00  0.00     0.210 HD
ENDBRANCH  34  39
BRANCH  35  41
HETATM   41  N5  UNL     1     -41.700 -34.597 143.128  1.00  0.00    -0.070 N 
ATOM     42  H53 UNL     1     -41.159 -34.868 143.949  1.00  0.00     0.274 HD
ATOM     43  H52 UNL     1     -42.501 -35.210 143.279  1.00  0.00     0.274 HD
ATOM     44  H51 UNL     1     -41.213 -34.798 142.254  1.00  0.00     0.274 HD
ENDBRANCH  35  41
BRANCH  36  45
HETATM   45  O4  UNL     1     -41.902 -33.281 140.793  1.00  0.00    -0.389 OA
ATOM     46  H4  UNL     1     -42.153 -34.147 140.492  1.00  0.00     0.210 HD
ENDBRANCH  36  45
ENDBRANCH  28  29
ENDBRANCH  27  28
ENDBRANCH   2  27
BRANCH   4  47
HETATM   47  O5  UNL     1     -46.455 -30.372 146.443  1.00  0.00    -0.388 OA
ATOM     48  H5  UNL     1     -47.004 -29.626 146.660  1.00  0.00     0.210 HD
ENDBRANCH   4  47
BRANCH   1  49
HETATM   49  N3  UNL     1     -48.396 -31.541 142.525  1.00  0.00    -0.316 N 
HETATM   50  C1  UNL     1     -48.662 -31.554 141.212  1.00  0.00     0.141 A 
HETATM   51  C2  UNL     1     -49.678 -32.312 140.674  1.00  0.00     0.166 A 
HETATM   52  C3  UNL     1     -50.479 -33.108 141.500  1.00  0.00     0.183 A 
HETATM   53  O8  UNL     1     -50.149 -32.497 139.380  1.00  0.00    -0.318 OA
HETATM   54  N2  UNL     1     -50.178 -33.067 142.820  1.00  0.00    -0.330 N 
HETATM   55  O7  UNL     1     -51.425 -33.772 140.739  1.00  0.00    -0.307 OA
HETATM   56  C4  UNL     1     -49.175 -32.312 143.308  1.00  0.00     0.187 A 
ATOM     57  H2  UNL     1     -50.731 -33.628 143.468  1.00  0.00     0.168 HD
HETATM   58  C22 UNL     1     -51.245 -33.364 139.396  1.00  0.00     0.354 A 
BRANCH  50  59
HETATM   59  N1  UNL     1     -47.951 -30.838 140.413  1.00  0.00    -0.383 N 
ATOM     60  H12 UNL     1     -46.987 -31.109 140.217  1.00  0.00     0.157 HD
ATOM     61  H11 UNL     1     -48.381 -30.013 139.995  1.00  0.00     0.157 HD
ENDBRANCH  50  59
ENDBRANCH   1  49
BRANCH   5  62
HETATM   62  O6  UNL     1     -47.316 -28.923 144.628  1.00  0.00    -0.390 OA
ATOM     63  H6  UNL     1     -47.468 -28.635 145.521  1.00  0.00     0.210 HD
ENDBRANCH   5  62
TORSDOF 19
ENDMDL
