MODEL 1
REMARK VINA RESULT: -6.803348073      0.000      0.000
REMARK  23 active torsions:
REMARK  status: ('A' for Active; 'I' for Inactive)
REMARK    1  A    between atoms: C2_2  and  C3_3 
REMARK    2  A    between atoms: C3_3  and  C4_4 
REMARK    3  A    between atoms: C4_4  and  C5_5 
REMARK    4  A    between atoms: C5_5  and  O1_6 
REMARK    5  A    between atoms: C6_9  and  O3_10 
REMARK    6  A    between atoms: O3_10  and  C7_11 
REMARK    7  A    between atoms: C8_13  and  C9_14 
REMARK    8  A    between atoms: C9_14  and  O5_15 
REMARK    9  A    between atoms: C10_17  and  O6_18 
REMARK   10  A    between atoms: C11_20  and  O7_21 
REMARK   11  A    between atoms: C12_23  and  O8_24 
REMARK   12  A    between atoms: C13_26  and  O9_27 
REMARK   13  A    between atoms: C14_29  and  O10_30 
REMARK   14  A    between atoms: O10_30  and  C15_31 
REMARK   15  A    between atoms: C16_32  and  O11_33 
REMARK   16  A    between atoms: C17_35  and  O12_36 
REMARK   17  A    between atoms: C18_38  and  O13_39 
REMARK   18  A    between atoms: C19_41  and  O14_42 
REMARK   19  A    between atoms: C20_44  and  O15_45 
REMARK   20  A    between atoms: C21_47  and  C22_48 
REMARK   21  A    between atoms: C22_48  and  N1_49 
REMARK   22  A    between atoms: N2_51  and  O16_53 
REMARK   23  A    between atoms: O16_53  and  N3_54 
ROOT
HETATM    1  C5  UNL     1     -48.278 -32.766 143.563  1.00  0.00     0.172 C 
HETATM    2  O2  UNL     1     -48.389 -32.775 144.963  1.00  0.00    -0.322 OA
HETATM    3  C6  UNL     1     -47.481 -33.686 145.429  1.00  0.00     0.297 C 
HETATM    4  C13 UNL     1     -46.078 -33.541 144.919  1.00  0.00     0.203 C 
HETATM    5  C14 UNL     1     -45.828 -32.517 143.893  1.00  0.00     0.166 C 
HETATM    6  C21 UNL     1     -47.066 -31.903 143.283  1.00  0.00     0.099 C 
ENDROOT
BRANCH   5   7
HETATM    7  O10 UNL     1     -44.977 -33.035 142.914  1.00  0.00    -0.372 OA
BRANCH   7   8
HETATM    8  C15 UNL     1     -43.944 -32.212 142.555  1.00  0.00     0.184 C 
HETATM    9  C16 UNL     1     -43.236 -31.700 143.759  1.00  0.00     0.181 C 
HETATM   10  C17 UNL     1     -42.038 -32.524 144.161  1.00  0.00     0.180 C 
HETATM   11  C18 UNL     1     -41.044 -32.713 143.055  1.00  0.00     0.180 C 
HETATM   12  C19 UNL     1     -41.615 -32.502 141.681  1.00  0.00     0.180 C 
HETATM   13  C20 UNL     1     -43.044 -32.992 141.623  1.00  0.00     0.181 C 
BRANCH   9  14
HETATM   14  O11 UNL     1     -42.867 -30.340 143.613  1.00  0.00    -0.390 OA
ATOM     15  H11 UNL     1     -42.164 -30.231 142.984  1.00  0.00     0.210 HD
ENDBRANCH   9  14
BRANCH  10  16
HETATM   16  O12 UNL     1     -42.482 -33.707 144.724  1.00  0.00    -0.390 OA
ATOM     17  H12 UNL     1     -42.268 -33.703 145.650  1.00  0.00     0.210 HD
ENDBRANCH  10  16
BRANCH  11  18
HETATM   18  O13 UNL     1     -39.932 -31.872 143.186  1.00  0.00    -0.390 OA
ATOM     19  H13 UNL     1     -39.139 -32.350 143.399  1.00  0.00     0.210 HD
ENDBRANCH  11  18
BRANCH  12  20
HETATM   20  O14 UNL     1     -41.472 -31.204 141.216  1.00  0.00    -0.390 OA
ATOM     21  H14 UNL     1     -41.376 -31.148 140.272  1.00  0.00     0.210 HD
ENDBRANCH  12  20
BRANCH  13  22
HETATM   22  O15 UNL     1     -43.018 -34.348 141.959  1.00  0.00    -0.390 OA
ATOM     23  H15 UNL     1     -42.130 -34.684 141.971  1.00  0.00     0.210 HD
ENDBRANCH  13  22
ENDBRANCH   7   8
ENDBRANCH   5   7
BRANCH   4  24
HETATM   24  O9  UNL     1     -45.577 -34.801 144.577  1.00  0.00    -0.388 OA
ATOM     25  H9  UNL     1     -45.154 -34.753 143.728  1.00  0.00     0.210 HD
ENDBRANCH   4  24
BRANCH   6  26
HETATM   26  C22 UNL     1     -47.265 -30.478 143.736  1.00  0.00     0.154 C 
BRANCH  26  27
HETATM   27  N1  UNL     1     -46.097 -29.654 143.515  1.00  0.00    -0.315 N 
HETATM   28  N2  UNL     1     -45.711 -29.296 142.363  1.00  0.00    -0.187 N 
ATOM     29  H2  UNL     1     -46.244 -29.599 141.549  1.00  0.00     0.218 HD
ATOM     30  H1  UNL     1     -45.559 -29.347 144.325  1.00  0.00     0.182 HD
BRANCH  28  31
HETATM   31  O16 UNL     1     -44.615 -28.525 142.175  1.00  0.00    -0.149 OA
BRANCH  31  32
HETATM   32  N3  UNL     1     -43.629 -28.820 141.243  1.00  0.00    -0.285 N 
ATOM     33  H32 UNL     1     -42.978 -29.571 141.471  1.00  0.00     0.186 HD
ATOM     34  H31 UNL     1     -43.533 -28.325 140.356  1.00  0.00     0.186 HD
ENDBRANCH  31  32
ENDBRANCH  28  31
ENDBRANCH  26  27
ENDBRANCH   6  26
BRANCH   3  35
HETATM   35  O3  UNL     1     -47.516 -33.802 146.836  1.00  0.00    -0.326 OA
BRANCH  35  36
HETATM   36  C7  UNL     1     -48.777 -33.917 147.351  1.00  0.00     0.294 C 
HETATM   37  O4  UNL     1     -49.150 -35.278 147.283  1.00  0.00    -0.348 OA
HETATM   38  C8  UNL     1     -48.156 -36.131 147.657  1.00  0.00     0.179 C 
HETATM   39  C10 UNL     1     -47.449 -35.809 148.919  1.00  0.00     0.180 C 
HETATM   40  C11 UNL     1     -47.466 -34.367 149.324  1.00  0.00     0.183 C 
HETATM   41  C12 UNL     1     -48.694 -33.628 148.842  1.00  0.00     0.204 C 
BRANCH  38  42
HETATM   42  C9  UNL     1     -48.807 -37.510 147.839  1.00  0.00     0.198 C 
BRANCH  42  43
HETATM   43  O5  UNL     1     -50.177 -37.449 147.811  1.00  0.00    -0.398 OA
ATOM     44  H5  UNL     1     -50.570 -38.264 147.523  1.00  0.00     0.209 HD
ENDBRANCH  42  43
ENDBRANCH  38  42
BRANCH  39  45
HETATM   45  O6  UNL     1     -46.093 -36.175 148.754  1.00  0.00    -0.390 OA
ATOM     46  H6  UNL     1     -45.784 -36.513 149.586  1.00  0.00     0.210 HD
ENDBRANCH  39  45
BRANCH  40  47
HETATM   47  O7  UNL     1     -47.353 -34.239 150.706  1.00  0.00    -0.390 OA
ATOM     48  H7  UNL     1     -47.986 -34.791 151.151  1.00  0.00     0.210 HD
ENDBRANCH  40  47
BRANCH  41  49
HETATM   49  O8  UNL     1     -49.838 -34.183 149.423  1.00  0.00    -0.388 OA
ATOM     50  H8  UNL     1     -49.868 -35.092 149.150  1.00  0.00     0.210 HD
ENDBRANCH  41  49
ENDBRANCH  35  36
ENDBRANCH   3  35
BRANCH   1  51
HETATM   51  C4  UNL     1     -49.490 -32.261 142.868  1.00  0.00     0.069 C 
BRANCH  51  52
HETATM   52  C3  UNL     1     -50.232 -33.334 142.107  1.00  0.00     0.005 C 
BRANCH  52  53
HETATM   53  C2  UNL     1     -50.366 -32.954 140.633  1.00  0.00    -0.004 C 
HETATM   54  C1  UNL     1     -49.268 -32.057 140.169  1.00  0.00     0.005 C 
ENDBRANCH  52  53
ENDBRANCH  51  52
ENDBRANCH   1  51
BRANCH   1  55
HETATM   55  O1  UNL     1     -47.920 -34.039 143.067  1.00  0.00    -0.365 OA
ATOM     56  H1  UNL     1     -48.642 -34.649 143.168  1.00  0.00     0.213 HD
ENDBRANCH   1  55
TORSDOF 23
ENDMDL
MODEL 2
REMARK VINA RESULT: -6.649701194      1.661      2.258
REMARK  23 active torsions:
REMARK  status: ('A' for Active; 'I' for Inactive)
REMARK    1  A    between atoms: C2_2  and  C3_3 
REMARK    2  A    between atoms: C3_3  and  C4_4 
REMARK    3  A    between atoms: C4_4  and  C5_5 
REMARK    4  A    between atoms: C5_5  and  O1_6 
REMARK    5  A    between atoms: C6_9  and  O3_10 
REMARK    6  A    between atoms: O3_10  and  C7_11 
REMARK    7  A    between atoms: C8_13  and  C9_14 
REMARK    8  A    between atoms: C9_14  and  O5_15 
REMARK    9  A    between atoms: C10_17  and  O6_18 
REMARK   10  A    between atoms: C11_20  and  O7_21 
REMARK   11  A    between atoms: C12_23  and  O8_24 
REMARK   12  A    between atoms: C13_26  and  O9_27 
REMARK   13  A    between atoms: C14_29  and  O10_30 
REMARK   14  A    between atoms: O10_30  and  C15_31 
REMARK   15  A    between atoms: C16_32  and  O11_33 
REMARK   16  A    between atoms: C17_35  and  O12_36 
REMARK   17  A    between atoms: C18_38  and  O13_39 
REMARK   18  A    between atoms: C19_41  and  O14_42 
REMARK   19  A    between atoms: C20_44  and  O15_45 
REMARK   20  A    between atoms: C21_47  and  C22_48 
REMARK   21  A    between atoms: C22_48  and  N1_49 
REMARK   22  A    between atoms: N2_51  and  O16_53 
REMARK   23  A    between atoms: O16_53  and  N3_54 
ROOT
HETATM    1  C5  UNL     1     -48.614 -33.285 144.155  1.00  0.00     0.172 C 
HETATM    2  O2  UNL     1     -48.639 -33.427 145.553  1.00  0.00    -0.322 OA
HETATM    3  C6  UNL     1     -47.628 -34.288 145.883  1.00  0.00     0.297 C 
HETATM    4  C13 UNL     1     -46.277 -33.970 145.315  1.00  0.00     0.203 C 
HETATM    5  C14 UNL     1     -46.180 -32.841 144.377  1.00  0.00     0.166 C 
HETATM    6  C21 UNL     1     -47.502 -32.292 143.894  1.00  0.00     0.099 C 
ENDROOT
BRANCH   5   7
HETATM    7  O10 UNL     1     -45.348 -33.190 143.311  1.00  0.00    -0.372 OA
BRANCH   7   8
HETATM    8  C15 UNL     1     -44.316 -32.322 143.079  1.00  0.00     0.184 C 
HETATM    9  C16 UNL     1     -43.075 -32.787 143.757  1.00  0.00     0.181 C 
HETATM   10  C17 UNL     1     -42.172 -33.618 142.880  1.00  0.00     0.180 C 
HETATM   11  C18 UNL     1     -41.801 -32.943 141.594  1.00  0.00     0.180 C 
HETATM   12  C19 UNL     1     -42.742 -31.843 141.190  1.00  0.00     0.180 C 
HETATM   13  C20 UNL     1     -44.160 -32.192 141.580  1.00  0.00     0.181 C 
BRANCH   9  14
HETATM   14  O11 UNL     1     -42.350 -31.708 144.322  1.00  0.00    -0.390 OA
ATOM     15  H11 UNL     1     -42.519 -31.620 145.253  1.00  0.00     0.210 HD
ENDBRANCH   9  14
BRANCH  10  16
HETATM   16  O12 UNL     1     -42.745 -34.866 142.713  1.00  0.00    -0.390 OA
ATOM     17  H12 UNL     1     -42.139 -35.417 142.230  1.00  0.00     0.210 HD
ENDBRANCH  10  16
BRANCH  11  18
HETATM   18  O13 UNL     1     -40.509 -32.406 141.626  1.00  0.00    -0.390 OA
ATOM     19  H13 UNL     1     -39.880 -32.998 142.021  1.00  0.00     0.210 HD
ENDBRANCH  11  18
BRANCH  12  20
HETATM   20  O14 UNL     1     -42.353 -30.591 141.641  1.00  0.00    -0.390 OA
ATOM     21  H14 UNL     1     -42.882 -30.266 142.360  1.00  0.00     0.210 HD
ENDBRANCH  12  20
BRANCH  13  22
HETATM   22  O15 UNL     1     -44.473 -33.389 140.932  1.00  0.00    -0.390 OA
ATOM     23  H15 UNL     1     -45.412 -33.504 140.854  1.00  0.00     0.210 HD
ENDBRANCH  13  22
ENDBRANCH   7   8
ENDBRANCH   5   7
BRANCH   4  24
HETATM   24  O9  UNL     1     -45.690 -35.143 144.831  1.00  0.00    -0.388 OA
ATOM     25  H9  UNL     1     -46.154 -35.895 145.180  1.00  0.00     0.210 HD
ENDBRANCH   4  24
BRANCH   6  26
HETATM   26  C22 UNL     1     -47.796 -30.937 144.488  1.00  0.00     0.154 C 
BRANCH  26  27
HETATM   27  N1  UNL     1     -47.256 -30.782 145.820  1.00  0.00    -0.315 N 
HETATM   28  N2  UNL     1     -47.947 -30.936 146.870  1.00  0.00    -0.187 N 
ATOM     29  H2  UNL     1     -48.932 -31.181 146.778  1.00  0.00     0.218 HD
ATOM     30  H1  UNL     1     -46.270 -30.537 145.919  1.00  0.00     0.182 HD
BRANCH  28  31
HETATM   31  O16 UNL     1     -47.424 -30.787 148.109  1.00  0.00    -0.149 OA
BRANCH  31  32
HETATM   32  N3  UNL     1     -46.503 -31.669 148.657  1.00  0.00    -0.285 N 
ATOM     33  H32 UNL     1     -45.585 -31.297 148.899  1.00  0.00     0.186 HD
ATOM     34  H31 UNL     1     -46.705 -32.655 148.823  1.00  0.00     0.186 HD
ENDBRANCH  31  32
ENDBRANCH  28  31
ENDBRANCH  26  27
ENDBRANCH   6  26
BRANCH   3  35
HETATM   35  O3  UNL     1     -47.568 -34.530 147.272  1.00  0.00    -0.326 OA
BRANCH  35  36
HETATM   36  C7  UNL     1     -48.788 -34.534 147.889  1.00  0.00     0.294 C 
HETATM   37  O4  UNL     1     -49.345 -35.824 147.740  1.00  0.00    -0.348 OA
HETATM   38  C8  UNL     1     -48.448 -36.828 147.948  1.00  0.00     0.179 C 
HETATM   39  C10 UNL     1     -47.607 -36.720 149.163  1.00  0.00     0.180 C 
HETATM   40  C11 UNL     1     -47.398 -35.334 149.689  1.00  0.00     0.183 C 
HETATM   41  C12 UNL     1     -48.549 -34.402 149.385  1.00  0.00     0.204 C 
BRANCH  38  42
HETATM   42  C9  UNL     1     -49.262 -38.124 148.071  1.00  0.00     0.198 C 
BRANCH  42  43
HETATM   43  O5  UNL     1     -48.849 -39.087 147.186  1.00  0.00    -0.398 OA
ATOM     44  H5  UNL     1     -48.687 -39.922 147.609  1.00  0.00     0.209 HD
ENDBRANCH  42  43
ENDBRANCH  38  42
BRANCH  39  45
HETATM   45  O6  UNL     1     -46.330 -37.238 148.846  1.00  0.00    -0.390 OA
ATOM     46  H6  UNL     1     -45.683 -36.600 149.128  1.00  0.00     0.210 HD
ENDBRANCH  39  45
BRANCH  40  47
HETATM   47  O7  UNL     1     -47.160 -35.353 151.062  1.00  0.00    -0.390 OA
ATOM     48  H7  UNL     1     -47.469 -34.553 151.470  1.00  0.00     0.210 HD
ENDBRANCH  40  47
BRANCH  41  49
HETATM   49  O8  UNL     1     -49.708 -34.860 150.018  1.00  0.00    -0.388 OA
ATOM     50  H8  UNL     1     -50.443 -34.510 149.529  1.00  0.00     0.210 HD
ENDBRANCH  41  49
ENDBRANCH  35  36
ENDBRANCH   3  35
BRANCH   1  51
HETATM   51  C4  UNL     1     -49.907 -32.833 143.575  1.00  0.00     0.069 C 
BRANCH  51  52
HETATM   52  C3  UNL     1     -50.333 -33.639 142.372  1.00  0.00     0.005 C 
BRANCH  52  53
HETATM   53  C2  UNL     1     -49.995 -32.898 141.080  1.00  0.00    -0.004 C 
HETATM   54  C1  UNL     1     -50.922 -33.240 139.962  1.00  0.00     0.005 C 
ENDBRANCH  52  53
ENDBRANCH  51  52
ENDBRANCH   1  51
BRANCH   1  55
HETATM   55  O1  UNL     1     -48.179 -34.470 143.525  1.00  0.00    -0.365 OA
ATOM     56  H1  UNL     1     -47.588 -34.950 144.093  1.00  0.00     0.213 HD
ENDBRANCH   1  55
TORSDOF 23
ENDMDL
MODEL 3
REMARK VINA RESULT: -6.503586687      0.772      1.843
REMARK  23 active torsions:
REMARK  status: ('A' for Active; 'I' for Inactive)
REMARK    1  A    between atoms: C2_2  and  C3_3 
REMARK    2  A    between atoms: C3_3  and  C4_4 
REMARK    3  A    between atoms: C4_4  and  C5_5 
REMARK    4  A    between atoms: C5_5  and  O1_6 
REMARK    5  A    between atoms: C6_9  and  O3_10 
REMARK    6  A    between atoms: O3_10  and  C7_11 
REMARK    7  A    between atoms: C8_13  and  C9_14 
REMARK    8  A    between atoms: C9_14  and  O5_15 
REMARK    9  A    between atoms: C10_17  and  O6_18 
REMARK   10  A    between atoms: C11_20  and  O7_21 
REMARK   11  A    between atoms: C12_23  and  O8_24 
REMARK   12  A    between atoms: C13_26  and  O9_27 
REMARK   13  A    between atoms: C14_29  and  O10_30 
REMARK   14  A    between atoms: O10_30  and  C15_31 
REMARK   15  A    between atoms: C16_32  and  O11_33 
REMARK   16  A    between atoms: C17_35  and  O12_36 
REMARK   17  A    between atoms: C18_38  and  O13_39 
REMARK   18  A    between atoms: C19_41  and  O14_42 
REMARK   19  A    between atoms: C20_44  and  O15_45 
REMARK   20  A    between atoms: C21_47  and  C22_48 
REMARK   21  A    between atoms: C22_48  and  N1_49 
REMARK   22  A    between atoms: N2_51  and  O16_53 
REMARK   23  A    between atoms: O16_53  and  N3_54 
ROOT
HETATM    1  C5  UNL     1     -48.304 -32.863 143.664  1.00  0.00     0.172 C 
HETATM    2  O2  UNL     1     -48.385 -32.901 145.066  1.00  0.00    -0.322 OA
HETATM    3  C6  UNL     1     -47.456 -33.808 145.496  1.00  0.00     0.297 C 
HETATM    4  C13 UNL     1     -46.067 -33.635 144.959  1.00  0.00     0.203 C 
HETATM    5  C14 UNL     1     -45.851 -32.588 143.948  1.00  0.00     0.166 C 
HETATM    6  C21 UNL     1     -47.110 -31.979 143.377  1.00  0.00     0.099 C 
ENDROOT
BRANCH   5   7
HETATM    7  O10 UNL     1     -45.014 -33.076 142.942  1.00  0.00    -0.372 OA
BRANCH   7   8
HETATM    8  C15 UNL     1     -43.987 -32.241 142.592  1.00  0.00     0.184 C 
HETATM    9  C16 UNL     1     -43.272 -31.751 143.802  1.00  0.00     0.181 C 
HETATM   10  C17 UNL     1     -42.069 -32.578 144.179  1.00  0.00     0.180 C 
HETATM   11  C18 UNL     1     -41.082 -32.740 143.062  1.00  0.00     0.180 C 
HETATM   12  C19 UNL     1     -41.663 -32.504 141.697  1.00  0.00     0.180 C 
HETATM   13  C20 UNL     1     -43.090 -32.998 141.638  1.00  0.00     0.181 C 
BRANCH   9  14
HETATM   14  O11 UNL     1     -42.911 -30.387 143.681  1.00  0.00    -0.390 OA
ATOM     15  H11 UNL     1     -43.289 -29.859 144.375  1.00  0.00     0.210 HD
ENDBRANCH   9  14
BRANCH  10  16
HETATM   16  O12 UNL     1     -42.504 -33.774 144.720  1.00  0.00    -0.390 OA
ATOM     17  H12 UNL     1     -43.448 -33.735 144.826  1.00  0.00     0.210 HD
ENDBRANCH  10  16
BRANCH  11  18
HETATM   18  O13 UNL     1     -39.973 -31.898 143.203  1.00  0.00    -0.390 OA
ATOM     19  H13 UNL     1     -40.098 -31.242 143.879  1.00  0.00     0.210 HD
ENDBRANCH  11  18
BRANCH  12  20
HETATM   20  O14 UNL     1     -41.529 -31.196 141.258  1.00  0.00    -0.390 OA
ATOM     21  H14 UNL     1     -41.086 -30.631 141.881  1.00  0.00     0.210 HD
ENDBRANCH  12  20
BRANCH  13  22
HETATM   22  O15 UNL     1     -43.058 -34.360 141.947  1.00  0.00    -0.390 OA
ATOM     23  H15 UNL     1     -42.189 -34.722 141.818  1.00  0.00     0.210 HD
ENDBRANCH  13  22
ENDBRANCH   7   8
ENDBRANCH   5   7
BRANCH   4  24
HETATM   24  O9  UNL     1     -45.556 -34.881 144.582  1.00  0.00    -0.388 OA
ATOM     25  H9  UNL     1     -44.608 -34.841 144.566  1.00  0.00     0.210 HD
ENDBRANCH   4  24
BRANCH   6  26
HETATM   26  C22 UNL     1     -47.318 -30.565 143.861  1.00  0.00     0.154 C 
BRANCH  26  27
HETATM   27  N1  UNL     1     -46.161 -29.726 143.644  1.00  0.00    -0.315 N 
HETATM   28  N2  UNL     1     -45.781 -29.353 142.494  1.00  0.00    -0.187 N 
ATOM     29  H2  UNL     1     -46.313 -29.656 141.679  1.00  0.00     0.218 HD
ATOM     30  H1  UNL     1     -45.624 -29.419 144.456  1.00  0.00     0.182 HD
BRANCH  28  31
HETATM   31  O16 UNL     1     -44.695 -28.567 142.310  1.00  0.00    -0.149 OA
BRANCH  31  32
HETATM   32  N3  UNL     1     -43.700 -28.852 141.386  1.00  0.00    -0.285 N 
ATOM     33  H32 UNL     1     -42.771 -28.470 141.565  1.00  0.00     0.186 HD
ATOM     34  H31 UNL     1     -43.857 -29.418 140.551  1.00  0.00     0.186 HD
ENDBRANCH  31  32
ENDBRANCH  28  31
ENDBRANCH  26  27
ENDBRANCH   6  26
BRANCH   3  35
HETATM   35  O3  UNL     1     -47.460 -33.952 146.900  1.00  0.00    -0.326 OA
BRANCH  35  36
HETATM   36  C7  UNL     1     -47.054 -35.183 147.333  1.00  0.00     0.294 C 
HETATM   37  O4  UNL     1     -46.979 -35.143 148.743  1.00  0.00    -0.348 OA
HETATM   38  C8  UNL     1     -48.034 -34.505 149.323  1.00  0.00     0.179 C 
HETATM   39  C10 UNL     1     -49.383 -34.892 148.847  1.00  0.00     0.180 C 
HETATM   40  C11 UNL     1     -49.446 -35.453 147.460  1.00  0.00     0.183 C 
HETATM   41  C12 UNL     1     -48.178 -36.167 147.047  1.00  0.00     0.204 C 
BRANCH  38  42
HETATM   42  C9  UNL     1     -47.971 -34.829 150.823  1.00  0.00     0.198 C 
BRANCH  42  43
HETATM   43  O5  UNL     1     -49.159 -35.320 151.302  1.00  0.00    -0.398 OA
ATOM     44  H5  UNL     1     -49.283 -36.238 151.090  1.00  0.00     0.209 HD
ENDBRANCH  42  43
ENDBRANCH  38  42
BRANCH  39  45
HETATM   45  O6  UNL     1     -50.190 -33.731 148.859  1.00  0.00    -0.390 OA
ATOM     46  H6  UNL     1     -50.991 -33.933 148.390  1.00  0.00     0.210 HD
ENDBRANCH  39  45
BRANCH  40  47
HETATM   47  O7  UNL     1     -50.534 -36.313 147.321  1.00  0.00    -0.390 OA
ATOM     48  H7  UNL     1     -50.966 -36.450 148.155  1.00  0.00     0.210 HD
ENDBRANCH  40  47
BRANCH  41  49
HETATM   49  O8  UNL     1     -47.966 -37.271 147.877  1.00  0.00    -0.388 OA
ATOM     50  H8  UNL     1     -48.798 -37.462 148.294  1.00  0.00     0.210 HD
ENDBRANCH  41  49
ENDBRANCH  35  36
ENDBRANCH   3  35
BRANCH   1  51
HETATM   51  C4  UNL     1     -49.537 -32.360 143.005  1.00  0.00     0.069 C 
BRANCH  51  52
HETATM   52  C3  UNL     1     -50.347 -33.451 142.346  1.00  0.00     0.005 C 
BRANCH  52  53
HETATM   53  C2  UNL     1     -50.542 -33.155 140.860  1.00  0.00    -0.004 C 
HETATM   54  C1  UNL     1     -49.466 -32.284 140.302  1.00  0.00     0.005 C 
ENDBRANCH  52  53
ENDBRANCH  51  52
ENDBRANCH   1  51
BRANCH   1  55
HETATM   55  O1  UNL     1     -47.941 -34.121 143.137  1.00  0.00    -0.365 OA
ATOM     56  H1  UNL     1     -47.116 -34.059 142.668  1.00  0.00     0.213 HD
ENDBRANCH   1  55
TORSDOF 23
ENDMDL
MODEL 4
REMARK VINA RESULT: -6.472729806      3.005      8.006
REMARK  23 active torsions:
REMARK  status: ('A' for Active; 'I' for Inactive)
REMARK    1  A    between atoms: C2_2  and  C3_3 
REMARK    2  A    between atoms: C3_3  and  C4_4 
REMARK    3  A    between atoms: C4_4  and  C5_5 
REMARK    4  A    between atoms: C5_5  and  O1_6 
REMARK    5  A    between atoms: C6_9  and  O3_10 
REMARK    6  A    between atoms: O3_10  and  C7_11 
REMARK    7  A    between atoms: C8_13  and  C9_14 
REMARK    8  A    between atoms: C9_14  and  O5_15 
REMARK    9  A    between atoms: C10_17  and  O6_18 
REMARK   10  A    between atoms: C11_20  and  O7_21 
REMARK   11  A    between atoms: C12_23  and  O8_24 
REMARK   12  A    between atoms: C13_26  and  O9_27 
REMARK   13  A    between atoms: C14_29  and  O10_30 
REMARK   14  A    between atoms: O10_30  and  C15_31 
REMARK   15  A    between atoms: C16_32  and  O11_33 
REMARK   16  A    between atoms: C17_35  and  O12_36 
REMARK   17  A    between atoms: C18_38  and  O13_39 
REMARK   18  A    between atoms: C19_41  and  O14_42 
REMARK   19  A    between atoms: C20_44  and  O15_45 
REMARK   20  A    between atoms: C21_47  and  C22_48 
REMARK   21  A    between atoms: C22_48  and  N1_49 
REMARK   22  A    between atoms: N2_51  and  O16_53 
REMARK   23  A    between atoms: O16_53  and  N3_54 
ROOT
HETATM    1  C5  UNL     1     -47.745 -32.145 142.824  1.00  0.00     0.172 C 
HETATM    2  O2  UNL     1     -46.419 -32.578 142.657  1.00  0.00    -0.322 OA
HETATM    3  C6  UNL     1     -45.617 -31.648 143.260  1.00  0.00     0.297 C 
HETATM    4  C13 UNL     1     -45.977 -31.278 144.667  1.00  0.00     0.203 C 
HETATM    5  C14 UNL     1     -47.206 -31.856 145.232  1.00  0.00     0.166 C 
HETATM    6  C21 UNL     1     -48.103 -32.554 144.237  1.00  0.00     0.099 C 
ENDROOT
BRANCH   5   7
HETATM    7  O10 UNL     1     -47.897 -30.876 145.948  1.00  0.00    -0.372 OA
BRANCH   7   8
HETATM    8  C15 UNL     1     -49.099 -31.279 146.463  1.00  0.00     0.184 C 
HETATM    9  C16 UNL     1     -48.920 -31.859 147.822  1.00  0.00     0.181 C 
HETATM   10  C17 UNL     1     -49.117 -30.868 148.942  1.00  0.00     0.180 C 
HETATM   11  C18 UNL     1     -50.435 -30.155 148.885  1.00  0.00     0.180 C 
HETATM   12  C19 UNL     1     -51.078 -30.171 147.526  1.00  0.00     0.180 C 
HETATM   13  C20 UNL     1     -50.026 -30.084 146.444  1.00  0.00     0.181 C 
BRANCH   9  14
HETATM   14  O11 UNL     1     -49.746 -32.992 148.022  1.00  0.00    -0.390 OA
ATOM     15  H11 UNL     1     -49.262 -33.803 147.917  1.00  0.00     0.210 HD
ENDBRANCH   9  14
BRANCH  10  16
HETATM   16  O12 UNL     1     -48.024 -30.020 148.981  1.00  0.00    -0.390 OA
ATOM     17  H12 UNL     1     -47.618 -30.086 149.837  1.00  0.00     0.210 HD
ENDBRANCH  10  16
BRANCH  11  18
HETATM   18  O13 UNL     1     -51.362 -30.673 149.798  1.00  0.00    -0.390 OA
ATOM     19  H13 UNL     1     -51.514 -30.088 150.531  1.00  0.00     0.210 HD
ENDBRANCH  11  18
BRANCH  12  20
HETATM   20  O14 UNL     1     -51.953 -31.231 147.341  1.00  0.00    -0.390 OA
ATOM     21  H14 UNL     1     -51.557 -31.977 146.905  1.00  0.00     0.210 HD
ENDBRANCH  12  20
BRANCH  13  22
HETATM   22  O15 UNL     1     -49.324 -28.895 146.660  1.00  0.00    -0.390 OA
ATOM     23  H15 UNL     1     -49.839 -28.140 146.401  1.00  0.00     0.210 HD
ENDBRANCH  13  22
ENDBRANCH   7   8
ENDBRANCH   5   7
BRANCH   4  24
HETATM   24  O9  UNL     1     -45.899 -29.890 144.817  1.00  0.00    -0.388 OA
ATOM     25  H9  UNL     1     -45.401 -29.685 145.599  1.00  0.00     0.210 HD
ENDBRANCH   4  24
BRANCH   6  26
HETATM   26  C22 UNL     1     -48.084 -34.051 144.419  1.00  0.00     0.154 C 
BRANCH  26  27
HETATM   27  N1  UNL     1     -49.093 -34.513 145.347  1.00  0.00    -0.315 N 
HETATM   28  N2  UNL     1     -48.833 -35.259 146.336  1.00  0.00    -0.187 N 
ATOM     29  H2  UNL     1     -47.869 -35.551 146.493  1.00  0.00     0.218 HD
ATOM     30  H1  UNL     1     -50.059 -34.224 145.196  1.00  0.00     0.182 HD
BRANCH  28  31
HETATM   31  O16 UNL     1     -49.790 -35.682 147.194  1.00  0.00    -0.149 OA
BRANCH  31  32
HETATM   32  N3  UNL     1     -49.748 -36.914 147.832  1.00  0.00    -0.285 N 
ATOM     33  H32 UNL     1     -49.277 -37.677 147.346  1.00  0.00     0.186 HD
ATOM     34  H31 UNL     1     -50.163 -37.083 148.749  1.00  0.00     0.186 HD
ENDBRANCH  31  32
ENDBRANCH  28  31
ENDBRANCH  26  27
ENDBRANCH   6  26
BRANCH   3  35
HETATM   35  O3  UNL     1     -44.247 -31.965 143.136  1.00  0.00    -0.326 OA
BRANCH  35  36
HETATM   36  C7  UNL     1     -43.494 -30.968 142.580  1.00  0.00     0.294 C 
HETATM   37  O4  UNL     1     -42.418 -30.699 143.454  1.00  0.00    -0.348 OA
HETATM   38  C8  UNL     1     -41.836 -31.824 143.957  1.00  0.00     0.179 C 
HETATM   39  C10 UNL     1     -41.510 -32.891 142.983  1.00  0.00     0.180 C 
HETATM   40  C11 UNL     1     -42.333 -32.903 141.732  1.00  0.00     0.183 C 
HETATM   41  C12 UNL     1     -42.830 -31.532 141.333  1.00  0.00     0.204 C 
BRANCH  38  42
HETATM   42  C9  UNL     1     -40.516 -31.381 144.606  1.00  0.00     0.198 C 
BRANCH  42  43
HETATM   43  O5  UNL     1     -39.461 -32.179 144.242  1.00  0.00    -0.398 OA
ATOM     44  H5  UNL     1     -38.662 -31.683 144.108  1.00  0.00     0.209 HD
ENDBRANCH  42  43
ENDBRANCH  38  42
BRANCH  39  45
HETATM   45  O6  UNL     1     -41.718 -34.134 143.625  1.00  0.00    -0.390 OA
ATOM     46  H6  UNL     1     -41.566 -34.818 142.984  1.00  0.00     0.210 HD
ENDBRANCH  39  45
BRANCH  40  47
HETATM   47  O7  UNL     1     -41.623 -33.470 140.676  1.00  0.00    -0.390 OA
ATOM     48  H7  UNL     1     -42.197 -33.653 139.942  1.00  0.00     0.210 HD
ENDBRANCH  40  47
BRANCH  41  49
HETATM   49  O8  UNL     1     -41.744 -30.700 141.047  1.00  0.00    -0.388 OA
ATOM     50  H8  UNL     1     -41.640 -30.121 141.792  1.00  0.00     0.210 HD
ENDBRANCH  41  49
ENDBRANCH  35  36
ENDBRANCH   3  35
BRANCH   1  51
HETATM   51  C4  UNL     1     -48.691 -32.711 141.827  1.00  0.00     0.069 C 
BRANCH  51  52
HETATM   52  C3  UNL     1     -48.579 -32.065 140.466  1.00  0.00     0.005 C 
BRANCH  52  53
HETATM   53  C2  UNL     1     -49.881 -32.228 139.684  1.00  0.00    -0.004 C 
HETATM   54  C1  UNL     1     -50.797 -33.234 140.296  1.00  0.00     0.005 C 
ENDBRANCH  52  53
ENDBRANCH  51  52
ENDBRANCH   1  51
BRANCH   1  55
HETATM   55  O1  UNL     1     -47.828 -30.736 142.838  1.00  0.00    -0.365 OA
ATOM     56  H1  UNL     1     -47.159 -30.370 143.405  1.00  0.00     0.213 HD
ENDBRANCH   1  55
TORSDOF 23
ENDMDL
MODEL 5
REMARK VINA RESULT: -6.434089840      1.838      2.838
REMARK  23 active torsions:
REMARK  status: ('A' for Active; 'I' for Inactive)
REMARK    1  A    between atoms: C2_2  and  C3_3 
REMARK    2  A    between atoms: C3_3  and  C4_4 
REMARK    3  A    between atoms: C4_4  and  C5_5 
REMARK    4  A    between atoms: C5_5  and  O1_6 
REMARK    5  A    between atoms: C6_9  and  O3_10 
REMARK    6  A    between atoms: O3_10  and  C7_11 
REMARK    7  A    between atoms: C8_13  and  C9_14 
REMARK    8  A    between atoms: C9_14  and  O5_15 
REMARK    9  A    between atoms: C10_17  and  O6_18 
REMARK   10  A    between atoms: C11_20  and  O7_21 
REMARK   11  A    between atoms: C12_23  and  O8_24 
REMARK   12  A    between atoms: C13_26  and  O9_27 
REMARK   13  A    between atoms: C14_29  and  O10_30 
REMARK   14  A    between atoms: O10_30  and  C15_31 
REMARK   15  A    between atoms: C16_32  and  O11_33 
REMARK   16  A    between atoms: C17_35  and  O12_36 
REMARK   17  A    between atoms: C18_38  and  O13_39 
REMARK   18  A    between atoms: C19_41  and  O14_42 
REMARK   19  A    between atoms: C20_44  and  O15_45 
REMARK   20  A    between atoms: C21_47  and  C22_48 
REMARK   21  A    between atoms: C22_48  and  N1_49 
REMARK   22  A    between atoms: N2_51  and  O16_53 
REMARK   23  A    between atoms: O16_53  and  N3_54 
ROOT
HETATM    1  C5  UNL     1     -48.809 -33.079 143.607  1.00  0.00     0.172 C 
HETATM    2  O2  UNL     1     -49.066 -33.161 144.986  1.00  0.00    -0.322 OA
HETATM    3  C6  UNL     1     -48.183 -34.070 145.502  1.00  0.00     0.297 C 
HETATM    4  C13 UNL     1     -46.740 -33.863 145.150  1.00  0.00     0.203 C 
HETATM    5  C14 UNL     1     -46.417 -32.783 144.206  1.00  0.00     0.166 C 
HETATM    6  C21 UNL     1     -47.603 -32.171 143.498  1.00  0.00     0.099 C 
ENDROOT
BRANCH   5   7
HETATM    7  O10 UNL     1     -45.452 -33.228 143.299  1.00  0.00    -0.372 OA
BRANCH   7   8
HETATM    8  C15 UNL     1     -44.391 -32.381 143.125  1.00  0.00     0.184 C 
HETATM    9  C16 UNL     1     -43.153 -32.961 143.712  1.00  0.00     0.181 C 
HETATM   10  C17 UNL     1     -42.310 -33.731 142.727  1.00  0.00     0.180 C 
HETATM   11  C18 UNL     1     -41.946 -32.941 141.505  1.00  0.00     0.180 C 
HETATM   12  C19 UNL     1     -42.851 -31.769 141.247  1.00  0.00     0.180 C 
HETATM   13  C20 UNL     1     -44.271 -32.102 141.643  1.00  0.00     0.181 C 
BRANCH   9  14
HETATM   14  O11 UNL     1     -42.369 -31.976 144.361  1.00  0.00    -0.390 OA
ATOM     15  H11 UNL     1     -41.551 -31.819 143.904  1.00  0.00     0.210 HD
ENDBRANCH   9  14
BRANCH  10  16
HETATM   16  O12 UNL     1     -42.937 -34.932 142.450  1.00  0.00    -0.390 OA
ATOM     17  H12 UNL     1     -43.565 -35.114 143.140  1.00  0.00     0.210 HD
ENDBRANCH  10  16
BRANCH  11  18
HETATM   18  O13 UNL     1     -40.632 -32.460 141.552  1.00  0.00    -0.390 OA
ATOM     19  H13 UNL     1     -40.498 -31.714 140.978  1.00  0.00     0.210 HD
ENDBRANCH  11  18
BRANCH  12  20
HETATM   20  O14 UNL     1     -42.399 -30.586 141.811  1.00  0.00    -0.390 OA
ATOM     21  H14 UNL     1     -42.871 -29.818 141.510  1.00  0.00     0.210 HD
ENDBRANCH  12  20
BRANCH  13  22
HETATM   22  O15 UNL     1     -44.651 -33.212 140.885  1.00  0.00    -0.390 OA
ATOM     23  H15 UNL     1     -45.304 -33.732 141.338  1.00  0.00     0.210 HD
ENDBRANCH  13  22
ENDBRANCH   7   8
ENDBRANCH   5   7
BRANCH   4  24
HETATM   24  O9  UNL     1     -46.166 -35.091 144.804  1.00  0.00    -0.388 OA
ATOM     25  H9  UNL     1     -46.448 -35.755 145.421  1.00  0.00     0.210 HD
ENDBRANCH   4  24
BRANCH   6  26
HETATM   26  C22 UNL     1     -47.893 -30.777 143.994  1.00  0.00     0.154 C 
BRANCH  26  27
HETATM   27  N1  UNL     1     -47.453 -30.566 145.355  1.00  0.00    -0.315 N 
HETATM   28  N2  UNL     1     -46.952 -29.475 145.760  1.00  0.00    -0.187 N 
ATOM     29  H2  UNL     1     -46.853 -28.704 145.100  1.00  0.00     0.218 HD
ATOM     30  H1  UNL     1     -47.549 -31.333 146.021  1.00  0.00     0.182 HD
BRANCH  28  31
HETATM   31  O16 UNL     1     -46.545 -29.296 147.038  1.00  0.00    -0.149 OA
BRANCH  31  32
HETATM   32  N3  UNL     1     -45.906 -30.282 147.777  1.00  0.00    -0.285 N 
ATOM     33  H32 UNL     1     -46.494 -30.940 148.286  1.00  0.00     0.186 HD
ATOM     34  H31 UNL     1     -44.891 -30.371 147.830  1.00  0.00     0.186 HD
ENDBRANCH  31  32
ENDBRANCH  28  31
ENDBRANCH  26  27
ENDBRANCH   6  26
BRANCH   3  35
HETATM   35  O3  UNL     1     -48.361 -34.258 146.889  1.00  0.00    -0.326 OA
BRANCH  35  36
HETATM   36  C7  UNL     1     -47.416 -33.638 147.659  1.00  0.00     0.294 C 
HETATM   37  O4  UNL     1     -47.872 -32.330 147.936  1.00  0.00    -0.348 OA
HETATM   38  C8  UNL     1     -49.193 -32.275 148.263  1.00  0.00     0.179 C 
HETATM   39  C10 UNL     1     -49.665 -33.255 149.270  1.00  0.00     0.180 C 
HETATM   40  C11 UNL     1     -48.861 -34.513 149.379  1.00  0.00     0.183 C 
HETATM   41  C12 UNL     1     -47.405 -34.324 149.017  1.00  0.00     0.204 C 
BRANCH  38  42
HETATM   42  C9  UNL     1     -49.444 -30.874 148.839  1.00  0.00     0.198 C 
BRANCH  42  43
HETATM   43  O5  UNL     1     -49.052 -29.878 147.981  1.00  0.00    -0.398 OA
ATOM     44  H5  UNL     1     -48.894 -30.200 147.101  1.00  0.00     0.209 HD
ENDBRANCH  42  43
ENDBRANCH  38  42
BRANCH  39  45
HETATM   45  O6  UNL     1     -50.979 -33.634 148.913  1.00  0.00    -0.390 OA
ATOM     46  H6  UNL     1     -51.210 -34.395 149.434  1.00  0.00     0.210 HD
ENDBRANCH  39  45
BRANCH  40  47
HETATM   47  O7  UNL     1     -48.959 -35.056 150.659  1.00  0.00    -0.390 OA
ATOM     48  H7  UNL     1     -49.228 -35.966 150.621  1.00  0.00     0.210 HD
ENDBRANCH  40  47
BRANCH  41  49
HETATM   49  O8  UNL     1     -46.808 -33.432 149.912  1.00  0.00    -0.388 OA
ATOM     50  H8  UNL     1     -47.309 -33.478 150.718  1.00  0.00     0.210 HD
ENDBRANCH  41  49
ENDBRANCH  35  36
ENDBRANCH   3  35
BRANCH   1  51
HETATM   51  C4  UNL     1     -49.958 -32.571 142.812  1.00  0.00     0.069 C 
BRANCH  51  52
HETATM   52  C3  UNL     1     -50.579 -33.622 141.924  1.00  0.00     0.005 C 
BRANCH  52  53
HETATM   53  C2  UNL     1     -50.665 -33.126 140.481  1.00  0.00    -0.004 C 
HETATM   54  C1  UNL     1     -49.523 -32.241 140.109  1.00  0.00     0.005 C 
ENDBRANCH  52  53
ENDBRANCH  51  52
ENDBRANCH   1  51
BRANCH   1  55
HETATM   55  O1  UNL     1     -48.362 -34.315 143.093  1.00  0.00    -0.365 OA
ATOM     56  H1  UNL     1     -49.077 -34.777 142.670  1.00  0.00     0.213 HD
ENDBRANCH   1  55
TORSDOF 23
ENDMDL
