MODEL 1
REMARK VINA RESULT: -11.554455111      0.000      0.000
REMARK  14 active torsions:
REMARK  status: ('A' for Active; 'I' for Inactive)
REMARK    1  A    between atoms: C3_4  and  O2_5 
REMARK    2  A    between atoms: O2_5  and  C4_6 
REMARK    3  A    between atoms: C7_10  and  O4_11 
REMARK    4  A    between atoms: C8_13  and  O5_14 
REMARK    5  A    between atoms: C9_16  and  O6_17 
REMARK    6  A    between atoms: O6_17  and  C10_18 
REMARK    7  A    between atoms: C10_18  and  C11_19 
REMARK    8  A    between atoms: C13_21  and  O7_22 
REMARK    9  A    between atoms: O7_22  and  C14_23 
REMARK   10  A    between atoms: N1_31  and  O8_33 
REMARK   11  A    between atoms: C22_35  and  N2_36 
REMARK   12  A    between atoms: C23_40  and  O9_41 
REMARK   13  A    between atoms: C24_43  and  O10_44 
REMARK   14  A    between atoms: C25_46  and  O11_47 
ROOT
HETATM    1  C4  UNL     1      -2.673  20.784  26.292  1.00  0.00     0.295 C 
HETATM    2  O3  UNL     1      -2.268  19.477  26.190  1.00  0.00    -0.351 OA
HETATM    3  C5  UNL     1      -1.039  19.423  25.519  1.00  0.00     0.152 C 
HETATM    4  C6  UNL     1      -0.468  18.050  25.777  1.00  0.00     0.042 C 
HETATM    5  C7  UNL     1      -1.260  19.516  24.014  1.00  0.00     0.178 C 
HETATM    6  C8  UNL     1      -2.538  20.351  23.847  1.00  0.00     0.183 C 
HETATM    7  C9  UNL     1      -2.463  21.427  24.886  1.00  0.00     0.208 C 
ENDROOT
BRANCH   7   8
HETATM    8  O6  UNL     1      -3.385  22.419  24.703  1.00  0.00    -0.378 OA
BRANCH   8   9
HETATM    9  C10 UNL     1      -3.185  23.167  23.573  1.00  0.00     0.175 C 
BRANCH   9  10
HETATM   10  C11 UNL     1      -2.760  24.557  23.866  1.00  0.00     0.048 C 
HETATM   11  C12 UNL     1      -3.306  24.972  25.207  1.00  0.00     0.041 C 
HETATM   12  C13 UNL     1      -2.262  25.523  26.123  1.00  0.00     0.128 C 
HETATM   13  C20 UNL     1      -1.596  26.702  25.397  1.00  0.00     0.088 C 
HETATM   14  C21 UNL     1      -0.937  26.102  24.228  1.00  0.00     0.043 C 
HETATM   15  N1  UNL     1      -0.114  26.773  23.537  1.00  0.00    -0.275 N 
HETATM   16  C22 UNL     1      -1.252  24.713  23.881  1.00  0.00     0.237 C 
ATOM     17  H1  UNL     1       0.304  26.291  22.741  1.00  0.00     0.193 HD
BRANCH  12  18
HETATM   18  O7  UNL     1      -2.797  25.939  27.334  1.00  0.00    -0.380 OA
BRANCH  18  19
HETATM   19  C14 UNL     1      -3.576  27.061  27.125  1.00  0.00     0.122 C 
HETATM   20  C15 UNL     1      -3.041  28.277  27.846  1.00  0.00     0.032 C 
HETATM   21  C16 UNL     1      -2.663  27.840  29.242  1.00  0.00     0.002 C 
HETATM   22  C17 UNL     1      -3.636  26.819  29.746  1.00  0.00     0.000 C 
HETATM   23  C18 UNL     1      -4.992  26.966  29.107  1.00  0.00     0.002 C 
HETATM   24  C19 UNL     1      -4.975  26.756  27.626  1.00  0.00     0.032 C 
ENDBRANCH  18  19
ENDBRANCH  12  18
BRANCH  15  25
HETATM   25  O8  UNL     1       0.277  28.062  23.732  1.00  0.00    -0.290 OA
ATOM     26  H8  UNL     1       1.165  28.393  23.808  1.00  0.00     0.244 HD
ENDBRANCH  15  25
BRANCH  16  27
HETATM   27  N2  UNL     1      -0.677  24.413  22.582  1.00  0.00    -0.069 N 
ATOM     28  H23 UNL     1      -0.059  23.602  22.626  1.00  0.00     0.275 HD
ATOM     29  H22 UNL     1      -1.378  24.043  21.940  1.00  0.00     0.275 HD
ATOM     30  H21 UNL     1      -0.201  25.226  22.189  1.00  0.00     0.275 HD
ENDBRANCH  16  27
ENDBRANCH   9  10
ENDBRANCH   8   9
ENDBRANCH   7   8
BRANCH   1  31
HETATM   31  O2  UNL     1      -3.989  20.969  26.655  1.00  0.00    -0.326 OA
BRANCH  31  32
HETATM   32  C3  UNL     1      -4.135  21.470  27.925  1.00  0.00     0.294 C 
HETATM   33  O1  UNL     1      -3.069  21.270  28.771  1.00  0.00    -0.351 OA
HETATM   34  C2  UNL     1      -3.459  21.554  30.062  1.00  0.00     0.152 C 
HETATM   35  C1  UNL     1      -2.353  21.283  31.062  1.00  0.00     0.042 C 
HETATM   36  C25 UNL     1      -3.886  22.991  30.273  1.00  0.00     0.178 C 
HETATM   37  C24 UNL     1      -4.974  23.298  29.271  1.00  0.00     0.183 C 
HETATM   38  C23 UNL     1      -4.396  22.981  27.889  1.00  0.00     0.204 C 
BRANCH  36  39
HETATM   39  O11 UNL     1      -4.354  23.068  31.584  1.00  0.00    -0.390 OA
ATOM     40  H11 UNL     1      -5.043  23.723  31.581  1.00  0.00     0.210 HD
ENDBRANCH  36  39
BRANCH  37  41
HETATM   41  O10 UNL     1      -6.018  22.404  29.476  1.00  0.00    -0.390 OA
ATOM     42  H10 UNL     1      -6.479  22.702  30.251  1.00  0.00     0.210 HD
ENDBRANCH  37  41
BRANCH  38  43
HETATM   43  O9  UNL     1      -5.275  23.300  26.878  1.00  0.00    -0.388 OA
ATOM     44  H9  UNL     1      -5.612  24.182  26.991  1.00  0.00     0.210 HD
ENDBRANCH  38  43
ENDBRANCH  31  32
ENDBRANCH   1  31
BRANCH   6  45
HETATM   45  O5  UNL     1      -3.661  19.536  24.019  1.00  0.00    -0.390 OA
ATOM     46  H5  UNL     1      -4.313  19.744  23.360  1.00  0.00     0.210 HD
ENDBRANCH   6  45
BRANCH   5  47
HETATM   47  O4  UNL     1      -0.231  20.203  23.401  1.00  0.00    -0.390 OA
ATOM     48  H4  UNL     1      -0.371  20.266  22.464  1.00  0.00     0.210 HD
ENDBRANCH   5  47
TORSDOF 14
ENDMDL
MODEL 2
REMARK VINA RESULT: -10.672844136      1.249      1.537
REMARK  14 active torsions:
REMARK  status: ('A' for Active; 'I' for Inactive)
REMARK    1  A    between atoms: C3_4  and  O2_5 
REMARK    2  A    between atoms: O2_5  and  C4_6 
REMARK    3  A    between atoms: C7_10  and  O4_11 
REMARK    4  A    between atoms: C8_13  and  O5_14 
REMARK    5  A    between atoms: C9_16  and  O6_17 
REMARK    6  A    between atoms: O6_17  and  C10_18 
REMARK    7  A    between atoms: C10_18  and  C11_19 
REMARK    8  A    between atoms: C13_21  and  O7_22 
REMARK    9  A    between atoms: O7_22  and  C14_23 
REMARK   10  A    between atoms: N1_31  and  O8_33 
REMARK   11  A    between atoms: C22_35  and  N2_36 
REMARK   12  A    between atoms: C23_40  and  O9_41 
REMARK   13  A    between atoms: C24_43  and  O10_44 
REMARK   14  A    between atoms: C25_46  and  O11_47 
ROOT
HETATM    1  C4  UNL     1      -2.133  20.231  26.828  1.00  0.00     0.295 C 
HETATM    2  O3  UNL     1      -1.703  18.972  26.496  1.00  0.00    -0.351 OA
HETATM    3  C5  UNL     1      -0.683  19.067  25.541  1.00  0.00     0.152 C 
HETATM    4  C6  UNL     1       0.003  17.723  25.507  1.00  0.00     0.042 C 
HETATM    5  C7  UNL     1      -1.281  19.274  24.154  1.00  0.00     0.178 C 
HETATM    6  C8  UNL     1      -2.600  20.024  24.395  1.00  0.00     0.183 C 
HETATM    7  C9  UNL     1      -2.318  21.009  25.488  1.00  0.00     0.208 C 
ENDROOT
BRANCH   7   8
HETATM    8  O6  UNL     1      -3.305  21.941  25.641  1.00  0.00    -0.378 OA
BRANCH   8   9
HETATM    9  C10 UNL     1      -3.728  22.506  24.467  1.00  0.00     0.175 C 
BRANCH   9  10
HETATM   10  C11 UNL     1      -3.221  23.885  24.272  1.00  0.00     0.048 C 
HETATM   11  C12 UNL     1      -3.432  24.676  25.536  1.00  0.00     0.041 C 
HETATM   12  C13 UNL     1      -2.193  25.361  26.015  1.00  0.00     0.128 C 
HETATM   13  C20 UNL     1      -1.693  26.254  24.869  1.00  0.00     0.088 C 
HETATM   14  C21 UNL     1      -1.337  25.320  23.792  1.00  0.00     0.043 C 
HETATM   15  N1  UNL     1      -0.685  25.720  22.781  1.00  0.00    -0.275 N 
HETATM   16  C22 UNL     1      -1.749  23.918  23.911  1.00  0.00     0.237 C 
ATOM     17  H1  UNL     1      -0.473  25.016  22.074  1.00  0.00     0.193 HD
BRANCH  12  18
HETATM   18  O7  UNL     1      -2.423  26.119  27.155  1.00  0.00    -0.380 OA
BRANCH  18  19
HETATM   19  C14 UNL     1      -3.354  27.100  26.868  1.00  0.00     0.122 C 
HETATM   20  C15 UNL     1      -2.830  28.489  27.146  1.00  0.00     0.032 C 
HETATM   21  C16 UNL     1      -2.132  28.445  28.486  1.00  0.00     0.002 C 
HETATM   22  C17 UNL     1      -2.859  27.527  29.419  1.00  0.00     0.000 C 
HETATM   23  C18 UNL     1      -4.323  27.421  29.081  1.00  0.00     0.002 C 
HETATM   24  C19 UNL     1      -4.579  26.844  27.725  1.00  0.00     0.032 C 
ENDBRANCH  18  19
ENDBRANCH  12  18
BRANCH  15  25
HETATM   25  O8  UNL     1      -0.235  26.980  22.528  1.00  0.00    -0.290 OA
ATOM     26  H8  UNL     1       0.521  27.233  22.012  1.00  0.00     0.244 HD
ENDBRANCH  15  25
BRANCH  16  27
HETATM   27  N2  UNL     1      -1.498  23.246  22.650  1.00  0.00    -0.069 N 
ATOM     28  H23 UNL     1      -1.499  22.232  22.760  1.00  0.00     0.275 HD
ATOM     29  H22 UNL     1      -2.290  23.337  22.014  1.00  0.00     0.275 HD
ATOM     30  H21 UNL     1      -0.633  23.574  22.219  1.00  0.00     0.275 HD
ENDBRANCH  16  27
ENDBRANCH   9  10
ENDBRANCH   8   9
ENDBRANCH   7   8
BRANCH   1  31
HETATM   31  O2  UNL     1      -3.323  20.287  27.522  1.00  0.00    -0.326 OA
BRANCH  31  32
HETATM   32  C3  UNL     1      -3.153  20.455  28.874  1.00  0.00     0.294 C 
HETATM   33  O1  UNL     1      -2.395  19.495  29.504  1.00  0.00    -0.351 OA
HETATM   34  C2  UNL     1      -2.550  19.622  30.867  1.00  0.00     0.152 C 
HETATM   35  C1  UNL     1      -1.799  18.547  31.627  1.00  0.00     0.042 C 
HETATM   36  C25 UNL     1      -2.074  20.948  31.420  1.00  0.00     0.178 C 
HETATM   37  C24 UNL     1      -2.789  22.043  30.663  1.00  0.00     0.183 C 
HETATM   38  C23 UNL     1      -2.500  21.809  29.178  1.00  0.00     0.204 C 
BRANCH  36  39
HETATM   39  O11 UNL     1      -2.412  20.949  32.773  1.00  0.00    -0.390 OA
ATOM     40  H11 UNL     1      -1.971  21.699  33.155  1.00  0.00     0.210 HD
ENDBRANCH  36  39
BRANCH  37  41
HETATM   41  O10 UNL     1      -4.157  21.864  30.831  1.00  0.00    -0.390 OA
ATOM     42  H10 UNL     1      -4.489  21.537  30.004  1.00  0.00     0.210 HD
ENDBRANCH  37  41
BRANCH  38  43
HETATM   43  O9  UNL     1      -3.037  22.798  28.386  1.00  0.00    -0.388 OA
ATOM     44  H9  UNL     1      -3.752  22.458  27.861  1.00  0.00     0.210 HD
ENDBRANCH  38  43
ENDBRANCH  31  32
ENDBRANCH   1  31
BRANCH   6  45
HETATM   45  O5  UNL     1      -3.601  19.116  24.754  1.00  0.00    -0.390 OA
ATOM     46  H5  UNL     1      -3.573  18.363  24.176  1.00  0.00     0.210 HD
ENDBRANCH   6  45
BRANCH   5  47
HETATM   47  O4  UNL     1      -0.475  20.087  23.380  1.00  0.00    -0.390 OA
ATOM     48  H4  UNL     1      -0.909  20.326  22.570  1.00  0.00     0.210 HD
ENDBRANCH   5  47
TORSDOF 14
ENDMDL
MODEL 3
REMARK VINA RESULT: -10.430677654      1.164      1.888
REMARK  14 active torsions:
REMARK  status: ('A' for Active; 'I' for Inactive)
REMARK    1  A    between atoms: C3_4  and  O2_5 
REMARK    2  A    between atoms: O2_5  and  C4_6 
REMARK    3  A    between atoms: C7_10  and  O4_11 
REMARK    4  A    between atoms: C8_13  and  O5_14 
REMARK    5  A    between atoms: C9_16  and  O6_17 
REMARK    6  A    between atoms: O6_17  and  C10_18 
REMARK    7  A    between atoms: C10_18  and  C11_19 
REMARK    8  A    between atoms: C13_21  and  O7_22 
REMARK    9  A    between atoms: O7_22  and  C14_23 
REMARK   10  A    between atoms: N1_31  and  O8_33 
REMARK   11  A    between atoms: C22_35  and  N2_36 
REMARK   12  A    between atoms: C23_40  and  O9_41 
REMARK   13  A    between atoms: C24_43  and  O10_44 
REMARK   14  A    between atoms: C25_46  and  O11_47 
ROOT
HETATM    1  C4  UNL     1      -2.072  20.252  26.868  1.00  0.00     0.295 C 
HETATM    2  O3  UNL     1      -1.654  18.971  26.612  1.00  0.00    -0.351 OA
HETATM    3  C5  UNL     1      -0.674  18.994  25.611  1.00  0.00     0.152 C 
HETATM    4  C6  UNL     1       0.011  17.650  25.648  1.00  0.00     0.042 C 
HETATM    5  C7  UNL     1      -1.327  19.101  24.238  1.00  0.00     0.178 C 
HETATM    6  C8  UNL     1      -2.636  19.870  24.477  1.00  0.00     0.183 C 
HETATM    7  C9  UNL     1      -2.311  20.931  25.483  1.00  0.00     0.208 C 
ENDROOT
BRANCH   7   8
HETATM    8  O6  UNL     1      -3.291  21.874  25.608  1.00  0.00    -0.378 OA
BRANCH   8   9
HETATM    9  C10 UNL     1      -3.679  22.438  24.421  1.00  0.00     0.175 C 
BRANCH   9  10
HETATM   10  C11 UNL     1      -3.262  23.854  24.288  1.00  0.00     0.048 C 
HETATM   11  C12 UNL     1      -3.536  24.576  25.581  1.00  0.00     0.041 C 
HETATM   12  C13 UNL     1      -2.350  25.320  26.103  1.00  0.00     0.128 C 
HETATM   13  C20 UNL     1      -1.899  26.291  25.001  1.00  0.00     0.088 C 
HETATM   14  C21 UNL     1      -1.472  25.427  23.890  1.00  0.00     0.043 C 
HETATM   15  N1  UNL     1      -0.839  25.911  22.904  1.00  0.00    -0.275 N 
HETATM   16  C22 UNL     1      -1.792  23.998  23.947  1.00  0.00     0.237 C 
ATOM     17  H1  UNL     1      -0.574  25.253  22.172  1.00  0.00     0.193 HD
BRANCH  12  18
HETATM   18  O7  UNL     1      -2.640  26.013  27.270  1.00  0.00    -0.380 OA
BRANCH  18  19
HETATM   19  C14 UNL     1      -3.519  27.040  26.983  1.00  0.00     0.122 C 
HETATM   20  C15 UNL     1      -2.936  28.400  27.288  1.00  0.00     0.032 C 
HETATM   21  C16 UNL     1      -2.263  28.305  28.638  1.00  0.00     0.002 C 
HETATM   22  C17 UNL     1      -3.047  27.409  29.546  1.00  0.00     0.000 C 
HETATM   23  C18 UNL     1      -4.508  27.376  29.184  1.00  0.00     0.002 C 
HETATM   24  C19 UNL     1      -4.768  26.829  27.816  1.00  0.00     0.032 C 
ENDBRANCH  18  19
ENDBRANCH  12  18
BRANCH  15  25
HETATM   25  O8  UNL     1      -0.470  27.207  22.709  1.00  0.00    -0.290 OA
ATOM     26  H8  UNL     1      -0.628  27.948  23.284  1.00  0.00     0.244 HD
ENDBRANCH  15  25
BRANCH  16  27
HETATM   27  N2  UNL     1      -1.486  23.397  22.662  1.00  0.00    -0.069 N 
ATOM     28  H23 UNL     1      -2.045  22.560  22.499  1.00  0.00     0.275 HD
ATOM     29  H22 UNL     1      -1.829  23.969  21.891  1.00  0.00     0.275 HD
ATOM     30  H21 UNL     1      -0.488  23.204  22.570  1.00  0.00     0.275 HD
ENDBRANCH  16  27
ENDBRANCH   9  10
ENDBRANCH   8   9
ENDBRANCH   7   8
BRANCH   1  31
HETATM   31  O2  UNL     1      -3.232  20.361  27.603  1.00  0.00    -0.326 OA
BRANCH  31  32
HETATM   32  C3  UNL     1      -3.044  20.951  28.828  1.00  0.00     0.294 C 
HETATM   33  O1  UNL     1      -3.822  22.055  29.085  1.00  0.00    -0.351 OA
HETATM   34  C2  UNL     1      -3.332  22.704  30.198  1.00  0.00     0.152 C 
HETATM   35  C1  UNL     1      -4.097  23.976  30.498  1.00  0.00     0.042 C 
HETATM   36  C25 UNL     1      -3.372  21.871  31.462  1.00  0.00     0.178 C 
HETATM   37  C24 UNL     1      -2.635  20.581  31.185  1.00  0.00     0.183 C 
HETATM   38  C23 UNL     1      -3.304  19.950  29.962  1.00  0.00     0.204 C 
BRANCH  36  39
HETATM   39  O11 UNL     1      -2.737  22.628  32.446  1.00  0.00    -0.390 OA
ATOM     40  H11 UNL     1      -1.808  22.589  32.252  1.00  0.00     0.210 HD
ENDBRANCH  36  39
BRANCH  37  41
HETATM   41  O10 UNL     1      -1.336  20.897  30.805  1.00  0.00    -0.390 OA
ATOM     42  H10 UNL     1      -1.371  21.768  30.426  1.00  0.00     0.210 HD
ENDBRANCH  37  41
BRANCH  38  43
HETATM   43  O9  UNL     1      -2.767  18.719  29.658  1.00  0.00    -0.388 OA
ATOM     44  H9  UNL     1      -3.187  18.034  30.166  1.00  0.00     0.210 HD
ENDBRANCH  38  43
ENDBRANCH  31  32
ENDBRANCH   1  31
BRANCH   6  45
HETATM   45  O5  UNL     1      -3.621  18.993  24.941  1.00  0.00    -0.390 OA
ATOM     46  H5  UNL     1      -3.969  18.489  24.216  1.00  0.00     0.210 HD
ENDBRANCH   6  45
BRANCH   5  47
HETATM   47  O4  UNL     1      -0.554  19.853  23.376  1.00  0.00    -0.390 OA
ATOM     48  H4  UNL     1      -0.854  19.762  22.479  1.00  0.00     0.210 HD
ENDBRANCH   5  47
TORSDOF 14
ENDMDL
MODEL 4
REMARK VINA RESULT: -9.501059804      2.568      8.006
REMARK  14 active torsions:
REMARK  status: ('A' for Active; 'I' for Inactive)
REMARK    1  A    between atoms: C3_4  and  O2_5 
REMARK    2  A    between atoms: O2_5  and  C4_6 
REMARK    3  A    between atoms: C7_10  and  O4_11 
REMARK    4  A    between atoms: C8_13  and  O5_14 
REMARK    5  A    between atoms: C9_16  and  O6_17 
REMARK    6  A    between atoms: O6_17  and  C10_18 
REMARK    7  A    between atoms: C10_18  and  C11_19 
REMARK    8  A    between atoms: C13_21  and  O7_22 
REMARK    9  A    between atoms: O7_22  and  C14_23 
REMARK   10  A    between atoms: N1_31  and  O8_33 
REMARK   11  A    between atoms: C22_35  and  N2_36 
REMARK   12  A    between atoms: C23_40  and  O9_41 
REMARK   13  A    between atoms: C24_43  and  O10_44 
REMARK   14  A    between atoms: C25_46  and  O11_47 
ROOT
HETATM    1  C4  UNL     1      -2.929  24.712  26.567  1.00  0.00     0.295 C 
HETATM    2  O3  UNL     1      -3.109  26.071  26.537  1.00  0.00    -0.351 OA
HETATM    3  C5  UNL     1      -3.208  26.555  27.848  1.00  0.00     0.152 C 
HETATM    4  C6  UNL     1      -3.012  28.050  27.771  1.00  0.00     0.042 C 
HETATM    5  C7  UNL     1      -4.619  26.338  28.382  1.00  0.00     0.178 C 
HETATM    6  C8  UNL     1      -5.132  25.083  27.660  1.00  0.00     0.183 C 
HETATM    7  C9  UNL     1      -3.965  24.146  27.588  1.00  0.00     0.208 C 
ENDROOT
BRANCH   7   8
HETATM    8  O6  UNL     1      -4.315  22.878  27.218  1.00  0.00    -0.378 OA
BRANCH   8   9
HETATM    9  C10 UNL     1      -3.653  21.893  27.904  1.00  0.00     0.175 C 
BRANCH   9  10
HETATM   10  C11 UNL     1      -2.631  21.202  27.084  1.00  0.00     0.048 C 
HETATM   11  C12 UNL     1      -1.716  20.417  27.986  1.00  0.00     0.041 C 
HETATM   12  C13 UNL     1      -1.567  18.989  27.574  1.00  0.00     0.128 C 
HETATM   13  C20 UNL     1      -1.065  18.983  26.121  1.00  0.00     0.088 C 
HETATM   14  C21 UNL     1      -2.154  19.593  25.345  1.00  0.00     0.043 C 
HETATM   15  N1  UNL     1      -2.149  19.541  24.078  1.00  0.00    -0.275 N 
HETATM   16  C22 UNL     1      -3.242  20.260  26.064  1.00  0.00     0.237 C 
ATOM     17  H1  UNL     1      -2.937  19.985  23.606  1.00  0.00     0.193 HD
BRANCH  12  18
HETATM   18  O7  UNL     1      -0.685  18.298  28.393  1.00  0.00    -0.380 OA
BRANCH  18  19
HETATM   19  C14 UNL     1      -1.380  17.338  29.103  1.00  0.00     0.122 C 
HETATM   20  C15 UNL     1      -0.721  17.006  30.421  1.00  0.00     0.032 C 
HETATM   21  C16 UNL     1       0.759  16.858  30.157  1.00  0.00     0.002 C 
HETATM   22  C17 UNL     1       0.986  16.219  28.822  1.00  0.00     0.000 C 
HETATM   23  C18 UNL     1      -0.167  15.341  28.412  1.00  0.00     0.002 C 
HETATM   24  C19 UNL     1      -1.452  16.088  28.248  1.00  0.00     0.032 C 
ENDBRANCH  18  19
ENDBRANCH  12  18
BRANCH  15  25
HETATM   25  O8  UNL     1      -1.216  18.962  23.274  1.00  0.00    -0.290 OA
ATOM     26  H8  UNL     1      -1.275  18.125  22.828  1.00  0.00     0.244 HD
ENDBRANCH  15  25
BRANCH  16  27
HETATM   27  N2  UNL     1      -4.066  20.978  25.109  1.00  0.00    -0.069 N 
ATOM     28  H23 UNL     1      -3.522  21.669  24.592  1.00  0.00     0.275 HD
ATOM     29  H22 UNL     1      -4.342  20.380  24.330  1.00  0.00     0.275 HD
ATOM     30  H21 UNL     1      -4.876  21.402  25.561  1.00  0.00     0.275 HD
ENDBRANCH  16  27
ENDBRANCH   9  10
ENDBRANCH   8   9
ENDBRANCH   7   8
BRANCH   1  31
HETATM   31  O2  UNL     1      -3.115  24.063  25.366  1.00  0.00    -0.326 OA
BRANCH  31  32
HETATM   32  C3  UNL     1      -2.411  24.628  24.331  1.00  0.00     0.294 C 
HETATM   33  O1  UNL     1      -1.495  25.590  24.688  1.00  0.00    -0.351 OA
HETATM   34  C2  UNL     1      -1.085  26.264  23.558  1.00  0.00     0.152 C 
HETATM   35  C1  UNL     1      -0.128  27.391  23.885  1.00  0.00     0.042 C 
HETATM   36  C25 UNL     1      -0.385  25.388  22.541  1.00  0.00     0.178 C 
HETATM   37  C24 UNL     1      -1.308  24.238  22.213  1.00  0.00     0.183 C 
HETATM   38  C23 UNL     1      -1.647  23.558  23.542  1.00  0.00     0.204 C 
BRANCH  36  39
HETATM   39  O11 UNL     1      -0.151  26.196  21.428  1.00  0.00    -0.390 OA
ATOM     40  H11 UNL     1       0.708  26.581  21.557  1.00  0.00     0.210 HD
ENDBRANCH  36  39
BRANCH  37  41
HETATM   41  O10 UNL     1      -2.498  24.763  21.724  1.00  0.00    -0.390 OA
ATOM     42  H10 UNL     1      -2.359  24.930  20.799  1.00  0.00     0.210 HD
ENDBRANCH  37  41
BRANCH  38  43
HETATM   43  O9  UNL     1      -2.426  22.436  23.362  1.00  0.00    -0.388 OA
ATOM     44  H9  UNL     1      -2.137  21.945  22.601  1.00  0.00     0.210 HD
ENDBRANCH  38  43
ENDBRANCH  31  32
ENDBRANCH   1  31
BRANCH   6  45
HETATM   45  O5  UNL     1      -5.604  25.429  26.389  1.00  0.00    -0.390 OA
ATOM     46  H5  UNL     1      -6.386  25.961  26.472  1.00  0.00     0.210 HD
ENDBRANCH   6  45
BRANCH   5  47
HETATM   47  O4  UNL     1      -4.603  26.062  29.735  1.00  0.00    -0.390 OA
ATOM     48  H4  UNL     1      -5.112  26.700  30.221  1.00  0.00     0.210 HD
ENDBRANCH   5  47
TORSDOF 14
ENDMDL
MODEL 5
REMARK VINA RESULT: -9.352882913      3.691      6.743
REMARK  14 active torsions:
REMARK  status: ('A' for Active; 'I' for Inactive)
REMARK    1  A    between atoms: C3_4  and  O2_5 
REMARK    2  A    between atoms: O2_5  and  C4_6 
REMARK    3  A    between atoms: C7_10  and  O4_11 
REMARK    4  A    between atoms: C8_13  and  O5_14 
REMARK    5  A    between atoms: C9_16  and  O6_17 
REMARK    6  A    between atoms: O6_17  and  C10_18 
REMARK    7  A    between atoms: C10_18  and  C11_19 
REMARK    8  A    between atoms: C13_21  and  O7_22 
REMARK    9  A    between atoms: O7_22  and  C14_23 
REMARK   10  A    between atoms: N1_31  and  O8_33 
REMARK   11  A    between atoms: C22_35  and  N2_36 
REMARK   12  A    between atoms: C23_40  and  O9_41 
REMARK   13  A    between atoms: C24_43  and  O10_44 
REMARK   14  A    between atoms: C25_46  and  O11_47 
ROOT
HETATM    1  C4  UNL     1      -2.982  23.395  27.408  1.00  0.00     0.295 C 
HETATM    2  O3  UNL     1      -2.636  24.106  26.287  1.00  0.00    -0.351 OA
HETATM    3  C5  UNL     1      -2.329  25.424  26.651  1.00  0.00     0.152 C 
HETATM    4  C6  UNL     1      -1.597  26.034  25.480  1.00  0.00     0.042 C 
HETATM    5  C7  UNL     1      -3.609  26.233  26.821  1.00  0.00     0.178 C 
HETATM    6  C8  UNL     1      -4.669  25.216  27.269  1.00  0.00     0.183 C 
HETATM    7  C9  UNL     1      -3.973  24.289  28.217  1.00  0.00     0.208 C 
ENDROOT
BRANCH   7   8
HETATM    8  O6  UNL     1      -4.832  23.488  28.916  1.00  0.00    -0.378 OA
BRANCH   8   9
HETATM    9  C10 UNL     1      -5.340  24.068  30.049  1.00  0.00     0.175 C 
BRANCH   9  10
HETATM   10  C11 UNL     1      -4.316  24.796  30.836  1.00  0.00     0.048 C 
HETATM   11  C12 UNL     1      -4.909  26.078  31.359  1.00  0.00     0.041 C 
HETATM   12  C13 UNL     1      -4.722  26.255  32.831  1.00  0.00     0.128 C 
HETATM   13  C20 UNL     1      -3.214  26.177  33.112  1.00  0.00     0.088 C 
HETATM   14  C21 UNL     1      -2.833  24.806  32.743  1.00  0.00     0.043 C 
HETATM   15  N1  UNL     1      -1.694  24.347  33.060  1.00  0.00    -0.275 N 
HETATM   16  C22 UNL     1      -3.795  23.983  32.005  1.00  0.00     0.237 C 
ATOM     17  H1  UNL     1      -1.499  23.388  32.771  1.00  0.00     0.193 HD
BRANCH  12  18
HETATM   18  O7  UNL     1      -5.237  27.463  33.281  1.00  0.00    -0.380 OA
BRANCH  18  19
HETATM   19  C14 UNL     1      -6.606  27.473  33.091  1.00  0.00     0.122 C 
HETATM   20  C15 UNL     1      -7.210  28.837  33.328  1.00  0.00     0.032 C 
HETATM   21  C16 UNL     1      -6.596  29.385  34.595  1.00  0.00     0.002 C 
HETATM   22  C17 UNL     1      -6.382  28.283  35.586  1.00  0.00     0.000 C 
HETATM   23  C18 UNL     1      -7.353  27.148  35.388  1.00  0.00     0.002 C 
HETATM   24  C19 UNL     1      -7.217  26.477  34.058  1.00  0.00     0.032 C 
ENDBRANCH  18  19
ENDBRANCH  12  18
BRANCH  15  25
HETATM   25  O8  UNL     1      -0.701  24.983  33.739  1.00  0.00    -0.290 OA
ATOM     26  H8  UNL     1      -0.522  25.916  33.765  1.00  0.00     0.244 HD
ENDBRANCH  15  25
BRANCH  16  27
HETATM   27  N2  UNL     1      -3.129  22.775  31.553  1.00  0.00    -0.069 N 
ATOM     28  H23 UNL     1      -2.133  22.793  31.771  1.00  0.00     0.275 HD
ATOM     29  H22 UNL     1      -3.399  21.968  32.115  1.00  0.00     0.275 HD
ATOM     30  H21 UNL     1      -3.293  22.610  30.559  1.00  0.00     0.275 HD
ENDBRANCH  16  27
ENDBRANCH   9  10
ENDBRANCH   8   9
ENDBRANCH   7   8
BRANCH   1  31
HETATM   31  O2  UNL     1      -3.593  22.182  27.175  1.00  0.00    -0.326 OA
BRANCH  31  32
HETATM   32  C3  UNL     1      -2.957  21.431  26.217  1.00  0.00     0.294 C 
HETATM   33  O1  UNL     1      -2.430  20.236  26.648  1.00  0.00    -0.351 OA
HETATM   34  C2  UNL     1      -1.588  19.739  25.677  1.00  0.00     0.152 C 
HETATM   35  C1  UNL     1      -0.911  18.456  26.116  1.00  0.00     0.042 C 
HETATM   36  C25 UNL     1      -2.276  19.433  24.364  1.00  0.00     0.178 C 
HETATM   37  C24 UNL     1      -2.983  20.690  23.913  1.00  0.00     0.183 C 
HETATM   38  C23 UNL     1      -3.909  21.105  25.058  1.00  0.00     0.204 C 
BRANCH  36  39
HETATM   39  O11 UNL     1      -1.268  19.060  23.475  1.00  0.00    -0.390 OA
ATOM     40  H11 UNL     1      -0.727  18.430  23.938  1.00  0.00     0.210 HD
ENDBRANCH  36  39
BRANCH  37  41
HETATM   41  O10 UNL     1      -2.034  21.699  23.788  1.00  0.00    -0.390 OA
ATOM     42  H10 UNL     1      -1.957  22.103  24.643  1.00  0.00     0.210 HD
ENDBRANCH  37  41
BRANCH  38  43
HETATM   43  O9  UNL     1      -4.673  22.204  24.731  1.00  0.00    -0.388 OA
ATOM     44  H9  UNL     1      -5.397  21.954  24.168  1.00  0.00     0.210 HD
ENDBRANCH  38  43
ENDBRANCH  31  32
ENDBRANCH   1  31
BRANCH   6  45
HETATM   45  O5  UNL     1      -5.176  24.540  26.154  1.00  0.00    -0.390 OA
ATOM     46  H5  UNL     1      -4.493  24.439  25.502  1.00  0.00     0.210 HD
ENDBRANCH   6  45
BRANCH   5  47
HETATM   47  O4  UNL     1      -3.478  27.168  27.829  1.00  0.00    -0.390 OA
ATOM     48  H4  UNL     1      -4.323  27.517  28.085  1.00  0.00     0.210 HD
ENDBRANCH   5  47
TORSDOF 14
ENDMDL
