MODEL 1
REMARK VINA RESULT: -9.211962015      0.000      0.000
REMARK  15 active torsions:
REMARK  status: ('A' for Active; 'I' for Inactive)
REMARK    1  A    between atoms: C2_2  and  O2_4 
REMARK    2  A    between atoms: O2_4  and  C3_5 
REMARK    3  A    between atoms: C6_8  and  C7_9 
REMARK    4  A    between atoms: C7_9  and  O3_10 
REMARK    5  A    between atoms: C10_15  and  O4_16 
REMARK    6  A    between atoms: O4_16  and  C11_17 
REMARK    7  A    between atoms: C12_18  and  C13_19 
REMARK    8  A    between atoms: C19_25  and  O5_26 
REMARK    9  A    between atoms: O5_26  and  C20_27 
REMARK   10  A    between atoms: C21_29  and  C22_30 
REMARK   11  A    between atoms: C22_30  and  O7_31 
REMARK   12  A    between atoms: C23_33  and  O8_34 
REMARK   13  A    between atoms: C24_36  and  O9_37 
REMARK   14  A    between atoms: C25_39  and  O10_40 
REMARK   15  A    between atoms: C26_42  and  O11_43 
ROOT
HETATM    1  C3  UNL     1      -1.920  21.111  26.032  1.00  0.00     0.184 C 
HETATM    2  C4  UNL     1      -1.605  21.167  24.571  1.00  0.00     0.004 C 
HETATM    3  C5  UNL     1      -2.631  21.274  23.731  1.00  0.00    -0.020 C 
HETATM    4  C6  UNL     1      -4.034  21.340  24.150  1.00  0.00     0.052 C 
HETATM    5  C8  UNL     1      -4.228  21.606  25.639  1.00  0.00     0.134 C 
HETATM    6  C9  UNL     1      -5.456  22.343  25.755  1.00  0.00     0.067 C 
HETATM    7  N1  UNL     1      -6.447  22.917  25.823  1.00  0.00    -0.197 NA
HETATM    8  C10 UNL     1      -3.010  22.186  26.250  1.00  0.00     0.173 C 
ENDROOT
BRANCH   4   9
HETATM    9  C7  UNL     1      -4.737  20.069  23.762  1.00  0.00     0.174 C 
BRANCH   9  10
HETATM   10  O3  UNL     1      -4.042  18.931  24.142  1.00  0.00    -0.400 OA
ATOM     11  H3  UNL     1      -3.539  19.054  24.939  1.00  0.00     0.209 HD
ENDBRANCH   9  10
ENDBRANCH   4   9
BRANCH   8  12
HETATM   12  O4  UNL     1      -3.124  22.476  27.583  1.00  0.00    -0.373 OA
BRANCH  12  13
HETATM   13  C11 UNL     1      -2.936  23.779  27.948  1.00  0.00     0.161 C 
HETATM   14  C12 UNL     1      -3.104  24.865  26.986  1.00  0.00     0.040 C 
HETATM   15  C17 UNL     1      -4.472  25.577  27.158  1.00  0.00     0.013 C 
HETATM   16  C18 UNL     1      -4.428  26.320  28.473  1.00  0.00     0.035 C 
HETATM   17  C19 UNL     1      -3.980  25.412  29.580  1.00  0.00     0.156 C 
HETATM   18  C26 UNL     1      -3.927  23.965  29.153  1.00  0.00     0.176 C 
BRANCH  14  19
HETATM   19  C13 UNL     1      -3.000  24.597  25.554  1.00  0.00    -0.018 C 
HETATM   20  C14 UNL     1      -2.199  25.297  24.735  1.00  0.00    -0.091 C 
HETATM   21  C15 UNL     1      -1.357  26.418  25.296  1.00  0.00     0.042 C 
HETATM   22  C16 UNL     1      -2.120  25.010  23.285  1.00  0.00     0.042 C 
ENDBRANCH  14  19
BRANCH  17  23
HETATM   23  O5  UNL     1      -4.731  25.479  30.725  1.00  0.00    -0.351 OA
BRANCH  23  24
HETATM   24  C20 UNL     1      -5.522  26.572  30.925  1.00  0.00     0.292 C 
HETATM   25  O6  UNL     1      -6.677  26.103  31.587  1.00  0.00    -0.348 OA
HETATM   26  C21 UNL     1      -7.583  27.111  31.825  1.00  0.00     0.179 C 
HETATM   27  C23 UNL     1      -7.043  28.172  32.758  1.00  0.00     0.180 C 
HETATM   28  C24 UNL     1      -5.669  28.643  32.347  1.00  0.00     0.183 C 
HETATM   29  C25 UNL     1      -4.826  27.474  31.931  1.00  0.00     0.204 C 
BRANCH  26  30
HETATM   30  C22 UNL     1      -8.778  26.496  32.526  1.00  0.00     0.198 C 
BRANCH  30  31
HETATM   31  O7  UNL     1      -9.949  27.215  32.326  1.00  0.00    -0.398 OA
ATOM     32  H7  UNL     1     -10.730  26.695  32.470  1.00  0.00     0.209 HD
ENDBRANCH  30  31
ENDBRANCH  26  30
BRANCH  27  33
HETATM   33  O8  UNL     1      -7.886  29.278  32.667  1.00  0.00    -0.390 OA
ATOM     34  H8  UNL     1      -8.473  29.251  33.414  1.00  0.00     0.210 HD
ENDBRANCH  27  33
BRANCH  28  35
HETATM   35  O9  UNL     1      -5.080  29.219  33.467  1.00  0.00    -0.390 OA
ATOM     36  H9  UNL     1      -5.382  30.118  33.512  1.00  0.00     0.210 HD
ENDBRANCH  28  35
BRANCH  29  37
HETATM   37  O10 UNL     1      -4.594  26.689  33.062  1.00  0.00    -0.388 OA
ATOM     38  H10 UNL     1      -5.383  26.743  33.588  1.00  0.00     0.210 HD
ENDBRANCH  29  37
ENDBRANCH  23  24
ENDBRANCH  17  23
BRANCH  18  39
HETATM   39  O11 UNL     1      -5.153  23.420  28.878  1.00  0.00    -0.390 OA
ATOM     40  H11 UNL     1      -5.785  24.091  28.647  1.00  0.00     0.210 HD
ENDBRANCH  18  39
ENDBRANCH  12  13
ENDBRANCH   8  12
BRANCH   1  41
HETATM   41  O2  UNL     1      -2.477  19.866  26.329  1.00  0.00    -0.310 OA
BRANCH  41  42
HETATM   42  C2  UNL     1      -1.704  18.889  26.962  1.00  0.00     0.255 C 
HETATM   43  C1  UNL     1      -0.804  17.963  26.236  1.00  0.00     0.126 C 
HETATM   44  O1  UNL     1      -1.805  18.820  28.228  1.00  0.00    -0.266 OA
ENDBRANCH  41  42
ENDBRANCH   1  41
TORSDOF 15
ENDMDL
MODEL 2
REMARK VINA RESULT: -9.148616986      1.303      1.778
REMARK  15 active torsions:
REMARK  status: ('A' for Active; 'I' for Inactive)
REMARK    1  A    between atoms: C2_2  and  O2_4 
REMARK    2  A    between atoms: O2_4  and  C3_5 
REMARK    3  A    between atoms: C6_8  and  C7_9 
REMARK    4  A    between atoms: C7_9  and  O3_10 
REMARK    5  A    between atoms: C10_15  and  O4_16 
REMARK    6  A    between atoms: O4_16  and  C11_17 
REMARK    7  A    between atoms: C12_18  and  C13_19 
REMARK    8  A    between atoms: C19_25  and  O5_26 
REMARK    9  A    between atoms: O5_26  and  C20_27 
REMARK   10  A    between atoms: C21_29  and  C22_30 
REMARK   11  A    between atoms: C22_30  and  O7_31 
REMARK   12  A    between atoms: C23_33  and  O8_34 
REMARK   13  A    between atoms: C24_36  and  O9_37 
REMARK   14  A    between atoms: C25_39  and  O10_40 
REMARK   15  A    between atoms: C26_42  and  O11_43 
ROOT
HETATM    1  C3  UNL     1      -1.844  21.103  25.996  1.00  0.00     0.184 C 
HETATM    2  C4  UNL     1      -1.537  20.901  24.547  1.00  0.00     0.004 C 
HETATM    3  C5  UNL     1      -2.562  20.923  23.700  1.00  0.00    -0.020 C 
HETATM    4  C6  UNL     1      -3.956  21.131  24.099  1.00  0.00     0.052 C 
HETATM    5  C8  UNL     1      -4.125  21.650  25.523  1.00  0.00     0.134 C 
HETATM    6  C9  UNL     1      -5.312  22.460  25.514  1.00  0.00     0.067 C 
HETATM    7  N1  UNL     1      -6.271  23.090  25.485  1.00  0.00    -0.197 NA
HETATM    8  C10 UNL     1      -2.874  22.257  26.032  1.00  0.00     0.173 C 
ENDROOT
BRANCH   4   9
HETATM    9  C7  UNL     1      -4.729  19.853  23.925  1.00  0.00     0.174 C 
BRANCH   9  10
HETATM   10  O3  UNL     1      -5.323  19.748  22.677  1.00  0.00    -0.400 OA
ATOM     11  H3  UNL     1      -4.701  19.539  21.989  1.00  0.00     0.209 HD
ENDBRANCH   9  10
ENDBRANCH   4   9
BRANCH   8  12
HETATM   12  O4  UNL     1      -2.963  22.769  27.299  1.00  0.00    -0.373 OA
BRANCH  12  13
HETATM   13  C11 UNL     1      -2.675  24.095  27.449  1.00  0.00     0.161 C 
HETATM   14  C12 UNL     1      -2.724  25.012  26.312  1.00  0.00     0.040 C 
HETATM   15  C17 UNL     1      -4.031  25.848  26.306  1.00  0.00     0.013 C 
HETATM   16  C18 UNL     1      -3.961  26.798  27.480  1.00  0.00     0.035 C 
HETATM   17  C19 UNL     1      -3.622  26.059  28.740  1.00  0.00     0.156 C 
HETATM   18  C26 UNL     1      -3.680  24.561  28.564  1.00  0.00     0.176 C 
BRANCH  14  19
HETATM   19  C13 UNL     1      -2.605  24.497  24.951  1.00  0.00    -0.018 C 
HETATM   20  C14 UNL     1      -1.827  25.070  24.018  1.00  0.00    -0.091 C 
HETATM   21  C15 UNL     1      -1.029  26.302  24.369  1.00  0.00     0.042 C 
HETATM   22  C16 UNL     1      -1.730  24.532  22.642  1.00  0.00     0.042 C 
ENDBRANCH  14  19
BRANCH  17  23
HETATM   23  O5  UNL     1      -4.395  26.379  29.826  1.00  0.00    -0.351 OA
BRANCH  23  24
HETATM   24  C20 UNL     1      -4.049  27.462  30.579  1.00  0.00     0.292 C 
HETATM   25  O6  UNL     1      -5.154  27.726  31.417  1.00  0.00    -0.348 OA
HETATM   26  C21 UNL     1      -4.946  28.826  32.218  1.00  0.00     0.179 C 
HETATM   27  C23 UNL     1      -3.801  28.632  33.188  1.00  0.00     0.180 C 
HETATM   28  C24 UNL     1      -2.562  28.105  32.506  1.00  0.00     0.183 C 
HETATM   29  C25 UNL     1      -2.932  27.037  31.519  1.00  0.00     0.204 C 
BRANCH  26  30
HETATM   30  C22 UNL     1      -6.190  29.020  33.061  1.00  0.00     0.198 C 
BRANCH  30  31
HETATM   31  O7  UNL     1      -7.363  28.840  32.340  1.00  0.00    -0.398 OA
ATOM     32  H7  UNL     1      -8.057  29.429  32.611  1.00  0.00     0.209 HD
ENDBRANCH  30  31
ENDBRANCH  26  30
BRANCH  27  33
HETATM   33  O8  UNL     1      -3.471  29.884  33.701  1.00  0.00    -0.390 OA
ATOM     34  H8  UNL     1      -2.533  29.892  33.854  1.00  0.00     0.210 HD
ENDBRANCH  27  33
BRANCH  28  35
HETATM   35  O9  UNL     1      -1.768  27.524  33.489  1.00  0.00    -0.390 OA
ATOM     36  H9  UNL     1      -2.134  26.667  33.676  1.00  0.00     0.210 HD
ENDBRANCH  28  35
BRANCH  29  37
HETATM   37  O10 UNL     1      -3.419  25.943  32.235  1.00  0.00    -0.388 OA
ATOM     38  H10 UNL     1      -3.273  25.181  31.687  1.00  0.00     0.210 HD
ENDBRANCH  29  37
ENDBRANCH  23  24
ENDBRANCH  17  23
BRANCH  18  39
HETATM   39  O11 UNL     1      -4.940  24.076  28.333  1.00  0.00    -0.390 OA
ATOM     40  H11 UNL     1      -5.491  24.166  29.103  1.00  0.00     0.210 HD
ENDBRANCH  18  39
ENDBRANCH  12  13
ENDBRANCH   8  12
BRANCH   1  41
HETATM   41  O2  UNL     1      -2.464  19.956  26.495  1.00  0.00    -0.310 OA
BRANCH  41  42
HETATM   42  C2  UNL     1      -1.744  19.066  27.294  1.00  0.00     0.255 C 
HETATM   43  C1  UNL     1      -0.967  17.926  26.752  1.00  0.00     0.126 C 
HETATM   44  O1  UNL     1      -1.781  19.273  28.548  1.00  0.00    -0.266 OA
ENDBRANCH  41  42
ENDBRANCH   1  41
TORSDOF 15
ENDMDL
MODEL 3
REMARK VINA RESULT: -9.123979304      1.531      2.646
REMARK  15 active torsions:
REMARK  status: ('A' for Active; 'I' for Inactive)
REMARK    1  A    between atoms: C2_2  and  O2_4 
REMARK    2  A    between atoms: O2_4  and  C3_5 
REMARK    3  A    between atoms: C6_8  and  C7_9 
REMARK    4  A    between atoms: C7_9  and  O3_10 
REMARK    5  A    between atoms: C10_15  and  O4_16 
REMARK    6  A    between atoms: O4_16  and  C11_17 
REMARK    7  A    between atoms: C12_18  and  C13_19 
REMARK    8  A    between atoms: C19_25  and  O5_26 
REMARK    9  A    between atoms: O5_26  and  C20_27 
REMARK   10  A    between atoms: C21_29  and  C22_30 
REMARK   11  A    between atoms: C22_30  and  O7_31 
REMARK   12  A    between atoms: C23_33  and  O8_34 
REMARK   13  A    between atoms: C24_36  and  O9_37 
REMARK   14  A    between atoms: C25_39  and  O10_40 
REMARK   15  A    between atoms: C26_42  and  O11_43 
ROOT
HETATM    1  C3  UNL     1      -1.908  21.146  26.061  1.00  0.00     0.184 C 
HETATM    2  C4  UNL     1      -1.600  21.006  24.605  1.00  0.00     0.004 C 
HETATM    3  C5  UNL     1      -2.628  21.039  23.761  1.00  0.00    -0.020 C 
HETATM    4  C6  UNL     1      -4.025  21.202  24.171  1.00  0.00     0.052 C 
HETATM    5  C8  UNL     1      -4.200  21.662  25.614  1.00  0.00     0.134 C 
HETATM    6  C9  UNL     1      -5.404  22.447  25.639  1.00  0.00     0.067 C 
HETATM    7  N1  UNL     1      -6.376  23.057  25.635  1.00  0.00    -0.197 NA
HETATM    8  C10 UNL     1      -2.961  22.275  26.143  1.00  0.00     0.173 C 
ENDROOT
BRANCH   4   9
HETATM    9  C7  UNL     1      -4.771  19.916  23.950  1.00  0.00     0.174 C 
BRANCH   9  10
HETATM   10  O3  UNL     1      -5.241  19.782  22.652  1.00  0.00    -0.400 OA
ATOM     11  H3  UNL     1      -5.161  20.582  22.146  1.00  0.00     0.209 HD
ENDBRANCH   9  10
ENDBRANCH   4   9
BRANCH   8  12
HETATM   12  O4  UNL     1      -3.057  22.736  27.429  1.00  0.00    -0.373 OA
BRANCH  12  13
HETATM   13  C11 UNL     1      -2.799  24.063  27.629  1.00  0.00     0.161 C 
HETATM   14  C12 UNL     1      -2.859  25.018  26.525  1.00  0.00     0.040 C 
HETATM   15  C17 UNL     1      -4.184  25.826  26.538  1.00  0.00     0.013 C 
HETATM   16  C18 UNL     1      -4.144  26.734  27.745  1.00  0.00     0.035 C 
HETATM   17  C19 UNL     1      -3.799  25.958  28.981  1.00  0.00     0.156 C 
HETATM   18  C26 UNL     1      -3.823  24.466  28.751  1.00  0.00     0.176 C 
BRANCH  14  19
HETATM   19  C13 UNL     1      -2.717  24.555  25.148  1.00  0.00    -0.018 C 
HETATM   20  C14 UNL     1      -1.929  25.166  24.248  1.00  0.00    -0.091 C 
HETATM   21  C15 UNL     1      -1.143  26.388  24.657  1.00  0.00     0.042 C 
HETATM   22  C16 UNL     1      -1.810  24.681  22.855  1.00  0.00     0.042 C 
ENDBRANCH  14  19
BRANCH  17  23
HETATM   23  O5  UNL     1      -4.588  26.222  30.071  1.00  0.00    -0.351 OA
BRANCH  23  24
HETATM   24  C20 UNL     1      -3.991  26.387  31.286  1.00  0.00     0.292 C 
HETATM   25  O6  UNL     1      -2.922  27.285  31.079  1.00  0.00    -0.348 OA
HETATM   26  C21 UNL     1      -2.210  27.517  32.233  1.00  0.00     0.179 C 
HETATM   27  C23 UNL     1      -3.039  28.190  33.305  1.00  0.00     0.180 C 
HETATM   28  C24 UNL     1      -4.367  27.503  33.510  1.00  0.00     0.183 C 
HETATM   29  C25 UNL     1      -4.965  27.130  32.186  1.00  0.00     0.204 C 
BRANCH  26  30
HETATM   30  C22 UNL     1      -1.090  28.480  31.894  1.00  0.00     0.198 C 
BRANCH  30  31
HETATM   31  O7  UNL     1      -1.319  29.181  30.719  1.00  0.00    -0.398 OA
ATOM     32  H7  UNL     1      -0.532  29.582  30.369  1.00  0.00     0.209 HD
ENDBRANCH  30  31
ENDBRANCH  26  30
BRANCH  27  33
HETATM   33  O8  UNL     1      -2.343  28.078  34.506  1.00  0.00    -0.390 OA
ATOM     34  H8  UNL     1      -2.631  27.278  34.930  1.00  0.00     0.210 HD
ENDBRANCH  27  33
BRANCH  28  35
HETATM   35  O9  UNL     1      -5.215  28.421  34.120  1.00  0.00    -0.390 OA
ATOM     36  H9  UNL     1      -4.849  28.617  34.974  1.00  0.00     0.210 HD
ENDBRANCH  28  35
BRANCH  29  37
HETATM   37  O10 UNL     1      -5.292  28.310  31.516  1.00  0.00    -0.388 OA
ATOM     38  H10 UNL     1      -5.694  28.879  32.162  1.00  0.00     0.210 HD
ENDBRANCH  29  37
ENDBRANCH  23  24
ENDBRANCH  17  23
BRANCH  18  39
HETATM   39  O11 UNL     1      -5.070  23.963  28.492  1.00  0.00    -0.390 OA
ATOM     40  H11 UNL     1      -5.672  24.149  29.203  1.00  0.00     0.210 HD
ENDBRANCH  18  39
ENDBRANCH  12  13
ENDBRANCH   8  12
BRANCH   1  41
HETATM   41  O2  UNL     1      -2.502  19.968  26.516  1.00  0.00    -0.310 OA
BRANCH  41  42
HETATM   42  C2  UNL     1      -1.767  19.071  27.295  1.00  0.00     0.255 C 
HETATM   43  C1  UNL     1      -0.933  17.987  26.725  1.00  0.00     0.126 C 
HETATM   44  O1  UNL     1      -1.841  19.223  28.556  1.00  0.00    -0.266 OA
ENDBRANCH  41  42
ENDBRANCH   1  41
TORSDOF 15
ENDMDL
MODEL 4
REMARK VINA RESULT: -9.087325526      2.272      9.191
REMARK  15 active torsions:
REMARK  status: ('A' for Active; 'I' for Inactive)
REMARK    1  A    between atoms: C2_2  and  O2_4 
REMARK    2  A    between atoms: O2_4  and  C3_5 
REMARK    3  A    between atoms: C6_8  and  C7_9 
REMARK    4  A    between atoms: C7_9  and  O3_10 
REMARK    5  A    between atoms: C10_15  and  O4_16 
REMARK    6  A    between atoms: O4_16  and  C11_17 
REMARK    7  A    between atoms: C12_18  and  C13_19 
REMARK    8  A    between atoms: C19_25  and  O5_26 
REMARK    9  A    between atoms: O5_26  and  C20_27 
REMARK   10  A    between atoms: C21_29  and  C22_30 
REMARK   11  A    between atoms: C22_30  and  O7_31 
REMARK   12  A    between atoms: C23_33  and  O8_34 
REMARK   13  A    between atoms: C24_36  and  O9_37 
REMARK   14  A    between atoms: C25_39  and  O10_40 
REMARK   15  A    between atoms: C26_42  and  O11_43 
ROOT
HETATM    1  C3  UNL     1      -5.788  26.848  31.445  1.00  0.00     0.184 C 
HETATM    2  C4  UNL     1      -5.531  28.232  31.950  1.00  0.00     0.004 C 
HETATM    3  C5  UNL     1      -4.596  28.373  32.887  1.00  0.00    -0.020 C 
HETATM    4  C6  UNL     1      -3.815  27.265  33.444  1.00  0.00     0.052 C 
HETATM    5  C8  UNL     1      -3.913  25.970  32.643  1.00  0.00     0.134 C 
HETATM    6  C9  UNL     1      -2.653  25.301  32.812  1.00  0.00     0.067 C 
HETATM    7  N1  UNL     1      -1.643  24.780  32.975  1.00  0.00    -0.197 NA
HETATM    8  C10 UNL     1      -4.387  26.219  31.263  1.00  0.00     0.173 C 
ENDROOT
BRANCH   4   9
HETATM    9  C7  UNL     1      -4.230  27.019  34.868  1.00  0.00     0.174 C 
BRANCH   9  10
HETATM   10  O3  UNL     1      -5.216  26.051  34.982  1.00  0.00    -0.400 OA
ATOM     11  H3  UNL     1      -5.005  25.383  35.624  1.00  0.00     0.209 HD
ENDBRANCH   9  10
ENDBRANCH   4   9
BRANCH   8  12
HETATM   12  O4  UNL     1      -4.473  25.100  30.479  1.00  0.00    -0.373 OA
BRANCH  12  13
HETATM   13  C11 UNL     1      -4.613  25.299  29.135  1.00  0.00     0.161 C 
HETATM   14  C12 UNL     1      -3.740  26.220  28.412  1.00  0.00     0.040 C 
HETATM   15  C17 UNL     1      -2.626  25.466  27.639  1.00  0.00     0.013 C 
HETATM   16  C18 UNL     1      -3.294  24.710  26.514  1.00  0.00     0.035 C 
HETATM   17  C19 UNL     1      -4.444  23.898  27.030  1.00  0.00     0.156 C 
HETATM   18  C26 UNL     1      -4.485  23.850  28.539  1.00  0.00     0.176 C 
BRANCH  14  19
HETATM   19  C13 UNL     1      -3.042  27.283  29.131  1.00  0.00    -0.018 C 
HETATM   20  C14 UNL     1      -2.442  28.313  28.512  1.00  0.00    -0.091 C 
HETATM   21  C15 UNL     1      -2.479  28.398  27.005  1.00  0.00     0.042 C 
HETATM   22  C16 UNL     1      -1.734  29.372  29.265  1.00  0.00     0.042 C 
ENDBRANCH  14  19
BRANCH  17  23
HETATM   23  O5  UNL     1      -4.494  22.607  26.573  1.00  0.00    -0.351 OA
BRANCH  23  24
HETATM   24  C20 UNL     1      -3.438  22.126  25.855  1.00  0.00     0.292 C 
HETATM   25  O6  UNL     1      -3.099  20.887  26.439  1.00  0.00    -0.348 OA
HETATM   26  C21 UNL     1      -2.018  20.302  25.821  1.00  0.00     0.179 C 
HETATM   27  C23 UNL     1      -2.291  19.952  24.375  1.00  0.00     0.180 C 
HETATM   28  C24 UNL     1      -2.903  21.106  23.618  1.00  0.00     0.183 C 
HETATM   29  C25 UNL     1      -3.941  21.784  24.462  1.00  0.00     0.204 C 
BRANCH  26  30
HETATM   30  C22 UNL     1      -1.739  18.992  26.530  1.00  0.00     0.198 C 
BRANCH  30  31
HETATM   31  O7  UNL     1      -1.425  19.161  27.872  1.00  0.00    -0.398 OA
ATOM     32  H7  UNL     1      -0.803  18.517  28.190  1.00  0.00     0.209 HD
ENDBRANCH  30  31
ENDBRANCH  26  30
BRANCH  27  33
HETATM   33  O8  UNL     1      -1.065  19.684  23.770  1.00  0.00    -0.390 OA
ATOM     34  H8  UNL     1      -1.228  19.548  22.844  1.00  0.00     0.210 HD
ENDBRANCH  27  33
BRANCH  28  35
HETATM   35  O9  UNL     1      -3.538  20.574  22.501  1.00  0.00    -0.390 OA
ATOM     36  H9  UNL     1      -3.270  19.666  22.432  1.00  0.00     0.210 HD
ENDBRANCH  28  35
BRANCH  29  37
HETATM   37  O10 UNL     1      -5.000  20.892  24.637  1.00  0.00    -0.388 OA
ATOM     38  H10 UNL     1      -5.392  20.775  23.780  1.00  0.00     0.210 HD
ENDBRANCH  29  37
ENDBRANCH  23  24
ENDBRANCH  17  23
BRANCH  18  39
HETATM   39  O11 UNL     1      -3.439  23.170  29.103  1.00  0.00    -0.390 OA
ATOM     40  H11 UNL     1      -3.076  22.532  28.499  1.00  0.00     0.210 HD
ENDBRANCH  18  39
ENDBRANCH  12  13
ENDBRANCH   8  12
BRANCH   1  41
HETATM   41  O2  UNL     1      -6.462  26.123  32.428  1.00  0.00    -0.310 OA
BRANCH  41  42
HETATM   42  C2  UNL     1      -7.702  26.566  32.895  1.00  0.00     0.255 C 
HETATM   43  C1  UNL     1      -8.811  26.979  32.003  1.00  0.00     0.126 C 
HETATM   44  O1  UNL     1      -7.851  26.605  34.158  1.00  0.00    -0.266 OA
ENDBRANCH  41  42
ENDBRANCH   1  41
TORSDOF 15
ENDMDL
MODEL 5
REMARK VINA RESULT: -8.969621381      2.844      8.504
REMARK  15 active torsions:
REMARK  status: ('A' for Active; 'I' for Inactive)
REMARK    1  A    between atoms: C2_2  and  O2_4 
REMARK    2  A    between atoms: O2_4  and  C3_5 
REMARK    3  A    between atoms: C6_8  and  C7_9 
REMARK    4  A    between atoms: C7_9  and  O3_10 
REMARK    5  A    between atoms: C10_15  and  O4_16 
REMARK    6  A    between atoms: O4_16  and  C11_17 
REMARK    7  A    between atoms: C12_18  and  C13_19 
REMARK    8  A    between atoms: C19_25  and  O5_26 
REMARK    9  A    between atoms: O5_26  and  C20_27 
REMARK   10  A    between atoms: C21_29  and  C22_30 
REMARK   11  A    between atoms: C22_30  and  O7_31 
REMARK   12  A    between atoms: C23_33  and  O8_34 
REMARK   13  A    between atoms: C24_36  and  O9_37 
REMARK   14  A    between atoms: C25_39  and  O10_40 
REMARK   15  A    between atoms: C26_42  and  O11_43 
ROOT
HETATM    1  C3  UNL     1      -4.615  24.285  31.779  1.00  0.00     0.184 C 
HETATM    2  C4  UNL     1      -5.598  24.683  32.833  1.00  0.00     0.004 C 
HETATM    3  C5  UNL     1      -5.362  25.818  33.487  1.00  0.00    -0.020 C 
HETATM    4  C6  UNL     1      -4.210  26.688  33.236  1.00  0.00     0.052 C 
HETATM    5  C8  UNL     1      -3.463  26.376  31.943  1.00  0.00     0.134 C 
HETATM    6  C9  UNL     1      -2.930  27.627  31.480  1.00  0.00     0.067 C 
HETATM    7  N1  UNL     1      -2.502  28.635  31.138  1.00  0.00    -0.197 NA
HETATM    8  C10 UNL     1      -4.300  25.589  31.009  1.00  0.00     0.173 C 
ENDROOT
BRANCH   4   9
HETATM    9  C7  UNL     1      -3.264  26.623  34.402  1.00  0.00     0.174 C 
BRANCH   9  10
HETATM   10  O3  UNL     1      -2.365  25.572  34.308  1.00  0.00    -0.400 OA
ATOM     11  H3  UNL     1      -2.735  24.805  33.887  1.00  0.00     0.209 HD
ENDBRANCH   9  10
ENDBRANCH   4   9
BRANCH   8  12
HETATM   12  O4  UNL     1      -3.700  25.296  29.815  1.00  0.00    -0.373 OA
BRANCH  12  13
HETATM   13  C11 UNL     1      -4.520  25.146  28.733  1.00  0.00     0.161 C 
HETATM   14  C12 UNL     1      -4.477  26.086  27.616  1.00  0.00     0.040 C 
HETATM   15  C17 UNL     1      -3.681  25.512  26.414  1.00  0.00     0.013 C 
HETATM   16  C18 UNL     1      -4.492  24.373  25.842  1.00  0.00     0.035 C 
HETATM   17  C19 UNL     1      -4.894  23.413  26.922  1.00  0.00     0.156 C 
HETATM   18  C26 UNL     1      -4.195  23.692  28.230  1.00  0.00     0.176 C 
BRANCH  14  19
HETATM   19  C13 UNL     1      -3.942  27.430  27.811  1.00  0.00    -0.018 C 
HETATM   20  C14 UNL     1      -2.690  27.777  27.470  1.00  0.00    -0.091 C 
HETATM   21  C15 UNL     1      -1.776  26.746  26.853  1.00  0.00     0.042 C 
HETATM   22  C16 UNL     1      -2.170  29.145  27.687  1.00  0.00     0.042 C 
ENDBRANCH  14  19
BRANCH  17  23
HETATM   23  O5  UNL     1      -4.701  22.090  26.623  1.00  0.00    -0.351 OA
BRANCH  23  24
HETATM   24  C20 UNL     1      -3.612  21.739  25.881  1.00  0.00     0.292 C 
HETATM   25  O6  UNL     1      -3.172  20.499  26.392  1.00  0.00    -0.348 OA
HETATM   26  C21 UNL     1      -2.048  20.041  25.745  1.00  0.00     0.179 C 
HETATM   27  C23 UNL     1      -2.295  19.754  24.280  1.00  0.00     0.180 C 
HETATM   28  C24 UNL     1      -3.000  20.897  23.589  1.00  0.00     0.183 C 
HETATM   29  C25 UNL     1      -4.088  21.438  24.468  1.00  0.00     0.204 C 
BRANCH  26  30
HETATM   30  C22 UNL     1      -1.662  18.719  26.378  1.00  0.00     0.198 C 
BRANCH  30  31
HETATM   31  O7  UNL     1      -1.313  18.843  27.715  1.00  0.00    -0.398 OA
ATOM     32  H7  UNL     1      -0.900  18.062  28.063  1.00  0.00     0.209 HD
ENDBRANCH  30  31
ENDBRANCH  26  30
BRANCH  27  33
HETATM   33  O8  UNL     1      -1.053  19.622  23.664  1.00  0.00    -0.390 OA
ATOM     34  H8  UNL     1      -1.145  18.979  22.971  1.00  0.00     0.210 HD
ENDBRANCH  27  33
BRANCH  28  35
HETATM   35  O9  UNL     1      -3.593  20.381  22.442  1.00  0.00    -0.390 OA
ATOM     36  H9  UNL     1      -3.899  21.118  21.928  1.00  0.00     0.210 HD
ENDBRANCH  28  35
BRANCH  29  37
HETATM   37  O10 UNL     1      -5.071  20.455  24.589  1.00  0.00    -0.388 OA
ATOM     38  H10 UNL     1      -5.060  19.968  23.773  1.00  0.00     0.210 HD
ENDBRANCH  29  37
ENDBRANCH  23  24
ENDBRANCH  17  23
BRANCH  18  39
HETATM   39  O11 UNL     1      -2.845  23.466  28.200  1.00  0.00    -0.390 OA
ATOM     40  H11 UNL     1      -2.548  23.267  27.319  1.00  0.00     0.210 HD
ENDBRANCH  18  39
ENDBRANCH  12  13
ENDBRANCH   8  12
BRANCH   1  41
HETATM   41  O2  UNL     1      -3.439  23.853  32.394  1.00  0.00    -0.310 OA
BRANCH  41  42
HETATM   42  C2  UNL     1      -2.902  22.604  32.072  1.00  0.00     0.255 C 
HETATM   43  C1  UNL     1      -1.779  21.982  32.812  1.00  0.00     0.126 C 
HETATM   44  O1  UNL     1      -3.429  21.998  31.085  1.00  0.00    -0.266 OA
ENDBRANCH  41  42
ENDBRANCH   1  41
TORSDOF 15
ENDMDL
