MODEL 1
REMARK VINA RESULT: -9.351245705      0.000      0.000
REMARK  15 active torsions:
REMARK  status: ('A' for Active; 'I' for Inactive)
REMARK    1  A    between atoms: C3_3  and  C4_4 
REMARK    2  A    between atoms: C4_4  and  O2_6 
REMARK    3  A    between atoms: O2_6  and  C5_7 
REMARK    4  A    between atoms: C7_10  and  C8_11 
REMARK    5  A    between atoms: C10_15  and  O6_16 
REMARK    6  A    between atoms: C11_18  and  O7_19 
REMARK    7  A    between atoms: O7_19  and  C12_20 
REMARK    8  A    between atoms: C12_20  and  C13_22 
REMARK    9  A    between atoms: C15_24  and  O9_25 
REMARK   10  A    between atoms: C16_27  and  O10_28 
REMARK   11  A    between atoms: C17_30  and  O11_31 
REMARK   12  A    between atoms: C19_33  and  C20_34 
REMARK   13  A    between atoms: C20_34  and  O12_36 
REMARK   14  A    between atoms: C22_38  and  O13_39 
REMARK   15  A    between atoms: C23_41  and  O14_42 
ROOT
HETATM    1  C5  UNL     1      -2.792  19.970  25.516  1.00  0.00     0.178 C 
HETATM    2  C6  UNL     1      -3.125  20.572  26.626  1.00  0.00     0.077 C 
HETATM    3  O3  UNL     1      -2.920  20.095  27.899  1.00  0.00    -0.337 OA
HETATM    4  C7  UNL     1      -3.746  20.821  28.852  1.00  0.00     0.236 C 
HETATM    5  C9  UNL     1      -4.562  21.684  28.016  1.00  0.00     0.070 C 
HETATM    6  C10 UNL     1      -5.138  22.951  28.552  1.00  0.00     0.158 C 
HETATM    7  C11 UNL     1      -4.240  24.127  28.572  1.00  0.00     0.192 C 
HETATM    8  C22 UNL     1      -3.391  24.267  27.336  1.00  0.00     0.179 C 
HETATM    9  C23 UNL     1      -2.801  23.020  26.807  1.00  0.00     0.160 C 
HETATM   10  C24 UNL     1      -3.788  21.887  26.735  1.00  0.00     0.085 C 
ENDROOT
BRANCH   7  11
HETATM   11  O7  UNL     1      -5.044  25.321  28.565  1.00  0.00    -0.307 OA
BRANCH  11  12
HETATM   12  C12 UNL     1      -5.066  26.213  29.632  1.00  0.00     0.295 C 
HETATM   13  O8  UNL     1      -6.015  26.109  30.427  1.00  0.00    -0.259 OA
BRANCH  12  14
HETATM   14  C13 UNL     1      -4.023  27.205  29.810  1.00  0.00     0.057 A 
HETATM   15  C14 UNL     1      -3.381  27.623  28.616  1.00  0.00     0.058 A 
HETATM   16  C15 UNL     1      -2.319  28.482  28.656  1.00  0.00     0.102 A 
HETATM   17  C16 UNL     1      -1.856  28.959  29.850  1.00  0.00     0.133 A 
HETATM   18  C17 UNL     1      -2.479  28.563  31.012  1.00  0.00     0.117 A 
HETATM   19  C19 UNL     1      -3.563  27.685  31.020  1.00  0.00     0.045 A 
BRANCH  16  20
HETATM   20  O9  UNL     1      -1.686  28.894  27.493  1.00  0.00    -0.358 OA
ATOM     21  H9  UNL     1      -0.987  28.379  27.106  1.00  0.00     0.217 HD
ENDBRANCH  16  20
BRANCH  17  22
HETATM   22  O10 UNL     1      -0.785  29.824  29.895  1.00  0.00    -0.356 OA
ATOM     23  H10 UNL     1       0.073  29.551  29.591  1.00  0.00     0.218 HD
ENDBRANCH  17  22
BRANCH  18  24
HETATM   24  O11 UNL     1      -1.947  29.109  32.188  1.00  0.00    -0.352 OA
HETATM   25  C18 UNL     1      -0.834  28.484  32.825  1.00  0.00     0.210 C 
ENDBRANCH  18  24
BRANCH  19  26
HETATM   26  C20 UNL     1      -4.264  27.338  32.254  1.00  0.00     0.053 C 
HETATM   27  C21 UNL     1      -5.143  28.378  32.876  1.00  0.00     0.077 C 
BRANCH  26  28
HETATM   28  O12 UNL     1      -3.573  26.599  33.190  1.00  0.00    -0.364 OA
ATOM     29  H12 UNL     1      -3.752  26.777  34.106  1.00  0.00     0.217 HD
ENDBRANCH  26  28
ENDBRANCH  19  26
ENDBRANCH  12  14
ENDBRANCH  11  12
ENDBRANCH   7  11
BRANCH   6  30
HETATM   30  O6  UNL     1      -5.781  22.731  29.733  1.00  0.00    -0.392 OA
ATOM     31  H6  UNL     1      -6.300  21.936  29.694  1.00  0.00     0.210 HD
ENDBRANCH   6  30
BRANCH   8  32
HETATM   32  O13 UNL     1      -4.155  24.948  26.353  1.00  0.00    -0.390 OA
ATOM     33  H13 UNL     1      -3.552  25.368  25.751  1.00  0.00     0.210 HD
ENDBRANCH   8  32
BRANCH   9  34
HETATM   34  O14 UNL     1      -2.421  23.267  25.466  1.00  0.00    -0.392 OA
ATOM     35  H14 UNL     1      -1.734  22.649  25.247  1.00  0.00     0.210 HD
ENDBRANCH   9  34
BRANCH   4  36
HETATM   36  C8  UNL     1      -2.922  21.360  29.916  1.00  0.00     0.204 C 
HETATM   37  O4  UNL     1      -1.687  21.442  29.830  1.00  0.00    -0.646 OA
HETATM   38  O5  UNL     1      -3.496  21.808  31.089  1.00  0.00    -0.646 OA
ENDBRANCH   4  36
BRANCH   1  39
HETATM   39  O2  UNL     1      -2.165  18.729  25.435  1.00  0.00    -0.285 OA
BRANCH  39  40
HETATM   40  C4  UNL     1      -0.809  18.663  25.259  1.00  0.00     0.287 C 
HETATM   41  O1  UNL     1      -0.250  19.712  24.803  1.00  0.00    -0.260 OA
BRANCH  40  42
HETATM   42  C3  UNL     1      -0.030  17.497  25.559  1.00  0.00     0.078 C 
HETATM   43  C2  UNL     1      -0.014  16.928  26.723  1.00  0.00    -0.025 C 
HETATM   44  C1  UNL     1      -0.781  17.392  27.885  1.00  0.00     0.036 C 
ENDBRANCH  40  42
ENDBRANCH  39  40
ENDBRANCH   1  39
TORSDOF 15
ENDMDL
MODEL 2
REMARK VINA RESULT: -9.293692126      1.450      2.996
REMARK  15 active torsions:
REMARK  status: ('A' for Active; 'I' for Inactive)
REMARK    1  A    between atoms: C3_3  and  C4_4 
REMARK    2  A    between atoms: C4_4  and  O2_6 
REMARK    3  A    between atoms: O2_6  and  C5_7 
REMARK    4  A    between atoms: C7_10  and  C8_11 
REMARK    5  A    between atoms: C10_15  and  O6_16 
REMARK    6  A    between atoms: C11_18  and  O7_19 
REMARK    7  A    between atoms: O7_19  and  C12_20 
REMARK    8  A    between atoms: C12_20  and  C13_22 
REMARK    9  A    between atoms: C15_24  and  O9_25 
REMARK   10  A    between atoms: C16_27  and  O10_28 
REMARK   11  A    between atoms: C17_30  and  O11_31 
REMARK   12  A    between atoms: C19_33  and  C20_34 
REMARK   13  A    between atoms: C20_34  and  O12_36 
REMARK   14  A    between atoms: C22_38  and  O13_39 
REMARK   15  A    between atoms: C23_41  and  O14_42 
ROOT
HETATM    1  C5  UNL     1      -2.297  19.430  28.241  1.00  0.00     0.178 C 
HETATM    2  C6  UNL     1      -2.630  20.572  27.704  1.00  0.00     0.077 C 
HETATM    3  O3  UNL     1      -2.479  20.920  26.383  1.00  0.00    -0.337 OA
HETATM    4  C7  UNL     1      -2.588  22.362  26.222  1.00  0.00     0.236 C 
HETATM    5  C9  UNL     1      -2.682  22.856  27.585  1.00  0.00     0.070 C 
HETATM    6  C10 UNL     1      -3.335  24.162  27.884  1.00  0.00     0.158 C 
HETATM    7  C11 UNL     1      -4.812  24.154  27.981  1.00  0.00     0.192 C 
HETATM    8  C22 UNL     1      -5.369  22.961  28.713  1.00  0.00     0.179 C 
HETATM    9  C23 UNL     1      -4.739  21.659  28.410  1.00  0.00     0.160 C 
HETATM   10  C24 UNL     1      -3.236  21.719  28.410  1.00  0.00     0.085 C 
ENDROOT
BRANCH   7  11
HETATM   11  O7  UNL     1      -5.228  25.270  28.790  1.00  0.00    -0.307 OA
BRANCH  11  12
HETATM   12  C12 UNL     1      -4.750  26.559  28.587  1.00  0.00     0.295 C 
HETATM   13  O8  UNL     1      -4.988  27.077  27.483  1.00  0.00    -0.259 OA
BRANCH  12  14
HETATM   14  C13 UNL     1      -4.020  27.266  29.622  1.00  0.00     0.057 A 
HETATM   15  C14 UNL     1      -2.995  28.126  29.151  1.00  0.00     0.058 A 
HETATM   16  C15 UNL     1      -2.171  28.778  30.026  1.00  0.00     0.102 A 
HETATM   17  C16 UNL     1      -2.321  28.615  31.375  1.00  0.00     0.133 A 
HETATM   18  C17 UNL     1      -3.318  27.787  31.838  1.00  0.00     0.117 A 
HETATM   19  C19 UNL     1      -4.179  27.099  30.982  1.00  0.00     0.045 A 
BRANCH  16  20
HETATM   20  O9  UNL     1      -1.165  29.619  29.573  1.00  0.00    -0.358 OA
ATOM     21  H9  UNL     1      -0.541  30.007  30.175  1.00  0.00     0.217 HD
ENDBRANCH  16  20
BRANCH  17  22
HETATM   22  O10 UNL     1      -1.493  29.268  32.259  1.00  0.00    -0.356 OA
ATOM     23  H10 UNL     1      -1.407  28.969  33.157  1.00  0.00     0.218 HD
ENDBRANCH  17  22
BRANCH  18  24
HETATM   24  O11 UNL     1      -3.409  27.688  33.233  1.00  0.00    -0.352 OA
HETATM   25  C18 UNL     1      -4.170  28.645  33.967  1.00  0.00     0.210 C 
ENDBRANCH  18  24
BRANCH  19  26
HETATM   26  C20 UNL     1      -5.284  26.288  31.490  1.00  0.00     0.053 C 
HETATM   27  C21 UNL     1      -6.586  26.973  31.769  1.00  0.00     0.077 C 
BRANCH  26  28
HETATM   28  O12 UNL     1      -4.984  25.321  32.425  1.00  0.00    -0.364 OA
ATOM     29  H12 UNL     1      -5.058  25.561  33.341  1.00  0.00     0.217 HD
ENDBRANCH  26  28
ENDBRANCH  19  26
ENDBRANCH  12  14
ENDBRANCH  11  12
ENDBRANCH   7  11
BRANCH   6  30
HETATM   30  O6  UNL     1      -2.843  25.148  27.084  1.00  0.00    -0.392 OA
ATOM     31  H6  UNL     1      -3.131  26.003  27.381  1.00  0.00     0.210 HD
ENDBRANCH   6  30
BRANCH   8  32
HETATM   32  O13 UNL     1      -5.345  23.248  30.102  1.00  0.00    -0.390 OA
ATOM     33  H13 UNL     1      -6.238  23.409  30.385  1.00  0.00     0.210 HD
ENDBRANCH   8  32
BRANCH   9  34
HETATM   34  O14 UNL     1      -5.076  20.772  29.460  1.00  0.00    -0.392 OA
ATOM     35  H14 UNL     1      -5.648  20.107  29.097  1.00  0.00     0.210 HD
ENDBRANCH   9  34
BRANCH   4  36
HETATM   36  C8  UNL     1      -3.598  22.679  25.233  1.00  0.00     0.204 C 
HETATM   37  O4  UNL     1      -4.555  21.928  24.988  1.00  0.00    -0.646 OA
HETATM   38  O5  UNL     1      -3.528  23.854  24.511  1.00  0.00    -0.646 OA
ENDBRANCH   4  36
BRANCH   1  39
HETATM   39  O2  UNL     1      -1.727  18.359  27.557  1.00  0.00    -0.285 OA
BRANCH  39  40
HETATM   40  C4  UNL     1      -0.938  17.465  28.231  1.00  0.00     0.287 C 
HETATM   41  O1  UNL     1      -0.866  17.619  29.493  1.00  0.00    -0.260 OA
BRANCH  40  42
HETATM   42  C3  UNL     1      -0.216  16.407  27.585  1.00  0.00     0.078 C 
HETATM   43  C2  UNL     1       0.249  16.490  26.379  1.00  0.00    -0.025 C 
HETATM   44  C1  UNL     1       0.106  17.666  25.514  1.00  0.00     0.036 C 
ENDBRANCH  40  42
ENDBRANCH  39  40
ENDBRANCH   1  39
TORSDOF 15
ENDMDL
MODEL 3
REMARK VINA RESULT: -9.268434783      3.066      4.709
REMARK  15 active torsions:
REMARK  status: ('A' for Active; 'I' for Inactive)
REMARK    1  A    between atoms: C3_3  and  C4_4 
REMARK    2  A    between atoms: C4_4  and  O2_6 
REMARK    3  A    between atoms: O2_6  and  C5_7 
REMARK    4  A    between atoms: C7_10  and  C8_11 
REMARK    5  A    between atoms: C10_15  and  O6_16 
REMARK    6  A    between atoms: C11_18  and  O7_19 
REMARK    7  A    between atoms: O7_19  and  C12_20 
REMARK    8  A    between atoms: C12_20  and  C13_22 
REMARK    9  A    between atoms: C15_24  and  O9_25 
REMARK   10  A    between atoms: C16_27  and  O10_28 
REMARK   11  A    between atoms: C17_30  and  O11_31 
REMARK   12  A    between atoms: C19_33  and  C20_34 
REMARK   13  A    between atoms: C20_34  and  O12_36 
REMARK   14  A    between atoms: C22_38  and  O13_39 
REMARK   15  A    between atoms: C23_41  and  O14_42 
ROOT
HETATM    1  C5  UNL     1      -0.615  17.271  26.165  1.00  0.00     0.178 C 
HETATM    2  C6  UNL     1      -1.236  18.369  26.500  1.00  0.00     0.077 C 
HETATM    3  O3  UNL     1      -1.222  18.961  27.741  1.00  0.00    -0.337 OA
HETATM    4  C7  UNL     1      -2.307  19.924  27.858  1.00  0.00     0.236 C 
HETATM    5  C9  UNL     1      -3.052  19.756  26.623  1.00  0.00     0.070 C 
HETATM    6  C10 UNL     1      -3.885  20.863  26.073  1.00  0.00     0.158 C 
HETATM    7  C11 UNL     1      -3.174  21.896  25.288  1.00  0.00     0.192 C 
HETATM    8  C22 UNL     1      -2.127  21.343  24.358  1.00  0.00     0.179 C 
HETATM    9  C23 UNL     1      -1.284  20.257  24.899  1.00  0.00     0.160 C 
HETATM   10  C24 UNL     1      -2.078  19.197  25.613  1.00  0.00     0.085 C 
ENDROOT
BRANCH   7  11
HETATM   11  O7  UNL     1      -4.114  22.529  24.399  1.00  0.00    -0.307 OA
BRANCH  11  12
HETATM   12  C12 UNL     1      -4.397  23.888  24.455  1.00  0.00     0.295 C 
HETATM   13  O8  UNL     1      -5.597  24.208  24.498  1.00  0.00    -0.259 OA
BRANCH  12  14
HETATM   14  C13 UNL     1      -3.340  24.881  24.477  1.00  0.00     0.057 A 
HETATM   15  C14 UNL     1      -2.685  25.087  23.236  1.00  0.00     0.058 A 
HETATM   16  C15 UNL     1      -1.610  25.926  23.143  1.00  0.00     0.102 A 
HETATM   17  C16 UNL     1      -1.146  26.587  24.245  1.00  0.00     0.133 A 
HETATM   18  C17 UNL     1      -1.781  26.396  25.452  1.00  0.00     0.117 A 
HETATM   19  C19 UNL     1      -2.879  25.547  25.595  1.00  0.00     0.045 A 
BRANCH  16  20
HETATM   20  O9  UNL     1      -0.963  26.132  21.932  1.00  0.00    -0.358 OA
ATOM     21  H9  UNL     1      -0.145  26.612  21.888  1.00  0.00     0.217 HD
ENDBRANCH  16  20
BRANCH  17  22
HETATM   22  O10 UNL     1      -0.062  27.432  24.156  1.00  0.00    -0.356 OA
ATOM     23  H10 UNL     1      -0.174  28.373  24.219  1.00  0.00     0.218 HD
ENDBRANCH  17  22
BRANCH  18  24
HETATM   24  O11 UNL     1      -1.248  27.121  26.526  1.00  0.00    -0.352 OA
HETATM   25  C18 UNL     1      -1.779  28.404  26.854  1.00  0.00     0.210 C 
ENDBRANCH  18  24
BRANCH  19  26
HETATM   26  C20 UNL     1      -3.592  25.418  26.863  1.00  0.00     0.053 C 
HETATM   27  C21 UNL     1      -4.593  26.475  27.215  1.00  0.00     0.077 C 
BRANCH  26  28
HETATM   28  O12 UNL     1      -2.871  24.987  27.956  1.00  0.00    -0.364 OA
ATOM     29  H12 UNL     1      -3.360  24.644  28.694  1.00  0.00     0.217 HD
ENDBRANCH  26  28
ENDBRANCH  19  26
ENDBRANCH  12  14
ENDBRANCH  11  12
ENDBRANCH   7  11
BRANCH   6  30
HETATM   30  O6  UNL     1      -4.712  21.371  27.029  1.00  0.00    -0.392 OA
ATOM     31  H6  UNL     1      -5.195  22.119  26.698  1.00  0.00     0.210 HD
ENDBRANCH   6  30
BRANCH   8  32
HETATM   32  O13 UNL     1      -2.768  20.961  23.151  1.00  0.00    -0.390 OA
ATOM     33  H13 UNL     1      -2.313  21.380  22.430  1.00  0.00     0.210 HD
ENDBRANCH   8  32
BRANCH   9  34
HETATM   34  O14 UNL     1      -0.687  19.596  23.799  1.00  0.00    -0.392 OA
ATOM     35  H14 UNL     1       0.192  19.349  24.060  1.00  0.00     0.210 HD
ENDBRANCH   9  34
BRANCH   4  36
HETATM   36  C8  UNL     1      -1.786  21.216  28.256  1.00  0.00     0.204 C 
HETATM   37  O4  UNL     1      -0.655  21.611  27.931  1.00  0.00    -0.646 OA
HETATM   38  O5  UNL     1      -2.546  22.071  29.028  1.00  0.00    -0.646 OA
ENDBRANCH   4  36
BRANCH   1  39
HETATM   39  O2  UNL     1       0.175  16.505  27.018  1.00  0.00    -0.285 OA
BRANCH  39  40
HETATM   40  C4  UNL     1      -0.374  15.959  28.147  1.00  0.00     0.287 C 
HETATM   41  O1  UNL     1      -1.609  15.654  28.080  1.00  0.00    -0.260 OA
BRANCH  40  42
HETATM   42  C3  UNL     1       0.366  15.732  29.354  1.00  0.00     0.078 C 
HETATM   43  C2  UNL     1       0.197  16.423  30.437  1.00  0.00    -0.025 C 
HETATM   44  C1  UNL     1      -0.764  17.523  30.579  1.00  0.00     0.036 C 
ENDBRANCH  40  42
ENDBRANCH  39  40
ENDBRANCH   1  39
TORSDOF 15
ENDMDL
MODEL 4
REMARK VINA RESULT: -9.222406468      1.572      2.931
REMARK  15 active torsions:
REMARK  status: ('A' for Active; 'I' for Inactive)
REMARK    1  A    between atoms: C3_3  and  C4_4 
REMARK    2  A    between atoms: C4_4  and  O2_6 
REMARK    3  A    between atoms: O2_6  and  C5_7 
REMARK    4  A    between atoms: C7_10  and  C8_11 
REMARK    5  A    between atoms: C10_15  and  O6_16 
REMARK    6  A    between atoms: C11_18  and  O7_19 
REMARK    7  A    between atoms: O7_19  and  C12_20 
REMARK    8  A    between atoms: C12_20  and  C13_22 
REMARK    9  A    between atoms: C15_24  and  O9_25 
REMARK   10  A    between atoms: C16_27  and  O10_28 
REMARK   11  A    between atoms: C17_30  and  O11_31 
REMARK   12  A    between atoms: C19_33  and  C20_34 
REMARK   13  A    between atoms: C20_34  and  O12_36 
REMARK   14  A    between atoms: C22_38  and  O13_39 
REMARK   15  A    between atoms: C23_41  and  O14_42 
ROOT
HETATM    1  C5  UNL     1      -1.783  19.249  27.873  1.00  0.00     0.178 C 
HETATM    2  C6  UNL     1      -2.289  20.371  27.439  1.00  0.00     0.077 C 
HETATM    3  O3  UNL     1      -2.407  20.750  26.123  1.00  0.00    -0.337 OA
HETATM    4  C7  UNL     1      -2.646  22.183  26.027  1.00  0.00     0.236 C 
HETATM    5  C9  UNL     1      -2.524  22.646  27.398  1.00  0.00     0.070 C 
HETATM    6  C10 UNL     1      -3.204  23.895  27.849  1.00  0.00     0.158 C 
HETATM    7  C11 UNL     1      -4.634  23.773  28.210  1.00  0.00     0.192 C 
HETATM    8  C22 UNL     1      -4.961  22.531  28.996  1.00  0.00     0.179 C 
HETATM    9  C23 UNL     1      -4.306  21.285  28.546  1.00  0.00     0.160 C 
HETATM   10  C24 UNL     1      -2.837  21.458  28.276  1.00  0.00     0.085 C 
ENDROOT
BRANCH   7  11
HETATM   11  O7  UNL     1      -4.974  24.841  29.114  1.00  0.00    -0.307 OA
BRANCH  11  12
HETATM   12  C12 UNL     1      -4.678  26.172  28.843  1.00  0.00     0.295 C 
HETATM   13  O8  UNL     1      -5.193  26.664  27.824  1.00  0.00    -0.259 OA
BRANCH  12  14
HETATM   14  C13 UNL     1      -3.818  26.948  29.715  1.00  0.00     0.057 A 
HETATM   15  C14 UNL     1      -3.029  27.929  29.062  1.00  0.00     0.058 A 
HETATM   16  C15 UNL     1      -2.108  28.663  29.757  1.00  0.00     0.102 A 
HETATM   17  C16 UNL     1      -1.933  28.468  31.098  1.00  0.00     0.133 A 
HETATM   18  C17 UNL     1      -2.700  27.522  31.739  1.00  0.00     0.117 A 
HETATM   19  C19 UNL     1      -3.648  26.747  31.070  1.00  0.00     0.045 A 
BRANCH  16  20
HETATM   20  O9  UNL     1      -1.332  29.623  29.124  1.00  0.00    -0.358 OA
ATOM     21  H9  UNL     1      -1.486  30.550  29.265  1.00  0.00     0.217 HD
ENDBRANCH  16  20
BRANCH  17  22
HETATM   22  O10 UNL     1      -1.005  29.205  31.801  1.00  0.00    -0.356 OA
ATOM     23  H10 UNL     1      -1.254  29.675  32.588  1.00  0.00     0.218 HD
ENDBRANCH  17  22
BRANCH  18  24
HETATM   24  O11 UNL     1      -2.463  27.397  33.115  1.00  0.00    -0.352 OA
HETATM   25  C18 UNL     1      -3.149  28.243  34.036  1.00  0.00     0.210 C 
ENDBRANCH  18  24
BRANCH  19  26
HETATM   26  C20 UNL     1      -4.512  25.806  31.779  1.00  0.00     0.053 C 
HETATM   27  C21 UNL     1      -5.781  26.331  32.375  1.00  0.00     0.077 C 
BRANCH  26  28
HETATM   28  O12 UNL     1      -3.902  24.864  32.579  1.00  0.00    -0.364 OA
ATOM     29  H12 UNL     1      -4.463  24.255  33.044  1.00  0.00     0.217 HD
ENDBRANCH  26  28
ENDBRANCH  19  26
ENDBRANCH  12  14
ENDBRANCH  11  12
ENDBRANCH   7  11
BRANCH   6  30
HETATM   30  O6  UNL     1      -2.937  24.927  27.002  1.00  0.00    -0.392 OA
ATOM     31  H6  UNL     1      -3.412  25.709  27.259  1.00  0.00     0.210 HD
ENDBRANCH   6  30
BRANCH   8  32
HETATM   32  O13 UNL     1      -4.705  22.796  30.366  1.00  0.00    -0.390 OA
ATOM     33  H13 UNL     1      -5.446  22.481  30.870  1.00  0.00     0.210 HD
ENDBRANCH   8  32
BRANCH   9  34
HETATM   34  O14 UNL     1      -4.382  20.358  29.613  1.00  0.00    -0.392 OA
ATOM     35  H14 UNL     1      -4.009  19.540  29.305  1.00  0.00     0.210 HD
ENDBRANCH   9  34
BRANCH   4  36
HETATM   36  C8  UNL     1      -3.839  22.438  25.246  1.00  0.00     0.204 C 
HETATM   37  O4  UNL     1      -4.729  21.588  25.085  1.00  0.00    -0.646 OA
HETATM   38  O5  UNL     1      -4.031  23.664  24.640  1.00  0.00    -0.646 OA
ENDBRANCH   4  36
BRANCH   1  39
HETATM   39  O2  UNL     1      -1.272  18.235  27.067  1.00  0.00    -0.285 OA
BRANCH  39  40
HETATM   40  C4  UNL     1      -0.889  17.047  27.629  1.00  0.00     0.287 C 
HETATM   41  O1  UNL     1      -1.826  16.304  28.066  1.00  0.00    -0.260 OA
BRANCH  40  42
HETATM   42  C3  UNL     1       0.479  16.631  27.740  1.00  0.00     0.078 C 
HETATM   43  C2  UNL     1       1.102  16.515  28.870  1.00  0.00    -0.025 C 
HETATM   44  C1  UNL     1       0.502  16.789  30.180  1.00  0.00     0.036 C 
ENDBRANCH  40  42
ENDBRANCH  39  40
ENDBRANCH   1  39
TORSDOF 15
ENDMDL
MODEL 5
REMARK VINA RESULT: -9.190348346      1.485      2.836
REMARK  15 active torsions:
REMARK  status: ('A' for Active; 'I' for Inactive)
REMARK    1  A    between atoms: C3_3  and  C4_4 
REMARK    2  A    between atoms: C4_4  and  O2_6 
REMARK    3  A    between atoms: O2_6  and  C5_7 
REMARK    4  A    between atoms: C7_10  and  C8_11 
REMARK    5  A    between atoms: C10_15  and  O6_16 
REMARK    6  A    between atoms: C11_18  and  O7_19 
REMARK    7  A    between atoms: O7_19  and  C12_20 
REMARK    8  A    between atoms: C12_20  and  C13_22 
REMARK    9  A    between atoms: C15_24  and  O9_25 
REMARK   10  A    between atoms: C16_27  and  O10_28 
REMARK   11  A    between atoms: C17_30  and  O11_31 
REMARK   12  A    between atoms: C19_33  and  C20_34 
REMARK   13  A    between atoms: C20_34  and  O12_36 
REMARK   14  A    between atoms: C22_38  and  O13_39 
REMARK   15  A    between atoms: C23_41  and  O14_42 
ROOT
HETATM    1  C5  UNL     1      -1.700  19.660  27.144  1.00  0.00     0.178 C 
HETATM    2  C6  UNL     1      -2.276  20.809  26.918  1.00  0.00     0.077 C 
HETATM    3  O3  UNL     1      -2.557  21.345  25.684  1.00  0.00    -0.337 OA
HETATM    4  C7  UNL     1      -2.834  22.769  25.800  1.00  0.00     0.236 C 
HETATM    5  C9  UNL     1      -2.561  23.062  27.196  1.00  0.00     0.070 C 
HETATM    6  C10 UNL     1      -3.208  24.219  27.878  1.00  0.00     0.158 C 
HETATM    7  C11 UNL     1      -4.582  24.003  28.382  1.00  0.00     0.192 C 
HETATM    8  C22 UNL     1      -4.789  22.662  29.035  1.00  0.00     0.179 C 
HETATM    9  C23 UNL     1      -4.166  21.506  28.357  1.00  0.00     0.160 C 
HETATM   10  C24 UNL     1      -2.743  21.763  27.944  1.00  0.00     0.085 C 
ENDROOT
BRANCH   7  11
HETATM   11  O7  UNL     1      -4.835  24.938  29.448  1.00  0.00    -0.307 OA
BRANCH  11  12
HETATM   12  C12 UNL     1      -4.643  26.307  29.302  1.00  0.00     0.295 C 
HETATM   13  O8  UNL     1      -5.344  26.883  28.453  1.00  0.00    -0.259 OA
BRANCH  12  14
HETATM   14  C13 UNL     1      -3.680  27.026  30.113  1.00  0.00     0.057 A 
HETATM   15  C14 UNL     1      -2.991  28.070  29.443  1.00  0.00     0.058 A 
HETATM   16  C15 UNL     1      -1.991  28.762  30.067  1.00  0.00     0.102 A 
HETATM   17  C16 UNL     1      -1.636  28.463  31.352  1.00  0.00     0.133 A 
HETATM   18  C17 UNL     1      -2.304  27.456  32.011  1.00  0.00     0.117 A 
HETATM   19  C19 UNL     1      -3.328  26.721  31.413  1.00  0.00     0.045 A 
BRANCH  16  20
HETATM   20  O9  UNL     1      -1.313  29.783  29.417  1.00  0.00    -0.358 OA
ATOM     21  H9  UNL     1      -1.147  29.745  28.482  1.00  0.00     0.217 HD
ENDBRANCH  16  20
BRANCH  17  22
HETATM   22  O10 UNL     1      -0.628  29.158  31.983  1.00  0.00    -0.356 OA
ATOM     23  H10 UNL     1      -0.307  28.882  32.834  1.00  0.00     0.218 HD
ENDBRANCH  17  22
BRANCH  18  24
HETATM   24  O11 UNL     1      -1.884  27.226  33.327  1.00  0.00    -0.352 OA
HETATM   25  C18 UNL     1      -0.808  26.325  33.585  1.00  0.00     0.210 C 
ENDBRANCH  18  24
BRANCH  19  26
HETATM   26  C20 UNL     1      -4.083  25.710  32.151  1.00  0.00     0.053 C 
HETATM   27  C21 UNL     1      -4.941  26.169  33.289  1.00  0.00     0.077 C 
BRANCH  26  28
HETATM   28  O12 UNL     1      -3.452  24.513  32.413  1.00  0.00    -0.364 OA
ATOM     29  H12 UNL     1      -2.967  24.443  33.226  1.00  0.00     0.217 HD
ENDBRANCH  26  28
ENDBRANCH  19  26
ENDBRANCH  12  14
ENDBRANCH  11  12
ENDBRANCH   7  11
BRANCH   6  30
HETATM   30  O6  UNL     1      -3.064  25.358  27.145  1.00  0.00    -0.392 OA
ATOM     31  H6  UNL     1      -3.884  25.601  26.731  1.00  0.00     0.210 HD
ENDBRANCH   6  30
BRANCH   8  32
HETATM   32  O13 UNL     1      -4.378  22.763  30.389  1.00  0.00    -0.390 OA
ATOM     33  H13 UNL     1      -4.036  21.919  30.657  1.00  0.00     0.210 HD
ENDBRANCH   8  32
BRANCH   9  34
HETATM   34  O14 UNL     1      -4.096  20.451  29.298  1.00  0.00    -0.392 OA
ATOM     35  H14 UNL     1      -3.199  20.403  29.604  1.00  0.00     0.210 HD
ENDBRANCH   9  34
BRANCH   4  36
HETATM   36  C8  UNL     1      -4.117  23.077  25.200  1.00  0.00     0.204 C 
HETATM   37  O4  UNL     1      -5.077  22.292  25.231  1.00  0.00    -0.646 OA
HETATM   38  O5  UNL     1      -4.318  24.283  24.558  1.00  0.00    -0.646 OA
ENDBRANCH   4  36
BRANCH   1  39
HETATM   39  O2  UNL     1      -1.267  18.773  26.161  1.00  0.00    -0.285 OA
BRANCH  39  40
HETATM   40  C4  UNL     1      -0.665  17.598  26.523  1.00  0.00     0.287 C 
HETATM   41  O1  UNL     1       0.281  17.196  25.770  1.00  0.00    -0.260 OA
BRANCH  40  42
HETATM   42  C3  UNL     1      -1.053  16.834  27.673  1.00  0.00     0.078 C 
HETATM   43  C2  UNL     1      -0.216  16.424  28.573  1.00  0.00    -0.025 C 
HETATM   44  C1  UNL     1       1.228  16.679  28.542  1.00  0.00     0.036 C 
ENDBRANCH  40  42
ENDBRANCH  39  40
ENDBRANCH   1  39
TORSDOF 15
ENDMDL
