MODEL 1
REMARK VINA RESULT: -8.277963219      0.000      0.000
REMARK  7 active torsions:
REMARK  status: ('A' for Active; 'I' for Inactive)
REMARK    1  A    between atoms: S1_2  and  N1_5 
REMARK    2  A    between atoms: C6_15  and  C7_16 
REMARK    3  A    between atoms: C8_19  and  N3_20 
REMARK    4  A    between atoms: N3_20  and  C9_22 
REMARK    5  A    between atoms: C11_27  and  C12_28 
REMARK    6  A    between atoms: C12_28  and  O5_29 
REMARK    7  A    between atoms: C13_32  and  C14_33 
ROOT
HETATM    1  N1  UNL     1      -2.228  21.372  24.742  1.00  0.00    -0.273 N 
ATOM      2  H1  UNL     1      -1.573  21.665  24.017  1.00  0.00     0.179 HD
HETATM    3  C2  UNL     1      -2.820  22.340  25.285  1.00  0.00     0.102 C 
HETATM    4  N2  UNL     1      -2.503  23.672  24.824  1.00  0.00    -0.318 N 
ATOM      5  H2  UNL     1      -2.024  23.708  23.924  1.00  0.00     0.175 HD
HETATM    6  S2  UNL     1      -2.807  25.246  25.559  1.00  0.00    -0.037 SA
HETATM    7  C3  UNL     1      -4.389  25.049  26.476  1.00  0.00     0.153 C 
HETATM    8  S3  UNL     1      -5.449  24.056  25.348  1.00  0.00    -0.149 SA
HETATM    9  C4  UNL     1      -5.179  22.322  25.799  1.00  0.00     0.088 C 
HETATM   10  C5  UNL     1      -3.804  22.082  26.362  1.00  0.00     0.080 C 
HETATM   11  C6  UNL     1      -3.501  22.936  27.558  1.00  0.00     0.123 C 
HETATM   12  C8  UNL     1      -4.240  24.206  27.692  1.00  0.00     0.123 C 
ENDROOT
BRANCH  12  13
HETATM   13  N3  UNL     1      -3.706  24.918  28.837  1.00  0.00    -0.367 N 
ATOM     14  H3  UNL     1      -2.695  25.033  28.913  1.00  0.00     0.161 HD
BRANCH  13  15
HETATM   15  C9  UNL     1      -4.534  25.467  29.865  1.00  0.00     0.129 A 
HETATM   16  N4  UNL     1      -5.456  24.824  30.574  1.00  0.00    -0.330 N 
HETATM   17  C10 UNL     1      -6.028  25.698  31.462  1.00  0.00     0.096 A 
ATOM     18  H4  UNL     1      -5.699  23.839  30.473  1.00  0.00     0.168 HD
HETATM   19  N5  UNL     1      -5.492  26.869  31.332  1.00  0.00    -0.309 N 
HETATM   20  C15 UNL     1      -7.087  25.526  32.478  1.00  0.00     0.153 C 
HETATM   21  C11 UNL     1      -4.552  26.763  30.341  1.00  0.00     0.098 A 
HETATM   22  C13 UNL     1      -5.972  27.923  32.186  1.00  0.00     0.254 C 
HETATM   23  S5  UNL     1      -7.622  27.252  32.682  1.00  0.00    -0.125 SA
BRANCH  21  24
HETATM   24  C12 UNL     1      -3.667  27.829  29.818  1.00  0.00     0.244 C 
HETATM   25  S4  UNL     1      -2.338  28.210  31.003  1.00  0.00    -0.056 SA
BRANCH  24  26
HETATM   26  O5  UNL     1      -3.047  27.486  28.618  1.00  0.00    -0.378 OA
ATOM     27  H5  UNL     1      -3.079  28.180  27.969  1.00  0.00     0.211 HD
ENDBRANCH  24  26
ENDBRANCH  21  24
BRANCH  22  28
HETATM   28  C14 UNL     1      -5.180  27.911  33.436  1.00  0.00     0.207 C 
HETATM   29  O6  UNL     1      -5.394  28.781  34.309  1.00  0.00    -0.646 OA
HETATM   30  O7  UNL     1      -4.197  26.969  33.694  1.00  0.00    -0.646 OA
ENDBRANCH  22  28
ENDBRANCH  13  15
ENDBRANCH  12  13
BRANCH  11  31
HETATM   31  C7  UNL     1      -3.708  22.120  28.780  1.00  0.00     0.179 C 
HETATM   32  O3  UNL     1      -2.691  21.509  29.250  1.00  0.00    -0.648 OA
HETATM   33  O4  UNL     1      -4.928  21.989  29.429  1.00  0.00    -0.648 OA
ENDBRANCH  11  31
BRANCH   1  34
HETATM   34  S1  UNL     1      -2.272  19.716  24.942  1.00  0.00     0.228 S 
HETATM   35  C1  UNL     1      -1.895  19.292  26.646  1.00  0.00     0.186 C 
HETATM   36  O1  UNL     1      -1.365  18.927  24.057  1.00  0.00    -0.206 OA
HETATM   37  O2  UNL     1      -3.673  19.153  24.676  1.00  0.00    -0.206 OA
ENDBRANCH   1  34
TORSDOF 7
ENDMDL
MODEL 2
REMARK VINA RESULT: -8.124000380      0.801      1.066
REMARK  7 active torsions:
REMARK  status: ('A' for Active; 'I' for Inactive)
REMARK    1  A    between atoms: S1_2  and  N1_5 
REMARK    2  A    between atoms: C6_15  and  C7_16 
REMARK    3  A    between atoms: C8_19  and  N3_20 
REMARK    4  A    between atoms: N3_20  and  C9_22 
REMARK    5  A    between atoms: C11_27  and  C12_28 
REMARK    6  A    between atoms: C12_28  and  O5_29 
REMARK    7  A    between atoms: C13_32  and  C14_33 
ROOT
HETATM    1  N1  UNL     1      -2.297  21.538  25.262  1.00  0.00    -0.273 N 
ATOM      2  H1  UNL     1      -1.600  21.827  24.577  1.00  0.00     0.179 HD
HETATM    3  C2  UNL     1      -2.896  22.510  25.790  1.00  0.00     0.102 C 
HETATM    4  N2  UNL     1      -2.526  23.842  25.367  1.00  0.00    -0.318 N 
ATOM      5  H2  UNL     1      -2.000  23.880  24.494  1.00  0.00     0.175 HD
HETATM    6  S2  UNL     1      -2.834  25.411  26.112  1.00  0.00    -0.037 SA
HETATM    7  C3  UNL     1      -4.466  25.235  26.943  1.00  0.00     0.153 C 
HETATM    8  S3  UNL     1      -5.487  24.283  25.745  1.00  0.00    -0.149 SA
HETATM    9  C4  UNL     1      -5.278  22.537  26.182  1.00  0.00     0.088 C 
HETATM   10  C5  UNL     1      -3.939  22.257  26.810  1.00  0.00     0.080 C 
HETATM   11  C6  UNL     1      -3.680  23.086  28.034  1.00  0.00     0.123 C 
HETATM   12  C8  UNL     1      -4.397  24.370  28.151  1.00  0.00     0.123 C 
ENDROOT
BRANCH  12  13
HETATM   13  N3  UNL     1      -3.908  25.053  29.334  1.00  0.00    -0.367 N 
ATOM     14  H3  UNL     1      -2.903  25.077  29.502  1.00  0.00     0.161 HD
BRANCH  13  15
HETATM   15  C9  UNL     1      -4.773  25.694  30.274  1.00  0.00     0.129 A 
HETATM   16  N4  UNL     1      -5.849  25.170  30.853  1.00  0.00    -0.330 N 
HETATM   17  C10 UNL     1      -6.404  26.102  31.693  1.00  0.00     0.096 A 
ATOM     18  H4  UNL     1      -6.204  24.228  30.697  1.00  0.00     0.168 HD
HETATM   19  N5  UNL     1      -5.708  27.192  31.658  1.00  0.00    -0.309 N 
HETATM   20  C15 UNL     1      -7.588  26.059  32.575  1.00  0.00     0.153 C 
HETATM   21  C11 UNL     1      -4.679  26.975  30.779  1.00  0.00     0.098 A 
HETATM   22  C13 UNL     1      -6.145  28.290  32.479  1.00  0.00     0.254 C 
HETATM   23  S5  UNL     1      -7.914  27.837  32.763  1.00  0.00    -0.125 SA
BRANCH  21  24
HETATM   24  C12 UNL     1      -3.607  27.921  30.392  1.00  0.00     0.244 C 
HETATM   25  S4  UNL     1      -2.223  27.855  31.573  1.00  0.00    -0.056 SA
BRANCH  24  26
HETATM   26  O5  UNL     1      -3.073  27.656  29.133  1.00  0.00    -0.378 OA
ATOM     27  H5  UNL     1      -3.276  26.783  28.817  1.00  0.00     0.211 HD
ENDBRANCH  24  26
ENDBRANCH  21  24
BRANCH  22  28
HETATM   28  C14 UNL     1      -5.514  28.158  33.812  1.00  0.00     0.207 C 
HETATM   29  O6  UNL     1      -5.809  28.971  34.716  1.00  0.00    -0.646 OA
HETATM   30  O7  UNL     1      -4.598  27.164  34.115  1.00  0.00    -0.646 OA
ENDBRANCH  22  28
ENDBRANCH  13  15
ENDBRANCH  12  13
BRANCH  11  31
HETATM   31  C7  UNL     1      -3.967  22.257  29.230  1.00  0.00     0.179 C 
HETATM   32  O3  UNL     1      -5.156  22.294  29.691  1.00  0.00    -0.648 OA
HETATM   33  O4  UNL     1      -3.027  21.455  29.864  1.00  0.00    -0.648 OA
ENDBRANCH  11  31
BRANCH   1  34
HETATM   34  S1  UNL     1      -2.388  19.880  25.433  1.00  0.00     0.228 S 
HETATM   35  C1  UNL     1      -0.924  19.110  24.734  1.00  0.00     0.186 C 
HETATM   36  O1  UNL     1      -3.587  19.226  24.829  1.00  0.00    -0.206 OA
HETATM   37  O2  UNL     1      -2.410  19.465  26.908  1.00  0.00    -0.206 OA
ENDBRANCH   1  34
TORSDOF 7
ENDMDL
MODEL 3
REMARK VINA RESULT: -7.913071081      2.955      4.103
REMARK  7 active torsions:
REMARK  status: ('A' for Active; 'I' for Inactive)
REMARK    1  A    between atoms: S1_2  and  N1_5 
REMARK    2  A    between atoms: C6_15  and  C7_16 
REMARK    3  A    between atoms: C8_19  and  N3_20 
REMARK    4  A    between atoms: N3_20  and  C9_22 
REMARK    5  A    between atoms: C11_27  and  C12_28 
REMARK    6  A    between atoms: C12_28  and  O5_29 
REMARK    7  A    between atoms: C13_32  and  C14_33 
ROOT
HETATM    1  N1  UNL     1      -3.244  24.485  23.301  1.00  0.00    -0.273 N 
ATOM      2  H1  UNL     1      -4.014  24.236  22.680  1.00  0.00     0.179 HD
HETATM    3  C2  UNL     1      -3.596  24.563  24.506  1.00  0.00     0.102 C 
HETATM    4  N2  UNL     1      -4.980  24.300  24.826  1.00  0.00    -0.318 N 
ATOM      5  H2  UNL     1      -5.502  23.820  24.093  1.00  0.00     0.175 HD
HETATM    6  S2  UNL     1      -5.917  24.673  26.273  1.00  0.00    -0.037 SA
HETATM    7  C3  UNL     1      -4.716  24.561  27.662  1.00  0.00     0.153 C 
HETATM    8  S3  UNL     1      -3.702  23.077  27.270  1.00  0.00    -0.149 SA
HETATM    9  C4  UNL     1      -2.278  23.676  26.324  1.00  0.00     0.088 C 
HETATM   10  C5  UNL     1      -2.593  24.919  25.536  1.00  0.00     0.080 C 
HETATM   11  C6  UNL     1      -3.102  26.043  26.390  1.00  0.00     0.123 C 
HETATM   12  C8  UNL     1      -3.747  25.688  27.668  1.00  0.00     0.123 C 
ENDROOT
BRANCH  12  13
HETATM   13  N3  UNL     1      -4.267  26.905  28.263  1.00  0.00    -0.367 N 
ATOM     14  H3  UNL     1      -4.826  27.530  27.683  1.00  0.00     0.161 HD
BRANCH  13  15
HETATM   15  C9  UNL     1      -4.031  27.265  29.626  1.00  0.00     0.129 A 
HETATM   16  N4  UNL     1      -2.984  27.929  30.105  1.00  0.00    -0.330 N 
HETATM   17  C10 UNL     1      -3.130  28.080  31.460  1.00  0.00     0.096 A 
ATOM     18  H4  UNL     1      -2.197  28.270  29.553  1.00  0.00     0.168 HD
HETATM   19  N5  UNL     1      -4.238  27.532  31.844  1.00  0.00    -0.309 N 
HETATM   20  C15 UNL     1      -2.283  28.727  32.482  1.00  0.00     0.153 C 
HETATM   21  C11 UNL     1      -4.829  27.011  30.722  1.00  0.00     0.098 A 
HETATM   22  C13 UNL     1      -4.562  27.589  33.245  1.00  0.00     0.254 C 
HETATM   23  S5  UNL     1      -2.894  27.899  33.980  1.00  0.00    -0.125 SA
BRANCH  21  24
HETATM   24  C12 UNL     1      -6.116  26.281  30.636  1.00  0.00     0.244 C 
HETATM   25  S4  UNL     1      -6.066  24.758  31.633  1.00  0.00    -0.056 SA
BRANCH  24  26
HETATM   26  O5  UNL     1      -7.199  27.026  31.097  1.00  0.00    -0.378 OA
ATOM     27  H5  UNL     1      -7.242  27.074  32.046  1.00  0.00     0.211 HD
ENDBRANCH  24  26
ENDBRANCH  21  24
BRANCH  22  28
HETATM   28  C14 UNL     1      -5.314  28.837  33.502  1.00  0.00     0.207 C 
HETATM   29  O6  UNL     1      -5.097  29.482  34.553  1.00  0.00    -0.646 OA
HETATM   30  O7  UNL     1      -6.261  29.339  32.623  1.00  0.00    -0.646 OA
ENDBRANCH  22  28
ENDBRANCH  13  15
ENDBRANCH  12  13
BRANCH  11  31
HETATM   31  C7  UNL     1      -1.979  26.977  26.653  1.00  0.00     0.179 C 
HETATM   32  O3  UNL     1      -0.800  26.490  26.628  1.00  0.00    -0.648 OA
HETATM   33  O4  UNL     1      -2.140  28.330  26.921  1.00  0.00    -0.648 OA
ENDBRANCH  11  31
BRANCH   1  34
HETATM   34  S1  UNL     1      -1.802  24.697  22.489  1.00  0.00     0.228 S 
HETATM   35  C1  UNL     1      -0.825  25.969  23.295  1.00  0.00     0.186 C 
HETATM   36  O1  UNL     1      -1.912  25.046  21.041  1.00  0.00    -0.206 OA
HETATM   37  O2  UNL     1      -0.941  23.429  22.527  1.00  0.00    -0.206 OA
ENDBRANCH   1  34
TORSDOF 7
ENDMDL
MODEL 4
REMARK VINA RESULT: -7.829231142      1.117      1.156
REMARK  7 active torsions:
REMARK  status: ('A' for Active; 'I' for Inactive)
REMARK    1  A    between atoms: S1_2  and  N1_5 
REMARK    2  A    between atoms: C6_15  and  C7_16 
REMARK    3  A    between atoms: C8_19  and  N3_20 
REMARK    4  A    between atoms: N3_20  and  C9_22 
REMARK    5  A    between atoms: C11_27  and  C12_28 
REMARK    6  A    between atoms: C12_28  and  O5_29 
REMARK    7  A    between atoms: C13_32  and  C14_33 
ROOT
HETATM    1  N1  UNL     1      -2.331  21.607  24.924  1.00  0.00    -0.273 N 
ATOM      2  H1  UNL     1      -1.688  21.928  24.199  1.00  0.00     0.179 HD
HETATM    3  C2  UNL     1      -2.898  22.555  25.526  1.00  0.00     0.102 C 
HETATM    4  N2  UNL     1      -2.573  23.904  25.123  1.00  0.00    -0.318 N 
ATOM      5  H2  UNL     1      -2.113  23.977  24.216  1.00  0.00     0.175 HD
HETATM    6  S2  UNL     1      -2.840  25.444  25.940  1.00  0.00    -0.037 SA
HETATM    7  C3  UNL     1      -4.405  25.221  26.882  1.00  0.00     0.153 C 
HETATM    8  S3  UNL     1      -5.502  24.298  25.730  1.00  0.00    -0.149 SA
HETATM    9  C4  UNL     1      -5.245  22.541  26.091  1.00  0.00     0.088 C 
HETATM   10  C5  UNL     1      -3.862  22.256  26.610  1.00  0.00     0.080 C 
HETATM   11  C6  UNL     1      -3.522  23.047  27.839  1.00  0.00     0.123 C 
HETATM   12  C8  UNL     1      -4.240  24.318  28.051  1.00  0.00     0.123 C 
ENDROOT
BRANCH  12  13
HETATM   13  N3  UNL     1      -3.672  24.967  29.218  1.00  0.00    -0.367 N 
ATOM     14  H3  UNL     1      -2.661  25.090  29.263  1.00  0.00     0.161 HD
BRANCH  13  15
HETATM   15  C9  UNL     1      -4.468  25.443  30.306  1.00  0.00     0.129 A 
HETATM   16  N4  UNL     1      -5.731  25.125  30.568  1.00  0.00    -0.330 N 
HETATM   17  C10 UNL     1      -6.134  25.786  31.701  1.00  0.00     0.096 A 
ATOM     18  H4  UNL     1      -6.308  24.491  30.016  1.00  0.00     0.168 HD
HETATM   19  N5  UNL     1      -5.161  26.507  32.155  1.00  0.00    -0.309 N 
HETATM   20  C15 UNL     1      -7.415  25.801  32.435  1.00  0.00     0.153 C 
HETATM   21  C11 UNL     1      -4.101  26.318  31.308  1.00  0.00     0.098 A 
HETATM   22  C13 UNL     1      -5.402  27.280  33.346  1.00  0.00     0.254 C 
HETATM   23  S5  UNL     1      -7.248  27.367  33.343  1.00  0.00    -0.125 SA
BRANCH  21  24
HETATM   24  C12 UNL     1      -2.754  26.928  31.397  1.00  0.00     0.244 C 
HETATM   25  S4  UNL     1      -2.856  28.744  31.307  1.00  0.00    -0.056 SA
BRANCH  24  26
HETATM   26  O5  UNL     1      -2.093  26.623  32.585  1.00  0.00    -0.378 OA
ATOM     27  H5  UNL     1      -1.485  27.300  32.859  1.00  0.00     0.211 HD
ENDBRANCH  24  26
ENDBRANCH  21  24
BRANCH  22  28
HETATM   28  C14 UNL     1      -5.075  26.443  34.521  1.00  0.00     0.207 C 
HETATM   29  O6  UNL     1      -5.814  26.484  35.531  1.00  0.00    -0.646 OA
HETATM   30  O7  UNL     1      -3.976  25.600  34.563  1.00  0.00    -0.646 OA
ENDBRANCH  22  28
ENDBRANCH  13  15
ENDBRANCH  12  13
BRANCH  11  31
HETATM   31  C7  UNL     1      -3.713  22.175  29.025  1.00  0.00     0.179 C 
HETATM   32  O3  UNL     1      -2.711  21.484  29.406  1.00  0.00    -0.648 OA
HETATM   33  O4  UNL     1      -4.905  22.074  29.730  1.00  0.00    -0.648 OA
ENDBRANCH  11  31
BRANCH   1  34
HETATM   34  S1  UNL     1      -2.393  19.945  25.044  1.00  0.00     0.228 S 
HETATM   35  C1  UNL     1      -1.889  19.427  26.688  1.00  0.00     0.186 C 
HETATM   36  O1  UNL     1      -1.577  19.186  24.049  1.00  0.00    -0.206 OA
HETATM   37  O2  UNL     1      -3.822  19.419  24.865  1.00  0.00    -0.206 OA
ENDBRANCH   1  34
TORSDOF 7
ENDMDL
MODEL 5
REMARK VINA RESULT: -7.682650483      1.989      2.493
REMARK  7 active torsions:
REMARK  status: ('A' for Active; 'I' for Inactive)
REMARK    1  A    between atoms: S1_2  and  N1_5 
REMARK    2  A    between atoms: C6_15  and  C7_16 
REMARK    3  A    between atoms: C8_19  and  N3_20 
REMARK    4  A    between atoms: N3_20  and  C9_22 
REMARK    5  A    between atoms: C11_27  and  C12_28 
REMARK    6  A    between atoms: C12_28  and  O5_29 
REMARK    7  A    between atoms: C13_32  and  C14_33 
ROOT
HETATM    1  N1  UNL     1      -2.537  21.954  25.154  1.00  0.00    -0.273 N 
ATOM      2  H1  UNL     1      -1.902  22.246  24.412  1.00  0.00     0.179 HD
HETATM    3  C2  UNL     1      -2.998  22.922  25.811  1.00  0.00     0.102 C 
HETATM    4  N2  UNL     1      -2.580  24.254  25.437  1.00  0.00    -0.318 N 
ATOM      5  H2  UNL     1      -2.154  24.322  24.513  1.00  0.00     0.175 HD
HETATM    6  S2  UNL     1      -2.684  25.780  26.314  1.00  0.00    -0.037 SA
HETATM    7  C3  UNL     1      -4.220  25.652  27.318  1.00  0.00     0.153 C 
HETATM    8  S3  UNL     1      -5.438  24.862  26.188  1.00  0.00    -0.149 SA
HETATM    9  C4  UNL     1      -5.312  23.079  26.481  1.00  0.00     0.088 C 
HETATM   10  C5  UNL     1      -3.937  22.665  26.927  1.00  0.00     0.080 C 
HETATM   11  C6  UNL     1      -3.480  23.381  28.165  1.00  0.00     0.123 C 
HETATM   12  C8  UNL     1      -4.082  24.698  28.449  1.00  0.00     0.123 C 
ENDROOT
BRANCH  12  13
HETATM   13  N3  UNL     1      -3.413  25.257  29.609  1.00  0.00    -0.367 N 
ATOM     14  H3  UNL     1      -2.416  25.082  29.728  1.00  0.00     0.161 HD
BRANCH  13  15
HETATM   15  C9  UNL     1      -4.090  26.043  30.592  1.00  0.00     0.129 A 
HETATM   16  N4  UNL     1      -4.392  27.335  30.510  1.00  0.00    -0.330 N 
HETATM   17  C10 UNL     1      -5.045  27.716  31.655  1.00  0.00     0.096 A 
ATOM     18  H4  UNL     1      -4.173  27.945  29.723  1.00  0.00     0.168 HD
HETATM   19  N5  UNL     1      -5.161  26.702  32.450  1.00  0.00    -0.309 N 
HETATM   20  C15 UNL     1      -5.601  29.013  32.092  1.00  0.00     0.153 C 
HETATM   21  C11 UNL     1      -4.575  25.636  31.818  1.00  0.00     0.098 A 
HETATM   22  C13 UNL     1      -5.822  26.914  33.711  1.00  0.00     0.254 C 
HETATM   23  S5  UNL     1      -5.661  28.747  33.890  1.00  0.00    -0.125 SA
BRANCH  21  24
HETATM   24  C12 UNL     1      -4.449  24.248  32.319  1.00  0.00     0.244 C 
HETATM   25  S4  UNL     1      -3.402  24.188  33.808  1.00  0.00    -0.056 SA
BRANCH  24  26
HETATM   26  O5  UNL     1      -5.672  23.679  32.667  1.00  0.00    -0.378 OA
ATOM     27  H5  UNL     1      -5.730  22.755  32.449  1.00  0.00     0.211 HD
ENDBRANCH  24  26
ENDBRANCH  21  24
BRANCH  22  28
HETATM   28  C14 UNL     1      -7.273  26.690  33.523  1.00  0.00     0.207 C 
HETATM   29  O6  UNL     1      -8.091  27.346  34.206  1.00  0.00    -0.646 OA
HETATM   30  O7  UNL     1      -7.781  25.776  32.614  1.00  0.00    -0.646 OA
ENDBRANCH  22  28
ENDBRANCH  13  15
ENDBRANCH  12  13
BRANCH  11  31
HETATM   31  C7  UNL     1      -3.693  22.486  29.329  1.00  0.00     0.179 C 
HETATM   32  O3  UNL     1      -4.849  22.497  29.868  1.00  0.00    -0.648 OA
HETATM   33  O4  UNL     1      -2.716  21.650  29.855  1.00  0.00    -0.648 OA
ENDBRANCH  11  31
BRANCH   1  34
HETATM   34  S1  UNL     1      -2.732  20.298  25.224  1.00  0.00     0.228 S 
HETATM   35  C1  UNL     1      -1.480  19.489  24.223  1.00  0.00     0.186 C 
HETATM   36  O1  UNL     1      -4.068  19.779  24.803  1.00  0.00    -0.206 OA
HETATM   37  O2  UNL     1      -2.531  19.765  26.647  1.00  0.00    -0.206 OA
ENDBRANCH   1  34
TORSDOF 7
ENDMDL
