MODEL 1
REMARK VINA RESULT: -10.200261741      0.000      0.000
REMARK  14 active torsions:
REMARK  status: ('A' for Active; 'I' for Inactive)
REMARK    1  A    between atoms: C3_4  and  O2_5 
REMARK    2  A    between atoms: O2_5  and  C4_6 
REMARK    3  A    between atoms: C5_8  and  C6_9 
REMARK    4  A    between atoms: C6_9  and  O4_10 
REMARK    5  A    between atoms: C7_12  and  O5_13 
REMARK    6  A    between atoms: C8_15  and  O6_16 
REMARK    7  A    between atoms: C9_18  and  O7_19 
REMARK    8  A    between atoms: C10_21  and  O8_22 
REMARK    9  A    between atoms: C11_24  and  O9_25 
REMARK   10  A    between atoms: C12_27  and  O10_28 
REMARK   11  A    between atoms: O10_28  and  C13_29 
REMARK   12  A    between atoms: C18_34  and  O11_35 
REMARK   13  A    between atoms: O11_35  and  C19_36 
REMARK       I    between atoms: C19_36  and  N1_38 
REMARK   14  A    between atoms: N1_38  and  C20_40 
ROOT
HETATM    1  C1  UNL     1      -4.624  22.240  26.982  1.00  0.00     0.042 C 
HETATM    2  C2  UNL     1      -3.407  21.701  26.277  1.00  0.00     0.152 C 
HETATM    3  O1  UNL     1      -3.380  20.324  26.462  1.00  0.00    -0.351 OA
HETATM    4  C3  UNL     1      -2.361  19.720  25.723  1.00  0.00     0.294 C 
HETATM    5  C10 UNL     1      -2.732  19.679  24.289  1.00  0.00     0.204 C 
HETATM    6  C11 UNL     1      -3.646  20.846  23.954  1.00  0.00     0.183 C 
HETATM    7  C12 UNL     1      -3.369  22.057  24.797  1.00  0.00     0.182 C 
ENDROOT
BRANCH   4   8
HETATM    8  O2  UNL     1      -2.279  18.415  26.266  1.00  0.00    -0.326 OA
BRANCH   8   9
HETATM    9  C4  UNL     1      -1.030  18.181  26.868  1.00  0.00     0.294 C 
HETATM   10  O3  UNL     1      -0.915  18.880  28.046  1.00  0.00    -0.348 OA
HETATM   11  C5  UNL     1      -1.248  18.226  29.186  1.00  0.00     0.179 C 
HETATM   12  C7  UNL     1      -0.581  16.899  29.368  1.00  0.00     0.180 C 
HETATM   13  C8  UNL     1      -0.836  16.026  28.192  1.00  0.00     0.183 C 
HETATM   14  C9  UNL     1      -0.702  16.737  26.903  1.00  0.00     0.204 C 
BRANCH  11  15
HETATM   15  C6  UNL     1      -2.733  18.062  29.403  1.00  0.00     0.198 C 
BRANCH  15  16
HETATM   16  O4  UNL     1      -3.083  18.177  30.760  1.00  0.00    -0.398 OA
ATOM     17  H4  UNL     1      -3.844  17.652  30.976  1.00  0.00     0.209 HD
ENDBRANCH  15  16
ENDBRANCH  11  15
BRANCH  12  18
HETATM   18  O5  UNL     1       0.770  17.105  29.576  1.00  0.00    -0.390 OA
ATOM     19  H5  UNL     1       0.945  17.069  30.509  1.00  0.00     0.210 HD
ENDBRANCH  12  18
BRANCH  13  20
HETATM   20  O6  UNL     1      -2.044  15.313  28.302  1.00  0.00    -0.390 OA
ATOM     21  H6  UNL     1      -1.982  14.581  28.905  1.00  0.00     0.210 HD
ENDBRANCH  13  20
BRANCH  14  22
HETATM   22  O7  UNL     1       0.566  16.495  26.368  1.00  0.00    -0.388 OA
ATOM     23  H7  UNL     1       0.549  16.530  25.419  1.00  0.00     0.210 HD
ENDBRANCH  14  22
ENDBRANCH   8   9
ENDBRANCH   4   8
BRANCH   5  24
HETATM   24  O8  UNL     1      -1.566  19.728  23.511  1.00  0.00    -0.388 OA
ATOM     25  H8  UNL     1      -1.801  19.902  22.607  1.00  0.00     0.210 HD
ENDBRANCH   5  24
BRANCH   6  26
HETATM   26  O9  UNL     1      -3.365  21.121  22.594  1.00  0.00    -0.390 OA
ATOM     27  H9  UNL     1      -4.151  20.843  22.137  1.00  0.00     0.210 HD
ENDBRANCH   6  26
BRANCH   7  28
HETATM   28  O10 UNL     1      -4.322  23.053  24.640  1.00  0.00    -0.373 OA
BRANCH  28  29
HETATM   29  C13 UNL     1      -3.802  24.331  24.453  1.00  0.00     0.151 C 
HETATM   30  C14 UNL     1      -2.516  24.219  23.603  1.00  0.00     0.034 C 
HETATM   31  C15 UNL     1      -1.939  25.591  23.351  1.00  0.00     0.003 C 
HETATM   32  C16 UNL     1      -1.432  26.055  24.712  1.00  0.00     0.003 C 
HETATM   33  C17 UNL     1      -2.615  26.264  25.572  1.00  0.00     0.035 C 
HETATM   34  C18 UNL     1      -3.586  25.117  25.673  1.00  0.00     0.162 C 
BRANCH  34  35
HETATM   35  O11 UNL     1      -4.775  25.560  26.289  1.00  0.00    -0.296 OA
BRANCH  35  36
HETATM   36  C19 UNL     1      -4.766  26.265  27.482  1.00  0.00     0.361 C 
HETATM   37  O12 UNL     1      -5.068  27.489  27.483  1.00  0.00    -0.238 OA
HETATM   38  N1  UNL     1      -4.417  25.594  28.677  1.00  0.00    -0.329 N 
ATOM     39  H1  UNL     1      -4.180  24.605  28.616  1.00  0.00     0.165 HD
BRANCH  38  40
HETATM   40  C20 UNL     1      -4.373  26.217  29.977  1.00  0.00     0.024 C 
HETATM   41  C21 UNL     1      -5.733  26.748  30.389  1.00  0.00     0.037 C 
HETATM   42  C22 UNL     1      -3.903  25.232  31.022  1.00  0.00     0.037 C 
HETATM   43  C23 UNL     1      -3.410  27.400  30.020  1.00  0.00     0.037 C 
ENDBRANCH  38  40
ENDBRANCH  35  36
ENDBRANCH  34  35
ENDBRANCH  28  29
ENDBRANCH   7  28
TORSDOF 14
ENDMDL
MODEL 2
REMARK VINA RESULT: -9.645970057      1.995      3.237
REMARK  14 active torsions:
REMARK  status: ('A' for Active; 'I' for Inactive)
REMARK    1  A    between atoms: C3_4  and  O2_5 
REMARK    2  A    between atoms: O2_5  and  C4_6 
REMARK    3  A    between atoms: C5_8  and  C6_9 
REMARK    4  A    between atoms: C6_9  and  O4_10 
REMARK    5  A    between atoms: C7_12  and  O5_13 
REMARK    6  A    between atoms: C8_15  and  O6_16 
REMARK    7  A    between atoms: C9_18  and  O7_19 
REMARK    8  A    between atoms: C10_21  and  O8_22 
REMARK    9  A    between atoms: C11_24  and  O9_25 
REMARK   10  A    between atoms: C12_27  and  O10_28 
REMARK   11  A    between atoms: O10_28  and  C13_29 
REMARK   12  A    between atoms: C18_34  and  O11_35 
REMARK   13  A    between atoms: O11_35  and  C19_36 
REMARK       I    between atoms: C19_36  and  N1_38 
REMARK   14  A    between atoms: N1_38  and  C20_40 
ROOT
HETATM    1  C1  UNL     1      -5.460  22.600  27.954  1.00  0.00     0.042 C 
HETATM    2  C2  UNL     1      -3.993  22.262  27.894  1.00  0.00     0.152 C 
HETATM    3  O1  UNL     1      -3.817  21.013  28.475  1.00  0.00    -0.351 OA
HETATM    4  C3  UNL     1      -2.505  20.555  28.337  1.00  0.00     0.294 C 
HETATM    5  C10 UNL     1      -2.267  20.115  26.942  1.00  0.00     0.204 C 
HETATM    6  C11 UNL     1      -3.150  20.902  25.990  1.00  0.00     0.183 C 
HETATM    7  C12 UNL     1      -3.431  22.293  26.479  1.00  0.00     0.182 C 
ENDROOT
BRANCH   4   8
HETATM    8  O2  UNL     1      -2.433  19.464  29.236  1.00  0.00    -0.326 OA
BRANCH   8   9
HETATM    9  C4  UNL     1      -3.063  19.755  30.459  1.00  0.00     0.294 C 
HETATM   10  O3  UNL     1      -3.229  18.614  31.209  1.00  0.00    -0.348 OA
HETATM   11  C5  UNL     1      -2.265  18.331  32.120  1.00  0.00     0.179 C 
HETATM   12  C7  UNL     1      -1.929  19.453  33.050  1.00  0.00     0.180 C 
HETATM   13  C8  UNL     1      -1.553  20.667  32.281  1.00  0.00     0.183 C 
HETATM   14  C9  UNL     1      -2.444  20.922  31.129  1.00  0.00     0.204 C 
BRANCH  11  15
HETATM   15  C6  UNL     1      -0.988  17.783  31.530  1.00  0.00     0.198 C 
BRANCH  15  16
HETATM   16  O4  UNL     1      -1.216  17.097  30.324  1.00  0.00    -0.398 OA
ATOM     17  H4  UNL     1      -0.589  17.339  29.653  1.00  0.00     0.209 HD
ENDBRANCH  15  16
ENDBRANCH  11  15
BRANCH  12  18
HETATM   18  O5  UNL     1      -3.009  19.680  33.882  1.00  0.00    -0.390 OA
ATOM     19  H5  UNL     1      -3.159  20.616  33.941  1.00  0.00     0.210 HD
ENDBRANCH  12  18
BRANCH  13  20
HETATM   20  O6  UNL     1      -0.189  20.688  31.937  1.00  0.00    -0.390 OA
ATOM     21  H6  UNL     1       0.156  19.821  31.763  1.00  0.00     0.210 HD
ENDBRANCH  13  20
BRANCH  14  22
HETATM   22  O7  UNL     1      -3.407  21.869  31.484  1.00  0.00    -0.388 OA
ATOM     23  H7  UNL     1      -3.002  22.653  31.837  1.00  0.00     0.210 HD
ENDBRANCH  14  22
ENDBRANCH   8   9
ENDBRANCH   4   8
BRANCH   5  24
HETATM   24  O8  UNL     1      -0.912  20.303  26.626  1.00  0.00    -0.388 OA
ATOM     25  H8  UNL     1      -0.824  20.406  25.687  1.00  0.00     0.210 HD
ENDBRANCH   5  24
BRANCH   6  26
HETATM   26  O9  UNL     1      -2.404  20.946  24.788  1.00  0.00    -0.390 OA
ATOM     27  H9  UNL     1      -2.480  21.849  24.503  1.00  0.00     0.210 HD
ENDBRANCH   6  26
BRANCH   7  28
HETATM   28  O10 UNL     1      -4.393  22.948  25.723  1.00  0.00    -0.373 OA
BRANCH  28  29
HETATM   29  C13 UNL     1      -4.001  24.191  25.232  1.00  0.00     0.151 C 
HETATM   30  C14 UNL     1      -2.826  23.984  24.250  1.00  0.00     0.034 C 
HETATM   31  C15 UNL     1      -2.393  25.309  23.671  1.00  0.00     0.003 C 
HETATM   32  C16 UNL     1      -1.759  26.054  24.840  1.00  0.00     0.003 C 
HETATM   33  C17 UNL     1      -2.838  26.364  25.800  1.00  0.00     0.035 C 
HETATM   34  C18 UNL     1      -3.697  25.209  26.244  1.00  0.00     0.162 C 
BRANCH  34  35
HETATM   35  O11 UNL     1      -4.831  25.700  26.924  1.00  0.00    -0.296 OA
BRANCH  35  36
HETATM   36  C19 UNL     1      -4.725  26.437  28.093  1.00  0.00     0.361 C 
HETATM   37  O12 UNL     1      -5.076  27.648  28.096  1.00  0.00    -0.238 OA
HETATM   38  N1  UNL     1      -4.225  25.814  29.259  1.00  0.00    -0.329 N 
ATOM     39  H1  UNL     1      -3.956  24.833  29.196  1.00  0.00     0.165 HD
BRANCH  38  40
HETATM   40  C20 UNL     1      -4.070  26.474  30.532  1.00  0.00     0.024 C 
HETATM   41  C21 UNL     1      -5.394  26.994  31.058  1.00  0.00     0.037 C 
HETATM   42  C22 UNL     1      -3.483  25.526  31.553  1.00  0.00     0.037 C 
HETATM   43  C23 UNL     1      -3.130  27.673  30.452  1.00  0.00     0.037 C 
ENDBRANCH  38  40
ENDBRANCH  35  36
ENDBRANCH  34  35
ENDBRANCH  28  29
ENDBRANCH   7  28
TORSDOF 14
ENDMDL
MODEL 3
REMARK VINA RESULT: -9.409848202      3.473      8.506
REMARK  14 active torsions:
REMARK  status: ('A' for Active; 'I' for Inactive)
REMARK    1  A    between atoms: C3_4  and  O2_5 
REMARK    2  A    between atoms: O2_5  and  C4_6 
REMARK    3  A    between atoms: C5_8  and  C6_9 
REMARK    4  A    between atoms: C6_9  and  O4_10 
REMARK    5  A    between atoms: C7_12  and  O5_13 
REMARK    6  A    between atoms: C8_15  and  O6_16 
REMARK    7  A    between atoms: C9_18  and  O7_19 
REMARK    8  A    between atoms: C10_21  and  O8_22 
REMARK    9  A    between atoms: C11_24  and  O9_25 
REMARK   10  A    between atoms: C12_27  and  O10_28 
REMARK   11  A    between atoms: O10_28  and  C13_29 
REMARK   12  A    between atoms: C18_34  and  O11_35 
REMARK   13  A    between atoms: O11_35  and  C19_36 
REMARK       I    between atoms: C19_36  and  N1_38 
REMARK   14  A    between atoms: N1_38  and  C20_40 
ROOT
HETATM    1  C1  UNL     1      -3.393  28.311  27.204  1.00  0.00     0.042 C 
HETATM    2  C2  UNL     1      -3.108  27.059  27.991  1.00  0.00     0.152 C 
HETATM    3  O1  UNL     1      -3.918  27.070  29.120  1.00  0.00    -0.351 OA
HETATM    4  C3  UNL     1      -3.823  25.876  29.839  1.00  0.00     0.294 C 
HETATM    5  C10 UNL     1      -4.554  24.799  29.130  1.00  0.00     0.204 C 
HETATM    6  C11 UNL     1      -4.546  25.062  27.634  1.00  0.00     0.183 C 
HETATM    7  C12 UNL     1      -3.311  25.786  27.181  1.00  0.00     0.182 C 
ENDROOT
BRANCH   4   8
HETATM    8  O2  UNL     1      -4.438  26.179  31.078  1.00  0.00    -0.326 OA
BRANCH   8   9
HETATM    9  C4  UNL     1      -5.263  27.314  30.984  1.00  0.00     0.294 C 
HETATM   10  O3  UNL     1      -6.559  26.955  30.697  1.00  0.00    -0.348 OA
HETATM   11  C5  UNL     1      -7.403  26.802  31.747  1.00  0.00     0.179 C 
HETATM   12  C7  UNL     1      -7.441  27.957  32.698  1.00  0.00     0.180 C 
HETATM   13  C8  UNL     1      -6.074  28.266  33.191  1.00  0.00     0.183 C 
HETATM   14  C9  UNL     1      -5.053  28.239  32.122  1.00  0.00     0.204 C 
BRANCH  11  15
HETATM   15  C6  UNL     1      -7.201  25.528  32.531  1.00  0.00     0.198 C 
BRANCH  15  16
HETATM   16  O4  UNL     1      -6.797  24.461  31.709  1.00  0.00    -0.398 OA
ATOM     17  H4  UNL     1      -7.447  24.257  31.047  1.00  0.00     0.209 HD
ENDBRANCH  15  16
ENDBRANCH  11  15
BRANCH  12  18
HETATM   18  O5  UNL     1      -8.020  29.038  32.060  1.00  0.00    -0.390 OA
ATOM     19  H5  UNL     1      -8.416  29.603  32.714  1.00  0.00     0.210 HD
ENDBRANCH  12  18
BRANCH  13  20
HETATM   20  O6  UNL     1      -5.717  27.495  34.312  1.00  0.00    -0.390 OA
ATOM     21  H6  UNL     1      -5.392  26.635  34.074  1.00  0.00     0.210 HD
ENDBRANCH  13  20
BRANCH  14  22
HETATM   22  O7  UNL     1      -4.810  29.540  31.676  1.00  0.00    -0.388 OA
ATOM     23  H7  UNL     1      -5.383  29.767  30.952  1.00  0.00     0.210 HD
ENDBRANCH  14  22
ENDBRANCH   8   9
ENDBRANCH   4   8
BRANCH   5  24
HETATM   24  O8  UNL     1      -3.948  23.566  29.417  1.00  0.00    -0.388 OA
ATOM     25  H8  UNL     1      -3.281  23.695  30.080  1.00  0.00     0.210 HD
ENDBRANCH   5  24
BRANCH   6  26
HETATM   26  O9  UNL     1      -4.595  23.768  27.059  1.00  0.00    -0.390 OA
ATOM     27  H9  UNL     1      -3.887  23.300  27.487  1.00  0.00     0.210 HD
ENDBRANCH   6  26
BRANCH   7  28
HETATM   28  O10 UNL     1      -3.385  26.205  25.861  1.00  0.00    -0.373 OA
BRANCH  28  29
HETATM   29  C13 UNL     1      -2.488  25.578  25.000  1.00  0.00     0.151 C 
HETATM   30  C14 UNL     1      -1.465  26.626  24.507  1.00  0.00     0.034 C 
HETATM   31  C15 UNL     1      -0.454  25.977  23.594  1.00  0.00     0.003 C 
HETATM   32  C16 UNL     1      -1.239  25.622  22.337  1.00  0.00     0.003 C 
HETATM   33  C17 UNL     1      -2.197  24.558  22.703  1.00  0.00     0.035 C 
HETATM   34  C18 UNL     1      -3.087  24.833  23.886  1.00  0.00     0.162 C 
BRANCH  34  35
HETATM   35  O11 UNL     1      -3.733  23.641  24.276  1.00  0.00    -0.296 OA
BRANCH  35  36
HETATM   36  C19 UNL     1      -3.101  22.408  24.214  1.00  0.00     0.361 C 
HETATM   37  O12 UNL     1      -2.727  21.959  23.097  1.00  0.00    -0.238 OA
HETATM   38  N1  UNL     1      -2.889  21.680  25.406  1.00  0.00    -0.329 N 
ATOM     39  H1  UNL     1      -3.214  22.093  26.280  1.00  0.00     0.165 HD
BRANCH  38  40
HETATM   40  C20 UNL     1      -2.244  20.392  25.471  1.00  0.00     0.024 C 
HETATM   41  C21 UNL     1      -1.903  20.008  26.898  1.00  0.00     0.037 C 
HETATM   42  C22 UNL     1      -3.134  19.322  24.882  1.00  0.00     0.037 C 
HETATM   43  C23 UNL     1      -0.936  20.360  24.685  1.00  0.00     0.037 C 
ENDBRANCH  38  40
ENDBRANCH  35  36
ENDBRANCH  34  35
ENDBRANCH  28  29
ENDBRANCH   7  28
TORSDOF 14
ENDMDL
MODEL 4
REMARK VINA RESULT: -9.370808670      2.506      3.785
REMARK  14 active torsions:
REMARK  status: ('A' for Active; 'I' for Inactive)
REMARK    1  A    between atoms: C3_4  and  O2_5 
REMARK    2  A    between atoms: O2_5  and  C4_6 
REMARK    3  A    between atoms: C5_8  and  C6_9 
REMARK    4  A    between atoms: C6_9  and  O4_10 
REMARK    5  A    between atoms: C7_12  and  O5_13 
REMARK    6  A    between atoms: C8_15  and  O6_16 
REMARK    7  A    between atoms: C9_18  and  O7_19 
REMARK    8  A    between atoms: C10_21  and  O8_22 
REMARK    9  A    between atoms: C11_24  and  O9_25 
REMARK   10  A    between atoms: C12_27  and  O10_28 
REMARK   11  A    between atoms: O10_28  and  C13_29 
REMARK   12  A    between atoms: C18_34  and  O11_35 
REMARK   13  A    between atoms: O11_35  and  C19_36 
REMARK       I    between atoms: C19_36  and  N1_38 
REMARK   14  A    between atoms: N1_38  and  C20_40 
ROOT
HETATM    1  C1  UNL     1      -5.037  23.710  29.246  1.00  0.00     0.042 C 
HETATM    2  C2  UNL     1      -3.706  23.131  28.843  1.00  0.00     0.152 C 
HETATM    3  O1  UNL     1      -3.629  21.840  29.351  1.00  0.00    -0.351 OA
HETATM    4  C3  UNL     1      -2.486  21.173  28.906  1.00  0.00     0.294 C 
HETATM    5  C10 UNL     1      -2.653  20.774  27.488  1.00  0.00     0.204 C 
HETATM    6  C11 UNL     1      -3.574  21.750  26.778  1.00  0.00     0.183 C 
HETATM    7  C12 UNL     1      -3.484  23.141  27.336  1.00  0.00     0.182 C 
ENDROOT
BRANCH   4   8
HETATM    8  O2  UNL     1      -2.408  20.039  29.749  1.00  0.00    -0.326 OA
BRANCH   8   9
HETATM    9  C4  UNL     1      -2.909  20.311  31.034  1.00  0.00     0.294 C 
HETATM   10  O3  UNL     1      -3.198  19.146  31.705  1.00  0.00    -0.348 OA
HETATM   11  C5  UNL     1      -2.234  18.648  32.517  1.00  0.00     0.179 C 
HETATM   12  C7  UNL     1      -1.674  19.624  33.503  1.00  0.00     0.180 C 
HETATM   13  C8  UNL     1      -1.169  20.833  32.804  1.00  0.00     0.183 C 
HETATM   14  C9  UNL     1      -2.080  21.313  31.744  1.00  0.00     0.204 C 
BRANCH  11  15
HETATM   15  C6  UNL     1      -1.093  17.974  31.794  1.00  0.00     0.198 C 
BRANCH  15  16
HETATM   16  O4  UNL     1      -1.503  17.412  30.571  1.00  0.00    -0.398 OA
ATOM     17  H4  UNL     1      -1.235  17.942  29.830  1.00  0.00     0.209 HD
ENDBRANCH  15  16
ENDBRANCH  11  15
BRANCH  12  18
HETATM   18  O5  UNL     1      -2.654  19.933  34.429  1.00  0.00    -0.390 OA
ATOM     19  H5  UNL     1      -2.419  20.743  34.865  1.00  0.00     0.210 HD
ENDBRANCH  12  18
BRANCH  13  20
HETATM   20  O6  UNL     1       0.159  20.685  32.361  1.00  0.00    -0.390 OA
ATOM     21  H6  UNL     1       0.294  21.036  31.489  1.00  0.00     0.210 HD
ENDBRANCH  13  20
BRANCH  14  22
HETATM   22  O7  UNL     1      -2.866  22.356  32.241  1.00  0.00    -0.388 OA
ATOM     23  H7  UNL     1      -2.339  22.979  32.728  1.00  0.00     0.210 HD
ENDBRANCH  14  22
ENDBRANCH   8   9
ENDBRANCH   4   8
BRANCH   5  24
HETATM   24  O8  UNL     1      -1.394  20.744  26.868  1.00  0.00    -0.388 OA
ATOM     25  H8  UNL     1      -1.485  20.375  25.998  1.00  0.00     0.210 HD
ENDBRANCH   5  24
BRANCH   6  26
HETATM   26  O9  UNL     1      -3.125  21.731  25.435  1.00  0.00    -0.390 OA
ATOM     27  H9  UNL     1      -3.105  20.807  25.214  1.00  0.00     0.210 HD
ENDBRANCH   6  26
BRANCH   7  28
HETATM   28  O10 UNL     1      -4.459  23.989  26.832  1.00  0.00    -0.373 OA
BRANCH  28  29
HETATM   29  C13 UNL     1      -3.969  25.116  26.178  1.00  0.00     0.151 C 
HETATM   30  C14 UNL     1      -2.824  24.679  25.236  1.00  0.00     0.034 C 
HETATM   31  C15 UNL     1      -2.287  25.871  24.482  1.00  0.00     0.003 C 
HETATM   32  C16 UNL     1      -1.581  26.712  25.540  1.00  0.00     0.003 C 
HETATM   33  C17 UNL     1      -2.622  27.241  26.447  1.00  0.00     0.035 C 
HETATM   34  C18 UNL     1      -3.571  26.234  27.041  1.00  0.00     0.162 C 
BRANCH  34  35
HETATM   35  O11 UNL     1      -4.654  26.907  27.645  1.00  0.00    -0.296 OA
BRANCH  35  36
HETATM   36  C19 UNL     1      -4.703  27.141  29.011  1.00  0.00     0.361 C 
HETATM   37  O12 UNL     1      -5.818  27.147  29.599  1.00  0.00    -0.238 OA
HETATM   38  N1  UNL     1      -3.500  27.369  29.716  1.00  0.00    -0.329 N 
ATOM     39  H1  UNL     1      -2.628  27.354  29.188  1.00  0.00     0.165 HD
BRANCH  38  40
HETATM   40  C20 UNL     1      -3.422  27.622  31.134  1.00  0.00     0.024 C 
HETATM   41  C21 UNL     1      -4.414  28.685  31.568  1.00  0.00     0.037 C 
HETATM   42  C22 UNL     1      -3.697  26.358  31.915  1.00  0.00     0.037 C 
HETATM   43  C23 UNL     1      -2.041  28.113  31.560  1.00  0.00     0.037 C 
ENDBRANCH  38  40
ENDBRANCH  35  36
ENDBRANCH  34  35
ENDBRANCH  28  29
ENDBRANCH   7  28
TORSDOF 14
ENDMDL
MODEL 5
REMARK VINA RESULT: -9.357435996      1.152      1.409
REMARK  14 active torsions:
REMARK  status: ('A' for Active; 'I' for Inactive)
REMARK    1  A    between atoms: C3_4  and  O2_5 
REMARK    2  A    between atoms: O2_5  and  C4_6 
REMARK    3  A    between atoms: C5_8  and  C6_9 
REMARK    4  A    between atoms: C6_9  and  O4_10 
REMARK    5  A    between atoms: C7_12  and  O5_13 
REMARK    6  A    between atoms: C8_15  and  O6_16 
REMARK    7  A    between atoms: C9_18  and  O7_19 
REMARK    8  A    between atoms: C10_21  and  O8_22 
REMARK    9  A    between atoms: C11_24  and  O9_25 
REMARK   10  A    between atoms: C12_27  and  O10_28 
REMARK   11  A    between atoms: O10_28  and  C13_29 
REMARK   12  A    between atoms: C18_34  and  O11_35 
REMARK   13  A    between atoms: O11_35  and  C19_36 
REMARK       I    between atoms: C19_36  and  N1_38 
REMARK   14  A    between atoms: N1_38  and  C20_40 
ROOT
HETATM    1  C1  UNL     1      -3.410  22.626  28.388  1.00  0.00     0.042 C 
HETATM    2  C2  UNL     1      -2.773  21.994  27.178  1.00  0.00     0.152 C 
HETATM    3  O1  UNL     1      -2.907  20.617  27.294  1.00  0.00    -0.351 OA
HETATM    4  C3  UNL     1      -2.469  19.953  26.146  1.00  0.00     0.294 C 
HETATM    5  C10 UNL     1      -3.460  20.118  25.056  1.00  0.00     0.204 C 
HETATM    6  C11 UNL     1      -4.203  21.432  25.222  1.00  0.00     0.183 C 
HETATM    7  C12 UNL     1      -3.360  22.495  25.865  1.00  0.00     0.182 C 
ENDROOT
BRANCH   4   8
HETATM    8  O2  UNL     1      -2.377  18.600  26.552  1.00  0.00    -0.326 OA
BRANCH   8   9
HETATM    9  C4  UNL     1      -1.078  18.273  26.979  1.00  0.00     0.294 C 
HETATM   10  O3  UNL     1      -0.804  18.849  28.197  1.00  0.00    -0.348 OA
HETATM   11  C5  UNL     1      -1.030  18.095  29.301  1.00  0.00     0.179 C 
HETATM   12  C7  UNL     1      -0.399  16.739  29.277  1.00  0.00     0.180 C 
HETATM   13  C8  UNL     1      -0.820  15.994  28.062  1.00  0.00     0.183 C 
HETATM   14  C9  UNL     1      -0.805  16.825  26.839  1.00  0.00     0.204 C 
BRANCH  11  15
HETATM   15  C6  UNL     1      -2.486  17.952  29.673  1.00  0.00     0.198 C 
BRANCH  15  16
HETATM   16  O4  UNL     1      -3.163  19.183  29.635  1.00  0.00    -0.398 OA
ATOM     17  H4  UNL     1      -3.413  19.479  30.502  1.00  0.00     0.209 HD
ENDBRANCH  15  16
ENDBRANCH  11  15
BRANCH  12  18
HETATM   18  O5  UNL     1       0.974  16.886  29.344  1.00  0.00    -0.390 OA
ATOM     19  H5  UNL     1       1.285  16.491  30.151  1.00  0.00     0.210 HD
ENDBRANCH  12  18
BRANCH  13  20
HETATM   20  O6  UNL     1      -2.034  15.307  28.244  1.00  0.00    -0.390 OA
ATOM     21  H6  UNL     1      -2.304  15.278  29.154  1.00  0.00     0.210 HD
ENDBRANCH  13  20
BRANCH  14  22
HETATM   22  O7  UNL     1       0.383  16.601  26.139  1.00  0.00    -0.388 OA
ATOM     23  H7  UNL     1       0.413  15.719  25.787  1.00  0.00     0.210 HD
ENDBRANCH  14  22
ENDBRANCH   8   9
ENDBRANCH   4   8
BRANCH   5  24
HETATM   24  O8  UNL     1      -2.796  20.080  23.821  1.00  0.00    -0.388 OA
ATOM     25  H8  UNL     1      -2.382  20.920  23.665  1.00  0.00     0.210 HD
ENDBRANCH   5  24
BRANCH   6  26
HETATM   26  O9  UNL     1      -4.538  21.806  23.898  1.00  0.00    -0.390 OA
ATOM     27  H9  UNL     1      -3.939  22.516  23.701  1.00  0.00     0.210 HD
ENDBRANCH   6  26
BRANCH   7  28
HETATM   28  O10 UNL     1      -4.084  23.629  26.201  1.00  0.00    -0.373 OA
BRANCH  28  29
HETATM   29  C13 UNL     1      -3.641  24.804  25.600  1.00  0.00     0.151 C 
HETATM   30  C14 UNL     1      -2.566  24.443  24.549  1.00  0.00     0.034 C 
HETATM   31  C15 UNL     1      -2.082  25.690  23.851  1.00  0.00     0.003 C 
HETATM   32  C16 UNL     1      -1.302  26.452  24.916  1.00  0.00     0.003 C 
HETATM   33  C17 UNL     1      -2.274  26.907  25.931  1.00  0.00     0.035 C 
HETATM   34  C18 UNL     1      -3.180  25.855  26.515  1.00  0.00     0.162 C 
BRANCH  34  35
HETATM   35  O11 UNL     1      -4.216  26.476  27.243  1.00  0.00    -0.296 OA
BRANCH  35  36
HETATM   36  C19 UNL     1      -4.219  26.514  28.629  1.00  0.00     0.361 C 
HETATM   37  O12 UNL     1      -4.923  25.688  29.270  1.00  0.00    -0.238 OA
HETATM   38  N1  UNL     1      -3.431  27.480  29.295  1.00  0.00    -0.329 N 
ATOM     39  H1  UNL     1      -2.884  28.124  28.724  1.00  0.00     0.165 HD
BRANCH  38  40
HETATM   40  C20 UNL     1      -3.350  27.618  30.728  1.00  0.00     0.024 C 
HETATM   41  C21 UNL     1      -3.157  26.276  31.409  1.00  0.00     0.037 C 
HETATM   42  C22 UNL     1      -2.202  28.523  31.111  1.00  0.00     0.037 C 
HETATM   43  C23 UNL     1      -4.614  28.232  31.323  1.00  0.00     0.037 C 
ENDBRANCH  38  40
ENDBRANCH  35  36
ENDBRANCH  34  35
ENDBRANCH  28  29
ENDBRANCH   7  28
TORSDOF 14
ENDMDL
