MODEL 1
REMARK VINA RESULT: -8.633035736      0.000      0.000
REMARK  9 active torsions:
REMARK  status: ('A' for Active; 'I' for Inactive)
REMARK    1  A    between atoms: N1_2  and  C2_4 
REMARK    2  A    between atoms: C2_4  and  C3_5 
REMARK    3  A    between atoms: C2_4  and  C20_41 
REMARK       I    between atoms: C3_5  and  N2_7 
REMARK    4  A    between atoms: C6_11  and  O2_12 
REMARK    5  A    between atoms: C7_14  and  N3_15 
REMARK    6  A    between atoms: N4_20  and  O3_22 
REMARK    7  A    between atoms: C14_26  and  O5_27 
REMARK    8  A    between atoms: C17_33  and  N7_34 
REMARK    9  A    between atoms: C20_41  and  O6_44 
ROOT
HETATM    1  C3  UNL     1      -4.078  22.358  26.475  1.00  0.00     0.247 C 
HETATM    2  O1  UNL     1      -4.921  22.738  25.685  1.00  0.00    -0.271 OA
HETATM    3  N2  UNL     1      -3.497  23.226  27.430  1.00  0.00    -0.325 N 
ATOM      4  H2  UNL     1      -2.890  22.736  28.087  1.00  0.00     0.168 HD
HETATM    5  C4  UNL     1      -3.559  24.544  27.672  1.00  0.00     0.060 C 
HETATM    6  C5  UNL     1      -4.054  25.339  28.782  1.00  0.00     0.054 A 
HETATM    7  C6  UNL     1      -4.858  25.194  29.925  1.00  0.00     0.110 A 
HETATM    8  C7  UNL     1      -4.934  26.146  30.905  1.00  0.00     0.107 A 
HETATM    9  C14 UNL     1      -4.161  27.317  30.759  1.00  0.00     0.122 A 
HETATM   10  C15 UNL     1      -3.374  27.483  29.641  1.00  0.00     0.109 A 
HETATM   11  N5  UNL     1      -2.580  28.641  29.563  1.00  0.00    -0.097 NA
HETATM   12  C16 UNL     1      -3.313  26.531  28.647  1.00  0.00     0.075 A 
HETATM   13  N6  UNL     1      -2.844  26.609  27.291  1.00  0.00    -0.331 N 
HETATM   14  C17 UNL     1      -1.962  27.231  26.433  1.00  0.00     0.295 C 
HETATM   15  C18 UNL     1      -2.196  26.911  24.991  1.00  0.00     0.130 C 
HETATM   16  S1  UNL     1      -2.962  25.273  25.071  1.00  0.00    -0.134 SA
HETATM   17  C19 UNL     1      -3.758  25.590  26.621  1.00  0.00     0.200 C 
ENDROOT
BRANCH   1  18
HETATM   18  C2  UNL     1      -3.598  20.910  26.452  1.00  0.00     0.203 C 
BRANCH  18  19
HETATM   19  N1  UNL     1      -2.561  20.682  27.335  1.00  0.00    -0.411 N 
HETATM   20  C1  UNL     1      -2.794  20.096  28.597  1.00  0.00     0.141 C 
ATOM     21  H1  UNL     1      -1.611  20.941  27.071  1.00  0.00     0.153 HD
ENDBRANCH  18  19
BRANCH  18  22
HETATM   22  C20 UNL     1      -3.406  20.437  25.059  1.00  0.00     0.079 C 
HETATM   23  C21 UNL     1      -2.547  19.215  25.019  1.00  0.00     0.048 C 
HETATM   24  C22 UNL     1      -2.771  21.441  24.104  1.00  0.00     0.048 C 
BRANCH  22  25
HETATM   25  O6  UNL     1      -4.692  20.158  24.486  1.00  0.00    -0.388 OA
ATOM     26  H6  UNL     1      -4.679  19.282  24.118  1.00  0.00     0.210 HD
ENDBRANCH  22  25
ENDBRANCH  18  22
ENDBRANCH   1  18
BRANCH   7  27
HETATM   27  O2  UNL     1      -5.579  24.028  29.995  1.00  0.00    -0.357 OA
ATOM     28  H2  UNL     1      -5.505  23.550  30.813  1.00  0.00     0.217 HD
ENDBRANCH   7  27
BRANCH   8  29
HETATM   29  N3  UNL     1      -5.848  26.170  31.972  1.00  0.00    -0.308 N 
HETATM   30  C8  UNL     1      -5.565  25.325  33.170  1.00  0.00     0.133 C 
HETATM   31  C9  UNL     1      -5.488  26.163  34.419  1.00  0.00     0.026 C 
HETATM   32  C10 UNL     1      -6.681  27.014  34.635  1.00  0.00     0.066 C 
HETATM   33  C11 UNL     1      -7.425  27.344  33.412  1.00  0.00     0.100 C 
HETATM   34  N4  UNL     1      -8.503  28.036  33.508  1.00  0.00    -0.266 N 
HETATM   35  C13 UNL     1      -7.033  26.908  32.062  1.00  0.00     0.272 C 
ATOM     36  H4  UNL     1      -9.042  28.284  32.678  1.00  0.00     0.194 HD
HETATM   37  O4  UNL     1      -7.727  27.181  31.035  1.00  0.00    -0.266 OA
BRANCH  34  38
HETATM   38  O3  UNL     1      -8.913  28.433  34.764  1.00  0.00    -0.285 OA
HETATM   39  C12 UNL     1     -10.016  27.744  35.360  1.00  0.00     0.237 C 
ENDBRANCH  34  38
ENDBRANCH   8  29
BRANCH  14  40
HETATM   40  N7  UNL     1      -2.174  28.705  26.506  1.00  0.00    -0.057 N 
ATOM     41  H73 UNL     1      -3.158  28.952  26.612  1.00  0.00     0.276 HD
ATOM     42  H72 UNL     1      -1.833  29.103  27.381  1.00  0.00     0.276 HD
ATOM     43  H71 UNL     1      -1.750  29.142  25.688  1.00  0.00     0.276 HD
ENDBRANCH  14  40
BRANCH   9  44
HETATM   44  O5  UNL     1      -4.190  28.281  31.742  1.00  0.00    -0.357 OA
ATOM     45  H5  UNL     1      -3.820  28.094  32.596  1.00  0.00     0.218 HD
ENDBRANCH   9  44
TORSDOF 9
ENDMDL
MODEL 2
REMARK VINA RESULT: -8.573230113      2.523      3.885
REMARK  9 active torsions:
REMARK  status: ('A' for Active; 'I' for Inactive)
REMARK    1  A    between atoms: N1_2  and  C2_4 
REMARK    2  A    between atoms: C2_4  and  C3_5 
REMARK    3  A    between atoms: C2_4  and  C20_41 
REMARK       I    between atoms: C3_5  and  N2_7 
REMARK    4  A    between atoms: C6_11  and  O2_12 
REMARK    5  A    between atoms: C7_14  and  N3_15 
REMARK    6  A    between atoms: N4_20  and  O3_22 
REMARK    7  A    between atoms: C14_26  and  O5_27 
REMARK    8  A    between atoms: C17_33  and  N7_34 
REMARK    9  A    between atoms: C20_41  and  O6_44 
ROOT
HETATM    1  C3  UNL     1      -3.280  20.229  30.199  1.00  0.00     0.247 C 
HETATM    2  O1  UNL     1      -4.363  19.761  29.907  1.00  0.00    -0.271 OA
HETATM    3  N2  UNL     1      -2.996  21.610  30.064  1.00  0.00    -0.325 N 
ATOM      4  H2  UNL     1      -2.086  21.862  30.450  1.00  0.00     0.168 HD
HETATM    5  C4  UNL     1      -3.646  22.663  29.547  1.00  0.00     0.060 C 
HETATM    6  C5  UNL     1      -4.183  23.888  30.111  1.00  0.00     0.054 A 
HETATM    7  C6  UNL     1      -4.500  24.436  31.366  1.00  0.00     0.110 A 
HETATM    8  C7  UNL     1      -4.800  25.760  31.543  1.00  0.00     0.107 A 
HETATM    9  C14 UNL     1      -4.776  26.606  30.414  1.00  0.00     0.122 A 
HETATM   10  C15 UNL     1      -4.477  26.086  29.175  1.00  0.00     0.109 A 
HETATM   11  N5  UNL     1      -4.414  26.976  28.087  1.00  0.00    -0.097 NA
HETATM   12  C16 UNL     1      -4.194  24.750  28.996  1.00  0.00     0.075 A 
HETATM   13  N6  UNL     1      -4.174  23.938  27.811  1.00  0.00    -0.331 N 
HETATM   14  C17 UNL     1      -3.961  23.930  26.448  1.00  0.00     0.295 C 
HETATM   15  C18 UNL     1      -4.347  22.647  25.785  1.00  0.00     0.130 C 
HETATM   16  S1  UNL     1      -4.148  21.439  27.117  1.00  0.00    -0.134 SA
HETATM   17  C19 UNL     1      -4.590  22.590  28.388  1.00  0.00     0.200 C 
ENDROOT
BRANCH   1  18
HETATM   18  C2  UNL     1      -2.163  19.326  30.715  1.00  0.00     0.203 C 
BRANCH  18  19
HETATM   19  N1  UNL     1      -2.242  18.044  30.209  1.00  0.00    -0.411 N 
HETATM   20  C1  UNL     1      -1.443  17.640  29.119  1.00  0.00     0.141 C 
ATOM     21  H1  UNL     1      -2.890  17.377  30.630  1.00  0.00     0.153 HD
ENDBRANCH  18  19
BRANCH  18  22
HETATM   22  C20 UNL     1      -2.013  19.457  32.185  1.00  0.00     0.079 C 
HETATM   23  C21 UNL     1      -0.573  19.527  32.575  1.00  0.00     0.048 C 
HETATM   24  C22 UNL     1      -2.628  18.333  33.013  1.00  0.00     0.048 C 
BRANCH  22  25
HETATM   25  O6  UNL     1      -2.703  20.640  32.616  1.00  0.00    -0.388 OA
ATOM     26  H6  UNL     1      -2.070  21.242  32.991  1.00  0.00     0.210 HD
ENDBRANCH  22  25
ENDBRANCH  18  22
ENDBRANCH   1  18
BRANCH   7  27
HETATM   27  O2  UNL     1      -4.501  23.550  32.414  1.00  0.00    -0.357 OA
ATOM     28  H2  UNL     1      -5.032  23.801  33.161  1.00  0.00     0.217 HD
ENDBRANCH   7  27
BRANCH   8  29
HETATM   29  N3  UNL     1      -5.311  26.348  32.712  1.00  0.00    -0.308 N 
HETATM   30  C8  UNL     1      -4.347  26.850  33.736  1.00  0.00     0.133 C 
HETATM   31  C9  UNL     1      -4.557  28.318  34.003  1.00  0.00     0.026 C 
HETATM   32  C10 UNL     1      -5.951  28.659  34.369  1.00  0.00     0.066 C 
HETATM   33  C11 UNL     1      -6.960  27.714  33.874  1.00  0.00     0.100 C 
HETATM   34  N4  UNL     1      -8.193  27.902  34.185  1.00  0.00    -0.266 N 
HETATM   35  C13 UNL     1      -6.654  26.530  33.056  1.00  0.00     0.272 C 
ATOM     36  H4  UNL     1      -8.919  27.265  33.857  1.00  0.00     0.194 HD
HETATM   37  O4  UNL     1      -7.553  25.715  32.683  1.00  0.00    -0.266 OA
BRANCH  34  38
HETATM   38  O3  UNL     1      -8.507  28.987  34.977  1.00  0.00    -0.285 OA
HETATM   39  C12 UNL     1      -9.170  28.742  36.221  1.00  0.00     0.237 C 
ENDBRANCH  34  38
ENDBRANCH   8  29
BRANCH  14  40
HETATM   40  N7  UNL     1      -4.854  24.940  25.812  1.00  0.00    -0.057 N 
ATOM     41  H73 UNL     1      -5.814  24.608  25.722  1.00  0.00     0.276 HD
ATOM     42  H72 UNL     1      -5.036  25.736  26.423  1.00  0.00     0.276 HD
ATOM     43  H71 UNL     1      -4.454  25.219  24.917  1.00  0.00     0.276 HD
ENDBRANCH  14  40
BRANCH   9  44
HETATM   44  O5  UNL     1      -5.042  27.949  30.563  1.00  0.00    -0.357 OA
ATOM     45  H5  UNL     1      -5.898  28.288  30.327  1.00  0.00     0.218 HD
ENDBRANCH   9  44
TORSDOF 9
ENDMDL
MODEL 3
REMARK VINA RESULT: -8.437006528      2.602      4.200
REMARK  9 active torsions:
REMARK  status: ('A' for Active; 'I' for Inactive)
REMARK    1  A    between atoms: N1_2  and  C2_4 
REMARK    2  A    between atoms: C2_4  and  C3_5 
REMARK    3  A    between atoms: C2_4  and  C20_41 
REMARK       I    between atoms: C3_5  and  N2_7 
REMARK    4  A    between atoms: C6_11  and  O2_12 
REMARK    5  A    between atoms: C7_14  and  N3_15 
REMARK    6  A    between atoms: N4_20  and  O3_22 
REMARK    7  A    between atoms: C14_26  and  O5_27 
REMARK    8  A    between atoms: C17_33  and  N7_34 
REMARK    9  A    between atoms: C20_41  and  O6_44 
ROOT
HETATM    1  C3  UNL     1      -3.023  19.914  29.803  1.00  0.00     0.247 C 
HETATM    2  O1  UNL     1      -4.065  19.400  29.446  1.00  0.00    -0.271 OA
HETATM    3  N2  UNL     1      -2.732  21.277  29.557  1.00  0.00    -0.325 N 
ATOM      4  H2  UNL     1      -1.872  21.582  30.011  1.00  0.00     0.168 HD
HETATM    5  C4  UNL     1      -3.327  22.261  28.866  1.00  0.00     0.060 C 
HETATM    6  C5  UNL     1      -3.928  23.529  29.239  1.00  0.00     0.054 A 
HETATM    7  C6  UNL     1      -4.383  24.198  30.388  1.00  0.00     0.110 A 
HETATM    8  C7  UNL     1      -4.706  25.529  30.393  1.00  0.00     0.107 A 
HETATM    9  C14 UNL     1      -4.563  26.254  29.192  1.00  0.00     0.122 A 
HETATM   10  C15 UNL     1      -4.128  25.615  28.053  1.00  0.00     0.109 A 
HETATM   11  N5  UNL     1      -3.950  26.389  26.892  1.00  0.00    -0.097 NA
HETATM   12  C16 UNL     1      -3.821  24.272  28.045  1.00  0.00     0.075 A 
HETATM   13  N6  UNL     1      -3.668  23.343  26.960  1.00  0.00    -0.331 N 
HETATM   14  C17 UNL     1      -3.307  23.198  25.636  1.00  0.00     0.295 C 
HETATM   15  C18 UNL     1      -3.613  21.848  25.072  1.00  0.00     0.130 C 
HETATM   16  S1  UNL     1      -3.555  20.787  26.537  1.00  0.00    -0.134 SA
HETATM   17  C19 UNL     1      -4.138  22.055  27.626  1.00  0.00     0.200 C 
ENDROOT
BRANCH   1  18
HETATM   18  C2  UNL     1      -1.966  19.086  30.528  1.00  0.00     0.203 C 
BRANCH  18  19
HETATM   19  N1  UNL     1      -1.949  17.769  30.115  1.00  0.00    -0.411 N 
HETATM   20  C1  UNL     1      -1.261  17.380  28.946  1.00  0.00     0.141 C 
ATOM     21  H1  UNL     1      -2.442  17.065  30.664  1.00  0.00     0.153 HD
ENDBRANCH  18  19
BRANCH  18  22
HETATM   22  C20 UNL     1      -2.015  19.328  31.991  1.00  0.00     0.079 C 
HETATM   23  C21 UNL     1      -0.643  19.509  32.553  1.00  0.00     0.048 C 
HETATM   24  C22 UNL     1      -2.677  18.231  32.818  1.00  0.00     0.048 C 
BRANCH  22  25
HETATM   25  O6  UNL     1      -2.811  20.496  32.239  1.00  0.00    -0.388 OA
ATOM     26  H6  UNL     1      -3.240  20.400  33.082  1.00  0.00     0.210 HD
ENDBRANCH  22  25
ENDBRANCH  18  22
ENDBRANCH   1  18
BRANCH   7  27
HETATM   27  O2  UNL     1      -4.494  23.425  31.517  1.00  0.00    -0.357 OA
ATOM     28  H2  UNL     1      -5.075  23.763  32.188  1.00  0.00     0.217 HD
ENDBRANCH   7  27
BRANCH   8  29
HETATM   29  N3  UNL     1      -5.345  26.225  31.433  1.00  0.00    -0.308 N 
HETATM   30  C8  UNL     1      -6.769  26.635  31.244  1.00  0.00     0.133 C 
HETATM   31  C9  UNL     1      -7.646  26.059  32.325  1.00  0.00     0.026 C 
HETATM   32  C10 UNL     1      -7.177  26.368  33.695  1.00  0.00     0.066 C 
HETATM   33  C11 UNL     1      -5.739  26.645  33.801  1.00  0.00     0.100 C 
HETATM   34  N4  UNL     1      -5.251  26.973  34.943  1.00  0.00    -0.266 N 
HETATM   35  C13 UNL     1      -4.802  26.599  32.666  1.00  0.00     0.272 C 
ATOM     36  H4  UNL     1      -4.256  27.169  35.051  1.00  0.00     0.194 HD
HETATM   37  O4  UNL     1      -3.572  26.885  32.793  1.00  0.00    -0.266 OA
BRANCH  34  38
HETATM   38  O3  UNL     1      -6.110  27.053  36.020  1.00  0.00    -0.285 OA
HETATM   39  C12 UNL     1      -5.593  27.557  37.255  1.00  0.00     0.237 C 
ENDBRANCH  34  38
ENDBRANCH   8  29
BRANCH  14  40
HETATM   40  N7  UNL     1      -4.130  24.123  24.807  1.00  0.00    -0.057 N 
ATOM     41  H73 UNL     1      -3.565  24.827  24.331  1.00  0.00     0.276 HD
ATOM     42  H72 UNL     1      -4.514  23.666  23.980  1.00  0.00     0.276 HD
ATOM     43  H71 UNL     1      -4.854  24.539  25.394  1.00  0.00     0.276 HD
ENDBRANCH  14  40
BRANCH   9  44
HETATM   44  O5  UNL     1      -4.850  27.601  29.170  1.00  0.00    -0.357 OA
ATOM     45  H5  UNL     1      -4.444  28.158  28.516  1.00  0.00     0.218 HD
ENDBRANCH   9  44
TORSDOF 9
ENDMDL
MODEL 4
REMARK VINA RESULT: -8.385919761      1.891      2.336
REMARK  9 active torsions:
REMARK  status: ('A' for Active; 'I' for Inactive)
REMARK    1  A    between atoms: N1_2  and  C2_4 
REMARK    2  A    between atoms: C2_4  and  C3_5 
REMARK    3  A    between atoms: C2_4  and  C20_41 
REMARK       I    between atoms: C3_5  and  N2_7 
REMARK    4  A    between atoms: C6_11  and  O2_12 
REMARK    5  A    between atoms: C7_14  and  N3_15 
REMARK    6  A    between atoms: N4_20  and  O3_22 
REMARK    7  A    between atoms: C14_26  and  O5_27 
REMARK    8  A    between atoms: C17_33  and  N7_34 
REMARK    9  A    between atoms: C20_41  and  O6_44 
ROOT
HETATM    1  C3  UNL     1      -3.581  21.782  25.945  1.00  0.00     0.247 C 
HETATM    2  O1  UNL     1      -4.505  22.002  25.187  1.00  0.00    -0.271 OA
HETATM    3  N2  UNL     1      -2.871  22.824  26.589  1.00  0.00    -0.325 N 
ATOM      4  H2  UNL     1      -2.199  22.476  27.272  1.00  0.00     0.168 HD
HETATM    5  C4  UNL     1      -2.878  24.164  26.508  1.00  0.00     0.060 C 
HETATM    6  C5  UNL     1      -3.219  25.224  27.440  1.00  0.00     0.054 A 
HETATM    7  C6  UNL     1      -3.882  25.394  28.667  1.00  0.00     0.110 A 
HETATM    8  C7  UNL     1      -3.820  26.556  29.388  1.00  0.00     0.107 A 
HETATM    9  C14 UNL     1      -3.047  27.620  28.876  1.00  0.00     0.122 A 
HETATM   10  C15 UNL     1      -2.399  27.475  27.670  1.00  0.00     0.109 A 
HETATM   11  N5  UNL     1      -1.597  28.541  27.224  1.00  0.00    -0.097 NA
HETATM   12  C16 UNL     1      -2.476  26.312  26.937  1.00  0.00     0.075 A 
HETATM   13  N6  UNL     1      -2.174  26.040  25.559  1.00  0.00    -0.331 N 
HETATM   14  C17 UNL     1      -1.390  26.396  24.481  1.00  0.00     0.295 C 
HETATM   15  C18 UNL     1      -1.803  25.752  23.196  1.00  0.00     0.130 C 
HETATM   16  S1  UNL     1      -2.586  24.220  23.758  1.00  0.00    -0.134 SA
HETATM   17  C19 UNL     1      -3.182  24.936  25.264  1.00  0.00     0.200 C 
ENDROOT
BRANCH   1  18
HETATM   18  C2  UNL     1      -3.135  20.349  26.221  1.00  0.00     0.203 C 
BRANCH  18  19
HETATM   19  N1  UNL     1      -2.351  20.247  27.353  1.00  0.00    -0.411 N 
HETATM   20  C1  UNL     1      -2.929  20.045  28.624  1.00  0.00     0.141 C 
ATOM     21  H1  UNL     1      -1.337  20.319  27.269  1.00  0.00     0.153 HD
ENDBRANCH  18  19
BRANCH  18  22
HETATM   22  C20 UNL     1      -2.615  19.709  24.988  1.00  0.00     0.079 C 
HETATM   23  C21 UNL     1      -1.549  18.712  25.307  1.00  0.00     0.048 C 
HETATM   24  C22 UNL     1      -2.021  20.658  23.952  1.00  0.00     0.048 C 
BRANCH  22  25
HETATM   25  O6  UNL     1      -3.705  19.069  24.306  1.00  0.00    -0.388 OA
ATOM     26  H6  UNL     1      -3.748  19.403  23.417  1.00  0.00     0.210 HD
ENDBRANCH  22  25
ENDBRANCH  18  22
ENDBRANCH   1  18
BRANCH   7  27
HETATM   27  O2  UNL     1      -4.611  24.315  29.099  1.00  0.00    -0.357 OA
ATOM     28  H2  UNL     1      -4.853  23.690  28.427  1.00  0.00     0.217 HD
ENDBRANCH   7  27
BRANCH   8  29
HETATM   29  N3  UNL     1      -4.598  26.879  30.513  1.00  0.00    -0.308 N 
HETATM   30  C8  UNL     1      -6.061  27.108  30.324  1.00  0.00     0.133 C 
HETATM   31  C9  UNL     1      -6.872  26.165  31.174  1.00  0.00     0.026 C 
HETATM   32  C10 UNL     1      -6.506  26.199  32.609  1.00  0.00     0.066 C 
HETATM   33  C11 UNL     1      -5.135  26.650  32.879  1.00  0.00     0.100 C 
HETATM   34  N4  UNL     1      -4.745  26.760  34.098  1.00  0.00    -0.266 N 
HETATM   35  C13 UNL     1      -4.165  27.019  31.836  1.00  0.00     0.272 C 
ATOM     36  H4  UNL     1      -3.799  27.068  34.320  1.00  0.00     0.194 HD
HETATM   37  O4  UNL     1      -3.001  27.443  32.114  1.00  0.00    -0.266 OA
BRANCH  34  38
HETATM   38  O3  UNL     1      -5.642  26.450  35.100  1.00  0.00    -0.285 OA
HETATM   39  C12 UNL     1      -5.575  27.199  36.317  1.00  0.00     0.237 C 
ENDBRANCH  34  38
ENDBRANCH   8  29
BRANCH  14  40
HETATM   40  N7  UNL     1      -1.563  27.853  24.218  1.00  0.00    -0.057 N 
ATOM     41  H73 UNL     1      -2.499  28.080  23.883  1.00  0.00     0.276 HD
ATOM     42  H72 UNL     1      -1.581  28.403  25.076  1.00  0.00     0.276 HD
ATOM     43  H71 UNL     1      -0.835  28.161  23.573  1.00  0.00     0.276 HD
ENDBRANCH  14  40
BRANCH   9  44
HETATM   44  O5  UNL     1      -2.939  28.791  29.592  1.00  0.00    -0.357 OA
ATOM     45  H5  UNL     1      -2.098  29.228  29.655  1.00  0.00     0.218 HD
ENDBRANCH   9  44
TORSDOF 9
ENDMDL
MODEL 5
REMARK VINA RESULT: -8.307460469      5.023      8.888
REMARK  9 active torsions:
REMARK  status: ('A' for Active; 'I' for Inactive)
REMARK    1  A    between atoms: N1_2  and  C2_4 
REMARK    2  A    between atoms: C2_4  and  C3_5 
REMARK    3  A    between atoms: C2_4  and  C20_41 
REMARK       I    between atoms: C3_5  and  N2_7 
REMARK    4  A    between atoms: C6_11  and  O2_12 
REMARK    5  A    between atoms: C7_14  and  N3_15 
REMARK    6  A    between atoms: N4_20  and  O3_22 
REMARK    7  A    between atoms: C14_26  and  O5_27 
REMARK    8  A    between atoms: C17_33  and  N7_34 
REMARK    9  A    between atoms: C20_41  and  O6_44 
ROOT
HETATM    1  C3  UNL     1      -3.661  22.484  27.115  1.00  0.00     0.247 C 
HETATM    2  O1  UNL     1      -2.657  23.140  26.911  1.00  0.00    -0.271 OA
HETATM    3  N2  UNL     1      -3.607  21.109  27.446  1.00  0.00    -0.325 N 
ATOM      4  H2  UNL     1      -4.521  20.730  27.692  1.00  0.00     0.168 HD
HETATM    5  C4  UNL     1      -2.633  20.189  27.511  1.00  0.00     0.060 C 
HETATM    6  C5  UNL     1      -2.060  19.408  28.592  1.00  0.00     0.054 A 
HETATM    7  C6  UNL     1      -2.037  19.385  29.997  1.00  0.00     0.110 A 
HETATM    8  C7  UNL     1      -1.547  18.326  30.714  1.00  0.00     0.107 A 
HETATM    9  C14 UNL     1      -1.055  17.210  30.004  1.00  0.00     0.122 A 
HETATM   10  C15 UNL     1      -1.060  17.218  28.627  1.00  0.00     0.109 A 
HETATM   11  N5  UNL     1      -0.609  16.063  27.962  1.00  0.00    -0.097 NA
HETATM   12  C16 UNL     1      -1.536  18.291  27.908  1.00  0.00     0.075 A 
HETATM   13  N6  UNL     1      -1.357  18.663  26.531  1.00  0.00    -0.331 N 
HETATM   14  C17 UNL     1      -1.141  18.194  25.252  1.00  0.00     0.295 C 
HETATM   15  C18 UNL     1      -0.836  19.270  24.259  1.00  0.00     0.130 C 
HETATM   16  S1  UNL     1      -1.670  20.710  24.970  1.00  0.00    -0.134 SA
HETATM   17  C19 UNL     1      -1.416  20.182  26.641  1.00  0.00     0.200 C 
ENDROOT
BRANCH   1  18
HETATM   18  C2  UNL     1      -5.038  23.131  27.005  1.00  0.00     0.203 C 
BRANCH  18  19
HETATM   19  N1  UNL     1      -5.907  22.698  27.987  1.00  0.00    -0.411 N 
HETATM   20  C1  UNL     1      -5.670  22.983  29.348  1.00  0.00     0.141 C 
ATOM     21  H1  UNL     1      -6.734  22.162  27.724  1.00  0.00     0.153 HD
ENDBRANCH  18  19
BRANCH  18  22
HETATM   22  C20 UNL     1      -5.534  23.088  25.608  1.00  0.00     0.079 C 
HETATM   23  C21 UNL     1      -4.878  24.138  24.772  1.00  0.00     0.048 C 
HETATM   24  C22 UNL     1      -7.037  23.277  25.435  1.00  0.00     0.048 C 
BRANCH  22  25
HETATM   25  O6  UNL     1      -5.270  21.785  25.064  1.00  0.00    -0.388 OA
ATOM     26  H6  UNL     1      -6.098  21.342  24.920  1.00  0.00     0.210 HD
ENDBRANCH  22  25
ENDBRANCH  18  22
ENDBRANCH   1  18
BRANCH   7  27
HETATM   27  O2  UNL     1      -2.533  20.505  30.614  1.00  0.00    -0.357 OA
ATOM     28  H2  UNL     1      -2.851  20.377  31.500  1.00  0.00     0.217 HD
ENDBRANCH   7  27
BRANCH   8  29
HETATM   29  N3  UNL     1      -1.309  18.298  32.098  1.00  0.00    -0.308 N 
HETATM   30  C8  UNL     1      -2.464  18.050  33.013  1.00  0.00     0.133 C 
HETATM   31  C9  UNL     1      -2.221  16.837  33.873  1.00  0.00     0.026 C 
HETATM   32  C10 UNL     1      -0.946  16.889  34.624  1.00  0.00     0.066 C 
HETATM   33  C11 UNL     1       0.084  17.744  34.019  1.00  0.00     0.100 C 
HETATM   34  N4  UNL     1       1.206  17.891  34.627  1.00  0.00    -0.266 N 
HETATM   35  C13 UNL     1      -0.089  18.481  32.757  1.00  0.00     0.272 C 
ATOM     36  H4  UNL     1       1.943  18.475  34.233  1.00  0.00     0.194 HD
HETATM   37  O4  UNL     1       0.812  19.242  32.289  1.00  0.00    -0.266 OA
BRANCH  34  38
HETATM   38  O3  UNL     1       1.387  17.236  35.828  1.00  0.00    -0.285 OA
HETATM   39  C12 UNL     1       2.553  16.421  35.979  1.00  0.00     0.237 C 
ENDBRANCH  34  38
ENDBRANCH   8  29
BRANCH  14  40
HETATM   40  N7  UNL     1       0.087  17.349  25.247  1.00  0.00    -0.057 N 
ATOM     41  H73 UNL     1       0.746  17.616  25.977  1.00  0.00     0.276 HD
ATOM     42  H72 UNL     1      -0.096  16.396  25.561  1.00  0.00     0.276 HD
ATOM     43  H71 UNL     1       0.505  17.378  24.317  1.00  0.00     0.276 HD
ENDBRANCH  14  40
BRANCH   9  44
HETATM   44  O5  UNL     1      -0.584  16.116  30.695  1.00  0.00    -0.357 OA
ATOM     45  H5  UNL     1      -0.940  15.254  30.511  1.00  0.00     0.218 HD
ENDBRANCH   9  44
TORSDOF 9
ENDMDL
