MODEL 1
REMARK VINA RESULT: -9.448362188      0.000      0.000
REMARK  11 active torsions:
REMARK  status: ('A' for Active; 'I' for Inactive)
REMARK    1  A    between atoms: C2_2  and  C3_7 
REMARK    2  A    between atoms: N1_3  and  O1_5 
REMARK       I    between atoms: C3_7  and  N2_9 
REMARK    3  A    between atoms: N2_9  and  C4_11 
REMARK    4  A    between atoms: C9_16  and  S1_17 
REMARK    5  A    between atoms: C11_22  and  C12_23 
REMARK    6  A    between atoms: C14_27  and  O8_28 
REMARK    7  A    between atoms: C15_30  and  O9_31 
REMARK    8  A    between atoms: C16_33  and  C17_34 
REMARK    9  A    between atoms: C17_34  and  N3_35 
REMARK   10  A    between atoms: C17_34  and  C18_39 
REMARK   11  A    between atoms: C18_39  and  N4_40 
ROOT
HETATM    1  C4  UNL     1      -4.185  24.018  30.179  1.00  0.00     0.070 A 
HETATM    2  C5  UNL     1      -4.334  24.356  28.877  1.00  0.00     0.046 A 
HETATM    3  C6  UNL     1      -3.978  23.571  27.759  1.00  0.00    -0.006 A 
HETATM    4  C7  UNL     1      -3.424  22.352  27.968  1.00  0.00     0.004 A 
HETATM    5  C8  UNL     1      -2.981  21.465  26.962  1.00  0.00     0.030 A 
HETATM    6  C9  UNL     1      -2.391  20.218  27.302  1.00  0.00     0.095 A 
HETATM    7  C10 UNL     1      -2.287  19.950  28.651  1.00  0.00     0.046 A 
HETATM    8  C11 UNL     1      -2.688  20.760  29.669  1.00  0.00     0.056 A 
HETATM    9  C13 UNL     1      -3.254  21.961  29.317  1.00  0.00     0.029 A 
HETATM   10  C14 UNL     1      -3.617  22.754  30.394  1.00  0.00     0.104 A 
HETATM   11  C15 UNL     1      -2.955  21.714  25.546  1.00  0.00     0.068 C 
HETATM   12  C16 UNL     1      -3.810  22.108  24.459  1.00  0.00     0.129 C 
HETATM   13  C19 UNL     1      -3.019  23.244  23.790  1.00  0.00     0.068 A 
HETATM   14  N5  UNL     1      -2.361  24.258  23.269  1.00  0.00    -0.340 N 
ATOM     15  H5  UNL     1      -1.772  24.621  22.520  1.00  0.00     0.167 HD
HETATM   16  C20 UNL     1      -3.065  24.493  24.515  1.00  0.00     0.129 A 
HETATM   17  N6  UNL     1      -3.641  24.783  25.580  1.00  0.00    -0.350 N 
ATOM     18  H6  UNL     1      -3.462  25.757  25.822  1.00  0.00     0.166 HD
HETATM   19  C21 UNL     1      -4.422  24.213  26.506  1.00  0.00     0.102 C 
ENDROOT
BRANCH   1  20
HETATM   20  N2  UNL     1      -4.534  24.799  31.295  1.00  0.00    -0.319 N 
HETATM   21  C3  UNL     1      -5.716  24.749  32.020  1.00  0.00     0.270 C 
HETATM   22  O2  UNL     1      -6.651  23.975  31.765  1.00  0.00    -0.266 OA
ATOM     23  H2  UNL     1      -3.841  25.480  31.606  1.00  0.00     0.169 HD
BRANCH  21  24
HETATM   24  C2  UNL     1      -5.906  25.665  33.182  1.00  0.00     0.096 C 
HETATM   25  C1  UNL     1      -4.780  25.920  34.117  1.00  0.00     0.076 C 
HETATM   26  N1  UNL     1      -7.020  26.226  33.376  1.00  0.00    -0.268 N 
ATOM     27  H1  UNL     1      -7.086  26.840  34.188  1.00  0.00     0.194 HD
BRANCH  26  28
HETATM   28  O1  UNL     1      -8.137  26.100  32.622  1.00  0.00    -0.290 OA
ATOM     29  H1  UNL     1      -8.797  25.420  32.687  1.00  0.00     0.244 HD
ENDBRANCH  26  28
ENDBRANCH  21  24
ENDBRANCH   1  20
BRANCH  10  30
HETATM   30  O8  UNL     1      -3.419  22.300  31.677  1.00  0.00    -0.357 OA
ATOM     31  H8  UNL     1      -2.559  21.998  31.946  1.00  0.00     0.217 HD
ENDBRANCH  10  30
BRANCH   8  32
HETATM   32  C12 UNL     1      -2.487  20.291  31.045  1.00  0.00     0.210 C 
HETATM   33  O6  UNL     1      -3.347  19.585  31.666  1.00  0.00    -0.644 OA
HETATM   34  O7  UNL     1      -1.278  20.658  31.654  1.00  0.00    -0.644 OA
ENDBRANCH   8  32
BRANCH   6  35
HETATM   35  S1  UNL     1      -1.764  19.046  26.211  1.00  0.00     0.138 S 
HETATM   36  O3  UNL     1      -0.376  19.285  25.682  1.00  0.00    -0.591 OA
HETATM   37  O4  UNL     1      -2.715  18.419  25.267  1.00  0.00    -0.591 OA
HETATM   38  O5  UNL     1      -1.372  17.634  27.147  1.00  0.00    -0.591 OA
ENDBRANCH   6  35
BRANCH  11  39
HETATM   39  O9  UNL     1      -1.707  21.515  25.086  1.00  0.00    -0.363 OA
ATOM     40  H9  UNL     1      -1.634  21.885  24.215  1.00  0.00     0.217 HD
ENDBRANCH  11  39
BRANCH  12  41
HETATM   41  C17 UNL     1      -3.923  21.017  23.384  1.00  0.00     0.225 C 
BRANCH  41  42
HETATM   42  N3  UNL     1      -2.593  20.371  23.267  1.00  0.00    -0.072 N 
ATOM     43  H33 UNL     1      -1.821  21.029  23.369  1.00  0.00     0.274 HD
ATOM     44  H32 UNL     1      -2.368  19.777  24.065  1.00  0.00     0.274 HD
ATOM     45  H31 UNL     1      -2.575  19.870  22.379  1.00  0.00     0.274 HD
ENDBRANCH  41  42
BRANCH  41  46
HETATM   46  C18 UNL     1      -4.863  19.906  23.711  1.00  0.00     0.263 C 
BRANCH  46  47
HETATM   47  N4  UNL     1      -5.516  19.442  22.457  1.00  0.00    -0.077 N 
ATOM     48  H43 UNL     1      -6.006  20.193  21.972  1.00  0.00     0.274 HD
ATOM     49  H42 UNL     1      -4.840  19.219  21.726  1.00  0.00     0.274 HD
ATOM     50  H41 UNL     1      -6.127  18.655  22.675  1.00  0.00     0.274 HD
ENDBRANCH  46  47
ENDBRANCH  41  46
ENDBRANCH  12  41
TORSDOF 11
ENDMDL
MODEL 2
REMARK VINA RESULT: -9.265062860      3.251      4.979
REMARK  11 active torsions:
REMARK  status: ('A' for Active; 'I' for Inactive)
REMARK    1  A    between atoms: C2_2  and  C3_7 
REMARK    2  A    between atoms: N1_3  and  O1_5 
REMARK       I    between atoms: C3_7  and  N2_9 
REMARK    3  A    between atoms: N2_9  and  C4_11 
REMARK    4  A    between atoms: C9_16  and  S1_17 
REMARK    5  A    between atoms: C11_22  and  C12_23 
REMARK    6  A    between atoms: C14_27  and  O8_28 
REMARK    7  A    between atoms: C15_30  and  O9_31 
REMARK    8  A    between atoms: C16_33  and  C17_34 
REMARK    9  A    between atoms: C17_34  and  N3_35 
REMARK   10  A    between atoms: C17_34  and  C18_39 
REMARK   11  A    between atoms: C18_39  and  N4_40 
ROOT
HETATM    1  C4  UNL     1      -2.448  19.610  30.986  1.00  0.00     0.070 A 
HETATM    2  C5  UNL     1      -3.108  20.757  30.702  1.00  0.00     0.046 A 
HETATM    3  C6  UNL     1      -3.351  21.291  29.418  1.00  0.00    -0.006 A 
HETATM    4  C7  UNL     1      -2.888  20.620  28.334  1.00  0.00     0.004 A 
HETATM    5  C8  UNL     1      -3.015  21.038  26.992  1.00  0.00     0.030 A 
HETATM    6  C9  UNL     1      -2.467  20.262  25.935  1.00  0.00     0.095 A 
HETATM    7  C10 UNL     1      -1.821  19.104  26.313  1.00  0.00     0.046 A 
HETATM    8  C11 UNL     1      -1.659  18.647  27.586  1.00  0.00     0.056 A 
HETATM    9  C13 UNL     1      -2.195  19.414  28.590  1.00  0.00     0.029 A 
HETATM   10  C14 UNL     1      -1.975  18.914  29.864  1.00  0.00     0.104 A 
HETATM   11  C15 UNL     1      -3.575  22.278  26.525  1.00  0.00     0.068 C 
HETATM   12  C16 UNL     1      -4.770  23.074  26.613  1.00  0.00     0.129 C 
HETATM   13  C19 UNL     1      -4.233  24.466  26.984  1.00  0.00     0.068 A 
HETATM   14  N5  UNL     1      -3.763  25.635  27.366  1.00  0.00    -0.340 N 
ATOM     15  H5  UNL     1      -3.520  26.596  27.126  1.00  0.00     0.167 HD
HETATM   16  C20 UNL     1      -3.834  24.588  28.368  1.00  0.00     0.129 A 
HETATM   17  N6  UNL     1      -3.863  23.752  29.288  1.00  0.00    -0.350 N 
ATOM     18  H6  UNL     1      -3.498  24.162  30.148  1.00  0.00     0.166 HD
HETATM   19  C21 UNL     1      -4.222  22.480  29.502  1.00  0.00     0.102 C 
ENDROOT
BRANCH   1  20
HETATM   20  N2  UNL     1      -2.202  19.077  32.264  1.00  0.00    -0.319 N 
HETATM   21  C3  UNL     1      -0.985  19.011  32.927  1.00  0.00     0.270 C 
HETATM   22  O2  UNL     1       0.083  19.432  32.456  1.00  0.00    -0.266 OA
ATOM     23  H2  UNL     1      -3.008  18.696  32.759  1.00  0.00     0.169 HD
BRANCH  21  24
HETATM   24  C2  UNL     1      -0.921  18.405  34.289  1.00  0.00     0.096 C 
HETATM   25  C1  UNL     1       0.208  17.510  34.650  1.00  0.00     0.076 C 
HETATM   26  N1  UNL     1      -1.824  18.648  35.137  1.00  0.00    -0.268 N 
ATOM     27  H1  UNL     1      -1.725  18.203  36.049  1.00  0.00     0.194 HD
BRANCH  26  28
HETATM   28  O1  UNL     1      -2.911  19.437  34.966  1.00  0.00    -0.290 OA
ATOM     29  H1  UNL     1      -3.787  19.282  35.297  1.00  0.00     0.244 HD
ENDBRANCH  26  28
ENDBRANCH  21  24
ENDBRANCH   1  20
BRANCH  10  30
HETATM   30  O8  UNL     1      -1.292  17.731  30.028  1.00  0.00    -0.357 OA
ATOM     31  H8  UNL     1      -0.471  17.592  29.571  1.00  0.00     0.217 HD
ENDBRANCH  10  30
BRANCH   8  32
HETATM   32  C12 UNL     1      -0.934  17.386  27.779  1.00  0.00     0.210 C 
HETATM   33  O6  UNL     1       0.333  17.331  27.906  1.00  0.00    -0.644 OA
HETATM   34  O7  UNL     1      -1.716  16.222  27.823  1.00  0.00    -0.644 OA
ENDBRANCH   8  32
BRANCH   6  35
HETATM   35  S1  UNL     1      -2.493  20.643  24.259  1.00  0.00     0.138 S 
HETATM   36  O3  UNL     1      -1.842  21.934  23.845  1.00  0.00    -0.591 OA
HETATM   37  O4  UNL     1      -3.698  20.255  23.493  1.00  0.00    -0.591 OA
HETATM   38  O5  UNL     1      -1.350  19.592  23.476  1.00  0.00    -0.591 OA
ENDBRANCH   6  35
BRANCH  11  39
HETATM   39  O9  UNL     1      -2.675  22.904  25.748  1.00  0.00    -0.363 OA
ATOM     40  H9  UNL     1      -3.101  23.620  25.292  1.00  0.00     0.217 HD
ENDBRANCH  11  39
BRANCH  12  41
HETATM   41  C17 UNL     1      -5.445  23.261  25.246  1.00  0.00     0.225 C 
BRANCH  41  42
HETATM   42  N3  UNL     1      -5.623  21.914  24.652  1.00  0.00    -0.072 N 
ATOM     43  H33 UNL     1      -5.043  21.764  23.827  1.00  0.00     0.274 HD
ATOM     44  H32 UNL     1      -5.230  21.170  25.228  1.00  0.00     0.274 HD
ATOM     45  H31 UNL     1      -6.619  21.792  24.468  1.00  0.00     0.274 HD
ENDBRANCH  41  42
BRANCH  41  46
HETATM   46  C18 UNL     1      -6.818  23.844  25.298  1.00  0.00     0.263 C 
BRANCH  46  47
HETATM   47  N4  UNL     1      -7.811  22.736  25.346  1.00  0.00    -0.077 N 
ATOM     48  H43 UNL     1      -7.584  21.983  24.697  1.00  0.00     0.274 HD
ATOM     49  H42 UNL     1      -7.753  22.199  26.212  1.00  0.00     0.274 HD
ATOM     50  H41 UNL     1      -8.742  23.120  25.187  1.00  0.00     0.274 HD
ENDBRANCH  46  47
ENDBRANCH  41  46
ENDBRANCH  12  41
TORSDOF 11
ENDMDL
MODEL 3
REMARK VINA RESULT: -9.202154572      3.518      6.313
REMARK  11 active torsions:
REMARK  status: ('A' for Active; 'I' for Inactive)
REMARK    1  A    between atoms: C2_2  and  C3_7 
REMARK    2  A    between atoms: N1_3  and  O1_5 
REMARK       I    between atoms: C3_7  and  N2_9 
REMARK    3  A    between atoms: N2_9  and  C4_11 
REMARK    4  A    between atoms: C9_16  and  S1_17 
REMARK    5  A    between atoms: C11_22  and  C12_23 
REMARK    6  A    between atoms: C14_27  and  O8_28 
REMARK    7  A    between atoms: C15_30  and  O9_31 
REMARK    8  A    between atoms: C16_33  and  C17_34 
REMARK    9  A    between atoms: C17_34  and  N3_35 
REMARK   10  A    between atoms: C17_34  and  C18_39 
REMARK   11  A    between atoms: C18_39  and  N4_40 
ROOT
HETATM    1  C4  UNL     1      -2.723  20.421  30.986  1.00  0.00     0.070 A 
HETATM    2  C5  UNL     1      -2.886  20.488  29.644  1.00  0.00     0.046 A 
HETATM    3  C6  UNL     1      -3.179  21.646  28.890  1.00  0.00    -0.006 A 
HETATM    4  C7  UNL     1      -3.323  22.828  29.540  1.00  0.00     0.004 A 
HETATM    5  C8  UNL     1      -3.650  24.063  28.939  1.00  0.00     0.030 A 
HETATM    6  C9  UNL     1      -3.798  25.236  29.726  1.00  0.00     0.095 A 
HETATM    7  C10 UNL     1      -3.604  25.079  31.081  1.00  0.00     0.046 A 
HETATM    8  C11 UNL     1      -3.293  23.919  31.725  1.00  0.00     0.056 A 
HETATM    9  C13 UNL     1      -3.156  22.798  30.944  1.00  0.00     0.029 A 
HETATM   10  C14 UNL     1      -2.866  21.645  31.655  1.00  0.00     0.104 A 
HETATM   11  C15 UNL     1      -3.973  24.288  27.555  1.00  0.00     0.068 C 
HETATM   12  C16 UNL     1      -3.451  24.078  26.232  1.00  0.00     0.129 C 
HETATM   13  C19 UNL     1      -4.628  23.420  25.494  1.00  0.00     0.068 A 
HETATM   14  N5  UNL     1      -5.623  22.798  24.897  1.00  0.00    -0.340 N 
ATOM     15  H5  UNL     1      -6.403  22.832  24.241  1.00  0.00     0.167 HD
HETATM   16  C20 UNL     1      -4.824  22.028  25.832  1.00  0.00     0.129 A 
HETATM   17  N6  UNL     1      -4.191  21.296  26.614  1.00  0.00    -0.350 N 
ATOM     18  H6  UNL     1      -4.599  20.360  26.626  1.00  0.00     0.166 HD
HETATM   19  C21 UNL     1      -3.143  21.352  27.444  1.00  0.00     0.102 C 
ENDROOT
BRANCH   1  20
HETATM   20  N2  UNL     1      -2.436  19.269  31.739  1.00  0.00    -0.319 N 
HETATM   21  C3  UNL     1      -1.186  18.804  32.123  1.00  0.00     0.270 C 
HETATM   22  O2  UNL     1      -0.121  19.371  31.838  1.00  0.00    -0.266 OA
ATOM     23  H2  UNL     1      -3.237  18.712  32.038  1.00  0.00     0.169 HD
BRANCH  21  24
HETATM   24  C2  UNL     1      -1.082  17.552  32.927  1.00  0.00     0.096 C 
HETATM   25  C1  UNL     1      -1.508  17.546  34.350  1.00  0.00     0.076 C 
HETATM   26  N1  UNL     1      -0.632  16.495  32.404  1.00  0.00    -0.268 N 
ATOM     27  H1  UNL     1      -0.584  15.673  33.006  1.00  0.00     0.194 HD
BRANCH  26  28
HETATM   28  O1  UNL     1      -0.205  16.335  31.130  1.00  0.00    -0.290 OA
ATOM     29  H1  UNL     1       0.651  16.553  30.782  1.00  0.00     0.244 HD
ENDBRANCH  26  28
ENDBRANCH  21  24
ENDBRANCH   1  20
BRANCH  10  30
HETATM   30  O8  UNL     1      -2.718  21.700  33.022  1.00  0.00    -0.357 OA
ATOM     31  H8  UNL     1      -2.310  22.459  33.423  1.00  0.00     0.217 HD
ENDBRANCH  10  30
BRANCH   8  32
HETATM   32  C12 UNL     1      -3.129  23.961  33.182  1.00  0.00     0.210 C 
HETATM   33  O6  UNL     1      -4.103  23.810  33.990  1.00  0.00    -0.644 OA
HETATM   34  O7  UNL     1      -1.826  24.174  33.653  1.00  0.00    -0.644 OA
ENDBRANCH   8  32
BRANCH   6  35
HETATM   35  S1  UNL     1      -4.233  26.802  29.164  1.00  0.00     0.138 S 
HETATM   36  O3  UNL     1      -5.701  27.078  28.990  1.00  0.00    -0.591 OA
HETATM   37  O4  UNL     1      -3.335  27.444  28.179  1.00  0.00    -0.591 OA
HETATM   38  O5  UNL     1      -3.986  27.907  30.484  1.00  0.00    -0.591 OA
ENDBRANCH   6  35
BRANCH  11  39
HETATM   39  O9  UNL     1      -5.169  24.896  27.475  1.00  0.00    -0.363 OA
ATOM     40  H9  UNL     1      -5.128  25.579  26.815  1.00  0.00     0.217 HD
ENDBRANCH  11  39
BRANCH  12  41
HETATM   41  C17 UNL     1      -3.206  25.400  25.487  1.00  0.00     0.225 C 
BRANCH  41  42
HETATM   42  N3  UNL     1      -2.022  26.043  26.105  1.00  0.00    -0.072 N 
ATOM     43  H33 UNL     1      -2.257  26.617  26.914  1.00  0.00     0.274 HD
ATOM     44  H32 UNL     1      -1.413  25.380  26.585  1.00  0.00     0.274 HD
ATOM     45  H31 UNL     1      -1.543  26.566  25.372  1.00  0.00     0.274 HD
ENDBRANCH  41  42
BRANCH  41  46
HETATM   46  C18 UNL     1      -2.856  25.253  24.044  1.00  0.00     0.263 C 
BRANCH  46  47
HETATM   47  N4  UNL     1      -1.579  25.969  23.782  1.00  0.00    -0.077 N 
ATOM     48  H43 UNL     1      -0.879  25.793  24.504  1.00  0.00     0.274 HD
ATOM     49  H42 UNL     1      -1.068  25.577  22.991  1.00  0.00     0.274 HD
ATOM     50  H41 UNL     1      -1.775  26.963  23.665  1.00  0.00     0.274 HD
ENDBRANCH  46  47
ENDBRANCH  41  46
ENDBRANCH  12  41
TORSDOF 11
ENDMDL
MODEL 4
REMARK VINA RESULT: -9.105671089      3.078      5.561
REMARK  11 active torsions:
REMARK  status: ('A' for Active; 'I' for Inactive)
REMARK    1  A    between atoms: C2_2  and  C3_7 
REMARK    2  A    between atoms: N1_3  and  O1_5 
REMARK       I    between atoms: C3_7  and  N2_9 
REMARK    3  A    between atoms: N2_9  and  C4_11 
REMARK    4  A    between atoms: C9_16  and  S1_17 
REMARK    5  A    between atoms: C11_22  and  C12_23 
REMARK    6  A    between atoms: C14_27  and  O8_28 
REMARK    7  A    between atoms: C15_30  and  O9_31 
REMARK    8  A    between atoms: C16_33  and  C17_34 
REMARK    9  A    between atoms: C17_34  and  N3_35 
REMARK   10  A    between atoms: C17_34  and  C18_39 
REMARK   11  A    between atoms: C18_39  and  N4_40 
ROOT
HETATM    1  C4  UNL     1      -2.478  20.050  30.130  1.00  0.00     0.070 A 
HETATM    2  C5  UNL     1      -2.358  19.820  28.801  1.00  0.00     0.046 A 
HETATM    3  C6  UNL     1      -2.690  20.715  27.761  1.00  0.00    -0.006 A 
HETATM    4  C7  UNL     1      -3.188  21.934  28.082  1.00  0.00     0.004 A 
HETATM    5  C8  UNL     1      -3.600  22.924  27.164  1.00  0.00     0.030 A 
HETATM    6  C9  UNL     1      -4.131  24.161  27.619  1.00  0.00     0.095 A 
HETATM    7  C10 UNL     1      -4.208  24.314  28.986  1.00  0.00     0.046 A 
HETATM    8  C11 UNL     1      -3.834  23.402  29.925  1.00  0.00     0.056 A 
HETATM    9  C13 UNL     1      -3.326  22.213  29.462  1.00  0.00     0.029 A 
HETATM   10  C14 UNL     1      -2.988  21.314  30.461  1.00  0.00     0.104 A 
HETATM   11  C15 UNL     1      -3.653  22.800  25.731  1.00  0.00     0.068 C 
HETATM   12  C16 UNL     1      -2.827  22.466  24.602  1.00  0.00     0.129 C 
HETATM   13  C19 UNL     1      -3.675  21.428  23.848  1.00  0.00     0.068 A 
HETATM   14  N5  UNL     1      -4.384  20.492  23.252  1.00  0.00    -0.340 N 
ATOM     15  H5  UNL     1      -4.996  20.222  22.482  1.00  0.00     0.167 HD
HETATM   16  C20 UNL     1      -3.677  20.119  24.462  1.00  0.00     0.129 A 
HETATM   17  N6  UNL     1      -3.104  19.713  25.489  1.00  0.00    -0.350 N 
ATOM     18  H6  UNL     1      -3.324  18.730  25.649  1.00  0.00     0.166 HD
HETATM   19  C21 UNL     1      -2.289  20.165  26.450  1.00  0.00     0.102 C 
ENDROOT
BRANCH   1  20
HETATM   20  N2  UNL     1      -2.152  19.160  31.168  1.00  0.00    -0.319 N 
HETATM   21  C3  UNL     1      -1.086  19.252  32.051  1.00  0.00     0.270 C 
HETATM   22  O2  UNL     1      -0.253  20.170  32.035  1.00  0.00    -0.266 OA
ATOM     23  H2  UNL     1      -2.769  18.356  31.286  1.00  0.00     0.169 HD
BRANCH  21  24
HETATM   24  C2  UNL     1      -0.903  18.202  33.095  1.00  0.00     0.096 C 
HETATM   25  C1  UNL     1       0.462  17.729  33.440  1.00  0.00     0.076 C 
HETATM   26  N1  UNL     1      -1.904  17.711  33.687  1.00  0.00    -0.268 N 
ATOM     27  H1  UNL     1      -1.713  16.996  34.390  1.00  0.00     0.194 HD
BRANCH  26  28
HETATM   28  O1  UNL     1      -3.204  18.032  33.491  1.00  0.00    -0.290 OA
ATOM     29  H1  UNL     1      -3.591  18.390  32.702  1.00  0.00     0.244 HD
ENDBRANCH  26  28
ENDBRANCH  21  24
ENDBRANCH   1  20
BRANCH  10  30
HETATM   30  O8  UNL     1      -3.151  21.662  31.782  1.00  0.00    -0.357 OA
ATOM     31  H8  UNL     1      -3.568  22.486  32.006  1.00  0.00     0.217 HD
ENDBRANCH  10  30
BRANCH   8  32
HETATM   32  C12 UNL     1      -3.999  23.758  31.339  1.00  0.00     0.210 C 
HETATM   33  O6  UNL     1      -5.081  23.552  31.980  1.00  0.00    -0.644 OA
HETATM   34  O7  UNL     1      -2.889  24.342  31.965  1.00  0.00    -0.644 OA
ENDBRANCH   8  32
BRANCH   6  35
HETATM   35  S1  UNL     1      -4.717  25.449  26.642  1.00  0.00     0.138 S 
HETATM   36  O3  UNL     1      -6.061  25.255  25.996  1.00  0.00    -0.591 OA
HETATM   37  O4  UNL     1      -3.723  26.207  25.849  1.00  0.00    -0.591 OA
HETATM   38  O5  UNL     1      -5.204  26.726  27.717  1.00  0.00    -0.591 OA
ENDBRANCH   6  35
BRANCH  11  39
HETATM   39  O9  UNL     1      -4.895  23.093  25.308  1.00  0.00    -0.363 OA
ATOM     40  H9  UNL     1      -4.943  24.018  25.099  1.00  0.00     0.217 HD
ENDBRANCH  11  39
BRANCH  12  41
HETATM   41  C17 UNL     1      -2.678  23.640  23.624  1.00  0.00     0.225 C 
BRANCH  41  42
HETATM   42  N3  UNL     1      -2.075  24.768  24.374  1.00  0.00    -0.072 N 
ATOM     43  H33 UNL     1      -1.074  24.651  24.532  1.00  0.00     0.274 HD
ATOM     44  H32 UNL     1      -2.024  25.628  23.828  1.00  0.00     0.274 HD
ATOM     45  H31 UNL     1      -2.605  24.876  25.239  1.00  0.00     0.274 HD
ENDBRANCH  41  42
BRANCH  41  46
HETATM   46  C18 UNL     1      -1.746  23.394  22.484  1.00  0.00     0.263 C 
BRANCH  46  47
HETATM   47  N4  UNL     1      -1.678  24.620  21.644  1.00  0.00    -0.077 N 
ATOM     48  H43 UNL     1      -2.322  25.345  21.961  1.00  0.00     0.274 HD
ATOM     49  H42 UNL     1      -0.808  25.135  21.776  1.00  0.00     0.274 HD
ATOM     50  H41 UNL     1      -1.833  24.361  20.669  1.00  0.00     0.274 HD
ENDBRANCH  46  47
ENDBRANCH  41  46
ENDBRANCH  12  41
TORSDOF 11
ENDMDL
MODEL 5
REMARK VINA RESULT: -9.054881332      3.289      8.486
REMARK  11 active torsions:
REMARK  status: ('A' for Active; 'I' for Inactive)
REMARK    1  A    between atoms: C2_2  and  C3_7 
REMARK    2  A    between atoms: N1_3  and  O1_5 
REMARK       I    between atoms: C3_7  and  N2_9 
REMARK    3  A    between atoms: N2_9  and  C4_11 
REMARK    4  A    between atoms: C9_16  and  S1_17 
REMARK    5  A    between atoms: C11_22  and  C12_23 
REMARK    6  A    between atoms: C14_27  and  O8_28 
REMARK    7  A    between atoms: C15_30  and  O9_31 
REMARK    8  A    between atoms: C16_33  and  C17_34 
REMARK    9  A    between atoms: C17_34  and  N3_35 
REMARK   10  A    between atoms: C17_34  and  C18_39 
REMARK   11  A    between atoms: C18_39  and  N4_40 
ROOT
HETATM    1  C4  UNL     1      -2.742  20.462  28.608  1.00  0.00     0.070 A 
HETATM    2  C5  UNL     1      -2.725  20.903  29.888  1.00  0.00     0.046 A 
HETATM    3  C6  UNL     1      -3.153  22.168  30.346  1.00  0.00    -0.006 A 
HETATM    4  C7  UNL     1      -3.630  23.061  29.444  1.00  0.00     0.004 A 
HETATM    5  C8  UNL     1      -4.061  24.374  29.735  1.00  0.00     0.030 A 
HETATM    6  C9  UNL     1      -4.521  25.232  28.701  1.00  0.00     0.095 A 
HETATM    7  C10 UNL     1      -4.514  24.699  27.430  1.00  0.00     0.046 A 
HETATM    8  C11 UNL     1      -4.108  23.447  27.080  1.00  0.00     0.056 A 
HETATM    9  C13 UNL     1      -3.666  22.636  28.096  1.00  0.00     0.029 A 
HETATM   10  C14 UNL     1      -3.241  21.385  27.678  1.00  0.00     0.104 A 
HETATM   11  C15 UNL     1      -3.999  25.038  31.010  1.00  0.00     0.068 C 
HETATM   12  C16 UNL     1      -4.406  24.880  32.380  1.00  0.00     0.129 C 
HETATM   13  C19 UNL     1      -3.108  25.144  33.160  1.00  0.00     0.068 A 
HETATM   14  N5  UNL     1      -1.975  25.308  33.810  1.00  0.00    -0.340 N 
ATOM     15  H5  UNL     1      -1.380  25.902  34.387  1.00  0.00     0.167 HD
HETATM   16  C20 UNL     1      -2.171  24.045  33.125  1.00  0.00     0.129 A 
HETATM   17  N6  UNL     1      -2.256  22.935  32.569  1.00  0.00    -0.350 N 
ATOM     18  H6  UNL     1      -1.408  22.392  32.734  1.00  0.00     0.166 HD
HETATM   19  C21 UNL     1      -3.115  22.231  31.821  1.00  0.00     0.102 C 
ENDROOT
BRANCH   1  20
HETATM   20  N2  UNL     1      -2.312  19.204  28.148  1.00  0.00    -0.319 N 
HETATM   21  C3  UNL     1      -1.298  18.943  27.238  1.00  0.00     0.270 C 
HETATM   22  O2  UNL     1      -0.613  19.823  26.695  1.00  0.00    -0.266 OA
ATOM     23  H2  UNL     1      -2.802  18.393  28.525  1.00  0.00     0.169 HD
BRANCH  21  24
HETATM   24  C2  UNL     1      -0.986  17.531  26.870  1.00  0.00     0.096 C 
HETATM   25  C1  UNL     1      -0.157  17.243  25.672  1.00  0.00     0.076 C 
HETATM   26  N1  UNL     1      -1.424  16.578  27.574  1.00  0.00    -0.268 N 
ATOM     27  H1  UNL     1      -1.177  15.636  27.269  1.00  0.00     0.194 HD
BRANCH  26  28
HETATM   28  O1  UNL     1      -2.186  16.672  28.688  1.00  0.00    -0.290 OA
ATOM     29  H1  UNL     1      -2.135  16.125  29.462  1.00  0.00     0.244 HD
ENDBRANCH  26  28
ENDBRANCH  21  24
ENDBRANCH   1  20
BRANCH  10  30
HETATM   30  O8  UNL     1      -3.309  21.047  26.346  1.00  0.00    -0.357 OA
ATOM     31  H8  UNL     1      -3.984  21.427  25.795  1.00  0.00     0.217 HD
ENDBRANCH  10  30
BRANCH   8  32
HETATM   32  C12 UNL     1      -4.177  23.069  25.664  1.00  0.00     0.210 C 
HETATM   33  O6  UNL     1      -5.212  22.544  25.140  1.00  0.00    -0.644 OA
HETATM   34  O7  UNL     1      -3.029  23.323  24.899  1.00  0.00    -0.644 OA
ENDBRANCH   8  32
BRANCH   6  35
HETATM   35  S1  UNL     1      -5.038  26.864  28.873  1.00  0.00     0.138 S 
HETATM   36  O3  UNL     1      -3.969  27.921  28.847  1.00  0.00    -0.591 OA
HETATM   37  O4  UNL     1      -6.180  27.123  29.778  1.00  0.00    -0.591 OA
HETATM   38  O5  UNL     1      -5.797  27.321  27.377  1.00  0.00    -0.591 OA
ENDBRANCH   6  35
BRANCH  11  39
HETATM   39  O9  UNL     1      -3.328  26.196  30.872  1.00  0.00    -0.363 OA
ATOM     40  H9  UNL     1      -2.544  26.167  31.406  1.00  0.00     0.217 HD
ENDBRANCH  11  39
BRANCH  12  41
HETATM   41  C17 UNL     1      -5.372  25.986  32.830  1.00  0.00     0.225 C 
BRANCH  41  42
HETATM   42  N3  UNL     1      -6.736  25.579  32.414  1.00  0.00    -0.072 N 
ATOM     43  H33 UNL     1      -6.734  24.833  31.719  1.00  0.00     0.274 HD
ATOM     44  H32 UNL     1      -7.243  25.079  33.145  1.00  0.00     0.274 HD
ATOM     45  H31 UNL     1      -7.220  26.419  32.096  1.00  0.00     0.274 HD
ENDBRANCH  41  42
BRANCH  41  46
HETATM   46  C18 UNL     1      -5.461  26.179  34.307  1.00  0.00     0.263 C 
BRANCH  46  47
HETATM   47  N4  UNL     1      -6.746  26.857  34.628  1.00  0.00    -0.077 N 
ATOM     48  H43 UNL     1      -7.554  26.353  34.262  1.00  0.00     0.274 HD
ATOM     49  H42 UNL     1      -6.980  26.799  35.619  1.00  0.00     0.274 HD
ATOM     50  H41 UNL     1      -6.704  27.820  34.293  1.00  0.00     0.274 HD
ENDBRANCH  46  47
ENDBRANCH  41  46
ENDBRANCH  12  41
TORSDOF 11
ENDMDL
