MODEL 1
REMARK VINA RESULT: -8.276938784      0.000      0.000
REMARK  4 active torsions:
REMARK  status: ('A' for Active; 'I' for Inactive)
REMARK    1  A    between atoms: C3_4  and  C4_5 
REMARK    2  A    between atoms: C4_5  and  N2_7 
REMARK    3  A    between atoms: N3_10  and  C7_11 
REMARK    4  A    between atoms: C9_18  and  N6_19 
ROOT
HETATM    1  N1  UNL     1      13.267   7.912  13.814  1.00  0.00    -0.191 NA
HETATM    2  C1  UNL     1      14.263   7.367  13.523  1.00  0.00     0.105 C 
HETATM    3  C2  UNL     1      15.471   6.677  13.167  1.00  0.00     0.118 A 
HETATM    4  C3  UNL     1      15.503   5.810  12.088  1.00  0.00     0.097 A 
HETATM    5  N8  UNL     1      16.671   5.194  11.808  1.00  0.00    -0.329 N 
ATOM      6  H8  UNL     1      16.697   4.556  11.012  1.00  0.00     0.168 HD
HETATM    7  C12 UNL     1      17.783   5.370  12.503  1.00  0.00     0.181 A 
HETATM    8 CL1  UNL     1      19.253   4.532  12.073  1.00  0.00    -0.045 Cl
HETATM    9  N9  UNL     1      17.792   6.197  13.550  1.00  0.00    -0.318 N 
ATOM     10  H9  UNL     1      18.642   6.341  14.095  1.00  0.00     0.170 HD
HETATM   11  C13 UNL     1      16.646   6.838  13.871  1.00  0.00     0.124 A 
HETATM   12  N10 UNL     1      16.679   7.630  14.885  1.00  0.00    -0.384 N 
ATOM     13 1H10 UNL     1      17.548   7.748  15.405  1.00  0.00     0.157 HD
ATOM     14 2H10 UNL     1      15.814   8.114  15.127  1.00  0.00     0.157 HD
ENDROOT
BRANCH   4  15
HETATM   15  C4  UNL     1      14.321   5.565  11.274  1.00  0.00     0.127 C 
HETATM   16  S1  UNL     1      13.508   4.155  11.384  1.00  0.00    -0.058 SA
BRANCH  15  17
HETATM   17  N2  UNL     1      13.836   6.541  10.357  1.00  0.00    -0.367 N 
HETATM   18  C5  UNL     1      12.556   6.325   9.744  1.00  0.00     0.144 C 
HETATM   19  C6  UNL     1      11.958   7.519   9.085  1.00  0.00     0.161 C 
HETATM   20  N3  UNL     1      12.394   8.783   9.600  1.00  0.00    -0.214 N 
HETATM   21  C10 UNL     1      13.708   8.964  10.173  1.00  0.00     0.161 C 
HETATM   22  C11 UNL     1      14.570   7.731  10.018  1.00  0.00     0.144 C 
BRANCH  20  23
HETATM   23  C7  UNL     1      11.519   9.895   9.551  1.00  0.00     0.699 A 
HETATM   24  N4  UNL     1      10.365   9.889   8.849  1.00  0.00    -0.140 N 
HETATM   25  C8  UNL     1       9.536  10.923   8.794  1.00  0.00     0.352 A 
ATOM     26  H4  UNL     1      10.117   9.045   8.333  1.00  0.00     0.189 HD
HETATM   27  O1  UNL     1       8.477  10.856   8.122  1.00  0.00    -0.246 OA
HETATM   28  N5  UNL     1       9.824  12.061   9.461  1.00  0.00    -0.141 N 
HETATM   29  C9  UNL     1      10.958  12.110  10.169  1.00  0.00     0.694 A 
ATOM     30  H5  UNL     1       9.194  12.862   9.426  1.00  0.00     0.189 HD
HETATM   31  N7  UNL     1      11.788  11.052  10.216  1.00  0.00    -0.022 N 
ATOM     32  H7  UNL     1      12.646  11.119  10.765  1.00  0.00     0.203 HD
BRANCH  29  33
HETATM   33  N6  UNL     1      11.241  13.188  10.807  1.00  0.00    -0.234 N 
ATOM     34  H62 UNL     1      10.916  13.323  11.765  1.00  0.00     0.174 HD
ATOM     35  H61 UNL     1      11.794  13.904  10.337  1.00  0.00     0.174 HD
ENDBRANCH  29  33
ENDBRANCH  20  23
ENDBRANCH  15  17
ENDBRANCH   4  15
TORSDOF 4
ENDMDL
MODEL 2
REMARK VINA RESULT: -8.133835487      4.205      7.824
REMARK  4 active torsions:
REMARK  status: ('A' for Active; 'I' for Inactive)
REMARK    1  A    between atoms: C3_4  and  C4_5 
REMARK    2  A    between atoms: C4_5  and  N2_7 
REMARK    3  A    between atoms: N3_10  and  C7_11 
REMARK    4  A    between atoms: C9_18  and  N6_19 
ROOT
HETATM    1  N1  UNL     1      12.982  11.839  15.434  1.00  0.00    -0.191 NA
HETATM    2  C1  UNL     1      12.581  11.808  14.333  1.00  0.00     0.105 C 
HETATM    3  C2  UNL     1      12.114  11.771  12.975  1.00  0.00     0.118 A 
HETATM    4  C3  UNL     1      12.649  10.877  12.064  1.00  0.00     0.097 A 
HETATM    5  N8  UNL     1      12.165  10.893  10.804  1.00  0.00    -0.329 N 
ATOM      6  H8  UNL     1      12.557  10.235  10.130  1.00  0.00     0.168 HD
HETATM    7  C12 UNL     1      11.212  11.713  10.391  1.00  0.00     0.181 A 
HETATM    8 CL1  UNL     1      10.642  11.671   8.742  1.00  0.00    -0.045 Cl
HETATM    9  N9  UNL     1      10.671  12.589  11.240  1.00  0.00    -0.318 N 
ATOM     10  H9  UNL     1       9.936  13.227  10.936  1.00  0.00     0.170 HD
HETATM   11  C13 UNL     1      11.123  12.611  12.514  1.00  0.00     0.124 A 
HETATM   12  N10 UNL     1      10.587  13.464  13.314  1.00  0.00    -0.384 N 
ATOM     13 1H10 UNL     1       9.854  14.086  12.972  1.00  0.00     0.157 HD
ATOM     14 2H10 UNL     1      10.928  13.480  14.276  1.00  0.00     0.157 HD
ENDROOT
BRANCH   4  15
HETATM   15  C4  UNL     1      13.700   9.942  12.441  1.00  0.00     0.127 C 
HETATM   16  S1  UNL     1      15.193  10.474  12.827  1.00  0.00    -0.058 SA
BRANCH  15  17
HETATM   17  N2  UNL     1      13.464   8.538  12.485  1.00  0.00    -0.367 N 
HETATM   18  C5  UNL     1      13.146   7.860  11.261  1.00  0.00     0.144 C 
HETATM   19  C6  UNL     1      13.258   6.375  11.310  1.00  0.00     0.161 C 
HETATM   20  N3  UNL     1      14.163   5.864  12.295  1.00  0.00    -0.214 N 
HETATM   21  C10 UNL     1      14.422   6.561  13.533  1.00  0.00     0.161 C 
HETATM   22  C11 UNL     1      13.530   7.771  13.701  1.00  0.00     0.144 C 
BRANCH  20  23
HETATM   23  C7  UNL     1      14.829   4.636  12.059  1.00  0.00     0.699 A 
HETATM   24  N4  UNL     1      14.278   3.437  12.346  1.00  0.00    -0.140 N 
HETATM   25  C8  UNL     1      14.889   2.280  12.131  1.00  0.00     0.352 A 
ATOM     26  H4  UNL     1      13.342   3.419  12.751  1.00  0.00     0.189 HD
HETATM   27  O1  UNL     1      14.324   1.197  12.420  1.00  0.00    -0.246 OA
HETATM   28  N5  UNL     1      16.129   2.255  11.596  1.00  0.00    -0.141 N 
HETATM   29  C9  UNL     1      16.712   3.422  11.296  1.00  0.00     0.694 A 
ATOM     30  H5  UNL     1      16.608   1.371  11.426  1.00  0.00     0.189 HD
HETATM   31  N7  UNL     1      16.078   4.587  11.521  1.00  0.00    -0.022 N 
ATOM     32  H7  UNL     1      16.548   5.461  11.280  1.00  0.00     0.203 HD
BRANCH  29  33
HETATM   33  N6  UNL     1      17.891   3.409  10.788  1.00  0.00    -0.234 N 
ATOM     34  H62 UNL     1      18.088   2.861   9.949  1.00  0.00     0.174 HD
ATOM     35  H61 UNL     1      18.625   3.955  11.238  1.00  0.00     0.174 HD
ENDBRANCH  29  33
ENDBRANCH  20  23
ENDBRANCH  15  17
ENDBRANCH   4  15
TORSDOF 4
ENDMDL
MODEL 3
REMARK VINA RESULT: -8.130558079      4.317      7.933
REMARK  4 active torsions:
REMARK  status: ('A' for Active; 'I' for Inactive)
REMARK    1  A    between atoms: C3_4  and  C4_5 
REMARK    2  A    between atoms: C4_5  and  N2_7 
REMARK    3  A    between atoms: N3_10  and  C7_11 
REMARK    4  A    between atoms: C9_18  and  N6_19 
ROOT
HETATM    1  N1  UNL     1      13.000  11.843  15.429  1.00  0.00    -0.191 NA
HETATM    2  C1  UNL     1      12.601  11.818  14.328  1.00  0.00     0.105 C 
HETATM    3  C2  UNL     1      12.134  11.789  12.970  1.00  0.00     0.118 A 
HETATM    4  C3  UNL     1      12.667  10.898  12.054  1.00  0.00     0.097 A 
HETATM    5  N8  UNL     1      12.184  10.923  10.794  1.00  0.00    -0.329 N 
ATOM      6  H8  UNL     1      12.574  10.267  10.118  1.00  0.00     0.168 HD
HETATM    7  C12 UNL     1      11.234  11.748  10.385  1.00  0.00     0.181 A 
HETATM    8 CL1  UNL     1      10.665  11.717   8.735  1.00  0.00    -0.045 Cl
HETATM    9  N9  UNL     1      10.696  12.622  11.238  1.00  0.00    -0.318 N 
ATOM     10  H9  UNL     1       9.963  13.264  10.936  1.00  0.00     0.170 HD
HETATM   11  C13 UNL     1      11.147  12.635  12.512  1.00  0.00     0.124 A 
HETATM   12  N10 UNL     1      10.613  13.487  13.316  1.00  0.00    -0.384 N 
ATOM     13 1H10 UNL     1       9.882  14.113  12.977  1.00  0.00     0.157 HD
ATOM     14 2H10 UNL     1      10.953  13.496  14.278  1.00  0.00     0.157 HD
ENDROOT
BRANCH   4  15
HETATM   15  C4  UNL     1      13.715   9.959  12.427  1.00  0.00     0.127 C 
HETATM   16  S1  UNL     1      15.216  10.481  12.792  1.00  0.00    -0.058 SA
BRANCH  15  17
HETATM   17  N2  UNL     1      13.467   8.556  12.487  1.00  0.00    -0.367 N 
HETATM   18  C5  UNL     1      13.209   7.856  11.261  1.00  0.00     0.144 C 
HETATM   19  C6  UNL     1      13.308   6.372  11.344  1.00  0.00     0.161 C 
HETATM   20  N3  UNL     1      14.158   5.875  12.385  1.00  0.00    -0.214 N 
HETATM   21  C10 UNL     1      14.357   6.596  13.621  1.00  0.00     0.161 C 
HETATM   22  C11 UNL     1      13.465   7.814  13.719  1.00  0.00     0.144 C 
BRANCH  20  23
HETATM   23  C7  UNL     1      14.827   4.640  12.208  1.00  0.00     0.699 A 
HETATM   24  N4  UNL     1      16.075   4.549  11.698  1.00  0.00    -0.140 N 
HETATM   25  C8  UNL     1      16.714   3.400  11.527  1.00  0.00     0.352 A 
ATOM     26  H4  UNL     1      16.551   5.410  11.429  1.00  0.00     0.189 HD
HETATM   27  O1  UNL     1      17.874   3.381  11.046  1.00  0.00    -0.246 OA
HETATM   28  N5  UNL     1      16.122   2.235  11.868  1.00  0.00    -0.141 N 
HETATM   29  C9  UNL     1      14.885   2.280  12.378  1.00  0.00     0.694 A 
ATOM     30  H5  UNL     1      16.604   1.346  11.742  1.00  0.00     0.189 HD
HETATM   31  N7  UNL     1      14.250   3.454  12.546  1.00  0.00    -0.022 N 
ATOM     32  H7  UNL     1      13.308   3.457  12.938  1.00  0.00     0.203 HD
BRANCH  29  33
HETATM   33  N6  UNL     1      14.314   1.178  12.706  1.00  0.00    -0.234 N 
ATOM     34  H62 UNL     1      14.692   0.284  12.391  1.00  0.00     0.174 HD
ATOM     35  H61 UNL     1      13.476   1.214  13.287  1.00  0.00     0.174 HD
ENDBRANCH  29  33
ENDBRANCH  20  23
ENDBRANCH  15  17
ENDBRANCH   4  15
TORSDOF 4
ENDMDL
MODEL 4
REMARK VINA RESULT: -8.120619361      1.014      1.547
REMARK  4 active torsions:
REMARK  status: ('A' for Active; 'I' for Inactive)
REMARK    1  A    between atoms: C3_4  and  C4_5 
REMARK    2  A    between atoms: C4_5  and  N2_7 
REMARK    3  A    between atoms: N3_10  and  C7_11 
REMARK    4  A    between atoms: C9_18  and  N6_19 
ROOT
HETATM    1  N1  UNL     1      13.476   7.894  13.886  1.00  0.00    -0.191 NA
HETATM    2  C1  UNL     1      14.449   7.323  13.569  1.00  0.00     0.105 C 
HETATM    3  C2  UNL     1      15.629   6.603  13.180  1.00  0.00     0.118 A 
HETATM    4  C3  UNL     1      15.610   5.739  12.098  1.00  0.00     0.097 A 
HETATM    5  N8  UNL     1      16.754   5.093  11.786  1.00  0.00    -0.329 N 
ATOM      6  H8  UNL     1      16.743   4.457  10.989  1.00  0.00     0.168 HD
HETATM    7  C12 UNL     1      17.887   5.237  12.453  1.00  0.00     0.181 A 
HETATM    8 CL1  UNL     1      19.323   4.363  11.984  1.00  0.00    -0.045 Cl
HETATM    9  N9  UNL     1      17.945   6.061  13.502  1.00  0.00    -0.318 N 
ATOM     10  H9  UNL     1      18.812   6.181  14.025  1.00  0.00     0.170 HD
HETATM   11  C13 UNL     1      16.825   6.731  13.853  1.00  0.00     0.124 A 
HETATM   12  N10 UNL     1      16.905   7.518  14.868  1.00  0.00    -0.384 N 
ATOM     13 1H10 UNL     1      17.790   7.612  15.366  1.00  0.00     0.157 HD
ATOM     14 2H10 UNL     1      16.060   8.024  15.133  1.00  0.00     0.157 HD
ENDROOT
BRANCH   4  15
HETATM   15  C4  UNL     1      14.402   5.527  11.314  1.00  0.00     0.127 C 
HETATM   16  S1  UNL     1      13.547   4.145  11.453  1.00  0.00    -0.058 SA
BRANCH  15  17
HETATM   17  N2  UNL     1      13.926   6.514  10.402  1.00  0.00    -0.367 N 
HETATM   18  C5  UNL     1      12.640   6.319   9.797  1.00  0.00     0.144 C 
HETATM   19  C6  UNL     1      12.056   7.525   9.145  1.00  0.00     0.161 C 
HETATM   20  N3  UNL     1      12.515   8.779   9.660  1.00  0.00    -0.214 N 
HETATM   21  C10 UNL     1      13.836   8.939  10.225  1.00  0.00     0.161 C 
HETATM   22  C11 UNL     1      14.677   7.692  10.062  1.00  0.00     0.144 C 
BRANCH  20  23
HETATM   23  C7  UNL     1      11.658   9.906   9.619  1.00  0.00     0.699 A 
HETATM   24  N4  UNL     1      11.866  11.013  10.365  1.00  0.00    -0.140 N 
HETATM   25  C8  UNL     1      11.072  12.074  10.337  1.00  0.00     0.352 A 
ATOM     26  H4  UNL     1      12.676  11.033  10.984  1.00  0.00     0.189 HD
HETATM   27  O1  UNL     1      11.319  13.074  11.056  1.00  0.00    -0.246 OA
HETATM   28  N5  UNL     1       9.988  12.091   9.533  1.00  0.00    -0.141 N 
HETATM   29  C9  UNL     1       9.744  11.015   8.776  1.00  0.00     0.694 A 
ATOM     30  H5  UNL     1       9.371  12.903   9.503  1.00  0.00     0.189 HD
HETATM   31  N7  UNL     1      10.560   9.945   8.816  1.00  0.00    -0.022 N 
ATOM     32  H7  UNL     1      10.349   9.140   8.226  1.00  0.00     0.203 HD
BRANCH  29  33
HETATM   33  N6  UNL     1       8.716  11.021   8.007  1.00  0.00    -0.234 N 
ATOM     34  H62 UNL     1       7.835  11.429   8.324  1.00  0.00     0.174 HD
ATOM     35  H61 UNL     1       8.796  10.611   7.077  1.00  0.00     0.174 HD
ENDBRANCH  29  33
ENDBRANCH  20  23
ENDBRANCH  15  17
ENDBRANCH   4  15
TORSDOF 4
ENDMDL
MODEL 5
REMARK VINA RESULT: -8.026834603      4.122      7.765
REMARK  4 active torsions:
REMARK  status: ('A' for Active; 'I' for Inactive)
REMARK    1  A    between atoms: C3_4  and  C4_5 
REMARK    2  A    between atoms: C4_5  and  N2_7 
REMARK    3  A    between atoms: N3_10  and  C7_11 
REMARK    4  A    between atoms: C9_18  and  N6_19 
ROOT
HETATM    1  N1  UNL     1      13.031  11.815  15.486  1.00  0.00    -0.191 NA
HETATM    2  C1  UNL     1      12.627  11.811  14.386  1.00  0.00     0.105 C 
HETATM    3  C2  UNL     1      12.154  11.808  13.030  1.00  0.00     0.118 A 
HETATM    4  C3  UNL     1      12.673  10.923  12.100  1.00  0.00     0.097 A 
HETATM    5  N8  UNL     1      12.185  10.972  10.842  1.00  0.00    -0.329 N 
ATOM      6  H8  UNL     1      12.564  10.321  10.155  1.00  0.00     0.168 HD
HETATM    7  C12 UNL     1      11.244  11.815  10.449  1.00  0.00     0.181 A 
HETATM    8 CL1  UNL     1      10.668  11.814   8.801  1.00  0.00    -0.045 Cl
HETATM    9  N9  UNL     1      10.720  12.683  11.316  1.00  0.00    -0.318 N 
ATOM     10  H9  UNL     1       9.994  13.338  11.026  1.00  0.00     0.170 HD
HETATM   11  C13 UNL     1      11.176  12.672  12.588  1.00  0.00     0.124 A 
HETATM   12  N10 UNL     1      10.657  13.519  13.407  1.00  0.00    -0.384 N 
ATOM     13 1H10 UNL     1       9.933  14.159  13.080  1.00  0.00     0.157 HD
ATOM     14 2H10 UNL     1      11.001  13.511  14.367  1.00  0.00     0.157 HD
ENDROOT
BRANCH   4  15
HETATM   15  C4  UNL     1      13.709   9.965  12.455  1.00  0.00     0.127 C 
HETATM   16  S1  UNL     1      15.202  10.466  12.879  1.00  0.00    -0.058 SA
BRANCH  15  17
HETATM   17  N2  UNL     1      13.459   8.562  12.445  1.00  0.00    -0.367 N 
HETATM   18  C5  UNL     1      13.126   7.937  11.197  1.00  0.00     0.144 C 
HETATM   19  C6  UNL     1      13.222   6.451  11.185  1.00  0.00     0.161 C 
HETATM   20  N3  UNL     1      14.129   5.891  12.142  1.00  0.00    -0.214 N 
HETATM   21  C10 UNL     1      14.403   6.536  13.406  1.00  0.00     0.161 C 
HETATM   22  C11 UNL     1      13.525   7.747  13.628  1.00  0.00     0.144 C 
BRANCH  20  23
HETATM   23  C7  UNL     1      14.780   4.667  11.853  1.00  0.00     0.699 A 
HETATM   24  N4  UNL     1      14.827   4.138  10.611  1.00  0.00    -0.140 N 
HETATM   25  C8  UNL     1      15.433   2.994  10.325  1.00  0.00     0.352 A 
ATOM     26  H4  UNL     1      14.371   4.645   9.852  1.00  0.00     0.189 HD
HETATM   27  O1  UNL     1      15.441   2.553   9.149  1.00  0.00    -0.246 OA
HETATM   28  N5  UNL     1      16.050   2.289  11.298  1.00  0.00    -0.141 N 
HETATM   29  C9  UNL     1      16.028   2.778  12.544  1.00  0.00     0.694 A 
ATOM     30  H5  UNL     1      16.519   1.408  11.089  1.00  0.00     0.189 HD
HETATM   31  N7  UNL     1      15.408   3.941  12.817  1.00  0.00    -0.022 N 
ATOM     32  H7  UNL     1      15.409   4.289  13.776  1.00  0.00     0.203 HD
BRANCH  29  33
HETATM   33  N6  UNL     1      16.611   2.115  13.476  1.00  0.00    -0.234 N 
ATOM     34  H62 UNL     1      17.452   1.572  13.277  1.00  0.00     0.174 HD
ATOM     35  H61 UNL     1      16.217   2.143  14.416  1.00  0.00     0.174 HD
ENDBRANCH  29  33
ENDBRANCH  20  23
ENDBRANCH  15  17
ENDBRANCH   4  15
TORSDOF 4
ENDMDL
