MODEL 1
REMARK VINA RESULT: -8.740225521      0.000      0.000
REMARK  2 active torsions:
REMARK  status: ('A' for Active; 'I' for Inactive)
REMARK    1  A    between atoms: N1_2  and  C3_4 
REMARK    2  A    between atoms: C13_20  and  C14_21 
ROOT
HETATM    1  C3  UNL     1      66.657  27.395  11.810  1.00  0.00     0.100 A 
HETATM    2  C4  UNL     1      66.504  26.832  13.063  1.00  0.00     0.171 A 
HETATM    3  F1  UNL     1      67.092  25.651  13.305  1.00  0.00    -0.202 F 
HETATM    4  C5  UNL     1      65.761  27.496  14.015  1.00  0.00     0.110 A 
HETATM    5  N2  UNL     1      65.652  26.853  15.276  1.00  0.00    -0.097 NA
HETATM    6  C6  UNL     1      65.153  28.734  13.742  1.00  0.00     0.101 A 
HETATM    7  C7  UNL     1      64.432  29.285  14.805  1.00  0.00     0.104 C 
HETATM    8  N3  UNL     1      63.848  29.695  15.721  1.00  0.00    -0.191 NA
HETATM    9  C8  UNL     1      65.318  29.259  12.513  1.00  0.00     0.096 A 
HETATM   10  C9  UNL     1      66.064  28.610  11.533  1.00  0.00     0.093 A 
HETATM   11  N4  UNL     1      66.074  29.332  10.412  1.00  0.00    -0.338 N 
ATOM     12  H4  UNL     1      66.547  29.086   9.542  1.00  0.00     0.167 HD
HETATM   13  C10 UNL     1      65.353  30.441  10.632  1.00  0.00     0.117 A 
HETATM   14  C11 UNL     1      65.065  31.500   9.788  1.00  0.00     0.077 A 
HETATM   15  C12 UNL     1      64.306  32.547  10.203  1.00  0.00     0.070 A 
HETATM   16  N5  UNL     1      63.974  33.661   9.392  1.00  0.00    -0.101 NA
HETATM   17  C13 UNL     1      63.833  32.520  11.487  1.00  0.00     0.121 A 
HETATM   18  C15 UNL     1      64.131  31.438  12.340  1.00  0.00     0.271 A 
HETATM   19  O2  UNL     1      63.656  31.529  13.452  1.00  0.00    -0.266 OA
HETATM   20  N7  UNL     1      64.883  30.410  11.917  1.00  0.00    -0.259 N 
ENDROOT
BRANCH   1  21
HETATM   21  N1  UNL     1      67.404  26.776  10.781  1.00  0.00    -0.385 N 
HETATM   22  C1  UNL     1      68.820  26.960  10.684  1.00  0.00     0.149 C 
HETATM   23  C2  UNL     1      66.712  25.952   9.826  1.00  0.00     0.149 C 
ENDBRANCH   1  21
BRANCH  17  24
HETATM   24  C14 UNL     1      63.018  33.595  12.005  1.00  0.00     0.272 C 
HETATM   25  N6  UNL     1      61.620  33.565  11.881  1.00  0.00    -0.057 NA
HETATM   26  O1  UNL     1      63.567  34.568  12.572  1.00  0.00    -0.271 OA
ENDBRANCH  17  24
TORSDOF 2
ENDMDL
MODEL 2
REMARK VINA RESULT: -8.574648638      0.718      1.006
REMARK  2 active torsions:
REMARK  status: ('A' for Active; 'I' for Inactive)
REMARK    1  A    between atoms: N1_2  and  C3_4 
REMARK    2  A    between atoms: C13_20  and  C14_21 
ROOT
HETATM    1  C3  UNL     1      66.626  27.440  11.612  1.00  0.00     0.100 A 
HETATM    2  C4  UNL     1      66.536  26.797  12.832  1.00  0.00     0.171 A 
HETATM    3  F1  UNL     1      67.119  25.595  12.961  1.00  0.00    -0.202 F 
HETATM    4  C5  UNL     1      65.859  27.404  13.868  1.00  0.00     0.110 A 
HETATM    5  N2  UNL     1      65.812  26.678  15.088  1.00  0.00    -0.097 NA
HETATM    6  C6  UNL     1      65.256  28.664  13.714  1.00  0.00     0.101 A 
HETATM    7  C7  UNL     1      64.605  29.150  14.850  1.00  0.00     0.104 C 
HETATM    8  N3  UNL     1      64.081  29.505  15.824  1.00  0.00    -0.191 NA
HETATM    9  C8  UNL     1      65.358  29.268  12.514  1.00  0.00     0.096 A 
HETATM   10  C9  UNL     1      66.036  28.678  11.451  1.00  0.00     0.093 A 
HETATM   11  N4  UNL     1      65.994  29.474  10.382  1.00  0.00    -0.338 N 
ATOM     12  H4  UNL     1      66.413  29.281   9.472  1.00  0.00     0.167 HD
HETATM   13  C10 UNL     1      65.304  30.574  10.717  1.00  0.00     0.117 A 
HETATM   14  C11 UNL     1      64.985  31.690   9.963  1.00  0.00     0.077 A 
HETATM   15  C12 UNL     1      64.267  32.716  10.490  1.00  0.00     0.070 A 
HETATM   16  N5  UNL     1      63.906  33.885   9.775  1.00  0.00    -0.101 NA
HETATM   17  C13 UNL     1      63.868  32.608  11.795  1.00  0.00     0.121 A 
HETATM   18  C15 UNL     1      64.197  31.467  12.555  1.00  0.00     0.271 A 
HETATM   19  O2  UNL     1      63.788  31.489  13.696  1.00  0.00    -0.266 OA
HETATM   20  N7  UNL     1      64.907  30.462  12.022  1.00  0.00    -0.259 N 
ENDROOT
BRANCH   1  21
HETATM   21  N1  UNL     1      67.303  26.884  10.503  1.00  0.00    -0.385 N 
HETATM   22  C1  UNL     1      66.604  26.110   9.523  1.00  0.00     0.149 C 
HETATM   23  C2  UNL     1      68.719  27.110  10.375  1.00  0.00     0.149 C 
ENDBRANCH   1  21
BRANCH  17  24
HETATM   24  C14 UNL     1      63.100  33.655  12.429  1.00  0.00     0.272 C 
HETATM   25  N6  UNL     1      63.721  34.605  13.256  1.00  0.00    -0.057 NA
HETATM   26  O1  UNL     1      61.863  33.716  12.237  1.00  0.00    -0.271 OA
ENDBRANCH  17  24
TORSDOF 2
ENDMDL
MODEL 3
REMARK VINA RESULT: -8.547807807      3.031      7.090
REMARK  2 active torsions:
REMARK  status: ('A' for Active; 'I' for Inactive)
REMARK    1  A    between atoms: N1_2  and  C3_4 
REMARK    2  A    between atoms: C13_20  and  C14_21 
ROOT
HETATM    1  C3  UNL     1      63.877  33.182  11.575  1.00  0.00     0.100 A 
HETATM    2  C4  UNL     1      64.250  33.855  10.427  1.00  0.00     0.171 A 
HETATM    3  F1  UNL     1      63.783  35.100  10.240  1.00  0.00    -0.202 F 
HETATM    4  C5  UNL     1      65.081  33.235   9.521  1.00  0.00     0.110 A 
HETATM    5  N2  UNL     1      65.418  33.992   8.367  1.00  0.00    -0.097 NA
HETATM    6  C6  UNL     1      65.561  31.931   9.735  1.00  0.00     0.101 A 
HETATM    7  C7  UNL     1      66.393  31.435   8.728  1.00  0.00     0.104 C 
HETATM    8  N3  UNL     1      67.078  31.074   7.863  1.00  0.00    -0.191 NA
HETATM    9  C8  UNL     1      65.181  31.298  10.861  1.00  0.00     0.096 A 
HETATM   10  C9  UNL     1      64.342  31.902  11.795  1.00  0.00     0.093 A 
HETATM   11  N4  UNL     1      64.119  31.072  12.815  1.00  0.00    -0.338 N 
ATOM     12  H4  UNL     1      63.541  31.266  13.632  1.00  0.00     0.167 HD
HETATM   13  C10 UNL     1      64.791  29.937  12.574  1.00  0.00     0.117 A 
HETATM   14  C11 UNL     1      64.882  28.778  13.326  1.00  0.00     0.077 A 
HETATM   15  C12 UNL     1      65.626  27.721  12.907  1.00  0.00     0.070 A 
HETATM   16  N5  UNL     1      65.761  26.508  13.626  1.00  0.00    -0.101 NA
HETATM   17  C13 UNL     1      66.283  27.841  11.713  1.00  0.00     0.121 A 
HETATM   18  C15 UNL     1      66.186  29.025  10.953  1.00  0.00     0.271 A 
HETATM   19  O2  UNL     1      66.813  29.010   9.916  1.00  0.00    -0.266 OA
HETATM   20  N7  UNL     1      65.448  30.061  11.380  1.00  0.00    -0.259 N 
ENDROOT
BRANCH   1  21
HETATM   21  N1  UNL     1      63.028  33.752  12.553  1.00  0.00    -0.385 N 
HETATM   22  C1  UNL     1      61.627  33.461  12.574  1.00  0.00     0.149 C 
HETATM   23  C2  UNL     1      63.601  34.635  13.534  1.00  0.00     0.149 C 
ENDBRANCH   1  21
BRANCH  17  24
HETATM   24  C14 UNL     1      67.094  26.761  11.196  1.00  0.00     0.272 C 
HETATM   25  N6  UNL     1      68.419  26.585  11.626  1.00  0.00    -0.057 NA
HETATM   26  O1  UNL     1      66.607  25.972  10.354  1.00  0.00    -0.271 OA
ENDBRANCH  17  24
TORSDOF 2
ENDMDL
MODEL 4
REMARK VINA RESULT: -8.210744190      2.652      3.996
REMARK  2 active torsions:
REMARK  status: ('A' for Active; 'I' for Inactive)
REMARK    1  A    between atoms: N1_2  and  C3_4 
REMARK    2  A    between atoms: C13_20  and  C14_21 
ROOT
HETATM    1  C3  UNL     1      67.139  28.310  10.419  1.00  0.00     0.100 A 
HETATM    2  C4  UNL     1      67.892  27.191  10.722  1.00  0.00     0.171 A 
HETATM    3  F1  UNL     1      68.765  26.747   9.805  1.00  0.00    -0.202 F 
HETATM    4  C5  UNL     1      67.725  26.575  11.943  1.00  0.00     0.110 A 
HETATM    5  N2  UNL     1      68.535  25.432  12.177  1.00  0.00    -0.097 NA
HETATM    6  C6  UNL     1      66.806  27.057  12.890  1.00  0.00     0.101 A 
HETATM    7  C7  UNL     1      66.747  26.327  14.080  1.00  0.00     0.104 C 
HETATM    8  N3  UNL     1      66.740  25.685  15.048  1.00  0.00    -0.191 NA
HETATM    9  C8  UNL     1      66.085  28.148  12.570  1.00  0.00     0.096 A 
HETATM   10  C9  UNL     1      66.234  28.791  11.343  1.00  0.00     0.093 A 
HETATM   11  N4  UNL     1      65.412  29.839  11.272  1.00  0.00    -0.338 N 
ATOM     12  H4  UNL     1      65.321  30.480  10.484  1.00  0.00     0.167 HD
HETATM   13  C10 UNL     1      64.725  29.900  12.422  1.00  0.00     0.117 A 
HETATM   14  C11 UNL     1      63.758  30.799  12.837  1.00  0.00     0.077 A 
HETATM   15  C12 UNL     1      63.171  30.692  14.058  1.00  0.00     0.070 A 
HETATM   16  N5  UNL     1      62.176  31.577  14.543  1.00  0.00    -0.101 NA
HETATM   17  C13 UNL     1      63.570  29.663  14.866  1.00  0.00     0.121 A 
HETATM   18  C15 UNL     1      64.557  28.752  14.437  1.00  0.00     0.271 A 
HETATM   19  O2  UNL     1      64.825  27.885  15.241  1.00  0.00    -0.266 OA
HETATM   20  N7  UNL     1      65.127  28.869  13.228  1.00  0.00    -0.259 N 
ENDROOT
BRANCH   1  21
HETATM   21  N1  UNL     1      67.254  28.998   9.189  1.00  0.00    -0.385 N 
HETATM   22  C1  UNL     1      66.096  29.319   8.412  1.00  0.00     0.149 C 
HETATM   23  C2  UNL     1      68.564  29.374   8.729  1.00  0.00     0.149 C 
ENDBRANCH   1  21
BRANCH  17  24
HETATM   24  C14 UNL     1      62.995  29.480  16.180  1.00  0.00     0.272 C 
HETATM   25  N6  UNL     1      63.562  30.093  17.307  1.00  0.00    -0.057 NA
HETATM   26  O1  UNL     1      61.975  28.764  16.312  1.00  0.00    -0.271 OA
ENDBRANCH  17  24
TORSDOF 2
ENDMDL
MODEL 5
REMARK VINA RESULT: -8.130905729      2.311      4.348
REMARK  2 active torsions:
REMARK  status: ('A' for Active; 'I' for Inactive)
REMARK    1  A    between atoms: N1_2  and  C3_4 
REMARK    2  A    between atoms: C13_20  and  C14_21 
ROOT
HETATM    1  C3  UNL     1      64.695  29.719  13.632  1.00  0.00     0.100 A 
HETATM    2  C4  UNL     1      65.209  28.623  12.965  1.00  0.00     0.171 A 
HETATM    3  F1  UNL     1      65.256  27.449  13.614  1.00  0.00    -0.202 F 
HETATM    4  C5  UNL     1      65.650  28.768  11.668  1.00  0.00     0.110 A 
HETATM    5  N2  UNL     1      66.162  27.595  11.052  1.00  0.00    -0.097 NA
HETATM    6  C6  UNL     1      65.590  30.005  11.005  1.00  0.00     0.101 A 
HETATM    7  C7  UNL     1      66.075  29.997   9.694  1.00  0.00     0.104 C 
HETATM    8  N3  UNL     1      66.489  29.932   8.611  1.00  0.00    -0.191 NA
HETATM    9  C8  UNL     1      65.087  31.057  11.678  1.00  0.00     0.096 A 
HETATM   10  C9  UNL     1      64.633  30.939  12.990  1.00  0.00     0.093 A 
HETATM   11  N4  UNL     1      64.184  32.116  13.427  1.00  0.00    -0.338 N 
ATOM     12  H4  UNL     1      63.797  32.306  14.352  1.00  0.00     0.167 HD
HETATM   13  C10 UNL     1      64.332  33.005  12.435  1.00  0.00     0.117 A 
HETATM   14  C11 UNL     1      64.018  34.353  12.391  1.00  0.00     0.077 A 
HETATM   15  C12 UNL     1      64.246  35.095  11.276  1.00  0.00     0.070 A 
HETATM   16  N5  UNL     1      63.949  36.476  11.165  1.00  0.00    -0.101 NA
HETATM   17  C13 UNL     1      64.798  34.464  10.195  1.00  0.00     0.121 A 
HETATM   18  C15 UNL     1      65.114  33.091  10.247  1.00  0.00     0.271 A 
HETATM   19  O2  UNL     1      65.598  32.647   9.228  1.00  0.00    -0.266 OA
HETATM   20  N7  UNL     1      64.884  32.370  11.355  1.00  0.00    -0.259 N 
ENDROOT
BRANCH   1  21
HETATM   21  N1  UNL     1      64.222  29.650  14.963  1.00  0.00    -0.385 N 
HETATM   22  C1  UNL     1      65.089  29.921  16.070  1.00  0.00     0.149 C 
HETATM   23  C2  UNL     1      62.844  29.302  15.189  1.00  0.00     0.149 C 
ENDBRANCH   1  21
BRANCH  17  24
HETATM   24  C14 UNL     1      65.072  35.183   8.971  1.00  0.00     0.272 C 
HETATM   25  N6  UNL     1      64.057  35.419   8.031  1.00  0.00    -0.057 NA
HETATM   26  O1  UNL     1      66.232  35.602   8.748  1.00  0.00    -0.271 OA
ENDBRANCH  17  24
TORSDOF 2
ENDMDL
