MODEL 1
REMARK VINA RESULT: -8.532045982      0.000      0.000
REMARK  5 active torsions:
REMARK  status: ('A' for Active; 'I' for Inactive)
REMARK    1  A    between atoms: O1_2  and  C2_3 
REMARK    2  A    between atoms: C2_3  and  C3_5 
REMARK    3  A    between atoms: C4_6  and  N1_7 
REMARK    4  A    between atoms: N1_7  and  C5_9 
REMARK    5  A    between atoms: N5_25  and  N6_26 
ROOT
HETATM    1  C3  UNL     1      65.273  30.772  10.848  1.00  0.00     0.166 A 
HETATM    2  C4  UNL     1      65.971  30.447   9.708  1.00  0.00     0.152 A 
HETATM    3  C9  UNL     1      66.439  31.469   8.896  1.00  0.00     0.277 A 
HETATM    4  O4  UNL     1      67.080  31.215   7.848  1.00  0.00    -0.266 OA
HETATM    5  N4  UNL     1      66.219  32.757   9.212  1.00  0.00    -0.297 N 
ATOM      6  H4  UNL     1      66.568  33.500   8.607  1.00  0.00     0.171 HD
HETATM    7  C10 UNL     1      65.534  33.063  10.333  1.00  0.00     0.200 A 
HETATM    8  S1  UNL     1      65.254  34.635  10.737  1.00  0.00    -0.038 SA
HETATM    9  N5  UNL     1      65.071  32.063  11.136  1.00  0.00    -0.228 N 
ENDROOT
BRANCH   2  10
HETATM   10  N1  UNL     1      66.194  29.086   9.390  1.00  0.00    -0.183 N 
ATOM     11  H1  UNL     1      65.441  28.578   8.926  1.00  0.00     0.184 HD
BRANCH  10  12
HETATM   12  C5  UNL     1      67.277  28.447   9.644  1.00  0.00     0.686 A 
HETATM   13  N2  UNL     1      67.408  27.569  10.654  1.00  0.00    -0.181 N 
HETATM   14  C6  UNL     1      68.571  26.927  10.872  1.00  0.00     0.124 A 
ATOM     15  H2  UNL     1      66.612  27.385  11.265  1.00  0.00     0.185 HD
HETATM   16 CL1  UNL     1      68.723  25.788  12.190  1.00  0.00    -0.064 Cl
HETATM   17  C7  UNL     1      69.635  27.176  10.049  1.00  0.00     0.117 A 
HETATM   18  C8  UNL     1      69.506  28.071   9.020  1.00  0.00     0.262 A 
HETATM   19  O3  UNL     1      70.518  28.263   8.294  1.00  0.00    -0.268 OA
HETATM   20  N3  UNL     1      68.330  28.688   8.839  1.00  0.00    -0.156 N 
ATOM     21  H3  UNL     1      68.230  29.355   8.073  1.00  0.00     0.187 HD
ENDBRANCH  10  12
ENDBRANCH   2  10
BRANCH   1  22
HETATM   22  C2  UNL     1      64.748  29.761  11.754  1.00  0.00     0.314 C 
HETATM   23  O2  UNL     1      63.532  29.590  11.906  1.00  0.00    -0.257 OA
BRANCH  22  24
HETATM   24  O1  UNL     1      65.600  28.932  12.500  1.00  0.00    -0.321 OA
HETATM   25  C1  UNL     1      65.597  28.873  13.894  1.00  0.00     0.213 C 
ENDBRANCH  22  24
ENDBRANCH   1  22
BRANCH   9  26
HETATM   26  N6  UNL     1      64.363  32.377  12.293  1.00  0.00    -0.336 N 
ATOM     27  H62 UNL     1      63.629  33.085  12.261  1.00  0.00     0.177 HD
ATOM     28  H61 UNL     1      64.600  31.883  13.153  1.00  0.00     0.177 HD
ENDBRANCH   9  26
TORSDOF 5
ENDMDL
MODEL 2
REMARK VINA RESULT: -8.204602869      1.950      2.777
REMARK  5 active torsions:
REMARK  status: ('A' for Active; 'I' for Inactive)
REMARK    1  A    between atoms: O1_2  and  C2_3 
REMARK    2  A    between atoms: C2_3  and  C3_5 
REMARK    3  A    between atoms: C4_6  and  N1_7 
REMARK    4  A    between atoms: N1_7  and  C5_9 
REMARK    5  A    between atoms: N5_25  and  N6_26 
ROOT
HETATM    1  C3  UNL     1      64.985  30.615  12.479  1.00  0.00     0.166 A 
HETATM    2  C4  UNL     1      65.340  29.892  11.363  1.00  0.00     0.152 A 
HETATM    3  C9  UNL     1      65.629  30.573  10.189  1.00  0.00     0.277 A 
HETATM    4  O4  UNL     1      65.956  29.950   9.150  1.00  0.00    -0.266 OA
HETATM    5  N4  UNL     1      65.566  31.914  10.136  1.00  0.00    -0.297 N 
ATOM      6  H4  UNL     1      65.780  32.403   9.267  1.00  0.00     0.171 HD
HETATM    7  C10 UNL     1      65.217  32.612  11.237  1.00  0.00     0.200 A 
HETATM    8  S1  UNL     1      65.135  34.256  11.191  1.00  0.00    -0.038 SA
HETATM    9  N5  UNL     1      64.932  31.949  12.394  1.00  0.00    -0.228 N 
ENDROOT
BRANCH   2  10
HETATM   10  N1  UNL     1      65.401  28.480  11.436  1.00  0.00    -0.183 N 
ATOM     11  H1  UNL     1      64.526  27.963  11.351  1.00  0.00     0.184 HD
BRANCH  10  12
HETATM   12  C5  UNL     1      66.480  27.806  11.601  1.00  0.00     0.686 A 
HETATM   13  N2  UNL     1      67.518  27.833  10.748  1.00  0.00    -0.181 N 
HETATM   14  C6  UNL     1      68.625  27.103  10.974  1.00  0.00     0.124 A 
ATOM     15  H2  UNL     1      67.466  28.418   9.913  1.00  0.00     0.185 HD
HETATM   16 CL1  UNL     1      69.966  27.152   9.853  1.00  0.00    -0.064 Cl
HETATM   17  C7  UNL     1      68.691  26.320  12.095  1.00  0.00     0.117 A 
HETATM   18  C8  UNL     1      67.636  26.289  12.966  1.00  0.00     0.262 A 
HETATM   19  O3  UNL     1      67.750  25.551  13.982  1.00  0.00    -0.268 OA
HETATM   20  N3  UNL     1      66.552  27.032  12.702  1.00  0.00    -0.156 N 
ATOM     21  H3  UNL     1      65.764  27.012  13.349  1.00  0.00     0.187 HD
ENDBRANCH  10  12
ENDBRANCH   2  10
BRANCH   1  22
HETATM   22  C2  UNL     1      64.667  29.980  13.748  1.00  0.00     0.314 C 
HETATM   23  O2  UNL     1      65.520  29.367  14.403  1.00  0.00    -0.257 OA
BRANCH  22  24
HETATM   24  O1  UNL     1      63.373  30.033  14.290  1.00  0.00    -0.321 OA
HETATM   25  C1  UNL     1      63.076  29.717  15.616  1.00  0.00     0.213 C 
ENDBRANCH  22  24
ENDBRANCH   1  22
BRANCH   9  26
HETATM   26  N6  UNL     1      64.572  32.667  13.531  1.00  0.00    -0.336 N 
ATOM     27  H62 UNL     1      63.648  32.535  13.942  1.00  0.00     0.177 HD
ATOM     28  H61 UNL     1      65.253  33.315  13.929  1.00  0.00     0.177 HD
ENDBRANCH   9  26
TORSDOF 5
ENDMDL
MODEL 3
REMARK VINA RESULT: -8.074588405      1.404      1.833
REMARK  5 active torsions:
REMARK  status: ('A' for Active; 'I' for Inactive)
REMARK    1  A    between atoms: O1_2  and  C2_3 
REMARK    2  A    between atoms: C2_3  and  C3_5 
REMARK    3  A    between atoms: C4_6  and  N1_7 
REMARK    4  A    between atoms: N1_7  and  C5_9 
REMARK    5  A    between atoms: N5_25  and  N6_26 
ROOT
HETATM    1  C3  UNL     1      65.281  30.574  11.025  1.00  0.00     0.166 A 
HETATM    2  C4  UNL     1      65.977  30.188   9.903  1.00  0.00     0.152 A 
HETATM    3  C9  UNL     1      66.455  31.166   9.044  1.00  0.00     0.277 A 
HETATM    4  O4  UNL     1      67.095  30.855   8.010  1.00  0.00    -0.266 OA
HETATM    5  N4  UNL     1      66.246  32.469   9.296  1.00  0.00    -0.297 N 
ATOM      6  H4  UNL     1      66.602  33.179   8.656  1.00  0.00     0.171 HD
HETATM    7  C10 UNL     1      65.561  32.835  10.400  1.00  0.00     0.200 A 
HETATM    8  S1  UNL     1      65.295  34.427  10.726  1.00  0.00    -0.038 SA
HETATM    9  N5  UNL     1      65.089  31.879  11.249  1.00  0.00    -0.228 N 
ENDROOT
BRANCH   2  10
HETATM   10  N1  UNL     1      66.189  28.812   9.652  1.00  0.00    -0.183 N 
ATOM     11  H1  UNL     1      65.431  28.287   9.216  1.00  0.00     0.184 HD
BRANCH  10  12
HETATM   12  C5  UNL     1      67.269  28.177   9.934  1.00  0.00     0.686 A 
HETATM   13  N2  UNL     1      68.433  28.358   9.287  1.00  0.00    -0.181 N 
HETATM   14  C6  UNL     1      69.534  27.663   9.627  1.00  0.00     0.124 A 
ATOM     15  H2  UNL     1      68.483  29.034   8.524  1.00  0.00     0.185 HD
HETATM   16 CL1  UNL     1      71.040  27.910   8.775  1.00  0.00    -0.064 Cl
HETATM   17  C7  UNL     1      69.461  26.758  10.651  1.00  0.00     0.117 A 
HETATM   18  C8  UNL     1      68.277  26.571  11.312  1.00  0.00     0.262 A 
HETATM   19  O3  UNL     1      68.266  25.725  12.247  1.00  0.00    -0.268 OA
HETATM   20  N3  UNL     1      67.205  27.284  10.941  1.00  0.00    -0.156 N 
ATOM     21  H3  UNL     1      66.321  27.148  11.431  1.00  0.00     0.187 HD
ENDBRANCH  10  12
ENDBRANCH   2  10
BRANCH   1  22
HETATM   22  C2  UNL     1      64.746  29.613  11.978  1.00  0.00     0.314 C 
HETATM   23  O2  UNL     1      63.529  29.427  12.104  1.00  0.00    -0.257 OA
BRANCH  22  24
HETATM   24  O1  UNL     1      65.590  28.850  12.801  1.00  0.00    -0.321 OA
HETATM   25  C1  UNL     1      65.355  28.630  14.159  1.00  0.00     0.213 C 
ENDBRANCH  22  24
ENDBRANCH   1  22
BRANCH   9  26
HETATM   26  N6  UNL     1      64.382  32.255  12.389  1.00  0.00    -0.336 N 
ATOM     27  H62 UNL     1      63.818  33.104  12.377  1.00  0.00     0.177 HD
ATOM     28  H61 UNL     1      64.448  31.661  13.216  1.00  0.00     0.177 HD
ENDBRANCH   9  26
TORSDOF 5
ENDMDL
MODEL 4
REMARK VINA RESULT: -7.919290390      1.229      1.455
REMARK  5 active torsions:
REMARK  status: ('A' for Active; 'I' for Inactive)
REMARK    1  A    between atoms: O1_2  and  C2_3 
REMARK    2  A    between atoms: C2_3  and  C3_5 
REMARK    3  A    between atoms: C4_6  and  N1_7 
REMARK    4  A    between atoms: N1_7  and  C5_9 
REMARK    5  A    between atoms: N5_25  and  N6_26 
ROOT
HETATM    1  C3  UNL     1      65.035  30.798  12.080  1.00  0.00     0.166 A 
HETATM    2  C4  UNL     1      65.374  30.318  10.835  1.00  0.00     0.152 A 
HETATM    3  C9  UNL     1      65.561  31.220   9.799  1.00  0.00     0.277 A 
HETATM    4  O4  UNL     1      65.871  30.823   8.650  1.00  0.00    -0.266 OA
HETATM    5  N4  UNL     1      65.417  32.541  10.000  1.00  0.00    -0.297 N 
ATOM      6  H4  UNL     1      65.557  33.195   9.230  1.00  0.00     0.171 HD
HETATM    7  C10 UNL     1      65.085  33.000  11.224  1.00  0.00     0.200 A 
HETATM    8  S1  UNL     1      64.903  34.615  11.490  1.00  0.00    -0.038 SA
HETATM    9  N5  UNL     1      64.899  32.118  12.248  1.00  0.00    -0.228 N 
ENDROOT
BRANCH   2  10
HETATM   10  N1  UNL     1      65.522  28.924  10.641  1.00  0.00    -0.183 N 
ATOM     11  H1  UNL     1      64.676  28.373  10.496  1.00  0.00     0.184 HD
BRANCH  10  12
HETATM   12  C5  UNL     1      66.647  28.305  10.635  1.00  0.00     0.686 A 
HETATM   13  N2  UNL     1      67.039  27.457  11.601  1.00  0.00    -0.181 N 
HETATM   14  C6  UNL     1      68.231  26.836  11.540  1.00  0.00     0.124 A 
ATOM     15  H2  UNL     1      66.422  27.282  12.395  1.00  0.00     0.185 HD
HETATM   16 CL1  UNL     1      68.725  25.736  12.806  1.00  0.00    -0.064 Cl
HETATM   17  C7  UNL     1      69.055  27.075  10.473  1.00  0.00     0.117 A 
HETATM   18  C8  UNL     1      68.658  27.938   9.488  1.00  0.00     0.262 A 
HETATM   19  O3  UNL     1      69.456  28.122   8.528  1.00  0.00    -0.268 OA
HETATM   20  N3  UNL     1      67.463  28.536   9.588  1.00  0.00    -0.156 N 
ATOM     21  H3  UNL     1      67.164  29.180   8.855  1.00  0.00     0.187 HD
ENDBRANCH  10  12
ENDBRANCH   2  10
BRANCH   1  22
HETATM   22  C2  UNL     1      64.821  29.920  13.220  1.00  0.00     0.314 C 
HETATM   23  O2  UNL     1      65.763  29.385  13.818  1.00  0.00    -0.257 OA
BRANCH  22  24
HETATM   24  O1  UNL     1      63.530  29.637  13.695  1.00  0.00    -0.321 OA
HETATM   25  C1  UNL     1      63.239  29.372  15.033  1.00  0.00     0.213 C 
ENDBRANCH  22  24
ENDBRANCH   1  22
BRANCH   9  26
HETATM   26  N6  UNL     1      64.557  32.589  13.512  1.00  0.00    -0.336 N 
ATOM     27  H62 UNL     1      63.815  32.128  14.041  1.00  0.00     0.177 HD
ATOM     28  H61 UNL     1      65.064  33.393  13.882  1.00  0.00     0.177 HD
ENDBRANCH   9  26
TORSDOF 5
ENDMDL
MODEL 5
REMARK VINA RESULT: -7.754101499      1.682      3.422
REMARK  5 active torsions:
REMARK  status: ('A' for Active; 'I' for Inactive)
REMARK    1  A    between atoms: O1_2  and  C2_3 
REMARK    2  A    between atoms: C2_3  and  C3_5 
REMARK    3  A    between atoms: C4_6  and  N1_7 
REMARK    4  A    between atoms: N1_7  and  C5_9 
REMARK    5  A    between atoms: N5_25  and  N6_26 
ROOT
HETATM    1  C3  UNL     1      66.207  31.032   9.875  1.00  0.00     0.166 A 
HETATM    2  C4  UNL     1      65.535  30.111  10.645  1.00  0.00     0.152 A 
HETATM    3  C9  UNL     1      64.657  30.566  11.618  1.00  0.00     0.277 A 
HETATM    4  O4  UNL     1      64.026  29.758  12.341  1.00  0.00    -0.266 OA
HETATM    5  N4  UNL     1      64.463  31.881  11.811  1.00  0.00    -0.297 N 
ATOM      6  H4  UNL     1      63.815  32.203  12.530  1.00  0.00     0.171 HD
HETATM    7  C10 UNL     1      65.127  32.775  11.050  1.00  0.00     0.200 A 
HETATM    8  S1  UNL     1      64.901  34.391  11.272  1.00  0.00    -0.038 SA
HETATM    9  N5  UNL     1      65.991  32.335  10.091  1.00  0.00    -0.228 N 
ENDROOT
BRANCH   2  10
HETATM   10  N1  UNL     1      65.752  28.730  10.429  1.00  0.00    -0.183 N 
ATOM     11  H1  UNL     1      65.366  28.316   9.580  1.00  0.00     0.184 HD
BRANCH  10  12
HETATM   12  C5  UNL     1      66.400  27.960  11.226  1.00  0.00     0.686 A 
HETATM   13  N2  UNL     1      65.943  27.576  12.431  1.00  0.00    -0.181 N 
HETATM   14  C6  UNL     1      66.669  26.767  13.225  1.00  0.00     0.124 A 
ATOM     15  H2  UNL     1      65.031  27.904  12.749  1.00  0.00     0.185 HD
HETATM   16 CL1  UNL     1      66.059  26.278  14.788  1.00  0.00    -0.064 Cl
HETATM   17  C7  UNL     1      67.892  26.330  12.793  1.00  0.00     0.117 A 
HETATM   18  C8  UNL     1      68.360  26.720  11.567  1.00  0.00     0.262 A 
HETATM   19  O3  UNL     1      69.493  26.288  11.220  1.00  0.00    -0.268 OA
HETATM   20  N3  UNL     1      67.605  27.527  10.809  1.00  0.00    -0.156 N 
ATOM     21  H3  UNL     1      67.950  27.819   9.894  1.00  0.00     0.187 HD
ENDBRANCH  10  12
ENDBRANCH   2  10
BRANCH   1  22
HETATM   22  C2  UNL     1      67.144  30.640   8.834  1.00  0.00     0.314 C 
HETATM   23  O2  UNL     1      66.956  30.927   7.645  1.00  0.00    -0.257 OA
BRANCH  22  24
HETATM   24  O1  UNL     1      68.308  29.914   9.131  1.00  0.00    -0.321 OA
HETATM   25  C1  UNL     1      68.892  28.996   8.258  1.00  0.00     0.213 C 
ENDBRANCH  22  24
ENDBRANCH   1  22
BRANCH   9  26
HETATM   26  N6  UNL     1      66.678  33.255   9.305  1.00  0.00    -0.336 N 
ATOM     27  H62 UNL     1      67.698  33.260   9.305  1.00  0.00     0.177 HD
ATOM     28  H61 UNL     1      66.135  33.909   8.741  1.00  0.00     0.177 HD
ENDBRANCH   9  26
TORSDOF 5
ENDMDL
