MODEL 1
REMARK VINA RESULT: -8.504556229      0.000      0.000
REMARK  5 active torsions:
REMARK  status: ('A' for Active; 'I' for Inactive)
REMARK    1  A    between atoms: C4_6  and  N2_7 
REMARK    2  A    between atoms: N2_7  and  C5_9 
REMARK    3  A    between atoms: C7_11  and  C8_12 
REMARK    4  A    between atoms: C10_17  and  S1_18 
REMARK    5  A    between atoms: S1_18  and  N3_19 
ROOT
HETATM    1  C5  UNL     1      65.046  29.255  13.351  1.00  0.00     0.079 A 
HETATM    2  C6  UNL     1      65.578  28.156  13.994  1.00  0.00     0.059 A 
HETATM    3  C7  UNL     1      66.358  27.193  13.429  1.00  0.00     0.084 A 
HETATM    4  C9  UNL     1      66.753  27.150  12.101  1.00  0.00     0.163 A 
HETATM    5  F1  UNL     1      67.548  26.111  11.654  1.00  0.00    -0.203 F 
HETATM    6  C10 UNL     1      66.410  28.089  11.152  1.00  0.00     0.161 A 
HETATM    7  S2  UNL     1      65.431  29.370  11.698  1.00  0.00    -0.056 SA
ENDROOT
BRANCH   1   8
HETATM    8  N2  UNL     1      64.317  30.111  13.989  1.00  0.00    -0.322 N 
ATOM      9  H2  UNL     1      64.154  31.042  13.606  1.00  0.00     0.169 HD
BRANCH   8  10
HETATM   10  C4  UNL     1      63.741  29.725  15.244  1.00  0.00     0.194 C 
HETATM   11  N1  UNL     1      62.588  29.198  15.453  1.00  0.00    -0.337 N 
HETATM   12  C2  UNL     1      62.426  28.975  16.867  1.00  0.00     0.116 C 
ATOM     13  H1  UNL     1      61.899  28.975  14.735  1.00  0.00     0.164 HD
HETATM   14  C1  UNL     1      60.996  29.193  17.304  1.00  0.00     0.059 C 
HETATM   15  C3  UNL     1      62.890  27.566  17.167  1.00  0.00     0.059 C 
HETATM   16  N5  UNL     1      63.348  29.882  17.471  1.00  0.00    -0.107 NA
HETATM   17  N4  UNL     1      64.390  29.879  16.506  1.00  0.00    -0.273 N 
ATOM     18  H4  UNL     1      65.391  29.968  16.678  1.00  0.00     0.185 HD
ENDBRANCH   8  10
ENDBRANCH   1   8
BRANCH   3  19
HETATM   19  C8  UNL     1      66.847  26.076  14.267  1.00  0.00     0.212 C 
HETATM   20  O1  UNL     1      66.134  25.535  15.155  1.00  0.00    -0.644 OA
HETATM   21  O2  UNL     1      68.123  25.611  14.073  1.00  0.00    -0.644 OA
ENDBRANCH   3  19
BRANCH   6  22
HETATM   22  S1  UNL     1      66.948  27.968   9.489  1.00  0.00     0.266 S 
HETATM   23  O3  UNL     1      66.471  26.635   8.967  1.00  0.00    -0.200 OA
HETATM   24  O4  UNL     1      66.385  29.097   8.707  1.00  0.00    -0.200 OA
BRANCH  22  25
HETATM   25  N3  UNL     1      68.669  27.954   9.506  1.00  0.00    -0.324 N 
ATOM     26  H32 UNL     1      69.252  27.303  10.032  1.00  0.00     0.169 HD
ATOM     27  H31 UNL     1      68.985  28.711   8.899  1.00  0.00     0.169 HD
ENDBRANCH  22  25
ENDBRANCH   6  22
TORSDOF 5
ENDMDL
MODEL 2
REMARK VINA RESULT: -8.195173825      2.896      6.665
REMARK  5 active torsions:
REMARK  status: ('A' for Active; 'I' for Inactive)
REMARK    1  A    between atoms: C4_6  and  N2_7 
REMARK    2  A    between atoms: N2_7  and  C5_9 
REMARK    3  A    between atoms: C7_11  and  C8_12 
REMARK    4  A    between atoms: C10_17  and  S1_18 
REMARK    5  A    between atoms: S1_18  and  N3_19 
ROOT
HETATM    1  C5  UNL     1      65.399  28.866  12.064  1.00  0.00     0.079 A 
HETATM    2  C6  UNL     1      66.056  27.801  12.645  1.00  0.00     0.059 A 
HETATM    3  C7  UNL     1      65.911  27.369  13.929  1.00  0.00     0.084 A 
HETATM    4  C9  UNL     1      65.074  27.930  14.880  1.00  0.00     0.163 A 
HETATM    5  F1  UNL     1      65.022  27.393  16.153  1.00  0.00    -0.203 F 
HETATM    6  C10 UNL     1      64.256  29.018  14.659  1.00  0.00     0.161 A 
HETATM    7  S2  UNL     1      64.317  29.683  13.093  1.00  0.00    -0.056 SA
ENDROOT
BRANCH   1   8
HETATM    8  N2  UNL     1      65.613  29.188  10.832  1.00  0.00    -0.322 N 
ATOM      9  H2  UNL     1      65.046  29.902  10.375  1.00  0.00     0.169 HD
BRANCH   8  10
HETATM   10  C4  UNL     1      66.664  28.523  10.119  1.00  0.00     0.194 C 
HETATM   11  N1  UNL     1      67.836  28.972   9.842  1.00  0.00    -0.337 N 
HETATM   12  C2  UNL     1      68.562  27.964   9.113  1.00  0.00     0.116 C 
ATOM     13  H1  UNL     1      68.194  29.892  10.098  1.00  0.00     0.164 HD
HETATM   14  C1  UNL     1      69.469  28.577   8.071  1.00  0.00     0.059 C 
HETATM   15  C3  UNL     1      69.344  27.143  10.115  1.00  0.00     0.059 C 
HETATM   16  N5  UNL     1      67.543  27.133   8.558  1.00  0.00    -0.107 NA
HETATM   17  N4  UNL     1      66.560  27.205   9.581  1.00  0.00    -0.273 N 
ATOM     18  H4  UNL     1      65.915  26.469   9.871  1.00  0.00     0.185 HD
ENDBRANCH   8  10
ENDBRANCH   1   8
BRANCH   3  19
HETATM   19  C8  UNL     1      66.698  26.204  14.392  1.00  0.00     0.212 C 
HETATM   20  O1  UNL     1      66.460  25.618  15.482  1.00  0.00    -0.644 OA
HETATM   21  O2  UNL     1      67.724  25.743  13.607  1.00  0.00    -0.644 OA
ENDBRANCH   3  19
BRANCH   6  22
HETATM   22  S1  UNL     1      63.222  29.673  15.912  1.00  0.00     0.266 S 
HETATM   23  O3  UNL     1      62.264  28.577  16.311  1.00  0.00    -0.200 OA
HETATM   24  O4  UNL     1      64.057  30.114  17.057  1.00  0.00    -0.200 OA
BRANCH  22  25
HETATM   25  N3  UNL     1      62.312  30.954  15.210  1.00  0.00    -0.324 N 
ATOM     26  H32 UNL     1      61.713  30.875  14.388  1.00  0.00     0.169 HD
ATOM     27  H31 UNL     1      62.487  31.791  15.766  1.00  0.00     0.169 HD
ENDBRANCH  22  25
ENDBRANCH   6  22
TORSDOF 5
ENDMDL
MODEL 3
REMARK VINA RESULT: -8.167334495      4.088      6.335
REMARK  5 active torsions:
REMARK  status: ('A' for Active; 'I' for Inactive)
REMARK    1  A    between atoms: C4_6  and  N2_7 
REMARK    2  A    between atoms: N2_7  and  C5_9 
REMARK    3  A    between atoms: C7_11  and  C8_12 
REMARK    4  A    between atoms: C10_17  and  S1_18 
REMARK    5  A    between atoms: S1_18  and  N3_19 
ROOT
HETATM    1  C5  UNL     1      64.407  30.440  11.346  1.00  0.00     0.079 A 
HETATM    2  C6  UNL     1      65.325  29.412  11.274  1.00  0.00     0.059 A 
HETATM    3  C7  UNL     1      65.702  28.597  12.298  1.00  0.00     0.084 A 
HETATM    4  C9  UNL     1      65.227  28.660  13.598  1.00  0.00     0.163 A 
HETATM    5  F1  UNL     1      65.695  27.770  14.545  1.00  0.00    -0.203 F 
HETATM    6  C10 UNL     1      64.291  29.569  14.045  1.00  0.00     0.161 A 
HETATM    7  S2  UNL     1      63.711  30.668  12.882  1.00  0.00    -0.056 SA
ENDROOT
BRANCH   1   8
HETATM    8  N2  UNL     1      64.123  31.153  10.306  1.00  0.00    -0.322 N 
ATOM      9  H2  UNL     1      63.633  30.742   9.513  1.00  0.00     0.169 HD
BRANCH   8  10
HETATM   10  C4  UNL     1      64.511  32.533  10.292  1.00  0.00     0.194 C 
HETATM   11  N1  UNL     1      63.772  33.557  10.052  1.00  0.00    -0.337 N 
HETATM   12  C2  UNL     1      64.578  34.747  10.146  1.00  0.00     0.116 C 
ATOM     13  H1  UNL     1      62.777  33.531   9.832  1.00  0.00     0.164 HD
HETATM   14  C1  UNL     1      64.148  35.790   9.140  1.00  0.00     0.059 C 
HETATM   15  C3  UNL     1      64.472  35.265  11.564  1.00  0.00     0.059 C 
HETATM   16  N5  UNL     1      65.912  34.281   9.943  1.00  0.00    -0.107 NA
HETATM   17  N4  UNL     1      65.836  32.998  10.547  1.00  0.00    -0.273 N 
ATOM     18  H4  UNL     1      66.574  32.510  11.056  1.00  0.00     0.185 HD
ENDBRANCH   8  10
ENDBRANCH   1   8
BRANCH   3  19
HETATM   19  C8  UNL     1      66.705  27.538  12.046  1.00  0.00     0.212 C 
HETATM   20  O1  UNL     1      67.814  27.502  12.645  1.00  0.00    -0.644 OA
HETATM   21  O2  UNL     1      66.420  26.560  11.127  1.00  0.00    -0.644 OA
ENDBRANCH   3  19
BRANCH   6  22
HETATM   22  S1  UNL     1      63.736  29.589  15.707  1.00  0.00     0.266 S 
HETATM   23  O3  UNL     1      63.302  28.183  16.044  1.00  0.00    -0.200 OA
HETATM   24  O4  UNL     1      64.838  30.049  16.588  1.00  0.00    -0.200 OA
BRANCH  22  25
HETATM   25  N3  UNL     1      62.351  30.609  15.774  1.00  0.00    -0.324 N 
ATOM     26  H32 UNL     1      61.435  30.392  15.383  1.00  0.00     0.169 HD
ATOM     27  H31 UNL     1      62.623  31.458  16.271  1.00  0.00     0.169 HD
ENDBRANCH  22  25
ENDBRANCH   6  22
TORSDOF 5
ENDMDL
MODEL 4
REMARK VINA RESULT: -8.131378828      3.897      6.517
REMARK  5 active torsions:
REMARK  status: ('A' for Active; 'I' for Inactive)
REMARK    1  A    between atoms: C4_6  and  N2_7 
REMARK    2  A    between atoms: N2_7  and  C5_9 
REMARK    3  A    between atoms: C7_11  and  C8_12 
REMARK    4  A    between atoms: C10_17  and  S1_18 
REMARK    5  A    between atoms: S1_18  and  N3_19 
ROOT
HETATM    1  C5  UNL     1      65.289  28.401  12.680  1.00  0.00     0.079 A 
HETATM    2  C6  UNL     1      64.753  28.554  13.942  1.00  0.00     0.059 A 
HETATM    3  C7  UNL     1      64.043  29.628  14.390  1.00  0.00     0.084 A 
HETATM    4  C9  UNL     1      63.737  30.759  13.651  1.00  0.00     0.163 A 
HETATM    5  F1  UNL     1      63.008  31.781  14.229  1.00  0.00    -0.203 F 
HETATM    6  C10 UNL     1      64.111  30.961  12.339  1.00  0.00     0.161 A 
HETATM    7  S2  UNL     1      65.010  29.705  11.623  1.00  0.00    -0.056 SA
ENDROOT
BRANCH   1   8
HETATM    8  N2  UNL     1      65.947  27.335  12.362  1.00  0.00    -0.322 N 
ATOM      9  H2  UNL     1      65.854  26.483  12.913  1.00  0.00     0.169 HD
BRANCH   8  10
HETATM   10  C4  UNL     1      66.809  27.375  11.217  1.00  0.00     0.194 C 
HETATM   11  N1  UNL     1      67.696  28.259  10.928  1.00  0.00    -0.337 N 
HETATM   12  C2  UNL     1      68.326  27.900   9.683  1.00  0.00     0.116 C 
ATOM     13  H1  UNL     1      67.917  29.082  11.489  1.00  0.00     0.164 HD
HETATM   14  C1  UNL     1      68.675  29.120   8.864  1.00  0.00     0.059 C 
HETATM   15  C3  UNL     1      69.555  27.079  10.010  1.00  0.00     0.059 C 
HETATM   16  N5  UNL     1      67.378  27.043   9.047  1.00  0.00    -0.107 NA
HETATM   17  N4  UNL     1      66.808  26.398  10.177  1.00  0.00    -0.273 N 
ATOM     18  H4  UNL     1      66.470  25.437  10.233  1.00  0.00     0.185 HD
ENDBRANCH   8  10
ENDBRANCH   1   8
BRANCH   3  19
HETATM   19  C8  UNL     1      63.537  29.629  15.781  1.00  0.00     0.212 C 
HETATM   20  O1  UNL     1      62.373  29.246  16.076  1.00  0.00    -0.644 OA
HETATM   21  O2  UNL     1      64.363  30.062  16.787  1.00  0.00    -0.644 OA
ENDBRANCH   3  19
BRANCH   6  22
HETATM   22  S1  UNL     1      63.687  32.420  11.467  1.00  0.00     0.266 S 
HETATM   23  O3  UNL     1      64.061  32.194  10.022  1.00  0.00    -0.200 OA
HETATM   24  O4  UNL     1      62.235  32.681  11.623  1.00  0.00    -0.200 OA
BRANCH  22  25
HETATM   25  N3  UNL     1      64.669  33.691  12.085  1.00  0.00    -0.324 N 
ATOM     26  H32 UNL     1      64.562  34.682  11.867  1.00  0.00     0.169 HD
ATOM     27  H31 UNL     1      65.366  33.268  12.698  1.00  0.00     0.169 HD
ENDBRANCH  22  25
ENDBRANCH   6  22
TORSDOF 5
ENDMDL
MODEL 5
REMARK VINA RESULT: -8.060066686      3.627      6.046
REMARK  5 active torsions:
REMARK  status: ('A' for Active; 'I' for Inactive)
REMARK    1  A    between atoms: C4_6  and  N2_7 
REMARK    2  A    between atoms: N2_7  and  C5_9 
REMARK    3  A    between atoms: C7_11  and  C8_12 
REMARK    4  A    between atoms: C10_17  and  S1_18 
REMARK    5  A    between atoms: S1_18  and  N3_19 
ROOT
HETATM    1  C5  UNL     1      65.318  29.325  11.812  1.00  0.00     0.079 A 
HETATM    2  C6  UNL     1      66.040  28.216  12.201  1.00  0.00     0.059 A 
HETATM    3  C7  UNL     1      66.009  27.625  13.429  1.00  0.00     0.084 A 
HETATM    4  C9  UNL     1      65.243  28.041  14.506  1.00  0.00     0.163 A 
HETATM    5  F1  UNL     1      65.307  27.350  15.701  1.00  0.00    -0.203 F 
HETATM    6  C10 UNL     1      64.391  29.124  14.488  1.00  0.00     0.161 A 
HETATM    7  S2  UNL     1      64.310  29.979  13.018  1.00  0.00    -0.056 SA
ENDROOT
BRANCH   1   8
HETATM    8  N2  UNL     1      65.424  29.803  10.616  1.00  0.00    -0.322 N 
ATOM      9  H2  UNL     1      65.730  29.211   9.845  1.00  0.00     0.169 HD
BRANCH   8  10
HETATM   10  C4  UNL     1      65.103  31.183  10.396  1.00  0.00     0.194 C 
HETATM   11  N1  UNL     1      65.798  32.215  10.715  1.00  0.00    -0.337 N 
HETATM   12  C2  UNL     1      65.092  33.401  10.301  1.00  0.00     0.116 C 
ATOM     13  H1  UNL     1      66.703  32.198  11.185  1.00  0.00     0.164 HD
HETATM   14  C1  UNL     1      65.295  34.537  11.276  1.00  0.00     0.059 C 
HETATM   15  C3  UNL     1      65.576  33.765   8.914  1.00  0.00     0.059 C 
HETATM   16  N5  UNL     1      63.733  32.979  10.199  1.00  0.00    -0.107 NA
HETATM   17  N4  UNL     1      63.906  31.637   9.764  1.00  0.00    -0.273 N 
ATOM     18  H4  UNL     1      63.303  31.110   9.133  1.00  0.00     0.185 HD
ENDBRANCH   8  10
ENDBRANCH   1   8
BRANCH   3  19
HETATM   19  C8  UNL     1      66.852  26.434  13.677  1.00  0.00     0.212 C 
HETATM   20  O1  UNL     1      66.671  25.674  14.667  1.00  0.00    -0.644 OA
HETATM   21  O2  UNL     1      67.867  26.145  12.801  1.00  0.00    -0.644 OA
ENDBRANCH   3  19
BRANCH   6  22
HETATM   22  S1  UNL     1      63.453  29.591  15.892  1.00  0.00     0.266 S 
HETATM   23  O3  UNL     1      62.656  28.380  16.312  1.00  0.00    -0.200 OA
HETATM   24  O4  UNL     1      64.370  30.044  16.968  1.00  0.00    -0.200 OA
BRANCH  22  25
HETATM   25  N3  UNL     1      62.350  30.813  15.390  1.00  0.00    -0.324 N 
ATOM     26  H32 UNL     1      61.502  31.088  15.887  1.00  0.00     0.169 HD
ATOM     27  H31 UNL     1      62.703  31.201  14.515  1.00  0.00     0.169 HD
ENDBRANCH  22  25
ENDBRANCH   6  22
TORSDOF 5
ENDMDL
