MODEL 1
REMARK VINA RESULT: -7.971781972      0.000      0.000
REMARK  4 active torsions:
REMARK  status: ('A' for Active; 'I' for Inactive)
REMARK    1  A    between atoms: N1_1  and  C1_4 
REMARK    2  A    between atoms: C3_9  and  C4_10 
REMARK    3  A    between atoms: N4_17  and  C8_18 
REMARK    4  A    between atoms: C8_18  and  C9_19 
ROOT
HETATM    1  C4  UNL     1      66.062  28.536  12.895  1.00  0.00     0.165 C 
HETATM    2  C5  UNL     1      65.686  27.036  13.010  1.00  0.00     0.264 C 
HETATM    3  N3  UNL     1      67.006  26.391  13.103  1.00  0.00    -0.071 N 
ATOM      4  H31 UNL     1      66.951  25.390  12.914  1.00  0.00     0.277 HD
ATOM      5  H32 UNL     1      67.337  26.346  14.067  1.00  0.00     0.277 HD
HETATM    6  C6  UNL     1      67.969  27.050  12.234  1.00  0.00     0.252 C 
HETATM    7  C7  UNL     1      67.279  27.596  11.010  1.00  0.00     0.150 C 
HETATM    8  N4  UNL     1      66.305  28.587  11.417  1.00  0.00    -0.375 N 
ENDROOT
BRANCH   1   9
HETATM    9  C3  UNL     1      64.965  29.351  13.365  1.00  0.00     0.107 A 
HETATM   10  C2  UNL     1      65.177  30.654  13.761  1.00  0.00     0.229 A 
HETATM   11  N2  UNL     1      64.233  31.499  14.152  1.00  0.00    -0.163 N 
HETATM   12  F1  UNL     1      66.473  31.155  13.827  1.00  0.00    -0.183 F 
HETATM   13  C1  UNL     1      62.930  31.061  14.153  1.00  0.00     0.692 A 
ATOM     14  H2  UNL     1      64.468  32.447  14.444  1.00  0.00     0.186 HD
HETATM   15  N7  UNL     1      62.717  29.832  13.766  1.00  0.00    -0.132 N 
HETATM   16  N6  UNL     1      63.639  28.937  13.376  1.00  0.00    -0.284 N 
ATOM     17  H7  UNL     1      61.746  29.520  13.760  1.00  0.00     0.205 HD
ATOM     18  H6  UNL     1      63.377  27.991  13.099  1.00  0.00     0.187 HD
BRANCH  13  19
HETATM   19  N1  UNL     1      62.004  31.882  14.563  1.00  0.00    -0.233 N 
ATOM     20  H12 UNL     1      62.179  32.739  15.088  1.00  0.00     0.174 HD
ATOM     21  H11 UNL     1      61.035  31.672  14.327  1.00  0.00     0.174 HD
ENDBRANCH  13  19
ENDBRANCH   1   9
BRANCH   8  22
HETATM   22  C8  UNL     1      65.611  29.345  10.520  1.00  0.00     0.111 C 
BRANCH  22  23
HETATM   23  C9  UNL     1      65.839  30.499   9.947  1.00  0.00     0.091 A 
HETATM   24  S1  UNL     1      64.894  31.993  10.389  1.00  0.00    -0.054 SA
HETATM   25  C10 UNL     1      65.678  33.092   9.255  1.00  0.00     0.146 A 
HETATM   26  S2  UNL     1      65.384  34.709   9.050  1.00  0.00    -0.052 SA
HETATM   27  N5  UNL     1      66.618  32.298   8.550  1.00  0.00    -0.307 N 
HETATM   28  C11 UNL     1      66.705  30.957   8.917  1.00  0.00     0.265 A 
ATOM     29  H5  UNL     1      67.201  32.690   7.811  1.00  0.00     0.170 HD
HETATM   30  O1  UNL     1      67.552  30.197   8.329  1.00  0.00    -0.267 OA
ENDBRANCH  22  23
ENDBRANCH   8  22
TORSDOF 4
ENDMDL
MODEL 2
REMARK VINA RESULT: -7.723232453      3.626      5.871
REMARK  4 active torsions:
REMARK  status: ('A' for Active; 'I' for Inactive)
REMARK    1  A    between atoms: N1_1  and  C1_4 
REMARK    2  A    between atoms: C3_9  and  C4_10 
REMARK    3  A    between atoms: N4_17  and  C8_18 
REMARK    4  A    between atoms: C8_18  and  C9_19 
ROOT
HETATM    1  C4  UNL     1      62.964  33.933  11.695  1.00  0.00     0.165 C 
HETATM    2  C5  UNL     1      64.202  34.517  12.424  1.00  0.00     0.264 C 
HETATM    3  N3  UNL     1      64.816  35.349  11.375  1.00  0.00    -0.071 N 
ATOM      4  H31 UNL     1      65.781  35.589  11.601  1.00  0.00     0.277 HD
ATOM      5  H32 UNL     1      64.422  36.290  11.362  1.00  0.00     0.277 HD
HETATM    6  C6  UNL     1      64.713  34.705  10.074  1.00  0.00     0.252 C 
HETATM    7  C7  UNL     1      64.764  33.207  10.228  1.00  0.00     0.150 C 
HETATM    8  N4  UNL     1      63.635  32.772  11.023  1.00  0.00    -0.375 N 
ENDROOT
BRANCH   1   9
HETATM    9  C3  UNL     1      61.952  33.579  12.664  1.00  0.00     0.107 A 
HETATM   10  C2  UNL     1      60.618  33.798  12.397  1.00  0.00     0.229 A 
HETATM   11  N2  UNL     1      59.612  33.459  13.191  1.00  0.00    -0.163 N 
HETATM   12  F1  UNL     1      60.245  34.475  11.240  1.00  0.00    -0.183 F 
HETATM   13  C1  UNL     1      59.905  32.821  14.373  1.00  0.00     0.692 A 
ATOM     14  H2  UNL     1      58.648  33.665  12.932  1.00  0.00     0.186 HD
HETATM   15  N7  UNL     1      61.165  32.597  14.630  1.00  0.00    -0.132 N 
HETATM   16  N6  UNL     1      62.217  32.933  13.865  1.00  0.00    -0.284 N 
ATOM     17  H7  UNL     1      61.373  32.114  15.504  1.00  0.00     0.205 HD
ATOM     18  H6  UNL     1      63.173  32.724  14.154  1.00  0.00     0.187 HD
BRANCH  13  19
HETATM   19  N1  UNL     1      58.919  32.512  15.167  1.00  0.00    -0.233 N 
ATOM     20  H12 UNL     1      58.091  33.088  15.318  1.00  0.00     0.174 HD
ATOM     21  H11 UNL     1      58.958  31.620  15.660  1.00  0.00     0.174 HD
ENDBRANCH  13  19
ENDBRANCH   1   9
BRANCH   8  22
HETATM   22  C8  UNL     1      63.345  31.455  11.228  1.00  0.00     0.111 C 
BRANCH  22  23
HETATM   23  C9  UNL     1      63.979  30.472  11.813  1.00  0.00     0.091 A 
HETATM   24  S1  UNL     1      65.357  29.600  11.001  1.00  0.00    -0.054 SA
HETATM   25  C10 UNL     1      65.680  28.446  12.294  1.00  0.00     0.146 A 
HETATM   26  S2  UNL     1      66.850  27.275  12.334  1.00  0.00    -0.052 SA
HETATM   27  N5  UNL     1      64.720  28.729  13.299  1.00  0.00    -0.307 N 
HETATM   28  C11 UNL     1      63.846  29.785  13.051  1.00  0.00     0.265 A 
ATOM     29  H5  UNL     1      64.672  28.186  14.161  1.00  0.00     0.170 HD
HETATM   30  O1  UNL     1      62.973  30.100  13.933  1.00  0.00    -0.267 OA
ENDBRANCH  22  23
ENDBRANCH   8  22
TORSDOF 4
ENDMDL
MODEL 3
REMARK VINA RESULT: -7.568483960      3.877      6.033
REMARK  4 active torsions:
REMARK  status: ('A' for Active; 'I' for Inactive)
REMARK    1  A    between atoms: N1_1  and  C1_4 
REMARK    2  A    between atoms: C3_9  and  C4_10 
REMARK    3  A    between atoms: N4_17  and  C8_18 
REMARK    4  A    between atoms: C8_18  and  C9_19 
ROOT
HETATM    1  C4  UNL     1      64.359  31.257  12.410  1.00  0.00     0.165 C 
HETATM    2  C5  UNL     1      65.287  31.257  13.653  1.00  0.00     0.264 C 
HETATM    3  N3  UNL     1      65.079  29.904  14.196  1.00  0.00    -0.071 N 
ATOM      4  H31 UNL     1      65.405  29.831  15.159  1.00  0.00     0.277 HD
ATOM      5  H32 UNL     1      65.709  29.225  13.768  1.00  0.00     0.277 HD
HETATM    6  C6  UNL     1      63.687  29.500  14.067  1.00  0.00     0.252 C 
HETATM    7  C7  UNL     1      62.783  30.702  14.178  1.00  0.00     0.150 C 
HETATM    8  N4  UNL     1      63.076  31.618  13.096  1.00  0.00    -0.375 N 
ENDROOT
BRANCH   1   9
HETATM    9  C3  UNL     1      64.834  32.225  11.448  1.00  0.00     0.107 A 
HETATM   10  C2  UNL     1      64.287  32.286  10.185  1.00  0.00     0.229 A 
HETATM   11  N2  UNL     1      64.610  33.171   9.252  1.00  0.00    -0.163 N 
HETATM   12  F1  UNL     1      63.355  31.333   9.786  1.00  0.00    -0.183 F 
HETATM   13  C1  UNL     1      65.555  34.121   9.559  1.00  0.00     0.692 A 
ATOM     14  H2  UNL     1      64.171  33.147   8.332  1.00  0.00     0.186 HD
HETATM   15  N7  UNL     1      66.070  34.081  10.758  1.00  0.00    -0.132 N 
HETATM   16  N6  UNL     1      65.785  33.198  11.729  1.00  0.00    -0.284 N 
ATOM     17  H7  UNL     1      66.762  34.796  10.980  1.00  0.00     0.205 HD
ATOM     18  H6  UNL     1      66.248  33.239  12.637  1.00  0.00     0.187 HD
BRANCH  13  19
HETATM   19  N1  UNL     1      65.894  34.975   8.633  1.00  0.00    -0.233 N 
ATOM     20  H12 UNL     1      66.717  35.575   8.670  1.00  0.00     0.174 HD
ATOM     21  H11 UNL     1      65.312  35.037   7.798  1.00  0.00     0.174 HD
ENDBRANCH  13  19
ENDBRANCH   1   9
BRANCH   8  22
HETATM   22  C8  UNL     1      62.333  32.738  12.862  1.00  0.00     0.111 C 
BRANCH  22  23
HETATM   23  C9  UNL     1      62.187  33.872  13.496  1.00  0.00     0.091 A 
HETATM   24  S1  UNL     1      60.707  34.228  14.498  1.00  0.00    -0.054 SA
HETATM   25  C10 UNL     1      61.163  35.856  14.994  1.00  0.00     0.146 A 
HETATM   26  S2  UNL     1      60.319  36.885  15.979  1.00  0.00    -0.052 SA
HETATM   27  N5  UNL     1      62.412  36.103  14.369  1.00  0.00    -0.307 N 
HETATM   28  C11 UNL     1      62.944  35.071  13.601  1.00  0.00     0.265 A 
ATOM     29  H5  UNL     1      62.896  36.995  14.477  1.00  0.00     0.170 HD
HETATM   30  O1  UNL     1      64.079  35.230  13.031  1.00  0.00    -0.267 OA
ENDBRANCH  22  23
ENDBRANCH   8  22
TORSDOF 4
ENDMDL
MODEL 4
REMARK VINA RESULT: -7.453694720      3.455      5.724
REMARK  4 active torsions:
REMARK  status: ('A' for Active; 'I' for Inactive)
REMARK    1  A    between atoms: N1_1  and  C1_4 
REMARK    2  A    between atoms: C3_9  and  C4_10 
REMARK    3  A    between atoms: N4_17  and  C8_18 
REMARK    4  A    between atoms: C8_18  and  C9_19 
ROOT
HETATM    1  C4  UNL     1      62.867  34.211  11.682  1.00  0.00     0.165 C 
HETATM    2  C5  UNL     1      64.100  34.791  12.422  1.00  0.00     0.264 C 
HETATM    3  N3  UNL     1      64.657  35.716  11.420  1.00  0.00    -0.071 N 
ATOM      4  H31 UNL     1      65.618  35.976  11.641  1.00  0.00     0.277 HD
ATOM      5  H32 UNL     1      64.229  36.640  11.481  1.00  0.00     0.277 HD
HETATM    6  C6  UNL     1      64.545  35.159  10.080  1.00  0.00     0.252 C 
HETATM    7  C7  UNL     1      64.655  33.657  10.128  1.00  0.00     0.150 C 
HETATM    8  N4  UNL     1      63.562  33.126  10.916  1.00  0.00    -0.375 N 
ENDROOT
BRANCH   1   9
HETATM    9  C3  UNL     1      61.892  33.753  12.646  1.00  0.00     0.107 A 
HETATM   10  C2  UNL     1      60.544  33.893  12.401  1.00  0.00     0.229 A 
HETATM   11  N2  UNL     1      59.572  33.457  13.191  1.00  0.00    -0.163 N 
HETATM   12  F1  UNL     1      60.112  34.588  11.275  1.00  0.00    -0.183 F 
HETATM   13  C1  UNL     1      59.922  32.795  14.344  1.00  0.00     0.692 A 
ATOM     14  H2  UNL     1      58.593  33.608  12.950  1.00  0.00     0.186 HD
HETATM   15  N7  UNL     1      61.197  32.645  14.579  1.00  0.00    -0.132 N 
HETATM   16  N6  UNL     1      62.215  33.081  13.818  1.00  0.00    -0.284 N 
ATOM     17  H7  UNL     1      61.447  32.144  15.432  1.00  0.00     0.205 HD
ATOM     18  H6  UNL     1      63.186  32.925  14.089  1.00  0.00     0.187 HD
BRANCH  13  19
HETATM   19  N1  UNL     1      58.968  32.390  15.135  1.00  0.00    -0.233 N 
ATOM     20  H12 UNL     1      57.975  32.411  14.906  1.00  0.00     0.174 HD
ATOM     21  H11 UNL     1      59.227  32.000  16.042  1.00  0.00     0.174 HD
ENDBRANCH  13  19
ENDBRANCH   1   9
BRANCH   8  22
HETATM   22  C8  UNL     1      63.325  31.788  11.035  1.00  0.00     0.111 C 
BRANCH  22  23
HETATM   23  C9  UNL     1      64.083  30.759  11.313  1.00  0.00     0.091 A 
HETATM   24  S1  UNL     1      63.897  29.820  12.863  1.00  0.00    -0.054 SA
HETATM   25  C10 UNL     1      65.200  28.667  12.580  1.00  0.00     0.146 A 
HETATM   26  S2  UNL     1      65.673  27.417  13.558  1.00  0.00    -0.052 SA
HETATM   27  N5  UNL     1      65.763  29.035  11.331  1.00  0.00    -0.307 N 
HETATM   28  C11 UNL     1      65.178  30.114  10.673  1.00  0.00     0.265 A 
ATOM     29  H5  UNL     1      66.559  28.535  10.936  1.00  0.00     0.170 HD
HETATM   30  O1  UNL     1      65.631  30.477   9.533  1.00  0.00    -0.267 OA
ENDBRANCH  22  23
ENDBRANCH   8  22
TORSDOF 4
ENDMDL
MODEL 5
REMARK VINA RESULT: -7.438043651      2.503      2.672
REMARK  4 active torsions:
REMARK  status: ('A' for Active; 'I' for Inactive)
REMARK    1  A    between atoms: N1_1  and  C1_4 
REMARK    2  A    between atoms: C3_9  and  C4_10 
REMARK    3  A    between atoms: N4_17  and  C8_18 
REMARK    4  A    between atoms: C8_18  and  C9_19 
ROOT
HETATM    1  C4  UNL     1      65.865  28.423  13.687  1.00  0.00     0.165 C 
HETATM    2  C5  UNL     1      65.902  26.888  13.473  1.00  0.00     0.264 C 
HETATM    3  N3  UNL     1      67.174  26.705  12.752  1.00  0.00    -0.071 N 
ATOM      4  H31 UNL     1      67.222  25.793  12.298  1.00  0.00     0.277 HD
ATOM      5  H32 UNL     1      67.959  26.600  13.394  1.00  0.00     0.277 HD
HETATM    6  C6  UNL     1      67.394  27.789  11.805  1.00  0.00     0.252 C 
HETATM    7  C7  UNL     1      66.077  28.288  11.268  1.00  0.00     0.150 C 
HETATM    8  N4  UNL     1      65.287  28.815  12.361  1.00  0.00    -0.375 N 
ENDROOT
BRANCH   1   9
HETATM    9  C3  UNL     1      65.039  28.735  14.832  1.00  0.00     0.107 A 
HETATM   10  C2  UNL     1      64.846  30.042  15.223  1.00  0.00     0.229 A 
HETATM   11  N2  UNL     1      64.065  30.436  16.219  1.00  0.00    -0.163 N 
HETATM   12  F1  UNL     1      65.545  31.065  14.590  1.00  0.00    -0.183 F 
HETATM   13  C1  UNL     1      63.373  29.476  16.919  1.00  0.00     0.692 A 
ATOM     14  H2  UNL     1      63.981  31.423  16.460  1.00  0.00     0.186 HD
HETATM   15  N7  UNL     1      63.539  28.236  16.548  1.00  0.00    -0.132 N 
HETATM   16  N6  UNL     1      64.328  27.788  15.557  1.00  0.00    -0.284 N 
ATOM     17  H7  UNL     1      63.013  27.532  17.066  1.00  0.00     0.205 HD
ATOM     18  H6  UNL     1      64.401  26.793  15.345  1.00  0.00     0.187 HD
BRANCH  13  19
HETATM   19  N1  UNL     1      62.626  29.860  17.917  1.00  0.00    -0.233 N 
ATOM     20  H12 UNL     1      61.997  29.251  18.439  1.00  0.00     0.174 HD
ATOM     21  H11 UNL     1      62.687  30.832  18.218  1.00  0.00     0.174 HD
ENDBRANCH  13  19
ENDBRANCH   1   9
BRANCH   8  22
HETATM   22  C8  UNL     1      64.097  29.451  12.165  1.00  0.00     0.111 C 
BRANCH  22  23
HETATM   23  C9  UNL     1      63.772  30.664  11.800  1.00  0.00     0.091 A 
HETATM   24  S1  UNL     1      62.757  31.747  12.858  1.00  0.00    -0.054 SA
HETATM   25  C10 UNL     1      62.699  33.130  11.767  1.00  0.00     0.146 A 
HETATM   26  S2  UNL     1      61.955  34.587  12.023  1.00  0.00    -0.052 SA
HETATM   27  N5  UNL     1      63.427  32.732  10.616  1.00  0.00    -0.307 N 
HETATM   28  C11 UNL     1      63.988  31.458  10.640  1.00  0.00     0.265 A 
ATOM     29  H5  UNL     1      63.532  33.349   9.811  1.00  0.00     0.170 HD
HETATM   30  O1  UNL     1      64.674  31.053   9.637  1.00  0.00    -0.267 OA
ENDBRANCH  22  23
ENDBRANCH   8  22
TORSDOF 4
ENDMDL
