MODEL 1
REMARK VINA RESULT: -7.226461855      0.000      0.000
REMARK  3 active torsions:
REMARK  status: ('A' for Active; 'I' for Inactive)
REMARK    1  A    between atoms: C3_4  and  O1_5 
REMARK    2  A    between atoms: C4_9  and  N3_10 
REMARK    3  A    between atoms: C8_21  and  S2_22 
ROOT
HETATM    1  N1  UNL     1      67.438  26.275  11.066  1.00  0.00    -0.191 NA
HETATM    2  C1  UNL     1      67.051  27.338  10.802  1.00  0.00     0.105 C 
HETATM    3  C2  UNL     1      66.568  28.624  10.461  1.00  0.00     0.121 A 
HETATM    4  C3  UNL     1      66.848  29.349   9.308  1.00  0.00     0.164 A 
HETATM    5  N2  UNL     1      66.181  30.513   9.399  1.00  0.00    -0.319 N 
ATOM      6  H2  UNL     1      66.198  31.250   8.694  1.00  0.00     0.169 HD
HETATM    7  C4  UNL     1      65.490  30.567  10.553  1.00  0.00     0.159 A 
HETATM    8  C8  UNL     1      65.720  29.392  11.233  1.00  0.00     0.145 A 
ENDROOT
BRANCH   4   9
HETATM    9  O1  UNL     1      67.676  28.868   8.308  1.00  0.00    -0.345 OA
ATOM     10  H1  UNL     1      67.370  28.274   7.632  1.00  0.00     0.219 HD
ENDBRANCH   4   9
BRANCH   8  11
HETATM   11  S2  UNL     1      65.060  28.957  12.781  1.00  0.00     0.267 S 
HETATM   12  O4  UNL     1      65.340  27.545  13.153  1.00  0.00    -0.206 OA
HETATM   13  O5  UNL     1      65.531  29.900  13.865  1.00  0.00    -0.206 OA
HETATM   14 CL1  UNL     1      62.993  29.219  12.655  1.00  0.00     0.024 Cl
ENDBRANCH   8  11
BRANCH   7  15
HETATM   15  N3  UNL     1      64.651  31.607  11.057  1.00  0.00    -0.184 N 
HETATM   16  N4  UNL     1      64.971  32.317  12.126  1.00  0.00    -0.251 N 
HETATM   17  C5  UNL     1      64.174  33.295  12.595  1.00  0.00     0.298 A 
ATOM     18  H4  UNL     1      65.846  32.117  12.610  1.00  0.00     0.191 HD
HETATM   19  O2  UNL     1      64.492  33.972  13.625  1.00  0.00    -0.263 OA
HETATM   20  C6  UNL     1      62.979  33.609  11.982  1.00  0.00     0.174 A 
HETATM   21  S1  UNL     1      62.007  34.797  12.544  1.00  0.00    -0.054 SA
HETATM   22  N5  UNL     1      62.665  32.877  10.890  1.00  0.00    -0.293 N 
HETATM   23  C7  UNL     1      63.487  31.905  10.449  1.00  0.00     0.348 A 
ATOM     24  H5  UNL     1      61.794  33.063  10.393  1.00  0.00     0.171 HD
HETATM   25  O3  UNL     1      63.191  31.225   9.433  1.00  0.00    -0.245 OA
ENDBRANCH   7  15
TORSDOF 3
ENDMDL
MODEL 2
REMARK VINA RESULT: -7.190951770      1.995      2.550
REMARK  3 active torsions:
REMARK  status: ('A' for Active; 'I' for Inactive)
REMARK    1  A    between atoms: C3_4  and  O1_5 
REMARK    2  A    between atoms: C4_9  and  N3_10 
REMARK    3  A    between atoms: C8_21  and  S2_22 
ROOT
HETATM    1  N1  UNL     1      66.496  27.674  10.904  1.00  0.00    -0.191 NA
HETATM    2  C1  UNL     1      66.138  28.758  10.690  1.00  0.00     0.105 C 
HETATM    3  C2  UNL     1      65.689  30.071  10.409  1.00  0.00     0.121 A 
HETATM    4  C3  UNL     1      65.999  30.845   9.297  1.00  0.00     0.164 A 
HETATM    5  N2  UNL     1      65.359  32.019   9.438  1.00  0.00    -0.319 N 
ATOM      6  H2  UNL     1      65.401  32.789   8.771  1.00  0.00     0.169 HD
HETATM    7  C4  UNL     1      64.657  32.032  10.587  1.00  0.00     0.159 A 
HETATM    8  C8  UNL     1      64.851  30.819  11.209  1.00  0.00     0.145 A 
ENDROOT
BRANCH   4   9
HETATM    9  O1  UNL     1      66.827  30.395   8.281  1.00  0.00    -0.345 OA
ATOM     10  H1  UNL     1      67.648  30.819   8.065  1.00  0.00     0.219 HD
ENDBRANCH   4   9
BRANCH   8  11
HETATM   11  S2  UNL     1      64.163  30.324  12.727  1.00  0.00     0.267 S 
HETATM   12  O4  UNL     1      63.551  31.449  13.480  1.00  0.00    -0.206 OA
HETATM   13  O5  UNL     1      63.168  29.200  12.539  1.00  0.00    -0.206 OA
HETATM   14 CL1  UNL     1      65.719  29.523  13.865  1.00  0.00     0.024 Cl
ENDBRANCH   8  11
BRANCH   7  15
HETATM   15  N3  UNL     1      63.837  33.066  11.133  1.00  0.00    -0.184 N 
HETATM   16  N4  UNL     1      62.533  32.921  11.298  1.00  0.00    -0.251 N 
HETATM   17  C5  UNL     1      61.767  33.900  11.814  1.00  0.00     0.298 A 
ATOM     18  H4  UNL     1      62.095  32.041  11.026  1.00  0.00     0.191 HD
HETATM   19  O2  UNL     1      60.513  33.749  11.968  1.00  0.00    -0.263 OA
HETATM   20  C6  UNL     1      62.305  35.110  12.199  1.00  0.00     0.174 A 
HETATM   21  S1  UNL     1      61.382  36.304  12.827  1.00  0.00    -0.054 SA
HETATM   22  N5  UNL     1      63.639  35.245  12.026  1.00  0.00    -0.293 N 
HETATM   23  C7  UNL     1      64.374  34.243  11.506  1.00  0.00     0.348 A 
ATOM     24  H5  UNL     1      64.095  36.118  12.292  1.00  0.00     0.171 HD
HETATM   25  O3  UNL     1      65.616  34.373  11.346  1.00  0.00    -0.245 OA
ENDBRANCH   7  15
TORSDOF 3
ENDMDL
MODEL 3
REMARK VINA RESULT: -7.120283133      3.060      4.021
REMARK  3 active torsions:
REMARK  status: ('A' for Active; 'I' for Inactive)
REMARK    1  A    between atoms: C3_4  and  O1_5 
REMARK    2  A    between atoms: C4_9  and  N3_10 
REMARK    3  A    between atoms: C8_21  and  S2_22 
ROOT
HETATM    1  N1  UNL     1      66.874  31.139   7.972  1.00  0.00    -0.191 NA
HETATM    2  C1  UNL     1      66.554  30.516   8.899  1.00  0.00     0.105 C 
HETATM    3  C2  UNL     1      66.188  29.753  10.034  1.00  0.00     0.121 A 
HETATM    4  C3  UNL     1      66.416  28.398  10.246  1.00  0.00     0.164 A 
HETATM    5  N2  UNL     1      65.905  28.091  11.450  1.00  0.00    -0.319 N 
ATOM      6  H2  UNL     1      65.926  27.164  11.873  1.00  0.00     0.169 HD
HETATM    7  C4  UNL     1      65.362  29.184  12.019  1.00  0.00     0.159 A 
HETATM    8  C8  UNL     1      65.530  30.236  11.147  1.00  0.00     0.145 A 
ENDROOT
BRANCH   4   9
HETATM    9  O1  UNL     1      67.063  27.597   9.318  1.00  0.00    -0.345 OA
ATOM     10  H1  UNL     1      67.982  27.703   9.104  1.00  0.00     0.219 HD
ENDBRANCH   4   9
BRANCH   8  11
HETATM   11  S2  UNL     1      65.007  31.874  11.402  1.00  0.00     0.267 S 
HETATM   12  O4  UNL     1      64.551  32.125  12.794  1.00  0.00    -0.206 OA
HETATM   13  O5  UNL     1      66.080  32.863  11.003  1.00  0.00    -0.206 OA
HETATM   14 CL1  UNL     1      63.410  32.211  10.100  1.00  0.00     0.024 Cl
ENDBRANCH   8  11
BRANCH   7  15
HETATM   15  N3  UNL     1      64.715  29.318  13.285  1.00  0.00    -0.184 N 
HETATM   16  N4  UNL     1      65.383  29.576  14.396  1.00  0.00    -0.251 N 
HETATM   17  C5  UNL     1      64.766  29.700  15.586  1.00  0.00     0.298 A 
ATOM     18  H4  UNL     1      66.397  29.684  14.351  1.00  0.00     0.191 HD
HETATM   19  O2  UNL     1      65.419  29.949  16.649  1.00  0.00    -0.263 OA
HETATM   20  C6  UNL     1      63.398  29.564  15.707  1.00  0.00     0.174 A 
HETATM   21  S1  UNL     1      62.641  29.715  17.147  1.00  0.00    -0.054 SA
HETATM   22  N5  UNL     1      62.727  29.301  14.564  1.00  0.00    -0.293 N 
HETATM   23  C7  UNL     1      63.379  29.183  13.390  1.00  0.00     0.348 A 
ATOM     24  H5  UNL     1      61.714  29.190  14.589  1.00  0.00     0.171 HD
HETATM   25  O3  UNL     1      62.751  28.938  12.328  1.00  0.00    -0.245 OA
ENDBRANCH   7  15
TORSDOF 3
ENDMDL
MODEL 4
REMARK VINA RESULT: -7.118694883      3.238      4.411
REMARK  3 active torsions:
REMARK  status: ('A' for Active; 'I' for Inactive)
REMARK    1  A    between atoms: C3_4  and  O1_5 
REMARK    2  A    between atoms: C4_9  and  N3_10 
REMARK    3  A    between atoms: C8_21  and  S2_22 
ROOT
HETATM    1  N1  UNL     1      66.919  31.356   8.432  1.00  0.00    -0.191 NA
HETATM    2  C1  UNL     1      66.298  32.140   9.024  1.00  0.00     0.105 C 
HETATM    3  C2  UNL     1      65.533  33.104   9.723  1.00  0.00     0.121 A 
HETATM    4  C3  UNL     1      65.711  34.483   9.719  1.00  0.00     0.164 A 
HETATM    5  N2  UNL     1      64.767  35.008  10.518  1.00  0.00    -0.319 N 
ATOM      6  H2  UNL     1      64.652  36.004  10.707  1.00  0.00     0.169 HD
HETATM    7  C4  UNL     1      63.994  34.033  11.032  1.00  0.00     0.159 A 
HETATM    8  C8  UNL     1      64.459  32.832  10.545  1.00  0.00     0.145 A 
ENDROOT
BRANCH   4   9
HETATM    9  O1  UNL     1      66.712  35.103   8.989  1.00  0.00    -0.345 OA
ATOM     10  H1  UNL     1      66.778  36.048   8.913  1.00  0.00     0.219 HD
ENDBRANCH   4   9
BRANCH   8  11
HETATM   11  S2  UNL     1      63.809  31.260  10.903  1.00  0.00     0.267 S 
HETATM   12  O4  UNL     1      63.045  31.226  12.178  1.00  0.00    -0.206 OA
HETATM   13  O5  UNL     1      62.966  30.740   9.759  1.00  0.00    -0.206 OA
HETATM   14 CL1  UNL     1      65.430  29.953  11.056  1.00  0.00     0.024 Cl
ENDBRANCH   8  11
BRANCH   7  15
HETATM   15  N3  UNL     1      62.881  34.135  11.921  1.00  0.00    -0.184 N 
HETATM   16  N4  UNL     1      61.639  33.907  11.527  1.00  0.00    -0.251 N 
HETATM   17  C5  UNL     1      60.595  34.005  12.371  1.00  0.00     0.298 A 
ATOM     18  H4  UNL     1      61.467  33.649  10.555  1.00  0.00     0.191 HD
HETATM   19  O2  UNL     1      59.404  33.783  11.981  1.00  0.00    -0.263 OA
HETATM   20  C6  UNL     1      60.768  34.350  13.696  1.00  0.00     0.174 A 
HETATM   21  S1  UNL     1      59.506  34.471  14.727  1.00  0.00    -0.054 SA
HETATM   22  N5  UNL     1      62.041  34.580  14.085  1.00  0.00    -0.293 N 
HETATM   23  C7  UNL     1      63.062  34.472  13.212  1.00  0.00     0.348 A 
ATOM     24  H5  UNL     1      62.233  34.838  15.053  1.00  0.00     0.171 HD
HETATM   25  O3  UNL     1      64.247  34.687  13.578  1.00  0.00    -0.245 OA
ENDBRANCH   7  15
TORSDOF 3
ENDMDL
MODEL 5
REMARK VINA RESULT: -7.106054342      3.709      5.486
REMARK  3 active torsions:
REMARK  status: ('A' for Active; 'I' for Inactive)
REMARK    1  A    between atoms: C3_4  and  O1_5 
REMARK    2  A    between atoms: C4_9  and  N3_10 
REMARK    3  A    between atoms: C8_21  and  S2_22 
ROOT
HETATM    1  N1  UNL     1      64.869  34.659   8.474  1.00  0.00    -0.191 NA
HETATM    2  C1  UNL     1      64.691  34.428   9.598  1.00  0.00     0.105 C 
HETATM    3  C2  UNL     1      64.453  34.160  10.968  1.00  0.00     0.121 A 
HETATM    4  C3  UNL     1      64.392  35.081  12.007  1.00  0.00     0.164 A 
HETATM    5  N2  UNL     1      64.147  34.392  13.135  1.00  0.00    -0.319 N 
ATOM      6  H2  UNL     1      64.050  34.808  14.061  1.00  0.00     0.169 HD
HETATM    7  C4  UNL     1      64.048  33.077  12.867  1.00  0.00     0.159 A 
HETATM    8  C8  UNL     1      64.237  32.911  11.514  1.00  0.00     0.145 A 
ENDROOT
BRANCH   4   9
HETATM    9  O1  UNL     1      64.567  36.441  11.809  1.00  0.00    -0.345 OA
ATOM     10  H1  UNL     1      63.888  36.995  11.443  1.00  0.00     0.219 HD
ENDBRANCH   4   9
BRANCH   8  11
HETATM   11  S2  UNL     1      64.208  31.402  10.651  1.00  0.00     0.267 S 
HETATM   12  O4  UNL     1      64.094  30.224  11.550  1.00  0.00    -0.206 OA
HETATM   13  O5  UNL     1      63.114  31.386   9.606  1.00  0.00    -0.206 OA
HETATM   14 CL1  UNL     1      66.005  31.270   9.597  1.00  0.00     0.024 Cl
ENDBRANCH   8  11
BRANCH   7  15
HETATM   15  N3  UNL     1      63.796  31.989  13.757  1.00  0.00    -0.184 N 
HETATM   16  N4  UNL     1      64.741  31.137  14.117  1.00  0.00    -0.251 N 
HETATM   17  C5  UNL     1      64.496  30.114  14.957  1.00  0.00     0.298 A 
ATOM     18  H4  UNL     1      65.684  31.259  13.748  1.00  0.00     0.191 HD
HETATM   19  O2  UNL     1      65.414  29.300  15.297  1.00  0.00    -0.263 OA
HETATM   20  C6  UNL     1      63.240  29.901  15.487  1.00  0.00     0.174 A 
HETATM   21  S1  UNL     1      62.934  28.661  16.508  1.00  0.00    -0.054 SA
HETATM   22  N5  UNL     1      62.284  30.778  15.112  1.00  0.00    -0.293 N 
HETATM   23  C7  UNL     1      62.566  31.791  14.269  1.00  0.00     0.348 A 
ATOM     24  H5  UNL     1      61.335  30.673  15.471  1.00  0.00     0.171 HD
HETATM   25  O3  UNL     1      61.673  32.606  13.921  1.00  0.00    -0.245 OA
ENDBRANCH   7  15
TORSDOF 3
ENDMDL
