MODEL 1
REMARK VINA RESULT: -7.393444598      0.000      0.000
REMARK  6 active torsions:
REMARK  status: ('A' for Active; 'I' for Inactive)
REMARK    1  A    between atoms: C3_5  and  N2_6 
REMARK    2  A    between atoms: C5_14  and  S1_15 
REMARK    3  A    between atoms: S1_15  and  C6_16 
REMARK    4  A    between atoms: C6_16  and  C7_18 
REMARK    5  A    between atoms: C8_20  and  N5_21 
REMARK    6  A    between atoms: N5_21  and  O3_23 
ROOT
HETATM    1  C1  UNL     1      12.672  12.325  15.738  1.00  0.00     0.161 C 
HETATM    2  N1  UNL     1      13.159  11.380  14.767  1.00  0.00    -0.298 N 
HETATM    3  C2  UNL     1      14.067  10.415  15.033  1.00  0.00     0.292 A 
HETATM    4  O1  UNL     1      14.526  10.327  16.201  1.00  0.00    -0.264 OA
HETATM    5  C3  UNL     1      14.522   9.516  14.091  1.00  0.00     0.170 A 
HETATM    6  N3  UNL     1      14.031   9.611  12.845  1.00  0.00    -0.321 N 
ATOM      7  H3  UNL     1      14.344   8.962  12.123  1.00  0.00     0.169 HD
HETATM    8  C4  UNL     1      13.116  10.571  12.544  1.00  0.00     0.153 A 
HETATM    9  N4  UNL     1      12.615  10.680  11.293  1.00  0.00    -0.330 N 
ATOM     10  H4  UNL     1      12.936  10.026  10.579  1.00  0.00     0.168 HD
HETATM   11  C5  UNL     1      11.709  11.618  10.952  1.00  0.00     0.125 A 
HETATM   12  C8  UNL     1      11.277  12.506  11.929  1.00  0.00     0.161 A 
HETATM   13  N6  UNL     1      11.780  12.395  13.181  1.00  0.00    -0.322 N 
ATOM     14  H6  UNL     1      11.463  13.046  13.899  1.00  0.00     0.169 HD
HETATM   15  C9  UNL     1      12.683  11.455  13.511  1.00  0.00     0.157 A 
ENDROOT
BRANCH  11  16
HETATM   16  S1  UNL     1      11.033  11.766   9.303  1.00  0.00    -0.028 SA
BRANCH  16  17
HETATM   17  C6  UNL     1      10.084  10.313   8.905  1.00  0.00     0.220 C 
HETATM   18  O2  UNL     1       8.866  10.315   8.828  1.00  0.00    -0.282 OA
BRANCH  17  19
HETATM   19  C7  UNL     1      10.796   9.036   8.654  1.00  0.00     0.313 C 
HETATM   20  F1  UNL     1      12.072   9.305   8.198  1.00  0.00    -0.247 F 
ENDBRANCH  17  19
ENDBRANCH  16  17
ENDBRANCH  11  16
BRANCH  12  21
HETATM   21  N5  UNL     1      10.410  13.432  11.664  1.00  0.00    -0.251 N 
ATOM     22  H5  UNL     1      10.252  13.708  10.695  1.00  0.00     0.196 HD
BRANCH  21  23
HETATM   23  O3  UNL     1       9.701  14.048  12.667  1.00  0.00    -0.288 OA
ATOM     24  H3  UNL     1       8.801  14.321  12.534  1.00  0.00     0.244 HD
ENDBRANCH  21  23
ENDBRANCH  12  21
BRANCH   5  25
HETATM   25  N2  UNL     1      15.399   8.615  14.418  1.00  0.00    -0.381 N 
ATOM     26  H22 UNL     1      15.873   8.625  15.321  1.00  0.00     0.157 HD
ATOM     27  H21 UNL     1      15.632   7.865  13.766  1.00  0.00     0.157 HD
ENDBRANCH   5  25
TORSDOF 6
ENDMDL
MODEL 2
REMARK VINA RESULT: -7.354425393      2.218      3.328
REMARK  6 active torsions:
REMARK  status: ('A' for Active; 'I' for Inactive)
REMARK    1  A    between atoms: C3_5  and  N2_6 
REMARK    2  A    between atoms: C5_14  and  S1_15 
REMARK    3  A    between atoms: S1_15  and  C6_16 
REMARK    4  A    between atoms: C6_16  and  C7_18 
REMARK    5  A    between atoms: C8_20  and  N5_21 
REMARK    6  A    between atoms: N5_21  and  O3_23 
ROOT
HETATM    1  C1  UNL     1      14.288   7.938  13.216  1.00  0.00     0.161 C 
HETATM    2  N1  UNL     1      13.733   9.246  13.451  1.00  0.00    -0.298 N 
HETATM    3  C2  UNL     1      13.826   9.912  14.623  1.00  0.00     0.292 A 
HETATM    4  O1  UNL     1      14.433   9.365  15.579  1.00  0.00    -0.264 OA
HETATM    5  C3  UNL     1      13.290  11.166  14.831  1.00  0.00     0.170 A 
HETATM    6  N3  UNL     1      12.642  11.749  13.809  1.00  0.00    -0.321 N 
ATOM      7  H3  UNL     1      12.234  12.676  13.928  1.00  0.00     0.169 HD
HETATM    8  C4  UNL     1      12.531  11.104  12.617  1.00  0.00     0.153 A 
HETATM    9  N4  UNL     1      11.879  11.678  11.580  1.00  0.00    -0.330 N 
ATOM     10  H4  UNL     1      11.474  12.605  11.710  1.00  0.00     0.168 HD
HETATM   11  C5  UNL     1      11.743  11.074  10.383  1.00  0.00     0.125 A 
HETATM   12  C8  UNL     1      12.297   9.811  10.214  1.00  0.00     0.161 A 
HETATM   13  N6  UNL     1      12.949   9.239  11.253  1.00  0.00    -0.322 N 
ATOM     14  H6  UNL     1      13.355   8.311  11.129  1.00  0.00     0.169 HD
HETATM   15  C9  UNL     1      13.079   9.850  12.444  1.00  0.00     0.157 A 
ENDROOT
BRANCH  11  16
HETATM   16  S1  UNL     1      10.892  11.827   9.002  1.00  0.00    -0.028 SA
BRANCH  16  17
HETATM   17  C6  UNL     1       9.326  11.021   8.744  1.00  0.00     0.220 C 
HETATM   18  O2  UNL     1       9.197  10.025   8.050  1.00  0.00    -0.282 OA
BRANCH  17  19
HETATM   19  C7  UNL     1       8.115  11.577   9.398  1.00  0.00     0.313 C 
HETATM   20  F1  UNL     1       8.495  12.463  10.387  1.00  0.00    -0.247 F 
ENDBRANCH  17  19
ENDBRANCH  16  17
ENDBRANCH  11  16
BRANCH  12  21
HETATM   21  N5  UNL     1      12.198   9.175   9.088  1.00  0.00    -0.251 N 
ATOM     22  H5  UNL     1      12.771   9.467   8.297  1.00  0.00     0.196 HD
BRANCH  21  23
HETATM   23  O3  UNL     1      11.334   8.117   8.944  1.00  0.00    -0.288 OA
ATOM     24  H3  UNL     1      10.837   7.786   9.682  1.00  0.00     0.244 HD
ENDBRANCH  21  23
ENDBRANCH  12  21
BRANCH   5  25
HETATM   25  N2  UNL     1      13.416  11.746  15.987  1.00  0.00    -0.381 N 
ATOM     26  H22 UNL     1      14.238  12.301  16.226  1.00  0.00     0.157 HD
ATOM     27  H21 UNL     1      12.680  11.658  16.688  1.00  0.00     0.157 HD
ENDBRANCH   5  25
TORSDOF 6
ENDMDL
MODEL 3
REMARK VINA RESULT: -7.338566087      2.736      3.969
REMARK  6 active torsions:
REMARK  status: ('A' for Active; 'I' for Inactive)
REMARK    1  A    between atoms: C3_5  and  N2_6 
REMARK    2  A    between atoms: C5_14  and  S1_15 
REMARK    3  A    between atoms: S1_15  and  C6_16 
REMARK    4  A    between atoms: C6_16  and  C7_18 
REMARK    5  A    between atoms: C8_20  and  N5_21 
REMARK    6  A    between atoms: N5_21  and  O3_23 
ROOT
HETATM    1  C1  UNL     1      14.805   6.543  10.979  1.00  0.00     0.161 C 
HETATM    2  N1  UNL     1      14.534   7.680  11.821  1.00  0.00    -0.298 N 
HETATM    3  C2  UNL     1      15.032   7.839  13.067  1.00  0.00     0.292 A 
HETATM    4  O1  UNL     1      15.780   6.943  13.534  1.00  0.00    -0.264 OA
HETATM    5  C3  UNL     1      14.764   8.936  13.860  1.00  0.00     0.170 A 
HETATM    6  N3  UNL     1      13.965   9.892  13.359  1.00  0.00    -0.321 N 
ATOM      7  H3  UNL     1      13.746  10.716  13.918  1.00  0.00     0.169 HD
HETATM    8  C4  UNL     1      13.447   9.761  12.108  1.00  0.00     0.153 A 
HETATM    9  N4  UNL     1      12.639  10.715  11.592  1.00  0.00    -0.330 N 
ATOM     10  H4  UNL     1      12.427  11.535  12.160  1.00  0.00     0.168 HD
HETATM   11  C5  UNL     1      12.104  10.624  10.358  1.00  0.00     0.125 A 
HETATM   12  C8  UNL     1      12.397   9.503   9.592  1.00  0.00     0.161 A 
HETATM   13  N6  UNL     1      13.206   8.550  10.110  1.00  0.00    -0.322 N 
ATOM     14  H6  UNL     1      13.422   7.728   9.547  1.00  0.00     0.169 HD
HETATM   15  C9  UNL     1      13.736   8.650  11.342  1.00  0.00     0.157 A 
ENDROOT
BRANCH  11  16
HETATM   16  S1  UNL     1      11.042  11.883   9.662  1.00  0.00    -0.028 SA
BRANCH  16  17
HETATM   17  C6  UNL     1       9.389  11.247   9.479  1.00  0.00     0.220 C 
HETATM   18  O2  UNL     1       9.145  10.172   8.955  1.00  0.00    -0.282 OA
BRANCH  17  19
HETATM   19  C7  UNL     1       8.249  12.053   9.981  1.00  0.00     0.313 C 
HETATM   20  F1  UNL     1       8.682  12.867  11.010  1.00  0.00    -0.247 F 
ENDBRANCH  17  19
ENDBRANCH  16  17
ENDBRANCH  11  16
BRANCH  12  21
HETATM   21  N5  UNL     1      11.911   9.355   8.399  1.00  0.00    -0.251 N 
ATOM     22  H5  UNL     1      12.014  10.108   7.719  1.00  0.00     0.196 HD
BRANCH  21  23
HETATM   23  O3  UNL     1      11.259   8.202   8.037  1.00  0.00    -0.288 OA
ATOM     24  H3  UNL     1      11.629   7.612   7.392  1.00  0.00     0.244 HD
ENDBRANCH  21  23
ENDBRANCH  12  21
BRANCH   5  25
HETATM   25  N2  UNL     1      15.276   9.021  15.051  1.00  0.00    -0.381 N 
ATOM     26  H22 UNL     1      14.767   9.440  15.829  1.00  0.00     0.157 HD
ATOM     27  H21 UNL     1      16.213   8.661  15.234  1.00  0.00     0.157 HD
ENDBRANCH   5  25
TORSDOF 6
ENDMDL
MODEL 4
REMARK VINA RESULT: -7.311384642      2.832      4.488
REMARK  6 active torsions:
REMARK  status: ('A' for Active; 'I' for Inactive)
REMARK    1  A    between atoms: C3_5  and  N2_6 
REMARK    2  A    between atoms: C5_14  and  S1_15 
REMARK    3  A    between atoms: S1_15  and  C6_16 
REMARK    4  A    between atoms: C6_16  and  C7_18 
REMARK    5  A    between atoms: C8_20  and  N5_21 
REMARK    6  A    between atoms: N5_21  and  O3_23 
ROOT
HETATM    1  C1  UNL     1      14.360   6.023  10.601  1.00  0.00     0.161 C 
HETATM    2  N1  UNL     1      14.425   7.106  11.549  1.00  0.00    -0.298 N 
HETATM    3  C2  UNL     1      15.155   7.079  12.685  1.00  0.00     0.292 A 
HETATM    4  O1  UNL     1      15.825   6.046  12.945  1.00  0.00    -0.264 OA
HETATM    5  C3  UNL     1      15.208   8.125  13.582  1.00  0.00     0.170 A 
HETATM    6  N3  UNL     1      14.492   9.227  13.304  1.00  0.00    -0.321 N 
ATOM      7  H3  UNL     1      14.508  10.020  13.945  1.00  0.00     0.169 HD
HETATM    8  C4  UNL     1      13.746   9.285  12.168  1.00  0.00     0.153 A 
HETATM    9  N4  UNL     1      13.018  10.387  11.877  1.00  0.00    -0.330 N 
ATOM     10  H4  UNL     1      13.041  11.174  12.525  1.00  0.00     0.168 HD
HETATM   11  C5  UNL     1      12.263  10.486  10.764  1.00  0.00     0.125 A 
HETATM   12  C8  UNL     1      12.236   9.409   9.887  1.00  0.00     0.161 A 
HETATM   13  N6  UNL     1      12.966   8.308  10.181  1.00  0.00    -0.322 N 
ATOM     14  H6  UNL     1      12.946   7.517   9.536  1.00  0.00     0.169 HD
HETATM   15  C9  UNL     1      13.716   8.219  11.293  1.00  0.00     0.157 A 
ENDROOT
BRANCH  11  16
HETATM   16  S1  UNL     1      11.304  11.941  10.363  1.00  0.00    -0.028 SA
BRANCH  16  17
HETATM   17  C6  UNL     1      10.721  12.712  11.858  1.00  0.00     0.220 C 
HETATM   18  O2  UNL     1      11.406  12.819  12.862  1.00  0.00    -0.282 OA
BRANCH  17  19
HETATM   19  C7  UNL     1       9.340  13.253  11.895  1.00  0.00     0.313 C 
HETATM   20  F1  UNL     1       8.629  12.772  10.813  1.00  0.00    -0.247 F 
ENDBRANCH  17  19
ENDBRANCH  16  17
ENDBRANCH  11  16
BRANCH  12  21
HETATM   21  N5  UNL     1      11.528   9.441   8.801  1.00  0.00    -0.251 N 
ATOM     22  H5  UNL     1      11.089  10.315   8.514  1.00  0.00     0.196 HD
BRANCH  21  23
HETATM   23  O3  UNL     1      11.359   8.316   8.031  1.00  0.00    -0.288 OA
ATOM     24  H3  UNL     1      10.866   8.346   7.221  1.00  0.00     0.244 HD
ENDBRANCH  21  23
ENDBRANCH  12  21
BRANCH   5  25
HETATM   25  N2  UNL     1      15.931   8.028  14.658  1.00  0.00    -0.381 N 
ATOM     26  H22 UNL     1      16.900   7.709  14.631  1.00  0.00     0.157 HD
ATOM     27  H21 UNL     1      15.536   8.275  15.566  1.00  0.00     0.157 HD
ENDBRANCH   5  25
TORSDOF 6
ENDMDL
MODEL 5
REMARK VINA RESULT: -7.308412694      1.391      1.512
REMARK  6 active torsions:
REMARK  status: ('A' for Active; 'I' for Inactive)
REMARK    1  A    between atoms: C3_5  and  N2_6 
REMARK    2  A    between atoms: C5_14  and  S1_15 
REMARK    3  A    between atoms: S1_15  and  C6_16 
REMARK    4  A    between atoms: C6_16  and  C7_18 
REMARK    5  A    between atoms: C8_20  and  N5_21 
REMARK    6  A    between atoms: N5_21  and  O3_23 
ROOT
HETATM    1  C1  UNL     1      12.944  11.596  15.559  1.00  0.00     0.161 C 
HETATM    2  N1  UNL     1      13.289  10.712  14.475  1.00  0.00    -0.298 N 
HETATM    3  C2  UNL     1      14.083   9.627  14.601  1.00  0.00     0.292 A 
HETATM    4  O1  UNL     1      14.560   9.360  15.734  1.00  0.00    -0.264 OA
HETATM    5  C3  UNL     1      14.401   8.789  13.552  1.00  0.00     0.170 A 
HETATM    6  N3  UNL     1      13.891   9.075  12.344  1.00  0.00    -0.321 N 
ATOM      7  H3  UNL     1      14.105   8.477  11.546  1.00  0.00     0.169 HD
HETATM    8  C4  UNL     1      13.088  10.161  12.183  1.00  0.00     0.153 A 
HETATM    9  N4  UNL     1      12.569  10.463  10.971  1.00  0.00    -0.330 N 
ATOM     10  H4  UNL     1      12.790   9.858  10.180  1.00  0.00     0.168 HD
HETATM   11  C5  UNL     1      11.772  11.530  10.767  1.00  0.00     0.125 A 
HETATM   12  C8  UNL     1      11.476  12.350  11.849  1.00  0.00     0.161 A 
HETATM   13  N6  UNL     1      11.996  12.046  13.061  1.00  0.00    -0.322 N 
ATOM     14  H6  UNL     1      11.779  12.648  13.855  1.00  0.00     0.169 HD
HETATM   15  C9  UNL     1      12.791  10.978  13.254  1.00  0.00     0.157 A 
ENDROOT
BRANCH  11  16
HETATM   16  S1  UNL     1      11.073  11.933   9.172  1.00  0.00    -0.028 SA
BRANCH  16  17
HETATM   17  C6  UNL     1       9.753  10.802   8.786  1.00  0.00     0.220 C 
HETATM   18  O2  UNL     1       9.945   9.697   8.306  1.00  0.00    -0.282 OA
BRANCH  17  19
HETATM   19  C7  UNL     1       8.353  11.213   9.055  1.00  0.00     0.313 C 
HETATM   20  F1  UNL     1       8.342  12.193  10.028  1.00  0.00    -0.247 F 
ENDBRANCH  17  19
ENDBRANCH  16  17
ENDBRANCH  11  16
BRANCH  12  21
HETATM   21  N5  UNL     1      10.718  13.393  11.718  1.00  0.00    -0.251 N 
ATOM     22  H5  UNL     1      10.802  13.972  10.883  1.00  0.00     0.196 HD
BRANCH  21  23
HETATM   23  O3  UNL     1       9.803  13.732  12.685  1.00  0.00    -0.288 OA
ATOM     24  H3  UNL     1       9.406  14.594  12.704  1.00  0.00     0.244 HD
ENDBRANCH  21  23
ENDBRANCH  12  21
BRANCH   5  25
HETATM   25  N2  UNL     1      15.174   7.763  13.748  1.00  0.00    -0.381 N 
ATOM     26  H22 UNL     1      15.019   7.107  14.514  1.00  0.00     0.157 HD
ATOM     27  H21 UNL     1      15.965   7.590  13.126  1.00  0.00     0.157 HD
ENDBRANCH   5  25
TORSDOF 6
ENDMDL
