MODEL 1
REMARK VINA RESULT: -8.202485864      0.000      0.000
REMARK  3 active torsions:
REMARK  status: ('A' for Active; 'I' for Inactive)
REMARK    1  A    between atoms: N1_2  and  C2_4 
REMARK    2  A    between atoms: C3_7  and  C4_8 
REMARK    3  A    between atoms: C5_15  and  N6_16 
ROOT
HETATM    1  C2  UNL     1      13.178  10.095  13.872  1.00  0.00     0.134 A 
HETATM    2  N2  UNL     1      13.649   8.883  13.441  1.00  0.00    -0.324 N 
ATOM      3  H2  UNL     1      14.073   8.255  14.124  1.00  0.00     0.169 HD
HETATM    4  C3  UNL     1      13.577   8.488  12.169  1.00  0.00     0.154 A 
HETATM    5  N7  UNL     1      12.997   9.373  11.304  1.00  0.00    -0.274 N 
ATOM      6  H7  UNL     1      12.928   9.099  10.324  1.00  0.00     0.189 HD
HETATM    7  N8  UNL     1      12.525  10.542  11.639  1.00  0.00    -0.221 N 
HETATM    8  C6  UNL     1      11.921  11.563  10.968  1.00  0.00     0.202 A 
HETATM    9 CL1  UNL     1      11.592  11.523   9.236  1.00  0.00    -0.043 Cl
HETATM   10  N9  UNL     1      11.656  12.525  11.854  1.00  0.00    -0.320 N 
ATOM     11  H9  UNL     1      11.204  13.414  11.637  1.00  0.00     0.169 HD
HETATM   12  C7  UNL     1      12.069  12.154  13.062  1.00  0.00     0.149 A 
HETATM   13  C8  UNL     1      11.932  12.965  14.247  1.00  0.00     0.120 C 
HETATM   14  N10 UNL     1      11.819  13.637  15.193  1.00  0.00    -0.190 NA
HETATM   15  C9  UNL     1      12.617  10.905  12.930  1.00  0.00     0.140 A 
ENDROOT
BRANCH   1  16
HETATM   16  N1  UNL     1      13.251  10.463  15.084  1.00  0.00    -0.379 N 
HETATM   17  C1  UNL     1      13.850   9.694  16.146  1.00  0.00     0.147 C 
ATOM     18  H1  UNL     1      12.856  11.372  15.325  1.00  0.00     0.160 HD
ENDBRANCH   1  16
BRANCH   4  19
HETATM   19  C4  UNL     1      14.061   7.217  11.667  1.00  0.00     0.140 A 
HETATM   20  N3  UNL     1      15.373   6.863  11.526  1.00  0.00    -0.279 N 
HETATM   21  N4  UNL     1      15.457   5.640  11.043  1.00  0.00    -0.240 N 
ATOM     22  H3  UNL     1      16.169   7.456  11.761  1.00  0.00     0.189 HD
HETATM   23  N5  UNL     1      14.243   5.153  10.852  1.00  0.00    -0.269 N 
ATOM     24  H4  UNL     1      16.326   5.143  10.847  1.00  0.00     0.208 HD
HETATM   25  C5  UNL     1      13.358   6.131  11.239  1.00  0.00     0.147 A 
ATOM     26  H5  UNL     1      14.009   4.229  10.487  1.00  0.00     0.190 HD
BRANCH  25  27
HETATM   27  N6  UNL     1      12.093   5.963  11.173  1.00  0.00    -0.382 N 
ATOM     28  H62 UNL     1      11.457   6.375  11.856  1.00  0.00     0.157 HD
ATOM     29  H61 UNL     1      11.548   5.436  10.491  1.00  0.00     0.157 HD
ENDBRANCH  25  27
ENDBRANCH   4  19
TORSDOF 3
ENDMDL
MODEL 2
REMARK VINA RESULT: -8.007859201      2.338      3.694
REMARK  3 active torsions:
REMARK  status: ('A' for Active; 'I' for Inactive)
REMARK    1  A    between atoms: N1_2  and  C2_4 
REMARK    2  A    between atoms: C3_7  and  C4_8 
REMARK    3  A    between atoms: C5_15  and  N6_16 
ROOT
HETATM    1  C2  UNL     1      13.021   9.135  10.749  1.00  0.00     0.134 A 
HETATM    2  N2  UNL     1      13.786   8.153  11.322  1.00  0.00    -0.324 N 
ATOM      3  H2  UNL     1      14.061   7.355  10.751  1.00  0.00     0.169 HD
HETATM    4  C3  UNL     1      14.186   8.197  12.595  1.00  0.00     0.154 A 
HETATM    5  N7  UNL     1      13.785   9.293  13.306  1.00  0.00    -0.274 N 
ATOM      6  H7  UNL     1      14.076   9.354  14.282  1.00  0.00     0.189 HD
HETATM    7  N8  UNL     1      13.060  10.266  12.830  1.00  0.00    -0.221 N 
HETATM    8  C6  UNL     1      12.555  11.426  13.338  1.00  0.00     0.202 A 
HETATM    9 CL1  UNL     1      12.810  11.946  15.003  1.00  0.00    -0.043 Cl
HETATM   10  N9  UNL     1      11.875  12.031  12.361  1.00  0.00    -0.320 N 
ATOM     11  H9  UNL     1      11.386  12.921  12.452  1.00  0.00     0.169 HD
HETATM   12  C7  UNL     1      11.930  11.299  11.253  1.00  0.00     0.149 A 
HETATM   13  C8  UNL     1      11.299  11.668  10.009  1.00  0.00     0.120 C 
HETATM   14  N10 UNL     1      10.777  11.979   9.014  1.00  0.00    -0.190 NA
HETATM   15  C9  UNL     1      12.675  10.187  11.544  1.00  0.00     0.140 A 
ENDROOT
BRANCH   1  16
HETATM   16  N1  UNL     1      12.644   9.086   9.538  1.00  0.00    -0.379 N 
HETATM   17  C1  UNL     1      11.763   8.087   8.987  1.00  0.00     0.147 C 
ATOM     18  H1  UNL     1      12.991   9.808   8.907  1.00  0.00     0.160 HD
ENDBRANCH   1  16
BRANCH   4  19
HETATM   19  C4  UNL     1      14.993   7.184  13.244  1.00  0.00     0.140 A 
HETATM   20  N3  UNL     1      16.111   7.417  13.996  1.00  0.00    -0.279 N 
HETATM   21  N4  UNL     1      16.599   6.275  14.437  1.00  0.00    -0.240 N 
ATOM     22  H3  UNL     1      16.508   8.337  14.187  1.00  0.00     0.189 HD
HETATM   23  N5  UNL     1      15.849   5.275  14.009  1.00  0.00    -0.269 N 
ATOM     24  H4  UNL     1      17.430   6.177  15.020  1.00  0.00     0.208 HD
HETATM   25  C5  UNL     1      14.837   5.831  13.260  1.00  0.00     0.147 A 
ATOM     26  H5  UNL     1      15.992   4.283  14.197  1.00  0.00     0.190 HD
BRANCH  25  27
HETATM   27  N6  UNL     1      13.938   5.115  12.703  1.00  0.00    -0.382 N 
ATOM     28  H62 UNL     1      12.987   5.458  12.560  1.00  0.00     0.157 HD
ATOM     29  H61 UNL     1      14.004   4.165  12.338  1.00  0.00     0.157 HD
ENDBRANCH  25  27
ENDBRANCH   4  19
TORSDOF 3
ENDMDL
MODEL 3
REMARK VINA RESULT: -7.930692278      2.611      4.454
REMARK  3 active torsions:
REMARK  status: ('A' for Active; 'I' for Inactive)
REMARK    1  A    between atoms: N1_2  and  C2_4 
REMARK    2  A    between atoms: C3_7  and  C4_8 
REMARK    3  A    between atoms: C5_15  and  N6_16 
ROOT
HETATM    1  C2  UNL     1      12.610  10.030  11.197  1.00  0.00     0.134 A 
HETATM    2  N2  UNL     1      13.515   9.480  12.066  1.00  0.00    -0.324 N 
ATOM      3  H2  UNL     1      14.043   8.661  11.766  1.00  0.00     0.169 HD
HETATM    4  C3  UNL     1      13.738   9.971  13.287  1.00  0.00     0.154 A 
HETATM    5  N7  UNL     1      13.002  11.071  13.628  1.00  0.00    -0.274 N 
ATOM      6  H7  UNL     1      13.150  11.469  14.555  1.00  0.00     0.189 HD
HETATM    7  N8  UNL     1      12.125  11.650  12.856  1.00  0.00    -0.221 N 
HETATM    8  C6  UNL     1      11.297  12.725  12.979  1.00  0.00     0.202 A 
HETATM    9 CL1  UNL     1      11.217  13.725  14.429  1.00  0.00    -0.043 Cl
HETATM   10  N9  UNL     1      10.613  12.840  11.839  1.00  0.00    -0.320 N 
ATOM     11  H9  UNL     1       9.915  13.558  11.643  1.00  0.00     0.169 HD
HETATM   12  C7  UNL     1      10.976  11.877  10.996  1.00  0.00     0.149 A 
HETATM   13  C8  UNL     1      10.427  11.715   9.672  1.00  0.00     0.120 C 
HETATM   14  N10 UNL     1       9.969  11.595   8.606  1.00  0.00    -0.190 NA
HETATM   15  C9  UNL     1      11.928  11.126  11.633  1.00  0.00     0.140 A 
ENDROOT
BRANCH   1  16
HETATM   16  N1  UNL     1      12.404   9.557  10.037  1.00  0.00    -0.379 N 
HETATM   17  C1  UNL     1      12.625   8.185   9.654  1.00  0.00     0.147 C 
ATOM     18  H1  UNL     1      12.056  10.196   9.322  1.00  0.00     0.160 HD
ENDBRANCH   1  16
BRANCH   4  19
HETATM   19  C4  UNL     1      14.683   9.425  14.240  1.00  0.00     0.140 A 
HETATM   20  N3  UNL     1      15.492   8.343  14.030  1.00  0.00    -0.279 N 
HETATM   21  N4  UNL     1      16.225   8.120  15.102  1.00  0.00    -0.240 N 
ATOM     22  H3  UNL     1      15.523   7.792  13.173  1.00  0.00     0.189 HD
HETATM   23  N5  UNL     1      15.941   9.015  16.031  1.00  0.00    -0.269 N 
ATOM     24  H4  UNL     1      16.909   7.369  15.200  1.00  0.00     0.208 HD
HETATM   25  C5  UNL     1      14.975   9.840  15.504  1.00  0.00     0.147 A 
ATOM     26  H5  UNL     1      16.356   9.080  16.961  1.00  0.00     0.190 HD
BRANCH  25  27
HETATM   27  N6  UNL     1      14.486  10.817  16.166  1.00  0.00    -0.382 N 
ATOM     28  H62 UNL     1      15.077  11.537  16.583  1.00  0.00     0.157 HD
ATOM     29  H61 UNL     1      13.511  11.028  16.376  1.00  0.00     0.157 HD
ENDBRANCH  25  27
ENDBRANCH   4  19
TORSDOF 3
ENDMDL
MODEL 4
REMARK VINA RESULT: -7.852497014      0.756      1.067
REMARK  3 active torsions:
REMARK  status: ('A' for Active; 'I' for Inactive)
REMARK    1  A    between atoms: N1_2  and  C2_4 
REMARK    2  A    between atoms: C3_7  and  C4_8 
REMARK    3  A    between atoms: C5_15  and  N6_16 
ROOT
HETATM    1  C2  UNL     1      13.054  10.096  14.002  1.00  0.00     0.134 A 
HETATM    2  N2  UNL     1      13.468   8.847  13.622  1.00  0.00    -0.324 N 
ATOM      3  H2  UNL     1      13.856   8.225  14.332  1.00  0.00     0.169 HD
HETATM    4  C3  UNL     1      13.387   8.407  12.365  1.00  0.00     0.154 A 
HETATM    5  N7  UNL     1      12.857   9.286  11.462  1.00  0.00    -0.274 N 
ATOM      6  H7  UNL     1      12.782   8.979  10.493  1.00  0.00     0.189 HD
HETATM    7  N8  UNL     1      12.441  10.488  11.748  1.00  0.00    -0.221 N 
HETATM    8  C6  UNL     1      11.893  11.511  11.033  1.00  0.00     0.202 A 
HETATM    9 CL1  UNL     1      11.576  11.422   9.301  1.00  0.00    -0.043 Cl
HETATM   10  N9  UNL     1      11.668  12.519  11.880  1.00  0.00    -0.320 N 
ATOM     11  H9  UNL     1      11.263  13.419  11.625  1.00  0.00     0.169 HD
HETATM   12  C7  UNL     1      12.053  12.174  13.105  1.00  0.00     0.149 A 
HETATM   13  C8  UNL     1      11.947  13.035  14.257  1.00  0.00     0.120 C 
HETATM   14  N10 UNL     1      11.860  13.747  15.176  1.00  0.00    -0.190 NA
HETATM   15  C9  UNL     1      12.540  10.896  13.025  1.00  0.00     0.140 A 
ENDROOT
BRANCH   1  16
HETATM   16  N1  UNL     1      13.136  10.506  15.201  1.00  0.00    -0.379 N 
HETATM   17  C1  UNL     1      14.282  10.330  16.058  1.00  0.00     0.147 C 
ATOM     18  H1  UNL     1      12.330  10.998  15.587  1.00  0.00     0.160 HD
ENDBRANCH   1  16
BRANCH   4  19
HETATM   19  C4  UNL     1      13.811   7.097  11.916  1.00  0.00     0.140 A 
HETATM   20  N3  UNL     1      13.641   5.926  12.600  1.00  0.00    -0.279 N 
HETATM   21  N4  UNL     1      14.143   4.925  11.904  1.00  0.00    -0.240 N 
ATOM     22  H3  UNL     1      13.193   5.839  13.512  1.00  0.00     0.189 HD
HETATM   23  N5  UNL     1      14.648   5.379  10.771  1.00  0.00    -0.269 N 
ATOM     24  H4  UNL     1      14.143   3.948  12.196  1.00  0.00     0.208 HD
HETATM   25  C5  UNL     1      14.446   6.740  10.764  1.00  0.00     0.147 A 
ATOM     26  H5  UNL     1      15.100   4.827  10.042  1.00  0.00     0.190 HD
BRANCH  25  27
HETATM   27  N6  UNL     1      14.827   7.475   9.791  1.00  0.00    -0.382 N 
ATOM     28  H62 UNL     1      15.148   8.433   9.932  1.00  0.00     0.157 HD
ATOM     29  H61 UNL     1      14.872   7.254   8.796  1.00  0.00     0.157 HD
ENDBRANCH  25  27
ENDBRANCH   4  19
TORSDOF 3
ENDMDL
MODEL 5
REMARK VINA RESULT: -7.849733955      2.225      4.914
REMARK  3 active torsions:
REMARK  status: ('A' for Active; 'I' for Inactive)
REMARK    1  A    between atoms: N1_2  and  C2_4 
REMARK    2  A    between atoms: C3_7  and  C4_8 
REMARK    3  A    between atoms: C5_15  and  N6_16 
ROOT
HETATM    1  C2  UNL     1      13.560   9.578  11.829  1.00  0.00     0.134 A 
HETATM    2  N2  UNL     1      14.193   9.538  13.042  1.00  0.00    -0.324 N 
ATOM      3  H2  UNL     1      14.936   8.853  13.182  1.00  0.00     0.169 HD
HETATM    4  C3  UNL     1      13.882  10.356  14.050  1.00  0.00     0.154 A 
HETATM    5  N7  UNL     1      12.880  11.252  13.799  1.00  0.00    -0.274 N 
ATOM      6  H7  UNL     1      12.620  11.890  14.551  1.00  0.00     0.189 HD
HETATM    7  N8  UNL     1      12.233  11.350  12.672  1.00  0.00    -0.221 N 
HETATM    8  C6  UNL     1      11.227  12.144  12.207  1.00  0.00     0.202 A 
HETATM    9 CL1  UNL     1      10.463  13.404  13.173  1.00  0.00    -0.043 Cl
HETATM   10  N9  UNL     1      10.973  11.776  10.949  1.00  0.00    -0.320 N 
ATOM     11  H9  UNL     1      10.265  12.196  10.347  1.00  0.00     0.169 HD
HETATM   12  C7  UNL     1      11.780  10.779  10.598  1.00  0.00     0.149 A 
HETATM   13  C8  UNL     1      11.766  10.148   9.301  1.00  0.00     0.120 C 
HETATM   14  N10 UNL     1      11.737   9.645   8.250  1.00  0.00    -0.190 NA
HETATM   15  C9  UNL     1      12.575  10.509  11.681  1.00  0.00     0.140 A 
ENDROOT
BRANCH   1  16
HETATM   16  N1  UNL     1      13.862   8.796  10.875  1.00  0.00    -0.379 N 
HETATM   17  C1  UNL     1      14.742   7.659  10.987  1.00  0.00     0.147 C 
ATOM     18  H1  UNL     1      13.451   8.986   9.962  1.00  0.00     0.160 HD
ENDBRANCH   1  16
BRANCH   4  19
HETATM   19  C4  UNL     1      14.523  10.351  15.350  1.00  0.00     0.140 A 
HETATM   20  N3  UNL     1      14.309  11.261  16.346  1.00  0.00    -0.279 N 
HETATM   21  N4  UNL     1      15.053  10.961  17.392  1.00  0.00    -0.240 N 
ATOM     22  H3  UNL     1      13.670  12.054  16.290  1.00  0.00     0.189 HD
HETATM   23  N5  UNL     1      15.763   9.877  17.137  1.00  0.00    -0.269 N 
ATOM     24  H4  UNL     1      15.077  11.486  18.267  1.00  0.00     0.208 HD
HETATM   25  C5  UNL     1      15.440   9.483  15.859  1.00  0.00     0.147 A 
ATOM     26  H5  UNL     1      16.424   9.420  17.766  1.00  0.00     0.190 HD
BRANCH  25  27
HETATM   27  N6  UNL     1      15.967   8.454  15.316  1.00  0.00    -0.382 N 
ATOM     28  H62 UNL     1      15.443   7.590  15.174  1.00  0.00     0.157 HD
ATOM     29  H61 UNL     1      16.915   8.327  14.962  1.00  0.00     0.157 HD
ENDBRANCH  25  27
ENDBRANCH   4  19
TORSDOF 3
ENDMDL
