MODEL 1
REMARK VINA RESULT: -6.890635291      0.000      0.000
REMARK  8 active torsions:
REMARK  status: ('A' for Active; 'I' for Inactive)
REMARK    1  A    between atoms: O1_2  and  C2_3 
REMARK    2  A    between atoms: C3_6  and  N2_7 
REMARK    3  A    between atoms: C4_12  and  C5_13 
REMARK    4  A    between atoms: C6_14  and  C7_15 
REMARK    5  A    between atoms: C7_15  and  O2_16 
REMARK    6  A    between atoms: C7_15  and  C8_18 
REMARK    7  A    between atoms: C8_18  and  O3_20 
REMARK    8  A    between atoms: C10_23  and  N4_24 
ROOT
HETATM    1  C2  UNL     1      11.524  12.710  12.304  1.00  0.00     0.193 A 
HETATM    2  N1  UNL     1      11.882  12.874  13.597  1.00  0.00    -0.168 N 
ATOM      3  H1  UNL     1      11.538  13.674  14.127  1.00  0.00     0.186 HD
HETATM    4  C3  UNL     1      12.691  11.978  14.175  1.00  0.00     0.678 A 
HETATM    5  N3  UNL     1      13.142  10.914  13.455  1.00  0.00    -0.181 N 
ATOM      6  H3  UNL     1      13.757  10.243  13.914  1.00  0.00     0.185 HD
HETATM    7  C4  UNL     1      12.817  10.707  12.175  1.00  0.00     0.140 A 
HETATM    8  C10 UNL     1      11.978  11.635  11.570  1.00  0.00     0.190 A 
ENDROOT
BRANCH   7   9
HETATM    9  C5  UNL     1      13.285   9.586  11.407  1.00  0.00    -0.043 C 
HETATM   10  C6  UNL     1      13.676   8.632  10.780  1.00  0.00    -0.062 C 
BRANCH  10  11
HETATM   11  C7  UNL     1      14.138   7.460  10.036  1.00  0.00     0.263 C 
BRANCH  11  12
HETATM   12  O2  UNL     1      15.268   6.920  10.610  1.00  0.00    -0.378 OA
ATOM     13  H2  UNL     1      15.998   6.926  10.003  1.00  0.00     0.211 HD
ENDBRANCH  11  12
BRANCH  11  14
HETATM   14  C8  UNL     1      13.016   6.449  10.063  1.00  0.00     0.236 C 
HETATM   15  C9  UNL     1      13.399   5.204   9.308  1.00  0.00     0.088 C 
HETATM   16  F1  UNL     1      11.936   7.023   9.375  1.00  0.00    -0.208 F 
BRANCH  14  17
HETATM   17  O3  UNL     1      12.559   6.211  11.345  1.00  0.00    -0.359 OA
ATOM     18  H3  UNL     1      13.007   6.746  11.989  1.00  0.00     0.213 HD
ENDBRANCH  14  17
ENDBRANCH  11  14
ENDBRANCH  10  11
ENDBRANCH   7   9
BRANCH   8  19
HETATM   19  N4  UNL     1      11.585  11.496  10.226  1.00  0.00    -0.108 N 
HETATM   20  O4  UNL     1      12.222  12.064   9.338  1.00  0.00    -0.532 OA
HETATM   21  O5  UNL     1      10.502  10.734   9.917  1.00  0.00    -0.532 OA
ENDBRANCH   8  19
BRANCH   4  22
HETATM   22  N2  UNL     1      13.028  12.140  15.409  1.00  0.00    -0.234 N 
ATOM     23  H22 UNL     1      14.006  12.229  15.682  1.00  0.00     0.174 HD
ATOM     24  H21 UNL     1      12.301  12.177  16.123  1.00  0.00     0.174 HD
ENDBRANCH   4  22
BRANCH   1  25
HETATM   25  O1  UNL     1      10.685  13.657  11.736  1.00  0.00    -0.338 OA
HETATM   26  C1  UNL     1       9.324  13.644  12.157  1.00  0.00     0.211 C 
ENDBRANCH   1  25
TORSDOF 8
ENDMDL
MODEL 2
REMARK VINA RESULT: -6.860227141      3.481      6.608
REMARK  8 active torsions:
REMARK  status: ('A' for Active; 'I' for Inactive)
REMARK    1  A    between atoms: O1_2  and  C2_3 
REMARK    2  A    between atoms: C3_6  and  N2_7 
REMARK    3  A    between atoms: C4_12  and  C5_13 
REMARK    4  A    between atoms: C6_14  and  C7_15 
REMARK    5  A    between atoms: C7_15  and  O2_16 
REMARK    6  A    between atoms: C7_15  and  C8_18 
REMARK    7  A    between atoms: C8_18  and  O3_20 
REMARK    8  A    between atoms: C10_23  and  N4_24 
ROOT
HETATM    1  C2  UNL     1      13.899   6.198  11.087  1.00  0.00     0.193 A 
HETATM    2  N1  UNL     1      13.500   5.133  10.356  1.00  0.00    -0.168 N 
ATOM      3  H1  UNL     1      13.861   4.203  10.564  1.00  0.00     0.186 HD
HETATM    4  C3  UNL     1      12.627   5.310   9.356  1.00  0.00     0.678 A 
HETATM    5  N3  UNL     1      12.154   6.559   9.090  1.00  0.00    -0.181 N 
ATOM      6  H3  UNL     1      11.490   6.673   8.323  1.00  0.00     0.185 HD
HETATM    7  C4  UNL     1      12.516   7.642   9.783  1.00  0.00     0.140 A 
HETATM    8  C10 UNL     1      13.422   7.463  10.821  1.00  0.00     0.190 A 
ENDROOT
BRANCH   7   9
HETATM    9  C5  UNL     1      12.020   8.964   9.511  1.00  0.00    -0.043 C 
HETATM   10  C6  UNL     1      11.603  10.077   9.305  1.00  0.00    -0.062 C 
BRANCH  10  11
HETATM   11  C7  UNL     1      11.107  11.435   9.078  1.00  0.00     0.263 C 
BRANCH  11  12
HETATM   12  O2  UNL     1       9.774  11.427   8.732  1.00  0.00    -0.378 OA
ATOM     13  H2  UNL     1       9.223  11.607   9.484  1.00  0.00     0.211 HD
ENDBRANCH  11  12
BRANCH  11  14
HETATM   14  C8  UNL     1      11.298  12.197  10.368  1.00  0.00     0.236 C 
HETATM   15  C9  UNL     1       9.970  12.528  10.995  1.00  0.00     0.088 C 
HETATM   16  F1  UNL     1      11.903  13.418  10.032  1.00  0.00    -0.208 F 
BRANCH  14  17
HETATM   17  O3  UNL     1      12.181  11.565  11.221  1.00  0.00    -0.359 OA
ATOM     18  H3  UNL     1      13.070  11.882  11.116  1.00  0.00     0.213 HD
ENDBRANCH  14  17
ENDBRANCH  11  14
ENDBRANCH  10  11
ENDBRANCH   7   9
BRANCH   8  19
HETATM   19  N4  UNL     1      13.860   8.549  11.603  1.00  0.00    -0.108 N 
HETATM   20  O4  UNL     1      14.908   9.128  11.318  1.00  0.00    -0.532 OA
HETATM   21  O5  UNL     1      13.119   8.950  12.670  1.00  0.00    -0.532 OA
ENDBRANCH   8  19
BRANCH   4  22
HETATM   22  N2  UNL     1      12.250   4.291   8.663  1.00  0.00    -0.234 N 
ATOM     23  H22 UNL     1      12.871   3.858   7.980  1.00  0.00     0.174 HD
ATOM     24  H21 UNL     1      11.313   3.914   8.801  1.00  0.00     0.174 HD
ENDBRANCH   4  22
BRANCH   1  25
HETATM   25  O1  UNL     1      14.803   5.978  12.115  1.00  0.00    -0.338 OA
HETATM   26  C1  UNL     1      14.492   4.933  13.032  1.00  0.00     0.211 C 
ENDBRANCH   1  25
TORSDOF 8
ENDMDL
MODEL 3
REMARK VINA RESULT: -6.784194312      3.033      4.631
REMARK  8 active torsions:
REMARK  status: ('A' for Active; 'I' for Inactive)
REMARK    1  A    between atoms: O1_2  and  C2_3 
REMARK    2  A    between atoms: C3_6  and  N2_7 
REMARK    3  A    between atoms: C4_12  and  C5_13 
REMARK    4  A    between atoms: C6_14  and  C7_15 
REMARK    5  A    between atoms: C7_15  and  O2_16 
REMARK    6  A    between atoms: C7_15  and  C8_18 
REMARK    7  A    between atoms: C8_18  and  O3_20 
REMARK    8  A    between atoms: C10_23  and  N4_24 
ROOT
HETATM    1  C2  UNL     1      13.958  10.459  14.725  1.00  0.00     0.193 A 
HETATM    2  N1  UNL     1      13.499  11.453  15.518  1.00  0.00    -0.168 N 
ATOM      3  H1  UNL     1      13.809  11.522  16.487  1.00  0.00     0.186 HD
HETATM    4  C3  UNL     1      12.636  12.348  15.020  1.00  0.00     0.678 A 
HETATM    5  N3  UNL     1      12.232  12.244  13.724  1.00  0.00    -0.181 N 
ATOM      6  H3  UNL     1      11.573  12.935  13.364  1.00  0.00     0.185 HD
HETATM    7  C4  UNL     1      12.655  11.281  12.901  1.00  0.00     0.140 A 
HETATM    8  C10 UNL     1      13.551  10.350  13.413  1.00  0.00     0.190 A 
ENDROOT
BRANCH   7   9
HETATM    9  C5  UNL     1      12.237  11.164  11.530  1.00  0.00    -0.043 C 
HETATM   10  C6  UNL     1      11.870  11.081  10.384  1.00  0.00    -0.062 C 
BRANCH  10  11
HETATM   11  C7  UNL     1      11.415  11.004   8.996  1.00  0.00     0.263 C 
BRANCH  11  12
HETATM   12  O2  UNL     1      11.911   9.882   8.370  1.00  0.00    -0.378 OA
ATOM     13  H2  UNL     1      12.759  10.053   7.979  1.00  0.00     0.211 HD
ENDBRANCH  11  12
BRANCH  11  14
HETATM   14  C8  UNL     1       9.905  10.947   9.028  1.00  0.00     0.236 C 
HETATM   15  C9  UNL     1       9.353  11.940  10.016  1.00  0.00     0.088 C 
HETATM   16  F1  UNL     1       9.557   9.672   9.498  1.00  0.00    -0.208 F 
BRANCH  14  17
HETATM   17  O3  UNL     1       9.353  11.044   7.765  1.00  0.00    -0.359 OA
ATOM     18  H3  UNL     1       9.047  11.922   7.574  1.00  0.00     0.213 HD
ENDBRANCH  14  17
ENDBRANCH  11  14
ENDBRANCH  10  11
ENDBRANCH   7   9
BRANCH   8  19
HETATM   19  N4  UNL     1      14.048   9.302  12.617  1.00  0.00    -0.108 N 
HETATM   20  O4  UNL     1      15.029   9.489  11.896  1.00  0.00    -0.532 OA
HETATM   21  O5  UNL     1      13.439   8.086  12.649  1.00  0.00    -0.532 OA
ENDBRANCH   8  19
BRANCH   4  22
HETATM   22  N2  UNL     1      12.203  13.294  15.781  1.00  0.00    -0.234 N 
ATOM     23  H22 UNL     1      12.822  14.038  16.104  1.00  0.00     0.174 HD
ATOM     24  H21 UNL     1      11.224  13.296  16.064  1.00  0.00     0.174 HD
ENDBRANCH   4  22
BRANCH   1  25
HETATM   25  O1  UNL     1      14.850   9.551  15.273  1.00  0.00    -0.338 OA
HETATM   26  C1  UNL     1      15.524   9.950  16.463  1.00  0.00     0.211 C 
ENDBRANCH   1  25
TORSDOF 8
ENDMDL
MODEL 4
REMARK VINA RESULT: -6.773948420      3.036      5.838
REMARK  8 active torsions:
REMARK  status: ('A' for Active; 'I' for Inactive)
REMARK    1  A    between atoms: O1_2  and  C2_3 
REMARK    2  A    between atoms: C3_6  and  N2_7 
REMARK    3  A    between atoms: C4_12  and  C5_13 
REMARK    4  A    between atoms: C6_14  and  C7_15 
REMARK    5  A    between atoms: C7_15  and  O2_16 
REMARK    6  A    between atoms: C7_15  and  C8_18 
REMARK    7  A    between atoms: C8_18  and  O3_20 
REMARK    8  A    between atoms: C10_23  and  N4_24 
ROOT
HETATM    1  C2  UNL     1      15.467   8.396  14.199  1.00  0.00     0.193 A 
HETATM    2  N1  UNL     1      15.925   8.715  15.430  1.00  0.00    -0.168 N 
ATOM      3  H1  UNL     1      16.679   8.175  15.854  1.00  0.00     0.186 HD
HETATM    4  C3  UNL     1      15.381   9.745  16.089  1.00  0.00     0.678 A 
HETATM    5  N3  UNL     1      14.375  10.458  15.510  1.00  0.00    -0.181 N 
ATOM      6  H3  UNL     1      13.974  11.240  16.029  1.00  0.00     0.185 HD
HETATM    7  C4  UNL     1      13.888  10.183  14.297  1.00  0.00     0.140 A 
HETATM    8  C10 UNL     1      14.450   9.114  13.610  1.00  0.00     0.190 A 
ENDROOT
BRANCH   7   9
HETATM    9  C5  UNL     1      12.829  10.931  13.677  1.00  0.00    -0.043 C 
HETATM   10  C6  UNL     1      11.925  11.544  13.163  1.00  0.00    -0.062 C 
BRANCH  10  11
HETATM   11  C7  UNL     1      10.813  12.277  12.558  1.00  0.00     0.263 C 
BRANCH  11  12
HETATM   12  O2  UNL     1      10.777  13.581  13.000  1.00  0.00    -0.378 OA
ATOM     13  H2  UNL     1       9.979  14.016  12.724  1.00  0.00     0.211 HD
ENDBRANCH  11  12
BRANCH  11  14
HETATM   14  C8  UNL     1      11.025  12.249  11.062  1.00  0.00     0.236 C 
HETATM   15  C9  UNL     1       9.712  12.110  10.339  1.00  0.00     0.088 C 
HETATM   16  F1  UNL     1      11.767  11.092  10.781  1.00  0.00    -0.208 F 
BRANCH  14  17
HETATM   17  O3  UNL     1      11.800  13.306  10.626  1.00  0.00    -0.359 OA
ATOM     18  H3  UNL     1      12.725  13.162  10.787  1.00  0.00     0.213 HD
ENDBRANCH  14  17
ENDBRANCH  11  14
ENDBRANCH  10  11
ENDBRANCH   7   9
BRANCH   8  19
HETATM   19  N4  UNL     1      13.998   8.753  12.327  1.00  0.00    -0.108 N 
HETATM   20  O4  UNL     1      14.487   9.286  11.330  1.00  0.00    -0.532 OA
HETATM   21  O5  UNL     1      13.020   7.817  12.197  1.00  0.00    -0.532 OA
ENDBRANCH   8  19
BRANCH   4  22
HETATM   22  N2  UNL     1      15.822  10.045  17.262  1.00  0.00    -0.234 N 
ATOM     23  H22 UNL     1      15.317   9.768  18.104  1.00  0.00     0.174 HD
ATOM     24  H21 UNL     1      16.692  10.570  17.348  1.00  0.00     0.174 HD
ENDBRANCH   4  22
BRANCH   1  25
HETATM   25  O1  UNL     1      16.054   7.323  13.546  1.00  0.00    -0.338 OA
HETATM   26  C1  UNL     1      17.109   6.652  14.230  1.00  0.00     0.211 C 
ENDBRANCH   1  25
TORSDOF 8
ENDMDL
MODEL 5
REMARK VINA RESULT: -6.749828198      2.289      3.063
REMARK  8 active torsions:
REMARK  status: ('A' for Active; 'I' for Inactive)
REMARK    1  A    between atoms: O1_2  and  C2_3 
REMARK    2  A    between atoms: C3_6  and  N2_7 
REMARK    3  A    between atoms: C4_12  and  C5_13 
REMARK    4  A    between atoms: C6_14  and  C7_15 
REMARK    5  A    between atoms: C7_15  and  O2_16 
REMARK    6  A    between atoms: C7_15  and  C8_18 
REMARK    7  A    between atoms: C8_18  and  O3_20 
REMARK    8  A    between atoms: C10_23  and  N4_24 
ROOT
HETATM    1  C2  UNL     1      12.710  11.800  13.532  1.00  0.00     0.193 A 
HETATM    2  N1  UNL     1      12.023  12.698  12.792  1.00  0.00    -0.168 N 
ATOM      3  H1  UNL     1      11.701  13.570  13.210  1.00  0.00     0.186 HD
HETATM    4  C3  UNL     1      11.767  12.434  11.504  1.00  0.00     0.678 A 
HETATM    5  N3  UNL     1      12.203  11.264  10.958  1.00  0.00    -0.181 N 
ATOM      6  H3  UNL     1      11.998  11.082   9.976  1.00  0.00     0.185 HD
HETATM    7  C4  UNL     1      12.886  10.346  11.647  1.00  0.00     0.140 A 
HETATM    8  C10 UNL     1      13.154  10.616  12.983  1.00  0.00     0.190 A 
ENDROOT
BRANCH   7   9
HETATM    9  C5  UNL     1      13.353   9.110  11.078  1.00  0.00    -0.043 C 
HETATM   10  C6  UNL     1      13.730   8.063  10.613  1.00  0.00    -0.062 C 
BRANCH  10  11
HETATM   11  C7  UNL     1      14.162   6.783  10.051  1.00  0.00     0.263 C 
BRANCH  11  12
HETATM   12  O2  UNL     1      15.141   6.203  10.827  1.00  0.00    -0.378 OA
ATOM     13  H2  UNL     1      14.762   5.677  11.521  1.00  0.00     0.211 HD
ENDBRANCH  11  12
BRANCH  11  14
HETATM   14  C8  UNL     1      12.946   5.887  10.005  1.00  0.00     0.236 C 
HETATM   15  C9  UNL     1      13.210   4.671   9.158  1.00  0.00     0.088 C 
HETATM   16  F1  UNL     1      11.931   6.614   9.366  1.00  0.00    -0.208 F 
BRANCH  14  17
HETATM   17  O3  UNL     1      12.463   5.600  11.268  1.00  0.00    -0.359 OA
ATOM     18  H3  UNL     1      11.560   5.872  11.375  1.00  0.00     0.213 HD
ENDBRANCH  14  17
ENDBRANCH  11  14
ENDBRANCH  10  11
ENDBRANCH   7   9
BRANCH   8  19
HETATM   19  N4  UNL     1      13.866   9.704  13.783  1.00  0.00    -0.108 N 
HETATM   20  O4  UNL     1      13.264   8.819  14.392  1.00  0.00    -0.532 OA
HETATM   21  O5  UNL     1      15.219   9.807  13.879  1.00  0.00    -0.532 OA
ENDBRANCH   8  19
BRANCH   4  22
HETATM   22  N2  UNL     1      11.112  13.294  10.804  1.00  0.00    -0.234 N 
ATOM     23  H22 UNL     1      11.059  14.274  11.084  1.00  0.00     0.174 HD
ATOM     24  H21 UNL     1      10.638  12.988   9.955  1.00  0.00     0.174 HD
ENDBRANCH   4  22
BRANCH   1  25
HETATM   25  O1  UNL     1      12.957  12.106  14.861  1.00  0.00    -0.338 OA
HETATM   26  C1  UNL     1      12.306  13.260  15.386  1.00  0.00     0.211 C 
ENDBRANCH   1  25
TORSDOF 8
ENDMDL
