MODEL 1
REMARK VINA RESULT: -7.368132677      0.000      0.000
REMARK  5 active torsions:
REMARK  status: ('A' for Active; 'I' for Inactive)
REMARK    1  A    between atoms: N1_2  and  C2_4 
REMARK    2  A    between atoms: C3_10  and  N4_11 
REMARK    3  A    between atoms: N4_11  and  N5_13 
REMARK    4  A    between atoms: N5_13  and  C4_15 
REMARK    5  A    between atoms: N8_23  and  N9_25 
ROOT
HETATM    1  C4  UNL     1      13.080  10.711  12.704  1.00  0.00     0.169 A 
HETATM    2  N6  UNL     1      13.522   9.917  11.709  1.00  0.00    -0.312 N 
ATOM      3  H6  UNL     1      13.111  10.049  10.786  1.00  0.00     0.170 HD
HETATM    4  C5  UNL     1      14.453   8.974  11.836  1.00  0.00     0.182 A 
HETATM    5 CL1  UNL     1      14.855   8.066  10.366  1.00  0.00    -0.045 Cl
HETATM    6  N7  UNL     1      15.117   8.634  12.930  1.00  0.00    -0.312 N 
ATOM      7  H7  UNL     1      15.800   7.882  12.835  1.00  0.00     0.170 HD
HETATM    8  C6  UNL     1      14.986   9.174  14.149  1.00  0.00     0.168 A 
HETATM    9  N8  UNL     1      15.691   8.767  15.176  1.00  0.00    -0.286 N 
ATOM     10  H8  UNL     1      15.573   9.195  16.095  1.00  0.00     0.188 HD
HETATM   11  S1  UNL     1      13.828  10.422  14.225  1.00  0.00    -0.015 SA
ENDROOT
BRANCH   1  12
HETATM   12  N5  UNL     1      12.173  11.614  12.536  1.00  0.00    -0.278 N 
ATOM     13  H5  UNL     1      11.604  11.937  13.319  1.00  0.00     0.189 HD
BRANCH  12  14
HETATM   14  N4  UNL     1      11.990  12.139  11.256  1.00  0.00    -0.279 N 
ATOM     15  H4  UNL     1      12.742  12.676  10.825  1.00  0.00     0.189 HD
BRANCH  14  16
HETATM   16  C3  UNL     1      10.876  11.957  10.596  1.00  0.00     0.188 A 
HETATM   17  C2  UNL     1      10.661  11.147   9.501  1.00  0.00     0.170 A 
HETATM   18  N2  UNL     1       9.347  11.281   9.158  1.00  0.00    -0.222 N 
HETATM   19  O1  UNL     1       8.824  12.111   9.993  1.00  0.00    -0.153 OA
ATOM     20  H2  UNL     1       8.870  10.813   8.388  1.00  0.00     0.198 HD
HETATM   21  N3  UNL     1       9.694  12.536  10.860  1.00  0.00    -0.221 N 
ATOM     22  H3  UNL     1       9.509  13.196  11.615  1.00  0.00     0.198 HD
BRANCH  17  23
HETATM   23  N1  UNL     1      11.572  10.435   8.963  1.00  0.00    -0.376 N 
HETATM   24  C1  UNL     1      11.501   9.000   8.813  1.00  0.00     0.148 C 
ATOM     25  H1  UNL     1      12.405  10.910   8.615  1.00  0.00     0.160 HD
ENDBRANCH  17  23
ENDBRANCH  14  16
ENDBRANCH  12  14
ENDBRANCH   1  12
BRANCH   9  26
HETATM   26  N9  UNL     1      16.608   7.734  14.979  1.00  0.00    -0.343 N 
ATOM     27  H92 UNL     1      16.814   7.409  14.034  1.00  0.00     0.176 HD
ATOM     28  H91 UNL     1      17.055   7.324  15.798  1.00  0.00     0.176 HD
ENDBRANCH   9  26
TORSDOF 5
ENDMDL
MODEL 2
REMARK VINA RESULT: -7.361217173      2.928      3.637
REMARK  5 active torsions:
REMARK  status: ('A' for Active; 'I' for Inactive)
REMARK    1  A    between atoms: N1_2  and  C2_4 
REMARK    2  A    between atoms: C3_10  and  N4_11 
REMARK    3  A    between atoms: N4_11  and  N5_13 
REMARK    4  A    between atoms: N5_13  and  C4_15 
REMARK    5  A    between atoms: N8_23  and  N9_25 
ROOT
HETATM    1  C4  UNL     1      13.613  11.359  15.519  1.00  0.00     0.169 A 
HETATM    2  N6  UNL     1      14.606  11.566  16.405  1.00  0.00    -0.312 N 
ATOM      3  H6  UNL     1      14.535  12.387  17.006  1.00  0.00     0.170 HD
HETATM    4  C5  UNL     1      15.673  10.784  16.561  1.00  0.00     0.182 A 
HETATM    5 CL1  UNL     1      16.838  11.283  17.802  1.00  0.00    -0.045 Cl
HETATM    6  N7  UNL     1      15.967   9.676  15.898  1.00  0.00    -0.312 N 
ATOM      7  H7  UNL     1      16.835   9.206  16.157  1.00  0.00     0.170 HD
HETATM    8  C6  UNL     1      15.245   9.108  14.924  1.00  0.00     0.168 A 
HETATM    9  N8  UNL     1      15.621   8.005  14.324  1.00  0.00    -0.286 N 
ATOM     10  H8  UNL     1      15.053   7.591  13.584  1.00  0.00     0.188 HD
HETATM   11  S1  UNL     1      13.812   9.952  14.551  1.00  0.00    -0.015 SA
ENDROOT
BRANCH   1  12
HETATM   12  N5  UNL     1      12.596  12.145  15.402  1.00  0.00    -0.278 N 
ATOM     13  H5  UNL     1      11.823  12.103  16.068  1.00  0.00     0.189 HD
BRANCH  12  14
HETATM   14  N4  UNL     1      12.579  13.054  14.343  1.00  0.00    -0.279 N 
ATOM     15  H4  UNL     1      13.406  13.623  14.162  1.00  0.00     0.189 HD
BRANCH  14  16
HETATM   16  C3  UNL     1      11.529  13.192  13.578  1.00  0.00     0.188 A 
HETATM   17  C2  UNL     1      11.248  12.540  12.396  1.00  0.00     0.170 A 
HETATM   18  N2  UNL     1      10.042  13.008  11.959  1.00  0.00    -0.222 N 
HETATM   19  O1  UNL     1       9.640  13.874  12.824  1.00  0.00    -0.153 OA
ATOM     20  H2  UNL     1       9.553  12.726  11.110  1.00  0.00     0.198 HD
HETATM   21  N3  UNL     1      10.490  14.014  13.798  1.00  0.00    -0.221 N 
ATOM     22  H3  UNL     1      10.384  14.641  14.595  1.00  0.00     0.198 HD
BRANCH  17  23
HETATM   23  N1  UNL     1      12.022  11.674  11.869  1.00  0.00    -0.376 N 
HETATM   24  C1  UNL     1      11.960  11.261  10.486  1.00  0.00     0.148 C 
ATOM     25  H1  UNL     1      12.731  11.245  12.463  1.00  0.00     0.160 HD
ENDBRANCH  17  23
ENDBRANCH  14  16
ENDBRANCH  12  14
ENDBRANCH   1  12
BRANCH   9  26
HETATM   26  N9  UNL     1      16.819   7.411  14.725  1.00  0.00    -0.343 N 
ATOM     27  H92 UNL     1      16.802   6.554  15.277  1.00  0.00     0.176 HD
ATOM     28  H91 UNL     1      17.693   7.858  14.451  1.00  0.00     0.176 HD
ENDBRANCH   9  26
TORSDOF 5
ENDMDL
MODEL 3
REMARK VINA RESULT: -7.274356633      2.115      2.899
REMARK  5 active torsions:
REMARK  status: ('A' for Active; 'I' for Inactive)
REMARK    1  A    between atoms: N1_2  and  C2_4 
REMARK    2  A    between atoms: C3_10  and  N4_11 
REMARK    3  A    between atoms: N4_11  and  N5_13 
REMARK    4  A    between atoms: N5_13  and  C4_15 
REMARK    5  A    between atoms: N8_23  and  N9_25 
ROOT
HETATM    1  C4  UNL     1      13.079  10.194  11.778  1.00  0.00     0.169 A 
HETATM    2  N6  UNL     1      12.762  11.152  12.671  1.00  0.00    -0.312 N 
ATOM      3  H6  UNL     1      12.078  11.851  12.385  1.00  0.00     0.170 HD
HETATM    4  C5  UNL     1      13.270  11.257  13.898  1.00  0.00     0.182 A 
HETATM    5 CL1  UNL     1      12.683  12.616  14.876  1.00  0.00    -0.045 Cl
HETATM    6  N7  UNL     1      14.163  10.467  14.475  1.00  0.00    -0.312 N 
ATOM      7  H7  UNL     1      14.436  10.706  15.428  1.00  0.00     0.170 HD
HETATM    8  C6  UNL     1      14.745   9.387  13.937  1.00  0.00     0.168 A 
HETATM    9  N8  UNL     1      15.622   8.665  14.590  1.00  0.00    -0.286 N 
ATOM     10  H8  UNL     1      16.052   7.846  14.159  1.00  0.00     0.188 HD
HETATM   11  S1  UNL     1      14.237   9.056  12.344  1.00  0.00    -0.015 SA
ENDROOT
BRANCH   1  12
HETATM   12  N5  UNL     1      12.560  10.130  10.598  1.00  0.00    -0.278 N 
ATOM     13  H5  UNL     1      12.542   9.250  10.082  1.00  0.00     0.189 HD
BRANCH  12  14
HETATM   14  N4  UNL     1      12.025  11.294  10.046  1.00  0.00    -0.279 N 
ATOM     15  H4  UNL     1      12.655  12.045   9.760  1.00  0.00     0.189 HD
BRANCH  14  16
HETATM   16  C3  UNL     1      10.737  11.445   9.886  1.00  0.00     0.188 A 
HETATM   17  C2  UNL     1       9.911  12.374  10.484  1.00  0.00     0.170 A 
HETATM   18  N2  UNL     1       8.650  12.148  10.012  1.00  0.00    -0.222 N 
HETATM   19  O1  UNL     1       8.728  11.157   9.193  1.00  0.00    -0.153 OA
ATOM     20  H2  UNL     1       7.808  12.666  10.261  1.00  0.00     0.198 HD
HETATM   21  N3  UNL     1       9.945  10.711   9.089  1.00  0.00    -0.221 N 
ATOM     22  H3  UNL     1      10.246   9.934   8.501  1.00  0.00     0.198 HD
BRANCH  17  23
HETATM   23  N1  UNL     1      10.322  13.249  11.315  1.00  0.00    -0.376 N 
HETATM   24  C1  UNL     1       9.736  13.475  12.616  1.00  0.00     0.148 C 
ATOM     25  H1  UNL     1      11.117  13.828  11.044  1.00  0.00     0.160 HD
ENDBRANCH  17  23
ENDBRANCH  14  16
ENDBRANCH  12  14
ENDBRANCH   1  12
BRANCH   9  26
HETATM   26  N9  UNL     1      15.951   9.045  15.892  1.00  0.00    -0.343 N 
ATOM     27  H92 UNL     1      15.680   9.966  16.237  1.00  0.00     0.176 HD
ATOM     28  H91 UNL     1      16.462   8.382  16.473  1.00  0.00     0.176 HD
ENDBRANCH   9  26
TORSDOF 5
ENDMDL
MODEL 4
REMARK VINA RESULT: -7.117501375      2.293      3.226
REMARK  5 active torsions:
REMARK  status: ('A' for Active; 'I' for Inactive)
REMARK    1  A    between atoms: N1_2  and  C2_4 
REMARK    2  A    between atoms: C3_10  and  N4_11 
REMARK    3  A    between atoms: N4_11  and  N5_13 
REMARK    4  A    between atoms: N5_13  and  C4_15 
REMARK    5  A    between atoms: N8_23  and  N9_25 
ROOT
HETATM    1  C4  UNL     1      12.567   9.136  10.065  1.00  0.00     0.169 A 
HETATM    2  N6  UNL     1      13.038   9.883  11.082  1.00  0.00    -0.312 N 
ATOM      3  H6  UNL     1      12.995  10.896  10.980  1.00  0.00     0.170 HD
HETATM    4  C5  UNL     1      13.557   9.403  12.211  1.00  0.00     0.182 A 
HETATM    5 CL1  UNL     1      14.108  10.604  13.394  1.00  0.00    -0.045 Cl
HETATM    6  N7  UNL     1      13.709   8.133  12.556  1.00  0.00    -0.312 N 
ATOM      7  H7  UNL     1      14.129   7.955  13.469  1.00  0.00     0.170 HD
HETATM    8  C6  UNL     1      13.370   7.058  11.832  1.00  0.00     0.168 A 
HETATM    9  N8  UNL     1      13.562   5.835  12.260  1.00  0.00    -0.286 N 
ATOM     10  H8  UNL     1      13.295   5.032  11.690  1.00  0.00     0.188 HD
HETATM   11  S1  UNL     1      12.677   7.440  10.322  1.00  0.00    -0.015 SA
ENDROOT
BRANCH   1  12
HETATM   12  N5  UNL     1      12.072   9.645   8.986  1.00  0.00    -0.278 N 
ATOM     13  H5  UNL     1      12.018   9.098   8.127  1.00  0.00     0.189 HD
BRANCH  12  14
HETATM   14  N4  UNL     1      11.614  10.963   9.026  1.00  0.00    -0.279 N 
ATOM     15  H4  UNL     1      12.285  11.726   8.941  1.00  0.00     0.189 HD
BRANCH  14  16
HETATM   16  C3  UNL     1      10.345  11.240   9.168  1.00  0.00     0.188 A 
HETATM   17  C2  UNL     1       9.752  12.034  10.127  1.00  0.00     0.170 A 
HETATM   18  N2  UNL     1       8.411  12.030   9.875  1.00  0.00    -0.222 N 
HETATM   19  O1  UNL     1       8.226  11.287   8.839  1.00  0.00    -0.153 OA
ATOM     20  H2  UNL     1       7.692  12.522  10.406  1.00  0.00     0.198 HD
HETATM   21  N3  UNL     1       9.344  10.800   8.389  1.00  0.00    -0.221 N 
ATOM     22  H3  UNL     1       9.444  10.187   7.580  1.00  0.00     0.198 HD
BRANCH  17  23
HETATM   23  N1  UNL     1      10.403  12.627  11.049  1.00  0.00    -0.376 N 
HETATM   24  C1  UNL     1       9.798  13.444  12.076  1.00  0.00     0.148 C 
ATOM     25  H1  UNL     1      11.417  12.518  11.063  1.00  0.00     0.160 HD
ENDBRANCH  17  23
ENDBRANCH  14  16
ENDBRANCH  12  14
ENDBRANCH   1  12
BRANCH   9  26
HETATM   26  N9  UNL     1      14.140   5.660  13.519  1.00  0.00    -0.343 N 
ATOM     27  H92 UNL     1      14.882   6.287  13.830  1.00  0.00     0.176 HD
ATOM     28  H91 UNL     1      13.800   4.897  14.103  1.00  0.00     0.176 HD
ENDBRANCH   9  26
TORSDOF 5
ENDMDL
MODEL 5
REMARK VINA RESULT: -7.078972254      2.543      3.491
REMARK  5 active torsions:
REMARK  status: ('A' for Active; 'I' for Inactive)
REMARK    1  A    between atoms: N1_2  and  C2_4 
REMARK    2  A    between atoms: C3_10  and  N4_11 
REMARK    3  A    between atoms: N4_11  and  N5_13 
REMARK    4  A    between atoms: N5_13  and  C4_15 
REMARK    5  A    between atoms: N8_23  and  N9_25 
ROOT
HETATM    1  C4  UNL     1      12.358   8.495   9.414  1.00  0.00     0.169 A 
HETATM    2  N6  UNL     1      12.268   7.209   9.022  1.00  0.00    -0.312 N 
ATOM      3  H6  UNL     1      11.922   7.029   8.080  1.00  0.00     0.170 HD
HETATM    4  C5  UNL     1      12.595   6.155   9.766  1.00  0.00     0.182 A 
HETATM    5 CL1  UNL     1      12.380   4.564   9.011  1.00  0.00    -0.045 Cl
HETATM    6  N7  UNL     1      13.063   6.152  11.005  1.00  0.00    -0.312 N 
ATOM      7  H7  UNL     1      13.259   5.240  11.418  1.00  0.00     0.170 HD
HETATM    8  C6  UNL     1      13.305   7.222  11.774  1.00  0.00     0.168 A 
HETATM    9  N8  UNL     1      13.770   7.119  12.994  1.00  0.00    -0.286 N 
ATOM     10  H8  UNL     1      13.947   7.949  13.561  1.00  0.00     0.188 HD
HETATM   11  S1  UNL     1      12.952   8.706  11.013  1.00  0.00    -0.015 SA
ENDROOT
BRANCH   1  12
HETATM   12  N5  UNL     1      12.029   9.488   8.657  1.00  0.00    -0.278 N 
ATOM     13  H5  UNL     1      12.044   9.399   7.641  1.00  0.00     0.189 HD
BRANCH  12  14
HETATM   14  N4  UNL     1      11.652  10.687   9.265  1.00  0.00    -0.279 N 
ATOM     15  H4  UNL     1      12.368  11.279   9.686  1.00  0.00     0.189 HD
BRANCH  14  16
HETATM   16  C3  UNL     1      10.403  11.068   9.307  1.00  0.00     0.188 A 
HETATM   17  C2  UNL     1       9.818  11.966  10.175  1.00  0.00     0.170 A 
HETATM   18  N2  UNL     1       8.498  12.046   9.836  1.00  0.00    -0.222 N 
HETATM   19  O1  UNL     1       8.318  11.252   8.838  1.00  0.00    -0.153 OA
ATOM     20  H2  UNL     1       7.790  12.625  10.288  1.00  0.00     0.198 HD
HETATM   21  N3  UNL     1       9.419  10.653   8.493  1.00  0.00    -0.221 N 
ATOM     22  H3  UNL     1       9.519   9.982   7.732  1.00  0.00     0.198 HD
BRANCH  17  23
HETATM   23  N1  UNL     1      10.457  12.569  11.099  1.00  0.00    -0.376 N 
HETATM   24  C1  UNL     1       9.846  13.434  12.081  1.00  0.00     0.148 C 
ATOM     25  H1  UNL     1      11.467  12.432  11.148  1.00  0.00     0.160 HD
ENDBRANCH  17  23
ENDBRANCH  14  16
ENDBRANCH  12  14
ENDBRANCH   1  12
BRANCH   9  26
HETATM   26  N9  UNL     1      14.017   5.841  13.499  1.00  0.00    -0.343 N 
ATOM     27  H92 UNL     1      13.593   5.027  13.055  1.00  0.00     0.176 HD
ATOM     28  H91 UNL     1      14.626   5.754  14.313  1.00  0.00     0.176 HD
ENDBRANCH   9  26
TORSDOF 5
ENDMDL
