MODEL 1
REMARK VINA RESULT: -8.659205057      0.000      0.000
REMARK  3 active torsions:
REMARK  status: ('A' for Active; 'I' for Inactive)
REMARK    1  A    between atoms: N1_1  and  C1_4 
REMARK    2  A    between atoms: C2_7  and  C3_8 
REMARK    3  A    between atoms: C5_10  and  C6_11 
ROOT
HETATM    1  C3  UNL     1      12.976  10.576  13.765  1.00  0.00     0.082 A 
HETATM    2  C4  UNL     1      13.903  11.041  14.666  1.00  0.00     0.068 A 
HETATM    3  C5  UNL     1      14.599  10.164  15.506  1.00  0.00     0.097 A 
HETATM    4  N7  UNL     1      14.350   8.853  15.417  1.00  0.00    -0.283 N 
ATOM      5  H7  UNL     1      14.843   8.191  16.016  1.00  0.00     0.188 HD
HETATM    6  N8  UNL     1      13.458   8.431  14.546  1.00  0.00    -0.242 N 
ATOM      7  H8  UNL     1      13.272   7.430  14.485  1.00  0.00     0.208 HD
HETATM    8  N9  UNL     1      12.792   9.245  13.748  1.00  0.00    -0.284 N 
ATOM      9  H9  UNL     1      12.114   8.849  13.096  1.00  0.00     0.188 HD
ENDROOT
BRANCH   1  10
HETATM   10  C2  UNL     1      12.214  11.425  12.862  1.00  0.00     0.121 A 
HETATM   11  N2  UNL     1      11.371  12.379  13.292  1.00  0.00    -0.186 N 
HETATM   12  C1  UNL     1      10.677  13.151  12.450  1.00  0.00     0.679 A 
ATOM     13  H2  UNL     1      11.257  12.520  14.296  1.00  0.00     0.184 HD
HETATM   14  N10 UNL     1      10.805  12.994  11.127  1.00  0.00    -0.154 N 
HETATM   15  C8  UNL     1      11.627  12.062  10.590  1.00  0.00     0.300 A 
ATOM     16  H10 UNL     1      10.265  13.595  10.504  1.00  0.00     0.187 HD
HETATM   17  C7  UNL     1      12.330  11.279  11.481  1.00  0.00     0.214 A 
HETATM   18  O1  UNL     1      11.757  11.903   9.349  1.00  0.00    -0.264 OA
HETATM   19  F1  UNL     1      13.165  10.334  10.979  1.00  0.00    -0.198 F 
BRANCH  12  20
HETATM   20  N1  UNL     1       9.872  14.063  12.875  1.00  0.00    -0.234 N 
ATOM     21  H12 UNL     1       9.191  13.805  13.589  1.00  0.00     0.174 HD
ATOM     22  H11 UNL     1       9.904  15.017  12.515  1.00  0.00     0.174 HD
ENDBRANCH  12  20
ENDBRANCH   1  10
BRANCH   3  23
HETATM   23  C6  UNL     1      15.580  10.710  16.452  1.00  0.00     0.159 A 
HETATM   24  N3  UNL     1      15.438  11.866  17.122  1.00  0.00    -0.268 N 
HETATM   25  N4  UNL     1      16.506  12.069  17.897  1.00  0.00    -0.007 NA
ATOM     26  H3  UNL     1      14.636  12.492  17.049  1.00  0.00     0.185 HD
HETATM   27  N5  UNL     1      17.314  11.032  17.703  1.00  0.00    -0.007 NA
HETATM   28  N6  UNL     1      16.760  10.191  16.820  1.00  0.00    -0.268 N 
ATOM     29  H6  UNL     1      17.163   9.314  16.488  1.00  0.00     0.185 HD
ENDBRANCH   3  23
TORSDOF 3
ENDMDL
MODEL 2
REMARK VINA RESULT: -8.495189996      3.002      4.727
REMARK  3 active torsions:
REMARK  status: ('A' for Active; 'I' for Inactive)
REMARK    1  A    between atoms: N1_1  and  C1_4 
REMARK    2  A    between atoms: C2_7  and  C3_8 
REMARK    3  A    between atoms: C5_10  and  C6_11 
ROOT
HETATM    1  C3  UNL     1      13.640   9.227  12.385  1.00  0.00     0.082 A 
HETATM    2  C4  UNL     1      12.956  10.271  12.959  1.00  0.00     0.068 A 
HETATM    3  C5  UNL     1      13.534  11.044  13.973  1.00  0.00     0.097 A 
HETATM    4  N7  UNL     1      14.773  10.750  14.380  1.00  0.00    -0.283 N 
ATOM      5  H7  UNL     1      15.219  11.297  15.117  1.00  0.00     0.188 HD
HETATM    6  N8  UNL     1      15.408   9.745  13.816  1.00  0.00    -0.242 N 
ATOM      7  H8  UNL     1      16.353   9.527  14.132  1.00  0.00     0.208 HD
HETATM    8  N9  UNL     1      14.878   9.006  12.859  1.00  0.00    -0.284 N 
ATOM      9  H9  UNL     1      15.427   8.242  12.465  1.00  0.00     0.188 HD
ENDROOT
BRANCH   1  10
HETATM   10  C2  UNL     1      13.106   8.381  11.329  1.00  0.00     0.121 A 
HETATM   11  N2  UNL     1      13.101   7.038  11.400  1.00  0.00    -0.186 N 
HETATM   12  C1  UNL     1      12.607   6.274  10.421  1.00  0.00     0.679 A 
ATOM     13  H2  UNL     1      13.488   6.587  12.229  1.00  0.00     0.184 HD
HETATM   14  N10 UNL     1      12.091   6.834   9.320  1.00  0.00    -0.154 N 
HETATM   15  C8  UNL     1      12.047   8.176   9.150  1.00  0.00     0.300 A 
ATOM     16  H10 UNL     1      11.720   6.231   8.587  1.00  0.00     0.187 HD
HETATM   17  C7  UNL     1      12.563   8.941  10.175  1.00  0.00     0.214 A 
HETATM   18  O1  UNL     1      11.564   8.717   8.121  1.00  0.00    -0.264 OA
HETATM   19  F1  UNL     1      12.536  10.292  10.039  1.00  0.00    -0.198 F 
BRANCH  12  20
HETATM   20  N1  UNL     1      12.609   4.988  10.499  1.00  0.00    -0.234 N 
ATOM     21  H12 UNL     1      12.833   4.564  11.399  1.00  0.00     0.174 HD
ATOM     22  H11 UNL     1      12.395   4.401   9.692  1.00  0.00     0.174 HD
ENDBRANCH  12  20
ENDBRANCH   1  10
BRANCH   3  23
HETATM   23  C6  UNL     1      12.762  12.150  14.555  1.00  0.00     0.159 A 
HETATM   24  N3  UNL     1      11.984  12.992  13.855  1.00  0.00    -0.268 N 
HETATM   25  N4  UNL     1      11.426  13.879  14.683  1.00  0.00    -0.007 NA
ATOM     26  H3  UNL     1      11.840  12.959  12.846  1.00  0.00     0.185 HD
HETATM   27  N5  UNL     1      11.865  13.584  15.903  1.00  0.00    -0.007 NA
HETATM   28  N6  UNL     1      12.685  12.526  15.839  1.00  0.00    -0.268 N 
ATOM     29  H6  UNL     1      13.164  12.087  16.626  1.00  0.00     0.185 HD
ENDBRANCH   3  23
TORSDOF 3
ENDMDL
MODEL 3
REMARK VINA RESULT: -8.290416768      3.066      3.942
REMARK  3 active torsions:
REMARK  status: ('A' for Active; 'I' for Inactive)
REMARK    1  A    between atoms: N1_1  and  C1_4 
REMARK    2  A    between atoms: C2_7  and  C3_8 
REMARK    3  A    between atoms: C5_10  and  C6_11 
ROOT
HETATM    1  C3  UNL     1      13.904   8.649  13.395  1.00  0.00     0.082 A 
HETATM    2  C4  UNL     1      15.204   8.296  13.661  1.00  0.00     0.068 A 
HETATM    3  C5  UNL     1      15.632   6.968  13.545  1.00  0.00     0.097 A 
HETATM    4  N7  UNL     1      14.749   6.038  13.166  1.00  0.00    -0.283 N 
ATOM      5  H7  UNL     1      15.033   5.063  13.071  1.00  0.00     0.188 HD
HETATM    6  N8  UNL     1      13.509   6.400  12.916  1.00  0.00    -0.242 N 
ATOM      7  H8  UNL     1      12.841   5.685  12.627  1.00  0.00     0.208 HD
HETATM    8  N9  UNL     1      13.089   7.648  13.021  1.00  0.00    -0.284 N 
ATOM      9  H9  UNL     1      12.113   7.858  12.812  1.00  0.00     0.188 HD
ENDROOT
BRANCH   1  10
HETATM   10  C2  UNL     1      13.387  10.005  13.495  1.00  0.00     0.121 A 
HETATM   11  N2  UNL     1      13.327  10.682  14.655  1.00  0.00    -0.186 N 
HETATM   12  C1  UNL     1      12.848  11.927  14.730  1.00  0.00     0.679 A 
ATOM     13  H2  UNL     1      13.658  10.229  15.507  1.00  0.00     0.184 HD
HETATM   14  N10 UNL     1      12.407  12.551  13.631  1.00  0.00    -0.154 N 
HETATM   15  C8  UNL     1      12.424  11.959  12.414  1.00  0.00     0.300 A 
ATOM     16  H10 UNL     1      12.047  13.501  13.713  1.00  0.00     0.187 HD
HETATM   17  C7  UNL     1      12.922  10.674  12.364  1.00  0.00     0.214 A 
HETATM   18  O1  UNL     1      12.013  12.533  11.372  1.00  0.00    -0.264 OA
HETATM   19  F1  UNL     1      12.954  10.049  11.160  1.00  0.00    -0.198 F 
BRANCH  12  20
HETATM   20  N1  UNL     1      12.796  12.567  15.848  1.00  0.00    -0.234 N 
ATOM     21  H12 UNL     1      13.672  12.749  16.336  1.00  0.00     0.174 HD
ATOM     22  H11 UNL     1      11.910  12.885  16.243  1.00  0.00     0.174 HD
ENDBRANCH  12  20
ENDBRANCH   1  10
BRANCH   3  23
HETATM   23  C6  UNL     1      17.033   6.641  13.841  1.00  0.00     0.159 A 
HETATM   24  N3  UNL     1      17.799   5.818  13.106  1.00  0.00    -0.268 N 
HETATM   25  N4  UNL     1      19.017   5.737  13.647  1.00  0.00    -0.007 NA
ATOM     26  H3  UNL     1      17.496   5.329  12.264  1.00  0.00     0.185 HD
HETATM   27  N5  UNL     1      19.003   6.515  14.724  1.00  0.00    -0.007 NA
HETATM   28  N6  UNL     1      17.793   7.076  14.855  1.00  0.00    -0.268 N 
ATOM     29  H6  UNL     1      17.502   7.717  15.594  1.00  0.00     0.185 HD
ENDBRANCH   3  23
TORSDOF 3
ENDMDL
MODEL 4
REMARK VINA RESULT: -8.243733226      2.274      3.338
REMARK  3 active torsions:
REMARK  status: ('A' for Active; 'I' for Inactive)
REMARK    1  A    between atoms: N1_1  and  C1_4 
REMARK    2  A    between atoms: C2_7  and  C3_8 
REMARK    3  A    between atoms: C5_10  and  C6_11 
ROOT
HETATM    1  C3  UNL     1      11.865  12.121  12.984  1.00  0.00     0.082 A 
HETATM    2  C4  UNL     1      12.723  11.333  13.713  1.00  0.00     0.068 A 
HETATM    3  C5  UNL     1      13.181  11.736  14.973  1.00  0.00     0.097 A 
HETATM    4  N7  UNL     1      12.769  12.910  15.463  1.00  0.00    -0.283 N 
ATOM      5  H7  UNL     1      13.086  13.228  16.379  1.00  0.00     0.188 HD
HETATM    6  N8  UNL     1      11.947  13.647  14.747  1.00  0.00    -0.242 N 
ATOM      7  H8  UNL     1      11.637  14.541  15.127  1.00  0.00     0.208 HD
HETATM    8  N9  UNL     1      11.506  13.282  13.557  1.00  0.00    -0.284 N 
ATOM      9  H9  UNL     1      10.870  13.903  13.056  1.00  0.00     0.188 HD
ENDROOT
BRANCH   1  10
HETATM   10  C2  UNL     1      11.348  11.770  11.670  1.00  0.00     0.121 A 
HETATM   11  N2  UNL     1      12.043  11.040  10.781  1.00  0.00    -0.186 N 
HETATM   12  C1  UNL     1      11.554  10.727   9.578  1.00  0.00     0.679 A 
ATOM     13  H2  UNL     1      12.977  10.715  11.033  1.00  0.00     0.184 HD
HETATM   14  N10 UNL     1      10.333  11.137   9.216  1.00  0.00    -0.154 N 
HETATM   15  C8  UNL     1       9.550  11.875  10.037  1.00  0.00     0.300 A 
ATOM     16  H10 UNL     1       9.980  10.884   8.293  1.00  0.00     0.187 HD
HETATM   17  C7  UNL     1      10.079  12.186  11.272  1.00  0.00     0.214 A 
HETATM   18  O1  UNL     1       8.400  12.268   9.710  1.00  0.00    -0.264 OA
HETATM   19  F1  UNL     1       9.322  12.926  12.122  1.00  0.00    -0.198 F 
BRANCH  12  20
HETATM   20  N1  UNL     1      12.230  10.027   8.733  1.00  0.00    -0.234 N 
ATOM     21  H12 UNL     1      12.214   9.012   8.832  1.00  0.00     0.174 HD
ATOM     22  H11 UNL     1      12.769  10.463   7.984  1.00  0.00     0.174 HD
ENDBRANCH  12  20
ENDBRANCH   1  10
BRANCH   3  23
HETATM   23  C6  UNL     1      14.097  10.859  15.713  1.00  0.00     0.159 A 
HETATM   24  N3  UNL     1      13.774  10.178  16.826  1.00  0.00    -0.268 N 
HETATM   25  N4  UNL     1      14.831   9.479  17.246  1.00  0.00    -0.007 NA
ATOM     26  H3  UNL     1      12.861  10.194  17.280  1.00  0.00     0.185 HD
HETATM   27  N5  UNL     1      15.814   9.730  16.387  1.00  0.00    -0.007 NA
HETATM   28  N6  UNL     1      15.378  10.575  15.443  1.00  0.00    -0.268 N 
ATOM     29  H6  UNL     1      15.924  10.936  14.659  1.00  0.00     0.185 HD
ENDBRANCH   3  23
TORSDOF 3
ENDMDL
MODEL 5
REMARK VINA RESULT: -8.219301481      3.999      6.029
REMARK  3 active torsions:
REMARK  status: ('A' for Active; 'I' for Inactive)
REMARK    1  A    between atoms: N1_1  and  C1_4 
REMARK    2  A    between atoms: C2_7  and  C3_8 
REMARK    3  A    between atoms: C5_10  and  C6_11 
ROOT
HETATM    1  C3  UNL     1      12.357  10.188  10.395  1.00  0.00     0.082 A 
HETATM    2  C4  UNL     1      12.169  10.889  11.561  1.00  0.00     0.068 A 
HETATM    3  C5  UNL     1      11.670  12.197  11.547  1.00  0.00     0.097 A 
HETATM    4  N7  UNL     1      11.375  12.761  10.371  1.00  0.00    -0.283 N 
ATOM      5  H7  UNL     1      11.008  13.712  10.331  1.00  0.00     0.188 HD
HETATM    6  N8  UNL     1      11.563  12.070   9.267  1.00  0.00    -0.242 N 
ATOM      7  H8  UNL     1      11.336  12.507   8.374  1.00  0.00     0.208 HD
HETATM    8  N9  UNL     1      12.033  10.836   9.263  1.00  0.00    -0.284 N 
ATOM      9  H9  UNL     1      12.155  10.359   8.369  1.00  0.00     0.188 HD
ENDROOT
BRANCH   1  10
HETATM   10  C2  UNL     1      12.872   8.829  10.330  1.00  0.00     0.121 A 
HETATM   11  N2  UNL     1      12.196   7.817   9.759  1.00  0.00    -0.186 N 
HETATM   12  C1  UNL     1      12.681   6.574   9.708  1.00  0.00     0.679 A 
ATOM     13  H2  UNL     1      11.280   8.005   9.351  1.00  0.00     0.184 HD
HETATM   14  N10 UNL     1      13.880   6.293  10.233  1.00  0.00    -0.154 N 
HETATM   15  C8  UNL     1      14.642   7.239  10.829  1.00  0.00     0.300 A 
ATOM     16  H10 UNL     1      14.231   5.337  10.181  1.00  0.00     0.187 HD
HETATM   17  C7  UNL     1      14.117   8.513  10.870  1.00  0.00     0.214 A 
HETATM   18  O1  UNL     1      15.771   6.990  11.327  1.00  0.00    -0.264 OA
HETATM   19  F1  UNL     1      14.854   9.489  11.461  1.00  0.00    -0.198 F 
BRANCH  12  20
HETATM   20  N1  UNL     1      12.024   5.611   9.158  1.00  0.00    -0.234 N 
ATOM     21  H12 UNL     1      12.362   5.250   8.266  1.00  0.00     0.174 HD
ATOM     22  H11 UNL     1      11.189   5.215   9.592  1.00  0.00     0.174 HD
ENDBRANCH  12  20
ENDBRANCH   1  10
BRANCH   3  23
HETATM   23  C6  UNL     1      11.486  12.904  12.821  1.00  0.00     0.159 A 
HETATM   24  N3  UNL     1      12.356  12.879  13.844  1.00  0.00    -0.268 N 
HETATM   25  N4  UNL     1      11.888  13.624  14.848  1.00  0.00    -0.007 NA
ATOM     26  H3  UNL     1      13.238  12.368  13.852  1.00  0.00     0.185 HD
HETATM   27  N5  UNL     1      10.720  14.113  14.443  1.00  0.00    -0.007 NA
HETATM   28  N6  UNL     1      10.461  13.679  13.202  1.00  0.00    -0.268 N 
ATOM     29  H6  UNL     1       9.633  13.899  12.648  1.00  0.00     0.185 HD
ENDBRANCH   3  23
TORSDOF 3
ENDMDL
