MODEL 1
REMARK VINA RESULT: -7.496437217      0.000      0.000
REMARK  5 active torsions:
REMARK  status: ('A' for Active; 'I' for Inactive)
REMARK    1  A    between atoms: C3_4  and  O1_5 
REMARK    2  A    between atoms: O1_5  and  N2_6 
REMARK    3  A    between atoms: N2_6  and  O2_7 
REMARK    4  A    between atoms: N2_6  and  O3_9 
REMARK    5  A    between atoms: C7_18  and  N5_19 
ROOT
HETATM    1  C1  UNL     1      50.211  46.186  10.112  1.00  0.00     0.151 C 
HETATM    2  N1  UNL     1      48.896  46.610   9.681  1.00  0.00    -0.367 N 
HETATM    3  C2  UNL     1      47.966  47.143  10.653  1.00  0.00     0.159 C 
HETATM    4  C3  UNL     1      47.286  48.338  10.019  1.00  0.00     0.186 C 
HETATM    5  C4  UNL     1      45.985  47.951   9.354  1.00  0.00     0.155 C 
HETATM    6  N3  UNL     1      46.227  47.177   8.136  1.00  0.00    -0.382 N 
ATOM      7  H3  UNL     1      45.397  46.945   7.590  1.00  0.00     0.160 HD
HETATM    8  C5  UNL     1      47.450  46.707   7.612  1.00  0.00     0.111 A 
HETATM    9  C6  UNL     1      48.641  46.454   8.292  1.00  0.00     0.148 A 
HETATM   10  N4  UNL     1      49.714  46.008   7.623  1.00  0.00    -0.175 N 
ATOM     11  H4  UNL     1      50.586  45.822   8.119  1.00  0.00     0.186 HD
HETATM   12  C7  UNL     1      49.637  45.807   6.299  1.00  0.00     0.678 A 
HETATM   13  N6  UNL     1      48.485  46.054   5.655  1.00  0.00    -0.180 N 
ATOM     14  H6  UNL     1      48.455  45.892   4.648  1.00  0.00     0.185 HD
HETATM   15  C8  UNL     1      47.373  46.501   6.253  1.00  0.00     0.159 A 
HETATM   16  C9  UNL     1      46.145  46.767   5.574  1.00  0.00     0.120 C 
HETATM   17  N7  UNL     1      45.156  46.974   5.007  1.00  0.00    -0.190 NA
ENDROOT
BRANCH  12  18
HETATM   18  N5  UNL     1      50.679  45.370   5.625  1.00  0.00    -0.234 N 
ATOM     19  H52 UNL     1      51.437  44.896   6.118  1.00  0.00     0.174 HD
ATOM     20  H51 UNL     1      50.738  45.501   4.616  1.00  0.00     0.174 HD
ENDBRANCH  12  18
BRANCH   4  21
HETATM   21  O1  UNL     1      47.018  49.253  11.010  1.00  0.00    -0.247 OA
BRANCH  21  22
HETATM   22  N2  UNL     1      47.910  50.265  11.058  1.00  0.00     0.074 NA
BRANCH  22  23
HETATM   23  O2  UNL     1      47.374  51.449  10.729  1.00  0.00    -0.265 OA
ATOM     24  H2  UNL     1      47.428  52.087  11.431  1.00  0.00     0.242 HD
ENDBRANCH  22  23
BRANCH  22  25
HETATM   25  O3  UNL     1      48.519  50.300  12.266  1.00  0.00    -0.265 OA
ATOM     26  H3  UNL     1      49.289  50.856  12.233  1.00  0.00     0.242 HD
ENDBRANCH  22  25
ENDBRANCH  21  22
ENDBRANCH   4  21
TORSDOF 5
ENDMDL
MODEL 2
REMARK VINA RESULT: -7.352848535      3.146      3.988
REMARK  5 active torsions:
REMARK  status: ('A' for Active; 'I' for Inactive)
REMARK    1  A    between atoms: C3_4  and  O1_5 
REMARK    2  A    between atoms: O1_5  and  N2_6 
REMARK    3  A    between atoms: N2_6  and  O2_7 
REMARK    4  A    between atoms: N2_6  and  O3_9 
REMARK    5  A    between atoms: C7_18  and  N5_19 
ROOT
HETATM    1  C1  UNL     1      51.545  43.037   6.478  1.00  0.00     0.151 C 
HETATM    2  N1  UNL     1      50.470  43.926   6.863  1.00  0.00    -0.367 N 
HETATM    3  C2  UNL     1      50.332  44.317   8.251  1.00  0.00     0.159 C 
HETATM    4  C3  UNL     1      50.005  45.794   8.273  1.00  0.00     0.186 C 
HETATM    5  C4  UNL     1      48.513  46.035   8.314  1.00  0.00     0.155 C 
HETATM    6  N3  UNL     1      47.891  45.702   7.032  1.00  0.00    -0.382 N 
ATOM      7  H3  UNL     1      46.896  45.911   6.960  1.00  0.00     0.160 HD
HETATM    8  C5  UNL     1      48.479  45.132   5.883  1.00  0.00     0.111 A 
HETATM    9  C6  UNL     1      49.625  44.342   5.799  1.00  0.00     0.148 A 
HETATM   10  N4  UNL     1      50.041  43.884   4.610  1.00  0.00    -0.175 N 
ATOM     11  H4  UNL     1      50.879  43.307   4.547  1.00  0.00     0.186 HD
HETATM   12  C7  UNL     1      49.349  44.189   3.501  1.00  0.00     0.678 A 
HETATM   13  N6  UNL     1      48.247  44.950   3.593  1.00  0.00    -0.180 N 
ATOM     14  H6  UNL     1      47.740  45.166   2.735  1.00  0.00     0.185 HD
HETATM   15  C8  UNL     1      47.771  45.444   4.744  1.00  0.00     0.159 A 
HETATM   16  C9  UNL     1      46.600  46.255   4.850  1.00  0.00     0.120 C 
HETATM   17  N7  UNL     1      45.646  46.908   4.916  1.00  0.00    -0.190 NA
ENDROOT
BRANCH  12  18
HETATM   18  N5  UNL     1      49.741  43.750   2.325  1.00  0.00    -0.234 N 
ATOM     19  H52 UNL     1      49.659  44.355   1.507  1.00  0.00     0.174 HD
ATOM     20  H51 UNL     1      50.124  42.811   2.222  1.00  0.00     0.174 HD
ENDBRANCH  12  18
BRANCH   4  21
HETATM   21  O1  UNL     1      50.570  46.340   9.402  1.00  0.00    -0.247 OA
BRANCH  21  22
HETATM   22  N2  UNL     1      51.917  46.412   9.343  1.00  0.00     0.074 NA
BRANCH  22  23
HETATM   23  O2  UNL     1      52.366  46.825   8.149  1.00  0.00    -0.265 OA
ATOM     24  H2  UNL     1      51.704  47.281   7.643  1.00  0.00     0.242 HD
ENDBRANCH  22  23
BRANCH  22  25
HETATM   25  O3  UNL     1      52.393  47.172  10.356  1.00  0.00    -0.265 OA
ATOM     26  H3  UNL     1      51.867  47.957  10.458  1.00  0.00     0.242 HD
ENDBRANCH  22  25
ENDBRANCH  21  22
ENDBRANCH   4  21
TORSDOF 5
ENDMDL
MODEL 3
REMARK VINA RESULT: -7.344293049      3.174      5.343
REMARK  5 active torsions:
REMARK  status: ('A' for Active; 'I' for Inactive)
REMARK    1  A    between atoms: C3_4  and  O1_5 
REMARK    2  A    between atoms: O1_5  and  N2_6 
REMARK    3  A    between atoms: N2_6  and  O2_7 
REMARK    4  A    between atoms: N2_6  and  O3_9 
REMARK    5  A    between atoms: C7_18  and  N5_19 
ROOT
HETATM    1  C1  UNL     1      47.429  45.468   6.362  1.00  0.00     0.151 C 
HETATM    2  N1  UNL     1      48.024  45.882   7.615  1.00  0.00    -0.367 N 
HETATM    3  C2  UNL     1      49.066  45.072   8.210  1.00  0.00     0.159 C 
HETATM    4  C3  UNL     1      50.129  46.016   8.730  1.00  0.00     0.186 C 
HETATM    5  C4  UNL     1      49.908  46.359  10.185  1.00  0.00     0.155 C 
HETATM    6  N3  UNL     1      48.749  47.238  10.348  1.00  0.00    -0.382 N 
ATOM      7  H3  UNL     1      48.582  47.574  11.296  1.00  0.00     0.160 HD
HETATM    8  C5  UNL     1      47.831  47.685   9.374  1.00  0.00     0.111 A 
HETATM    9  C6  UNL     1      47.504  47.089   8.157  1.00  0.00     0.148 A 
HETATM   10  N4  UNL     1      46.601  47.662   7.348  1.00  0.00    -0.175 N 
ATOM     11  H4  UNL     1      46.361  47.227   6.458  1.00  0.00     0.186 HD
HETATM   12  C7  UNL     1      46.015  48.811   7.716  1.00  0.00     0.678 A 
HETATM   13  N6  UNL     1      46.338  49.377   8.890  1.00  0.00    -0.180 N 
ATOM     14  H6  UNL     1      45.876  50.250   9.145  1.00  0.00     0.185 HD
HETATM   15  C8  UNL     1      47.229  48.865   9.749  1.00  0.00     0.159 A 
HETATM   16  C9  UNL     1      47.578  49.461  10.999  1.00  0.00     0.120 C 
HETATM   17  N7  UNL     1      47.846  49.957  12.011  1.00  0.00    -0.190 NA
ENDROOT
BRANCH  12  18
HETATM   18  N5  UNL     1      45.126  49.390   6.937  1.00  0.00    -0.234 N 
ATOM     19  H52 UNL     1      44.753  48.884   6.134  1.00  0.00     0.174 HD
ATOM     20  H51 UNL     1      44.808  50.340   7.128  1.00  0.00     0.174 HD
ENDBRANCH  12  18
BRANCH   4  21
HETATM   21  O1  UNL     1      51.350  45.394   8.606  1.00  0.00    -0.247 OA
BRANCH  21  22
HETATM   22  N2  UNL     1      52.217  46.073   7.825  1.00  0.00     0.074 NA
BRANCH  22  23
HETATM   23  O2  UNL     1      53.153  46.726   8.531  1.00  0.00    -0.265 OA
ATOM     24  H2  UNL     1      54.035  46.553   8.223  1.00  0.00     0.242 HD
ENDBRANCH  22  23
BRANCH  22  25
HETATM   25  O3  UNL     1      52.761  45.252   6.898  1.00  0.00    -0.265 OA
ATOM     26  H3  UNL     1      53.477  45.685   6.449  1.00  0.00     0.242 HD
ENDBRANCH  22  25
ENDBRANCH  21  22
ENDBRANCH   4  21
TORSDOF 5
ENDMDL
MODEL 4
REMARK VINA RESULT: -7.332061991      3.599      5.176
REMARK  5 active torsions:
REMARK  status: ('A' for Active; 'I' for Inactive)
REMARK    1  A    between atoms: C3_4  and  O1_5 
REMARK    2  A    between atoms: O1_5  and  N2_6 
REMARK    3  A    between atoms: N2_6  and  O2_7 
REMARK    4  A    between atoms: N2_6  and  O3_9 
REMARK    5  A    between atoms: C7_18  and  N5_19 
ROOT
HETATM    1  C1  UNL     1      47.635  47.011   9.094  1.00  0.00     0.151 C 
HETATM    2  N1  UNL     1      48.561  46.305   8.234  1.00  0.00    -0.367 N 
HETATM    3  C2  UNL     1      49.820  45.838   8.774  1.00  0.00     0.159 C 
HETATM    4  C3  UNL     1      50.058  44.448   8.226  1.00  0.00     0.186 C 
HETATM    5  C4  UNL     1      50.894  44.480   6.968  1.00  0.00     0.155 C 
HETATM    6  N3  UNL     1      50.131  45.021   5.843  1.00  0.00    -0.382 N 
ATOM      7  H3  UNL     1      50.606  45.003   4.940  1.00  0.00     0.160 HD
HETATM    8  C5  UNL     1      48.828  45.564   5.834  1.00  0.00     0.111 A 
HETATM    9  C6  UNL     1      48.123  46.135   6.892  1.00  0.00     0.148 A 
HETATM   10  N4  UNL     1      46.881  46.602   6.698  1.00  0.00    -0.175 N 
ATOM     11  H4  UNL     1      46.364  47.020   7.472  1.00  0.00     0.186 HD
HETATM   12  C7  UNL     1      46.321  46.516   5.483  1.00  0.00     0.678 A 
HETATM   13  N6  UNL     1      47.009  45.964   4.470  1.00  0.00    -0.180 N 
ATOM     14  H6  UNL     1      46.559  45.913   3.556  1.00  0.00     0.185 HD
HETATM   15  C8  UNL     1      48.251  45.476   4.587  1.00  0.00     0.159 A 
HETATM   16  C9  UNL     1      48.989  44.887   3.515  1.00  0.00     0.120 C 
HETATM   17  N7  UNL     1      49.574  44.415   2.634  1.00  0.00    -0.190 NA
ENDROOT
BRANCH  12  18
HETATM   18  N5  UNL     1      45.104  46.969   5.272  1.00  0.00    -0.234 N 
ATOM     19  H52 UNL     1      44.426  46.970   6.034  1.00  0.00     0.174 HD
ATOM     20  H51 UNL     1      44.830  47.317   4.353  1.00  0.00     0.174 HD
ENDBRANCH  12  18
BRANCH   4  21
HETATM   21  O1  UNL     1      50.729  43.721   9.182  1.00  0.00    -0.247 OA
BRANCH  21  22
HETATM   22  N2  UNL     1      52.072  43.814   9.078  1.00  0.00     0.074 NA
BRANCH  22  23
HETATM   23  O2  UNL     1      52.643  44.351  10.166  1.00  0.00    -0.265 OA
ATOM     24  H2  UNL     1      53.591  44.290  10.154  1.00  0.00     0.242 HD
ENDBRANCH  22  23
BRANCH  22  25
HETATM   25  O3  UNL     1      52.605  42.610   8.765  1.00  0.00    -0.265 OA
ATOM     26  H3  UNL     1      53.434  42.488   9.213  1.00  0.00     0.242 HD
ENDBRANCH  22  25
ENDBRANCH  21  22
ENDBRANCH   4  21
TORSDOF 5
ENDMDL
MODEL 5
REMARK VINA RESULT: -7.321071831      3.841      6.277
REMARK  5 active torsions:
REMARK  status: ('A' for Active; 'I' for Inactive)
REMARK    1  A    between atoms: C3_4  and  O1_5 
REMARK    2  A    between atoms: O1_5  and  N2_6 
REMARK    3  A    between atoms: N2_6  and  O2_7 
REMARK    4  A    between atoms: N2_6  and  O3_9 
REMARK    5  A    between atoms: C7_18  and  N5_19 
ROOT
HETATM    1  C1  UNL     1      46.116  46.559   5.197  1.00  0.00     0.151 C 
HETATM    2  N1  UNL     1      47.127  46.159   6.153  1.00  0.00    -0.367 N 
HETATM    3  C2  UNL     1      47.980  45.028   5.855  1.00  0.00     0.159 C 
HETATM    4  C3  UNL     1      49.385  45.399   6.276  1.00  0.00     0.186 C 
HETATM    5  C4  UNL     1      49.686  44.939   7.684  1.00  0.00     0.155 C 
HETATM    6  N3  UNL     1      48.955  45.740   8.666  1.00  0.00    -0.382 N 
ATOM      7  H3  UNL     1      49.166  45.538   9.643  1.00  0.00     0.160 HD
HETATM    8  C5  UNL     1      47.998  46.754   8.448  1.00  0.00     0.111 A 
HETATM    9  C6  UNL     1      47.182  46.948   7.333  1.00  0.00     0.148 A 
HETATM   10  N4  UNL     1      46.324  47.977   7.299  1.00  0.00    -0.175 N 
ATOM     11  H4  UNL     1      45.727  48.120   6.485  1.00  0.00     0.186 HD
HETATM   12  C7  UNL     1      46.253  48.819   8.341  1.00  0.00     0.678 A 
HETATM   13  N6  UNL     1      47.043  48.623   9.409  1.00  0.00    -0.180 N 
ATOM     14  H6  UNL     1      46.968  49.278  10.188  1.00  0.00     0.185 HD
HETATM   15  C8  UNL     1      47.924  47.620   9.516  1.00  0.00     0.159 A 
HETATM   16  C9  UNL     1      48.768  47.405  10.648  1.00  0.00     0.120 C 
HETATM   17  N7  UNL     1      49.442  47.245  11.576  1.00  0.00    -0.190 NA
ENDROOT
BRANCH  12  18
HETATM   18  N5  UNL     1      45.418  49.835   8.327  1.00  0.00    -0.234 N 
ATOM     19  H52 UNL     1      44.426  49.671   8.155  1.00  0.00     0.174 HD
ATOM     20  H51 UNL     1      45.752  50.785   8.486  1.00  0.00     0.174 HD
ENDBRANCH  12  18
BRANCH   4  21
HETATM   21  O1  UNL     1      50.265  44.785   5.415  1.00  0.00    -0.247 OA
BRANCH  21  22
HETATM   22  N2  UNL     1      49.664  44.233   4.340  1.00  0.00     0.074 NA
BRANCH  22  23
HETATM   23  O2  UNL     1      49.839  44.949   3.219  1.00  0.00    -0.265 OA
ATOM     24  H2  UNL     1      49.359  44.598   2.478  1.00  0.00     0.242 HD
ENDBRANCH  22  23
BRANCH  22  25
HETATM   25  O3  UNL     1      50.055  42.947   4.188  1.00  0.00    -0.265 OA
ATOM     26  H3  UNL     1      49.882  42.452   4.981  1.00  0.00     0.242 HD
ENDBRANCH  22  25
ENDBRANCH  21  22
ENDBRANCH   4  21
TORSDOF 5
ENDMDL
