MODEL 1
REMARK VINA RESULT: -7.486978252      0.000      0.000
REMARK  2 active torsions:
REMARK  status: ('A' for Active; 'I' for Inactive)
REMARK    1  A    between atoms: C3_3  and  C4_4 
REMARK    2  A    between atoms: C9_17  and  C10_18 
ROOT
HETATM    1  C1  UNL     1      50.302  46.731  10.305  1.00  0.00     0.052 C 
HETATM    2  C2  UNL     1      49.517  46.341   9.139  1.00  0.00    -0.000 C 
HETATM    3  C3  UNL     1      48.301  46.832   9.071  1.00  0.00     0.102 C 
HETATM    4  C5  UNL     1      47.369  46.610   7.932  1.00  0.00     0.228 C 
HETATM    5  O3  UNL     1      46.144  46.732   8.161  1.00  0.00    -0.284 OA
HETATM    6  C6  UNL     1      47.706  46.262   6.549  1.00  0.00     0.189 A 
HETATM    7  O4  UNL     1      46.900  46.362   5.520  1.00  0.00    -0.228 OA
HETATM    8  N1  UNL     1      47.488  45.978   4.431  1.00  0.00    -0.223 N 
ATOM      9  H1  UNL     1      47.056  45.967   3.507  1.00  0.00     0.198 HD
HETATM   10  C7  UNL     1      48.751  45.594   4.691  1.00  0.00     0.302 A 
HETATM   11  O5  UNL     1      49.634  45.161   3.896  1.00  0.00    -0.263 OA
HETATM   12  C8  UNL     1      48.900  45.775   6.059  1.00  0.00     0.185 A 
HETATM   13  O6  UNL     1      50.057  45.505   6.782  1.00  0.00    -0.294 OA
HETATM   14  C9  UNL     1      50.206  45.431   8.183  1.00  0.00     0.159 C 
ENDROOT
BRANCH   3  15
HETATM   15  C4  UNL     1      47.802  47.700  10.113  1.00  0.00     0.214 C 
HETATM   16  O1  UNL     1      46.863  47.132  10.973  1.00  0.00    -0.644 OA
HETATM   17  O2  UNL     1      47.501  49.000   9.764  1.00  0.00    -0.644 OA
ENDBRANCH   3  15
BRANCH  14  18
HETATM   18  C10 UNL     1      50.985  44.517   8.698  1.00  0.00     0.234 C 
HETATM   19  O7  UNL     1      50.692  43.676   9.738  1.00  0.00    -0.642 OA
HETATM   20  O8  UNL     1      52.264  44.364   8.142  1.00  0.00    -0.642 OA
ENDBRANCH  14  18
TORSDOF 2
ENDMDL
MODEL 2
REMARK VINA RESULT: -7.468372377      2.113      3.307
REMARK  2 active torsions:
REMARK  status: ('A' for Active; 'I' for Inactive)
REMARK    1  A    between atoms: C3_3  and  C4_4 
REMARK    2  A    between atoms: C9_17  and  C10_18 
ROOT
HETATM    1  C1  UNL     1      50.349  45.671   8.540  1.00  0.00     0.052 C 
HETATM    2  C2  UNL     1      48.990  46.196   8.489  1.00  0.00    -0.000 C 
HETATM    3  C3  UNL     1      48.609  46.917   9.519  1.00  0.00     0.102 C 
HETATM    4  C5  UNL     1      47.289  47.596   9.627  1.00  0.00     0.228 C 
HETATM    5  O3  UNL     1      46.871  47.859  10.777  1.00  0.00    -0.284 OA
HETATM    6  C6  UNL     1      46.398  48.006   8.538  1.00  0.00     0.189 A 
HETATM    7  O4  UNL     1      45.400  48.850   8.647  1.00  0.00    -0.228 OA
HETATM    8  N1  UNL     1      44.800  49.008   7.509  1.00  0.00    -0.223 N 
ATOM      9  H1  UNL     1      43.996  49.616   7.353  1.00  0.00     0.198 HD
HETATM   10  C7  UNL     1      45.388  48.255   6.561  1.00  0.00     0.302 A 
HETATM   11  O5  UNL     1      45.093  48.140   5.337  1.00  0.00    -0.263 OA
HETATM   12  C8  UNL     1      46.422  47.604   7.219  1.00  0.00     0.185 A 
HETATM   13  O6  UNL     1      47.309  46.710   6.629  1.00  0.00    -0.294 OA
HETATM   14  C9  UNL     1      48.214  45.838   7.270  1.00  0.00     0.159 C 
ENDROOT
BRANCH   3  15
HETATM   15  C4  UNL     1      49.511  47.149  10.624  1.00  0.00     0.214 C 
HETATM   16  O1  UNL     1      49.266  46.397  11.772  1.00  0.00    -0.644 OA
HETATM   17  O2  UNL     1      49.856  48.457  10.896  1.00  0.00    -0.644 OA
ENDBRANCH   3  15
BRANCH  14  18
HETATM   18  C10 UNL     1      48.397  44.637   6.788  1.00  0.00     0.234 C 
HETATM   19  O7  UNL     1      48.385  43.458   7.486  1.00  0.00    -0.642 OA
HETATM   20  O8  UNL     1      48.637  44.518   5.410  1.00  0.00    -0.642 OA
ENDBRANCH  14  18
TORSDOF 2
ENDMDL
MODEL 3
REMARK VINA RESULT: -7.328352165      1.301      4.147
REMARK  2 active torsions:
REMARK  status: ('A' for Active; 'I' for Inactive)
REMARK    1  A    between atoms: C3_3  and  C4_4 
REMARK    2  A    between atoms: C9_17  and  C10_18 
ROOT
HETATM    1  C1  UNL     1      49.572  46.595  11.555  1.00  0.00     0.052 C 
HETATM    2  C2  UNL     1      49.367  46.638  10.112  1.00  0.00    -0.000 C 
HETATM    3  C3  UNL     1      50.227  45.962   9.386  1.00  0.00     0.102 C 
HETATM    4  C5  UNL     1      50.151  45.824   7.906  1.00  0.00     0.228 C 
HETATM    5  O3  UNL     1      51.214  45.561   7.298  1.00  0.00    -0.284 OA
HETATM    6  C6  UNL     1      48.969  45.958   7.051  1.00  0.00     0.189 A 
HETATM    7  O4  UNL     1      48.877  45.548   5.808  1.00  0.00    -0.228 OA
HETATM    8  N1  UNL     1      47.705  45.809   5.319  1.00  0.00    -0.223 N 
ATOM      9  H1  UNL     1      47.405  45.582   4.371  1.00  0.00     0.198 HD
HETATM   10  C7  UNL     1      46.940  46.423   6.240  1.00  0.00     0.302 A 
HETATM   11  O5  UNL     1      45.747  46.832   6.143  1.00  0.00    -0.263 OA
HETATM   12  C8  UNL     1      47.750  46.523   7.362  1.00  0.00     0.185 A 
HETATM   13  O6  UNL     1      47.374  47.096   8.573  1.00  0.00    -0.294 OA
HETATM   14  C9  UNL     1      48.204  47.450   9.658  1.00  0.00     0.159 C 
ENDROOT
BRANCH   3  15
HETATM   15  C4  UNL     1      51.306  45.236  10.015  1.00  0.00     0.214 C 
HETATM   16  O1  UNL     1      52.567  45.825   9.920  1.00  0.00    -0.644 OA
HETATM   17  O2  UNL     1      51.333  43.867   9.845  1.00  0.00    -0.644 OA
ENDBRANCH   3  15
BRANCH  14  18
HETATM   18  C10 UNL     1      47.962  48.552  10.317  1.00  0.00     0.234 C 
HETATM   19  O7  UNL     1      48.839  49.575  10.560  1.00  0.00    -0.642 OA
HETATM   20  O8  UNL     1      46.673  48.726  10.844  1.00  0.00    -0.642 OA
ENDBRANCH  14  18
TORSDOF 2
ENDMDL
MODEL 4
REMARK VINA RESULT: -7.311022453      1.363      4.174
REMARK  2 active torsions:
REMARK  status: ('A' for Active; 'I' for Inactive)
REMARK    1  A    between atoms: C3_3  and  C4_4 
REMARK    2  A    between atoms: C9_17  and  C10_18 
ROOT
HETATM    1  C1  UNL     1      48.369  46.890  10.559  1.00  0.00     0.052 C 
HETATM    2  C2  UNL     1      48.206  46.904   9.110  1.00  0.00    -0.000 C 
HETATM    3  C3  UNL     1      49.053  46.171   8.426  1.00  0.00     0.102 C 
HETATM    4  C5  UNL     1      49.011  45.998   6.948  1.00  0.00     0.228 C 
HETATM    5  O3  UNL     1      50.077  45.671   6.378  1.00  0.00    -0.284 OA
HETATM    6  C6  UNL     1      47.860  46.162   6.056  1.00  0.00     0.189 A 
HETATM    7  O4  UNL     1      47.783  45.724   4.822  1.00  0.00    -0.228 OA
HETATM    8  N1  UNL     1      46.638  46.026   4.294  1.00  0.00    -0.223 N 
ATOM      9  H1  UNL     1      46.355  45.788   3.344  1.00  0.00     0.198 HD
HETATM   10  C7  UNL     1      45.878  46.698   5.177  1.00  0.00     0.302 A 
HETATM   11  O5  UNL     1      44.708  47.157   5.035  1.00  0.00    -0.263 OA
HETATM   12  C8  UNL     1      46.661  46.790   6.319  1.00  0.00     0.185 A 
HETATM   13  O6  UNL     1      46.279  47.411   7.504  1.00  0.00    -0.294 OA
HETATM   14  C9  UNL     1      47.094  47.755   8.602  1.00  0.00     0.159 C 
ENDROOT
BRANCH   3  15
HETATM   15  C4  UNL     1      50.080  45.413   9.103  1.00  0.00     0.214 C 
HETATM   16  O1  UNL     1      51.340  46.009   9.148  1.00  0.00    -0.644 OA
HETATM   17  O2  UNL     1      50.131  44.056   8.861  1.00  0.00    -0.644 OA
ENDBRANCH   3  15
BRANCH  14  18
HETATM   18  C10 UNL     1      46.885  48.884   9.227  1.00  0.00     0.234 C 
HETATM   19  O7  UNL     1      47.714  49.489  10.135  1.00  0.00    -0.642 OA
HETATM   20  O8  UNL     1      45.690  49.567   8.956  1.00  0.00    -0.642 OA
ENDBRANCH  14  18
TORSDOF 2
ENDMDL
MODEL 5
REMARK VINA RESULT: -7.235309638      1.392      1.878
REMARK  2 active torsions:
REMARK  status: ('A' for Active; 'I' for Inactive)
REMARK    1  A    between atoms: C3_3  and  C4_4 
REMARK    2  A    between atoms: C9_17  and  C10_18 
ROOT
HETATM    1  C1  UNL     1      51.953  46.619   9.862  1.00  0.00     0.052 C 
HETATM    2  C2  UNL     1      50.620  46.376   9.322  1.00  0.00    -0.000 C 
HETATM    3  C3  UNL     1      49.624  46.940   9.966  1.00  0.00     0.102 C 
HETATM    4  C5  UNL     1      48.201  46.870   9.538  1.00  0.00     0.228 C 
HETATM    5  O3  UNL     1      47.327  47.041  10.418  1.00  0.00    -0.284 OA
HETATM    6  C6  UNL     1      47.678  46.624   8.191  1.00  0.00     0.189 A 
HETATM    7  O4  UNL     1      46.450  46.857   7.795  1.00  0.00    -0.228 OA
HETATM    8  N1  UNL     1      46.295  46.535   6.549  1.00  0.00    -0.223 N 
ATOM      9  H1  UNL     1      45.424  46.628   6.027  1.00  0.00     0.198 HD
HETATM   10  C7  UNL     1      47.447  46.059   6.042  1.00  0.00     0.302 A 
HETATM   11  O5  UNL     1      47.694  45.646   4.872  1.00  0.00    -0.263 OA
HETATM   12  C8  UNL     1      48.346  46.114   7.098  1.00  0.00     0.185 A 
HETATM   13  O6  UNL     1      49.678  45.717   7.036  1.00  0.00    -0.294 OA
HETATM   14  C9  UNL     1      50.571  45.514   8.109  1.00  0.00     0.159 C 
ENDROOT
BRANCH   3  15
HETATM   15  C4  UNL     1      49.872  47.742  11.142  1.00  0.00     0.214 C 
HETATM   16  O1  UNL     1      49.949  47.042  12.346  1.00  0.00    -0.644 OA
HETATM   17  O2  UNL     1      49.188  48.935  11.251  1.00  0.00    -0.644 OA
ENDBRANCH   3  15
BRANCH  14  18
HETATM   18  C10 UNL     1      51.414  44.516   8.062  1.00  0.00     0.234 C 
HETATM   19  O7  UNL     1      51.511  43.478   8.951  1.00  0.00    -0.642 OA
HETATM   20  O8  UNL     1      52.328  44.485   6.998  1.00  0.00    -0.642 OA
ENDBRANCH  14  18
TORSDOF 2
ENDMDL
