MODEL 1
REMARK VINA RESULT: -7.543433893      0.000      0.000
REMARK  5 active torsions:
REMARK  status: ('A' for Active; 'I' for Inactive)
REMARK    1  A    between atoms: C3_7  and  C4_8 
REMARK    2  A    between atoms: C4_8  and  C5_9 
REMARK    3  A    between atoms: C5_9  and  N2_10 
REMARK    4  A    between atoms: N2_10  and  N3_12 
REMARK    5  A    between atoms: N5_19  and  O4_20 
ROOT
HETATM    1  N2  UNL     1      47.472  45.952   7.091  1.00  0.00    -0.286 N 
ATOM      2  H2  UNL     1      46.965  45.167   7.499  1.00  0.00     0.188 HD
ENDROOT
BRANCH   1   3
HETATM    3  C5  UNL     1      47.178  47.113   7.518  1.00  0.00     0.112 C 
BRANCH   3   4
HETATM    4  C4  UNL     1      46.577  47.363   8.823  1.00  0.00     0.054 C 
BRANCH   4   5
HETATM    5  C3  UNL     1      46.787  48.484   9.495  1.00  0.00     0.106 A 
HETATM    6  C2  UNL     1      46.275  49.801   9.241  1.00  0.00     0.276 A 
HETATM    7  N1  UNL     1      46.799  50.671  10.257  1.00  0.00    -0.274 N 
HETATM    8  O2  UNL     1      45.507  50.126   8.299  1.00  0.00    -0.266 OA
HETATM    9  C1  UNL     1      47.627  49.925  11.139  1.00  0.00     0.327 A 
ATOM     10  H1  UNL     1      46.606  51.670  10.334  1.00  0.00     0.173 HD
HETATM   11  O1  UNL     1      48.250  50.378  12.148  1.00  0.00    -0.247 OA
HETATM   12  N6  UNL     1      47.618  48.579  10.666  1.00  0.00    -0.304 N 
ATOM     13  H6  UNL     1      48.122  47.802  11.094  1.00  0.00     0.171 HD
ENDBRANCH   4   5
ENDBRANCH   3   4
ENDBRANCH   1   3
BRANCH   1  14
HETATM   14  N3  UNL     1      48.412  45.658   6.127  1.00  0.00    -0.137 N 
HETATM   15  C6  UNL     1      49.715  45.443   6.334  1.00  0.00     0.220 A 
HETATM   16  S1  UNL     1      50.547  45.465   7.753  1.00  0.00    -0.037 SA
HETATM   17  N4  UNL     1      50.317  45.182   5.148  1.00  0.00    -0.279 N 
HETATM   18  C7  UNL     1      49.346  45.245   4.202  1.00  0.00     0.370 A 
ATOM     19  H4  UNL     1      51.305  44.980   4.996  1.00  0.00     0.173 HD
HETATM   20  O3  UNL     1      49.476  45.067   2.959  1.00  0.00    -0.243 OA
HETATM   21  N5  UNL     1      48.176  45.542   4.840  1.00  0.00    -0.082 N 
BRANCH  21  22
HETATM   22  O4  UNL     1      46.977  45.677   4.151  1.00  0.00    -0.262 OA
ATOM     23  H4  UNL     1      46.705  46.358   3.546  1.00  0.00     0.247 HD
ENDBRANCH  21  22
ENDBRANCH   1  14
TORSDOF 5
ENDMDL
MODEL 2
REMARK VINA RESULT: -7.510696730      4.292      7.064
REMARK  5 active torsions:
REMARK  status: ('A' for Active; 'I' for Inactive)
REMARK    1  A    between atoms: C3_7  and  C4_8 
REMARK    2  A    between atoms: C4_8  and  C5_9 
REMARK    3  A    between atoms: C5_9  and  N2_10 
REMARK    4  A    between atoms: N2_10  and  N3_12 
REMARK    5  A    between atoms: N5_19  and  O4_20 
ROOT
HETATM    1  N2  UNL     1      48.160  47.471  11.224  1.00  0.00    -0.286 N 
ATOM      2  H2  UNL     1      47.511  46.801  11.635  1.00  0.00     0.188 HD
ENDROOT
BRANCH   1   3
HETATM    3  C5  UNL     1      49.393  47.159  11.231  1.00  0.00     0.112 C 
BRANCH   3   4
HETATM    4  C4  UNL     1      50.071  46.530  10.104  1.00  0.00     0.054 C 
BRANCH   4   5
HETATM    5  C3  UNL     1      51.326  46.116  10.176  1.00  0.00     0.106 A 
HETATM    6  C2  UNL     1      51.854  44.793   9.993  1.00  0.00     0.276 A 
HETATM    7  N1  UNL     1      53.276  44.868  10.176  1.00  0.00    -0.274 N 
HETATM    8  O2  UNL     1      51.186  43.763   9.721  1.00  0.00    -0.266 OA
HETATM    9  C1  UNL     1      53.647  46.208  10.470  1.00  0.00     0.327 A 
ATOM     10  H1  UNL     1      53.921  44.081  10.107  1.00  0.00     0.173 HD
HETATM   11  O1  UNL     1      54.824  46.632  10.689  1.00  0.00    -0.247 OA
HETATM   12  N6  UNL     1      52.443  46.974  10.469  1.00  0.00    -0.304 N 
ATOM     13  H6  UNL     1      52.383  47.977  10.648  1.00  0.00     0.171 HD
ENDBRANCH   4   5
ENDBRANCH   3   4
ENDBRANCH   1   3
BRANCH   1  14
HETATM   14  N3  UNL     1      47.621  48.632  10.712  1.00  0.00    -0.137 N 
HETATM   15  C6  UNL     1      46.827  48.730   9.642  1.00  0.00     0.220 A 
HETATM   16  S1  UNL     1      46.281  47.531   8.656  1.00  0.00    -0.037 SA
HETATM   17  N4  UNL     1      46.499  50.031   9.448  1.00  0.00    -0.279 N 
HETATM   18  C7  UNL     1      47.116  50.734  10.432  1.00  0.00     0.370 A 
ATOM     19  H4  UNL     1      45.906  50.407   8.708  1.00  0.00     0.173 HD
HETATM   20  O3  UNL     1      47.076  51.981  10.622  1.00  0.00    -0.243 OA
HETATM   21  N5  UNL     1      47.804  49.839  11.200  1.00  0.00    -0.082 N 
BRANCH  21  22
HETATM   22  O4  UNL     1      48.549  50.237  12.303  1.00  0.00    -0.262 OA
ATOM     23  H4  UNL     1      48.961  49.705  12.974  1.00  0.00     0.247 HD
ENDBRANCH  21  22
ENDBRANCH   1  14
TORSDOF 5
ENDMDL
MODEL 3
REMARK VINA RESULT: -7.397498269      1.129      1.565
REMARK  5 active torsions:
REMARK  status: ('A' for Active; 'I' for Inactive)
REMARK    1  A    between atoms: C3_7  and  C4_8 
REMARK    2  A    between atoms: C4_8  and  C5_9 
REMARK    3  A    between atoms: C5_9  and  N2_10 
REMARK    4  A    between atoms: N2_10  and  N3_12 
REMARK    5  A    between atoms: N5_19  and  O4_20 
ROOT
HETATM    1  N2  UNL     1      47.409  46.038   7.072  1.00  0.00    -0.286 N 
ATOM      2  H2  UNL     1      46.986  45.260   7.576  1.00  0.00     0.188 HD
ENDROOT
BRANCH   1   3
HETATM    3  C5  UNL     1      47.009  47.207   7.372  1.00  0.00     0.112 C 
BRANCH   3   4
HETATM    4  C4  UNL     1      46.402  47.546   8.654  1.00  0.00     0.054 C 
BRANCH   4   5
HETATM    5  C3  UNL     1      46.948  48.418   9.486  1.00  0.00     0.106 A 
HETATM    6  C2  UNL     1      47.988  48.216  10.455  1.00  0.00     0.276 A 
HETATM    7  N1  UNL     1      48.223  49.474  11.105  1.00  0.00    -0.274 N 
HETATM    8  O2  UNL     1      48.581  47.131  10.685  1.00  0.00    -0.266 OA
HETATM    9  C1  UNL     1      47.352  50.458  10.563  1.00  0.00     0.327 A 
ATOM     10  H1  UNL     1      48.909  49.638  11.842  1.00  0.00     0.173 HD
HETATM   11  O1  UNL     1      47.290  51.678  10.906  1.00  0.00    -0.247 OA
HETATM   12  N6  UNL     1      46.568  49.804   9.566  1.00  0.00    -0.304 N 
ATOM     13  H6  UNL     1      45.848  50.250   8.997  1.00  0.00     0.171 HD
ENDBRANCH   4   5
ENDBRANCH   3   4
ENDBRANCH   1   3
BRANCH   1  14
HETATM   14  N3  UNL     1      48.363  45.726   6.126  1.00  0.00    -0.137 N 
HETATM   15  C6  UNL     1      49.661  45.508   6.356  1.00  0.00     0.220 A 
HETATM   16  S1  UNL     1      50.472  45.549   7.787  1.00  0.00    -0.037 SA
HETATM   17  N4  UNL     1      50.281  45.229   5.183  1.00  0.00    -0.279 N 
HETATM   18  C7  UNL     1      49.324  45.281   4.221  1.00  0.00     0.370 A 
ATOM     19  H4  UNL     1      51.270  45.020   5.050  1.00  0.00     0.173 HD
HETATM   20  O3  UNL     1      49.472  45.085   2.983  1.00  0.00    -0.243 OA
HETATM   21  N5  UNL     1      48.146  45.592   4.837  1.00  0.00    -0.082 N 
BRANCH  21  22
HETATM   22  O4  UNL     1      46.958  45.722   4.129  1.00  0.00    -0.262 OA
ATOM     23  H4  UNL     1      46.735  45.396   3.264  1.00  0.00     0.247 HD
ENDBRANCH  21  22
ENDBRANCH   1  14
TORSDOF 5
ENDMDL
MODEL 4
REMARK VINA RESULT: -7.397242227      2.147      6.777
REMARK  5 active torsions:
REMARK  status: ('A' for Active; 'I' for Inactive)
REMARK    1  A    between atoms: C3_7  and  C4_8 
REMARK    2  A    between atoms: C4_8  and  C5_9 
REMARK    3  A    between atoms: C5_9  and  N2_10 
REMARK    4  A    between atoms: N2_10  and  N3_12 
REMARK    5  A    between atoms: N5_19  and  O4_20 
ROOT
HETATM    1  N2  UNL     1      47.403  47.005   8.995  1.00  0.00    -0.286 N 
ATOM      2  H2  UNL     1      46.524  46.502   8.877  1.00  0.00     0.188 HD
ENDROOT
BRANCH   1   3
HETATM    3  C5  UNL     1      48.448  46.461   8.517  1.00  0.00     0.112 C 
BRANCH   3   4
HETATM    4  C4  UNL     1      48.420  45.309   7.624  1.00  0.00     0.054 C 
BRANCH   4   5
HETATM    5  C3  UNL     1      48.325  45.436   6.309  1.00  0.00     0.106 A 
HETATM    6  C2  UNL     1      47.274  46.031   5.532  1.00  0.00     0.276 A 
HETATM    7  N1  UNL     1      47.644  45.918   4.149  1.00  0.00    -0.274 N 
HETATM    8  O2  UNL     1      46.225  46.554   5.987  1.00  0.00    -0.266 OA
HETATM    9  C1  UNL     1      48.902  45.266   4.047  1.00  0.00     0.327 A 
ATOM     10  H1  UNL     1      47.089  46.255   3.362  1.00  0.00     0.173 HD
HETATM   11  O1  UNL     1      49.526  45.002   2.973  1.00  0.00    -0.247 OA
HETATM   12  N6  UNL     1      49.318  44.970   5.379  1.00  0.00    -0.304 N 
ATOM     13  H6  UNL     1      50.188  44.500   5.634  1.00  0.00     0.171 HD
ENDBRANCH   4   5
ENDBRANCH   3   4
ENDBRANCH   1   3
BRANCH   1  14
HETATM   14  N3  UNL     1      47.350  48.213   9.658  1.00  0.00    -0.137 N 
HETATM   15  C6  UNL     1      46.606  49.269   9.316  1.00  0.00     0.220 A 
HETATM   16  S1  UNL     1      45.573  49.430   8.046  1.00  0.00    -0.037 SA
HETATM   17  N4  UNL     1      46.818  50.269  10.206  1.00  0.00    -0.279 N 
HETATM   18  C7  UNL     1      47.717  49.797  11.108  1.00  0.00     0.370 A 
ATOM     19  H4  UNL     1      46.387  51.194  10.200  1.00  0.00     0.173 HD
HETATM   20  O3  UNL     1      48.191  50.407  12.106  1.00  0.00    -0.243 OA
HETATM   21  N5  UNL     1      48.027  48.520  10.741  1.00  0.00    -0.082 N 
BRANCH  21  22
HETATM   22  O4  UNL     1      48.927  47.746  11.463  1.00  0.00    -0.262 OA
ATOM     23  H4  UNL     1      49.425  47.972  12.241  1.00  0.00     0.247 HD
ENDBRANCH  21  22
ENDBRANCH   1  14
TORSDOF 5
ENDMDL
MODEL 5
REMARK VINA RESULT: -7.345604699      1.806      6.715
REMARK  5 active torsions:
REMARK  status: ('A' for Active; 'I' for Inactive)
REMARK    1  A    between atoms: C3_7  and  C4_8 
REMARK    2  A    between atoms: C4_8  and  C5_9 
REMARK    3  A    between atoms: C5_9  and  N2_10 
REMARK    4  A    between atoms: N2_10  and  N3_12 
REMARK    5  A    between atoms: N5_19  and  O4_20 
ROOT
HETATM    1  N2  UNL     1      46.850  47.443   8.885  1.00  0.00    -0.286 N 
ATOM      2  H2  UNL     1      46.228  46.753   9.305  1.00  0.00     0.188 HD
ENDROOT
BRANCH   1   3
HETATM    3  C5  UNL     1      47.163  47.269   7.665  1.00  0.00     0.112 C 
BRANCH   3   4
HETATM    4  C4  UNL     1      47.339  45.956   7.057  1.00  0.00     0.054 C 
BRANCH   4   5
HETATM    5  C3  UNL     1      48.301  45.704   6.184  1.00  0.00     0.106 A 
HETATM    6  C2  UNL     1      49.719  45.625   6.398  1.00  0.00     0.276 A 
HETATM    7  N1  UNL     1      50.330  45.328   5.133  1.00  0.00    -0.274 N 
HETATM    8  O2  UNL     1      50.310  45.787   7.496  1.00  0.00    -0.266 OA
HETATM    9  C1  UNL     1      49.325  45.220   4.134  1.00  0.00     0.327 A 
ATOM     10  H1  UNL     1      51.331  45.212   4.975  1.00  0.00     0.173 HD
HETATM   11  O1  UNL     1      49.512  44.966   2.905  1.00  0.00    -0.247 OA
HETATM   12  N6  UNL     1      48.076  45.452   4.785  1.00  0.00    -0.304 N 
ATOM     13  H6  UNL     1      47.164  45.441   4.329  1.00  0.00     0.171 HD
ENDBRANCH   4   5
ENDBRANCH   3   4
ENDBRANCH   1   3
BRANCH   1  14
HETATM   14  N3  UNL     1      47.275  48.477   9.692  1.00  0.00    -0.137 N 
HETATM   15  C6  UNL     1      48.240  48.413  10.614  1.00  0.00     0.220 A 
HETATM   16  S1  UNL     1      49.170  47.125  11.041  1.00  0.00    -0.037 SA
HETATM   17  N4  UNL     1      48.374  49.628  11.202  1.00  0.00    -0.279 N 
HETATM   18  C7  UNL     1      47.460  50.442  10.614  1.00  0.00     0.370 A 
ATOM     19  H4  UNL     1      49.031  49.879  11.941  1.00  0.00     0.173 HD
HETATM   20  O3  UNL     1      47.248  51.661  10.866  1.00  0.00    -0.243 OA
HETATM   21  N5  UNL     1      46.795  49.700   9.682  1.00  0.00    -0.082 N 
BRANCH  21  22
HETATM   22  O4  UNL     1      45.785  50.241   8.896  1.00  0.00    -0.262 OA
ATOM     23  H4  UNL     1      44.927  50.558   9.154  1.00  0.00     0.247 HD
ENDBRANCH  21  22
ENDBRANCH   1  14
TORSDOF 5
ENDMDL
