MODEL 1
REMARK VINA RESULT: -8.552200190      0.000      0.000
REMARK  3 active torsions:
REMARK  status: ('A' for Active; 'I' for Inactive)
REMARK    1  A    between atoms: N1_2  and  C2_4 
REMARK    2  A    between atoms: C7_12  and  C8_13 
REMARK    3  A    between atoms: C9_16  and  N4_17 
ROOT
HETATM    1  C8  UNL     1      64.647  33.515  11.475  1.00  0.00     0.151 A 
HETATM    2  N3  UNL     1      63.446  34.007  11.037  1.00  0.00    -0.172 N 
ATOM      3  H3  UNL     1      63.012  33.770  10.145  1.00  0.00     0.186 HD
HETATM    4  C9  UNL     1      62.919  34.845  11.946  1.00  0.00     0.706 A 
HETATM    5  N8  UNL     1      63.801  34.877  12.959  1.00  0.00    -0.126 N 
HETATM    6  C16 UNL     1      63.654  35.659  14.179  1.00  0.00     0.197 C 
HETATM    7  N9  UNL     1      64.820  34.085  12.669  1.00  0.00    -0.268 N 
ATOM      8  H9  UNL     1      65.627  33.932  13.274  1.00  0.00     0.189 HD
ENDROOT
BRANCH   4   9
HETATM    9  N4  UNL     1      61.670  35.533  11.798  1.00  0.00    -0.127 N 
HETATM   10  C10 UNL     1      61.578  36.947  11.528  1.00  0.00     0.224 C 
HETATM   11  C11 UNL     1      60.203  37.239  10.971  1.00  0.00     0.318 C 
HETATM   12  C12 UNL     1      59.207  36.872  12.076  1.00  0.00     0.196 C 
HETATM   13  N6  UNL     1      59.986  36.362   9.862  1.00  0.00    -0.035 N 
HETATM   14  N7  UNL     1      60.050  38.596  10.555  1.00  0.00    -0.035 N 
HETATM   15  N5  UNL     1      59.208  35.429  12.122  1.00  0.00    -0.338 N 
HETATM   16  C13 UNL     1      60.450  34.767  11.933  1.00  0.00     0.337 C 
ATOM     17  H5  UNL     1      58.349  34.905  12.284  1.00  0.00     0.164 HD
HETATM   18  O1  UNL     1      60.550  33.518  11.876  1.00  0.00    -0.246 OA
HETATM   19  C14 UNL     1      60.457  37.121   8.736  1.00  0.00     0.263 C 
ATOM     20  H62 UNL     1      60.416  35.442   9.960  1.00  0.00     0.280 HD
ATOM     21  H61 UNL     1      59.028  36.025   9.772  1.00  0.00     0.280 HD
HETATM   22  C15 UNL     1      60.394  38.570   9.151  1.00  0.00     0.263 C 
ATOM     23  H72 UNL     1      59.133  38.996  10.756  1.00  0.00     0.280 HD
ATOM     24  H71 UNL     1      60.585  39.268  11.106  1.00  0.00     0.280 HD
ENDBRANCH   4   9
BRANCH   1  25
HETATM   25  C7  UNL     1      65.419  32.610  10.676  1.00  0.00     0.075 A 
HETATM   26  C2  UNL     1      66.323  33.000   9.751  1.00  0.00     0.046 A 
HETATM   27  C3  UNL     1      67.056  32.006   9.039  1.00  0.00     0.054 A 
HETATM   28  C4  UNL     1      66.822  30.695   9.312  1.00  0.00     0.008 A 
HETATM   29  C5  UNL     1      67.579  29.612   8.582  1.00  0.00     0.068 C 
HETATM   30  N2  UNL     1      65.925  30.306  10.228  1.00  0.00    -0.350 N 
HETATM   31  C6  UNL     1      65.243  31.245  10.892  1.00  0.00     0.120 A 
ATOM     32  H2  UNL     1      65.766  29.316  10.415  1.00  0.00     0.166 HD
HETATM   33 CL1  UNL     1      64.085  30.720  12.078  1.00  0.00    -0.063 Cl
BRANCH  26  34
HETATM   34  N1  UNL     1      66.588  34.162   9.431  1.00  0.00    -0.393 N 
HETATM   35  C1  UNL     1      66.064  35.160   8.626  1.00  0.00     0.146 C 
ATOM     36  H1  UNL     1      67.441  34.479   9.892  1.00  0.00     0.159 HD
ENDBRANCH  26  34
ENDBRANCH   1  25
TORSDOF 3
ENDMDL
MODEL 2
REMARK VINA RESULT: -8.333860331      1.287      2.312
REMARK  3 active torsions:
REMARK  status: ('A' for Active; 'I' for Inactive)
REMARK    1  A    between atoms: N1_2  and  C2_4 
REMARK    2  A    between atoms: C7_12  and  C8_13 
REMARK    3  A    between atoms: C9_16  and  N4_17 
ROOT
HETATM    1  C8  UNL     1      64.741  33.322  11.434  1.00  0.00     0.151 A 
HETATM    2  N3  UNL     1      63.527  33.785  10.997  1.00  0.00    -0.172 N 
ATOM      3  H3  UNL     1      63.087  33.519  10.116  1.00  0.00     0.186 HD
HETATM    4  C9  UNL     1      62.999  34.640  11.889  1.00  0.00     0.706 A 
HETATM    5  N8  UNL     1      63.892  34.711  12.891  1.00  0.00    -0.126 N 
HETATM    6  C16 UNL     1      63.748  35.523  14.091  1.00  0.00     0.197 C 
HETATM    7  N9  UNL     1      64.918  33.926  12.610  1.00  0.00    -0.268 N 
ATOM      8  H9  UNL     1      65.735  33.800  13.210  1.00  0.00     0.189 HD
ENDROOT
BRANCH   4   9
HETATM    9  N4  UNL     1      61.738  35.306  11.739  1.00  0.00    -0.127 N 
HETATM   10  C10 UNL     1      60.514  34.810  12.318  1.00  0.00     0.224 C 
HETATM   11  C11 UNL     1      59.520  35.947  12.381  1.00  0.00     0.318 C 
HETATM   12  C12 UNL     1      59.257  36.369  10.932  1.00  0.00     0.196 C 
HETATM   13  N6  UNL     1      60.149  37.040  13.059  1.00  0.00    -0.035 N 
HETATM   14  N7  UNL     1      58.311  35.592  13.053  1.00  0.00    -0.035 N 
HETATM   15  N5  UNL     1      60.460  37.047  10.512  1.00  0.00    -0.338 N 
HETATM   16  C13 UNL     1      61.701  36.528  10.965  1.00  0.00     0.337 C 
ATOM     17  H5  UNL     1      60.419  37.871   9.911  1.00  0.00     0.164 HD
HETATM   18  O1  UNL     1      62.798  37.086  10.724  1.00  0.00    -0.246 OA
HETATM   19  C14 UNL     1      59.796  36.831  14.435  1.00  0.00     0.263 C 
ATOM     20  H62 UNL     1      61.152  37.121  12.887  1.00  0.00     0.280 HD
ATOM     21  H61 UNL     1      59.903  37.960  12.694  1.00  0.00     0.280 HD
HETATM   22  C15 UNL     1      58.546  35.986  14.424  1.00  0.00     0.263 C 
ATOM     23  H72 UNL     1      57.468  35.991  12.639  1.00  0.00     0.280 HD
ATOM     24  H71 UNL     1      58.037  34.616  12.937  1.00  0.00     0.280 HD
ENDBRANCH   4   9
BRANCH   1  25
HETATM   25  C7  UNL     1      65.516  32.407  10.650  1.00  0.00     0.075 A 
HETATM   26  C2  UNL     1      66.418  32.786   9.718  1.00  0.00     0.046 A 
HETATM   27  C3  UNL     1      67.155  31.782   9.023  1.00  0.00     0.054 A 
HETATM   28  C4  UNL     1      66.927  30.475   9.318  1.00  0.00     0.008 A 
HETATM   29  C5  UNL     1      67.688  29.383   8.606  1.00  0.00     0.068 C 
HETATM   30  N2  UNL     1      66.032  30.098  10.241  1.00  0.00    -0.350 N 
HETATM   31  C6  UNL     1      65.346  31.045  10.889  1.00  0.00     0.120 A 
ATOM     32  H2  UNL     1      65.877  29.111  10.445  1.00  0.00     0.166 HD
HETATM   33 CL1  UNL     1      64.190  30.535  12.084  1.00  0.00    -0.063 Cl
BRANCH  26  34
HETATM   34  N1  UNL     1      66.678  33.942   9.378  1.00  0.00    -0.393 N 
HETATM   35  C1  UNL     1      66.100  34.959   8.637  1.00  0.00     0.146 C 
ATOM     36  H1  UNL     1      67.581  34.235   9.752  1.00  0.00     0.159 HD
ENDBRANCH  26  34
ENDBRANCH   1  25
TORSDOF 3
ENDMDL
MODEL 3
REMARK VINA RESULT: -8.266284047      3.136      4.281
REMARK  3 active torsions:
REMARK  status: ('A' for Active; 'I' for Inactive)
REMARK    1  A    between atoms: N1_2  and  C2_4 
REMARK    2  A    between atoms: C7_12  and  C8_13 
REMARK    3  A    between atoms: C9_16  and  N4_17 
ROOT
HETATM    1  C8  UNL     1      64.431  32.256  13.384  1.00  0.00     0.151 A 
HETATM    2  N3  UNL     1      63.123  32.444  13.746  1.00  0.00    -0.172 N 
ATOM      3  H3  UNL     1      62.469  31.694  13.972  1.00  0.00     0.186 HD
HETATM    4  C9  UNL     1      62.821  33.753  13.763  1.00  0.00     0.706 A 
HETATM    5  N8  UNL     1      63.951  34.387  13.407  1.00  0.00    -0.126 N 
HETATM    6  C16 UNL     1      64.104  35.830  13.285  1.00  0.00     0.197 C 
HETATM    7  N9  UNL     1      64.897  33.490  13.185  1.00  0.00    -0.268 N 
ATOM      8  H9  UNL     1      65.852  33.711  12.901  1.00  0.00     0.189 HD
ENDROOT
BRANCH   4   9
HETATM    9  N4  UNL     1      61.536  34.293  14.099  1.00  0.00    -0.127 N 
HETATM   10  C10 UNL     1      61.277  34.996  15.332  1.00  0.00     0.224 C 
HETATM   11  C11 UNL     1      60.020  35.818  15.159  1.00  0.00     0.318 C 
HETATM   12  C12 UNL     1      58.887  34.820  14.900  1.00  0.00     0.196 C 
HETATM   13  N6  UNL     1      60.184  36.624  13.988  1.00  0.00    -0.035 N 
HETATM   14  N7  UNL     1      59.741  36.649  16.286  1.00  0.00    -0.035 N 
HETATM   15  N5  UNL     1      59.111  34.333  13.559  1.00  0.00    -0.338 N 
HETATM   16  C13 UNL     1      60.454  34.118  13.154  1.00  0.00     0.337 C 
ATOM     17  H5  UNL     1      58.332  34.151  12.926  1.00  0.00     0.164 HD
HETATM   18  O1  UNL     1      60.763  33.773  11.988  1.00  0.00    -0.246 OA
HETATM   19  C14 UNL     1      60.751  37.843  14.496  1.00  0.00     0.263 C 
ATOM     20  H62 UNL     1      60.725  36.184  13.245  1.00  0.00     0.280 HD
ATOM     21  H61 UNL     1      59.333  36.751  13.441  1.00  0.00     0.280 HD
HETATM   22  C15 UNL     1      60.371  37.908  15.954  1.00  0.00     0.263 C 
ATOM     23  H72 UNL     1      58.750  36.723  16.518  1.00  0.00     0.280 HD
ATOM     24  H71 UNL     1      60.033  36.256  17.181  1.00  0.00     0.280 HD
ENDBRANCH   4   9
BRANCH   1  25
HETATM   25  C7  UNL     1      64.994  30.943  13.276  1.00  0.00     0.075 A 
HETATM   26  C2  UNL     1      65.219  30.127  14.329  1.00  0.00     0.046 A 
HETATM   27  C3  UNL     1      65.755  28.827  14.093  1.00  0.00     0.054 A 
HETATM   28  C4  UNL     1      66.022  28.447  12.816  1.00  0.00     0.008 A 
HETATM   29  C5  UNL     1      66.587  27.078  12.524  1.00  0.00     0.068 C 
HETATM   30  N2  UNL     1      65.800  29.255  11.770  1.00  0.00    -0.350 N 
HETATM   31  C6  UNL     1      65.298  30.472  12.000  1.00  0.00     0.120 A 
ATOM     32  H2  UNL     1      66.011  28.949  10.820  1.00  0.00     0.166 HD
HETATM   33 CL1  UNL     1      65.016  31.506  10.630  1.00  0.00    -0.063 Cl
BRANCH  26  34
HETATM   34  N1  UNL     1      65.020  30.393  15.517  1.00  0.00    -0.393 N 
HETATM   35  C1  UNL     1      64.404  29.820  16.618  1.00  0.00     0.146 C 
ATOM     36  H1  UNL     1      65.426  31.297  15.759  1.00  0.00     0.159 HD
ENDBRANCH  26  34
ENDBRANCH   1  25
TORSDOF 3
ENDMDL
MODEL 4
REMARK VINA RESULT: -8.173815565      1.336      2.197
REMARK  3 active torsions:
REMARK  status: ('A' for Active; 'I' for Inactive)
REMARK    1  A    between atoms: N1_2  and  C2_4 
REMARK    2  A    between atoms: C7_12  and  C8_13 
REMARK    3  A    between atoms: C9_16  and  N4_17 
ROOT
HETATM    1  C8  UNL     1      64.157  33.449  11.768  1.00  0.00     0.151 A 
HETATM    2  N3  UNL     1      63.014  33.985  11.234  1.00  0.00    -0.172 N 
ATOM      3  H3  UNL     1      62.655  33.775  10.302  1.00  0.00     0.186 HD
HETATM    4  C9  UNL     1      62.433  34.825  12.107  1.00  0.00     0.706 A 
HETATM    5  N8  UNL     1      63.222  34.814  13.195  1.00  0.00    -0.126 N 
HETATM    6  C16 UNL     1      62.990  35.581  14.411  1.00  0.00     0.197 C 
HETATM    7  N9  UNL     1      64.239  33.996  12.982  1.00  0.00    -0.268 N 
ATOM      8  H9  UNL     1      64.985  33.809  13.653  1.00  0.00     0.189 HD
ENDROOT
BRANCH   4   9
HETATM    9  N4  UNL     1      61.222  35.552  11.862  1.00  0.00    -0.127 N 
HETATM   10  C10 UNL     1      61.201  36.961  11.555  1.00  0.00     0.224 C 
HETATM   11  C11 UNL     1      59.877  37.288  10.902  1.00  0.00     0.318 C 
HETATM   12  C12 UNL     1      58.797  36.984  11.946  1.00  0.00     0.196 C 
HETATM   13  N6  UNL     1      59.701  36.393   9.800  1.00  0.00    -0.035 N 
HETATM   14  N7  UNL     1      59.801  38.639  10.447  1.00  0.00    -0.035 N 
HETATM   15  N5  UNL     1      58.743  35.543  12.024  1.00  0.00    -0.338 N 
HETATM   16  C13 UNL     1      59.969  34.833  11.932  1.00  0.00     0.337 C 
ATOM     17  H5  UNL     1      57.856  35.053  12.140  1.00  0.00     0.164 HD
HETATM   18  O1  UNL     1      60.026  33.580  11.909  1.00  0.00    -0.246 OA
HETATM   19  C14 UNL     1      60.272  37.107   8.692  1.00  0.00     0.263 C 
ATOM     20  H62 UNL     1      60.089  35.461   9.947  1.00  0.00     0.280 HD
ATOM     21  H61 UNL     1      58.739  36.087   9.655  1.00  0.00     0.280 HD
HETATM   22  C15 UNL     1      60.235  38.567   9.069  1.00  0.00     0.263 C 
ATOM     23  H72 UNL     1      58.888  39.076  10.578  1.00  0.00     0.280 HD
ATOM     24  H71 UNL     1      60.323  39.305  11.018  1.00  0.00     0.280 HD
ENDBRANCH   4   9
BRANCH   1  25
HETATM   25  C7  UNL     1      64.970  32.534  11.024  1.00  0.00     0.075 A 
HETATM   26  C2  UNL     1      64.879  31.189  11.121  1.00  0.00     0.046 A 
HETATM   27  C3  UNL     1      65.721  30.379  10.304  1.00  0.00     0.054 A 
HETATM   28  C4  UNL     1      66.591  30.983   9.453  1.00  0.00     0.008 A 
HETATM   29  C5  UNL     1      67.497  30.161   8.569  1.00  0.00     0.068 C 
HETATM   30  N2  UNL     1      66.684  32.317   9.356  1.00  0.00    -0.350 N 
HETATM   31  C6  UNL     1      65.890  33.069  10.124  1.00  0.00     0.120 A 
ATOM     32  H2  UNL     1      67.345  32.748   8.710  1.00  0.00     0.166 HD
HETATM   33 CL1  UNL     1      66.025  34.797   9.983  1.00  0.00    -0.063 Cl
BRANCH  26  34
HETATM   34  N1  UNL     1      64.131  30.559  11.873  1.00  0.00    -0.393 N 
HETATM   35  C1  UNL     1      64.107  29.337  12.525  1.00  0.00     0.146 C 
ATOM     36  H1  UNL     1      63.284  31.092  12.071  1.00  0.00     0.159 HD
ENDBRANCH  26  34
ENDBRANCH   1  25
TORSDOF 3
ENDMDL
MODEL 5
REMARK VINA RESULT: -8.042649231      3.306      4.556
REMARK  3 active torsions:
REMARK  status: ('A' for Active; 'I' for Inactive)
REMARK    1  A    between atoms: N1_2  and  C2_4 
REMARK    2  A    between atoms: C7_12  and  C8_13 
REMARK    3  A    between atoms: C9_16  and  N4_17 
ROOT
HETATM    1  C8  UNL     1      63.407  31.435  14.006  1.00  0.00     0.151 A 
HETATM    2  N3  UNL     1      63.778  32.538  13.281  1.00  0.00    -0.172 N 
ATOM      3  H3  UNL     1      64.632  32.608  12.728  1.00  0.00     0.186 HD
HETATM    4  C9  UNL     1      62.860  33.512  13.400  1.00  0.00     0.706 A 
HETATM    5  N8  UNL     1      61.908  33.013  14.207  1.00  0.00    -0.126 N 
HETATM    6  C16 UNL     1      60.704  33.717  14.625  1.00  0.00     0.197 C 
HETATM    7  N9  UNL     1      62.244  31.783  14.560  1.00  0.00    -0.268 N 
ATOM      8  H9  UNL     1      61.690  31.183  15.171  1.00  0.00     0.189 HD
ENDROOT
BRANCH   4   9
HETATM    9  N4  UNL     1      62.942  34.796  12.768  1.00  0.00    -0.127 N 
HETATM   10  C10 UNL     1      62.512  35.034  11.412  1.00  0.00     0.224 C 
HETATM   11  C11 UNL     1      62.289  36.519  11.235  1.00  0.00     0.318 C 
HETATM   12  C12 UNL     1      63.651  37.187  11.456  1.00  0.00     0.196 C 
HETATM   13  N6  UNL     1      61.403  36.954  12.271  1.00  0.00    -0.035 N 
HETATM   14  N7  UNL     1      61.743  36.850   9.958  1.00  0.00    -0.035 N 
HETATM   15  N5  UNL     1      63.893  37.089  12.876  1.00  0.00    -0.338 N 
HETATM   16  C13 UNL     1      63.488  35.898  13.532  1.00  0.00     0.337 C 
ATOM     17  H5  UNL     1      64.339  37.850  13.389  1.00  0.00     0.164 HD
HETATM   18  O1  UNL     1      63.579  35.743  14.774  1.00  0.00    -0.246 OA
HETATM   19  C14 UNL     1      60.101  36.823  11.677  1.00  0.00     0.263 C 
ATOM     20  H62 UNL     1      61.515  36.461  13.157  1.00  0.00     0.280 HD
ATOM     21  H61 UNL     1      61.608  37.883  12.638  1.00  0.00     0.280 HD
HETATM   22  C15 UNL     1      60.315  36.865  10.184  1.00  0.00     0.263 C 
ATOM     23  H72 UNL     1      62.114  37.710   9.553  1.00  0.00     0.280 HD
ATOM     24  H71 UNL     1      62.042  36.235   9.201  1.00  0.00     0.280 HD
ENDBRANCH   4   9
BRANCH   1  25
HETATM   25  C7  UNL     1      64.230  30.264  14.057  1.00  0.00     0.075 A 
HETATM   26  C2  UNL     1      64.646  29.680  15.202  1.00  0.00     0.046 A 
HETATM   27  C3  UNL     1      65.436  28.496  15.126  1.00  0.00     0.054 A 
HETATM   28  C4  UNL     1      65.749  27.991  13.904  1.00  0.00     0.008 A 
HETATM   29  C5  UNL     1      66.582  26.738  13.781  1.00  0.00     0.068 C 
HETATM   30  N2  UNL     1      65.339  28.569  12.767  1.00  0.00    -0.350 N 
HETATM   31  C6  UNL     1      64.597  29.678  12.847  1.00  0.00     0.120 A 
ATOM     32  H2  UNL     1      65.587  28.173  11.861  1.00  0.00     0.166 HD
HETATM   33 CL1  UNL     1      64.074  30.414  11.360  1.00  0.00    -0.063 Cl
BRANCH  26  34
HETATM   34  N1  UNL     1      64.421  30.075  16.349  1.00  0.00    -0.393 N 
HETATM   35  C1  UNL     1      63.640  29.717  17.434  1.00  0.00     0.146 C 
ATOM     36  H1  UNL     1      64.971  30.909  16.558  1.00  0.00     0.159 HD
ENDBRANCH  26  34
ENDBRANCH   1  25
TORSDOF 3
ENDMDL
