MODEL 1
REMARK VINA RESULT: -8.451223841      0.000      0.000
REMARK  6 active torsions:
REMARK  status: ('A' for Active; 'I' for Inactive)
REMARK    1  A    between atoms: N1_2  and  C2_4 
REMARK    2  A    between atoms: C4_9  and  O1_10 
REMARK    3  A    between atoms: C6_12  and  N3_13 
REMARK       I    between atoms: N3_13  and  C7_15 
REMARK       I    between atoms: C7_15  and  N4_17 
REMARK    4  A    between atoms: N4_17  and  C8_19 
REMARK    5  A    between atoms: C9_24  and  C10_25 
REMARK       I    between atoms: C10_25  and  N7_27 
REMARK    6  A    between atoms: N7_27  and  N8_29 
ROOT
HETATM    1  N3  UNL     1      66.023  29.606  13.101  1.00  0.00    -0.300 N 
ATOM      2  H3  UNL     1      66.776  30.292  13.051  1.00  0.00     0.171 HD
HETATM    3  C7  UNL     1      66.261  28.502  12.352  1.00  0.00     0.327 C 
HETATM    4  O2  UNL     1      66.414  27.357  12.906  1.00  0.00    -0.247 OA
HETATM    5  N4  UNL     1      66.354  28.566  10.922  1.00  0.00    -0.287 N 
ATOM      6  H4  UNL     1      65.557  28.810  10.334  1.00  0.00     0.172 HD
ENDROOT
BRANCH   1   7
HETATM    7  C6  UNL     1      65.080  29.968  13.840  1.00  0.00     0.118 A 
HETATM    8  C4  UNL     1      64.169  30.960  13.617  1.00  0.00     0.141 A 
HETATM    9  C3  UNL     1      63.110  31.289  14.441  1.00  0.00     0.141 A 
HETATM   10  N2  UNL     1      62.783  30.716  15.590  1.00  0.00    -0.325 N 
HETATM   11 CL1  UNL     1      62.087  32.632  13.885  1.00  0.00    -0.061 Cl
HETATM   12  C2  UNL     1      63.421  29.697  16.179  1.00  0.00     0.147 A 
ATOM     13  H2  UNL     1      61.965  31.088  16.073  1.00  0.00     0.169 HD
HETATM   14  S2  UNL     1      64.769  29.115  15.341  1.00  0.00    -0.033 SA
BRANCH   8  15
HETATM   15  O1  UNL     1      64.313  31.728  12.436  1.00  0.00    -0.350 OA
HETATM   16  C5  UNL     1      63.825  31.216  11.199  1.00  0.00     0.210 C 
ENDBRANCH   8  15
BRANCH  12  17
HETATM   17  N1  UNL     1      63.011  29.202  17.324  1.00  0.00    -0.375 N 
HETATM   18  C1  UNL     1      62.697  27.792  17.353  1.00  0.00     0.148 C 
ATOM     19  H1  UNL     1      62.918  29.786  18.155  1.00  0.00     0.161 HD
ENDBRANCH  12  17
ENDBRANCH   1   7
BRANCH   5  20
HETATM   20  C8  UNL     1      67.530  28.291  10.421  1.00  0.00     0.169 A 
HETATM   21  N5  UNL     1      68.402  27.335  10.745  1.00  0.00    -0.278 N 
HETATM   22  N6  UNL     1      69.498  27.260  10.111  1.00  0.00    -0.287 N 
ATOM     23  H5  UNL     1      68.190  26.673  11.492  1.00  0.00     0.189 HD
HETATM   24  C9  UNL     1      69.769  28.123   9.142  1.00  0.00     0.162 A 
ATOM     25  H6  UNL     1      70.174  26.534  10.348  1.00  0.00     0.188 HD
HETATM   26  S1  UNL     1      68.362  29.092   9.148  1.00  0.00    -0.028 SA
BRANCH  24  27
HETATM   27  C10 UNL     1      70.968  28.215   8.287  1.00  0.00     0.294 C 
HETATM   28  O3  UNL     1      72.052  27.970   8.822  1.00  0.00    -0.264 OA
HETATM   29  N7  UNL     1      70.792  28.572   6.929  1.00  0.00    -0.271 N 
ATOM     30  H7  UNL     1      69.865  28.760   6.550  1.00  0.00     0.189 HD
BRANCH  29  31
HETATM   31  N8  UNL     1      71.930  28.658   6.123  1.00  0.00    -0.342 N 
ATOM     32  H82 UNL     1      72.855  28.514   6.528  1.00  0.00     0.176 HD
ATOM     33  H81 UNL     1      71.800  28.866   5.133  1.00  0.00     0.176 HD
ENDBRANCH  29  31
ENDBRANCH  24  27
ENDBRANCH   5  20
TORSDOF 6
ENDMDL
MODEL 2
REMARK VINA RESULT: -8.085517195      3.439      9.151
REMARK  6 active torsions:
REMARK  status: ('A' for Active; 'I' for Inactive)
REMARK    1  A    between atoms: N1_2  and  C2_4 
REMARK    2  A    between atoms: C4_9  and  O1_10 
REMARK    3  A    between atoms: C6_12  and  N3_13 
REMARK       I    between atoms: N3_13  and  C7_15 
REMARK       I    between atoms: C7_15  and  N4_17 
REMARK    4  A    between atoms: N4_17  and  C8_19 
REMARK    5  A    between atoms: C9_24  and  C10_25 
REMARK       I    between atoms: C10_25  and  N7_27 
REMARK    6  A    between atoms: N7_27  and  N8_29 
ROOT
HETATM    1  N3  UNL     1      65.418  29.267  12.412  1.00  0.00    -0.300 N 
ATOM      2  H3  UNL     1      64.513  28.821  12.261  1.00  0.00     0.171 HD
HETATM    3  C7  UNL     1      65.331  30.413  13.129  1.00  0.00     0.327 C 
HETATM    4  O2  UNL     1      65.864  30.499  14.291  1.00  0.00    -0.247 OA
HETATM    5  N4  UNL     1      64.641  31.566  12.627  1.00  0.00    -0.287 N 
ATOM      6  H4  UNL     1      64.969  32.085  11.812  1.00  0.00     0.172 HD
ENDROOT
BRANCH   1   7
HETATM    7  C6  UNL     1      66.368  28.636  11.895  1.00  0.00     0.118 A 
HETATM    8  C4  UNL     1      67.184  27.714  12.482  1.00  0.00     0.141 A 
HETATM    9  C3  UNL     1      68.190  27.003  11.854  1.00  0.00     0.141 A 
HETATM   10  N2  UNL     1      68.548  27.082  10.581  1.00  0.00    -0.325 N 
HETATM   11 CL1  UNL     1      69.089  25.865  12.881  1.00  0.00    -0.061 Cl
HETATM   12  C2  UNL     1      68.002  27.873   9.649  1.00  0.00     0.147 A 
ATOM     13  H2  UNL     1      69.317  26.482  10.282  1.00  0.00     0.169 HD
HETATM   14  S2  UNL     1      66.732  28.847  10.192  1.00  0.00    -0.033 SA
BRANCH   8  15
HETATM   15  O1  UNL     1      66.995  27.454  13.861  1.00  0.00    -0.350 OA
HETATM   16  C5  UNL     1      66.111  26.412  14.266  1.00  0.00     0.210 C 
ENDBRANCH   8  15
BRANCH  12  17
HETATM   17  N1  UNL     1      68.436  27.872   8.410  1.00  0.00    -0.375 N 
HETATM   18  C1  UNL     1      69.723  28.483   8.167  1.00  0.00     0.148 C 
ATOM     19  H1  UNL     1      67.890  27.460   7.653  1.00  0.00     0.161 HD
ENDBRANCH  12  17
ENDBRANCH   1   7
BRANCH   5  20
HETATM   20  C8  UNL     1      63.564  31.909  13.284  1.00  0.00     0.169 A 
HETATM   21  N5  UNL     1      63.040  31.405  14.402  1.00  0.00    -0.278 N 
HETATM   22  N6  UNL     1      61.970  31.907  14.861  1.00  0.00    -0.287 N 
ATOM     23  H5  UNL     1      63.493  30.626  14.880  1.00  0.00     0.189 HD
HETATM   24  C9  UNL     1      61.384  32.918  14.236  1.00  0.00     0.162 A 
ATOM     25  H6  UNL     1      61.558  31.531  15.716  1.00  0.00     0.188 HD
HETATM   26  S1  UNL     1      62.439  33.155  12.914  1.00  0.00    -0.028 SA
BRANCH  24  27
HETATM   27  C10 UNL     1      60.150  33.643  14.593  1.00  0.00     0.294 C 
HETATM   28  O3  UNL     1      60.059  34.811  14.206  1.00  0.00    -0.264 OA
HETATM   29  N7  UNL     1      59.167  32.956  15.345  1.00  0.00    -0.271 N 
ATOM     30  H7  UNL     1      59.306  31.988  15.632  1.00  0.00     0.189 HD
BRANCH  29  31
HETATM   31  N8  UNL     1      58.000  33.646  15.681  1.00  0.00    -0.342 N 
ATOM     32  H82 UNL     1      57.770  34.522  15.210  1.00  0.00     0.176 HD
ATOM     33  H81 UNL     1      57.400  33.247  16.402  1.00  0.00     0.176 HD
ENDBRANCH  29  31
ENDBRANCH  24  27
ENDBRANCH   5  20
TORSDOF 6
ENDMDL
MODEL 3
REMARK VINA RESULT: -8.059247923      1.893      2.768
REMARK  6 active torsions:
REMARK  status: ('A' for Active; 'I' for Inactive)
REMARK    1  A    between atoms: N1_2  and  C2_4 
REMARK    2  A    between atoms: C4_9  and  O1_10 
REMARK    3  A    between atoms: C6_12  and  N3_13 
REMARK       I    between atoms: N3_13  and  C7_15 
REMARK       I    between atoms: C7_15  and  N4_17 
REMARK    4  A    between atoms: N4_17  and  C8_19 
REMARK    5  A    between atoms: C9_24  and  C10_25 
REMARK       I    between atoms: C10_25  and  N7_27 
REMARK    6  A    between atoms: N7_27  and  N8_29 
ROOT
HETATM    1  N3  UNL     1      66.046  29.514  12.993  1.00  0.00    -0.300 N 
ATOM      2  H3  UNL     1      66.889  30.073  13.131  1.00  0.00     0.171 HD
HETATM    3  C7  UNL     1      66.198  28.549  12.055  1.00  0.00     0.327 C 
HETATM    4  O2  UNL     1      66.138  27.310  12.377  1.00  0.00    -0.247 OA
HETATM    5  N4  UNL     1      66.433  28.866  10.676  1.00  0.00    -0.287 N 
ATOM      6  H4  UNL     1      65.735  29.337  10.099  1.00  0.00     0.172 HD
ENDROOT
BRANCH   1   7
HETATM    7  C6  UNL     1      65.097  29.872  13.727  1.00  0.00     0.118 A 
HETATM    8  C4  UNL     1      64.838  29.491  15.012  1.00  0.00     0.141 A 
HETATM    9  C3  UNL     1      63.803  29.954  15.802  1.00  0.00     0.141 A 
HETATM   10  N2  UNL     1      62.877  30.840  15.468  1.00  0.00    -0.325 N 
HETATM   11 CL1  UNL     1      63.721  29.275  17.443  1.00  0.00    -0.061 Cl
HETATM   12  C2  UNL     1      62.763  31.464  14.288  1.00  0.00     0.147 A 
ATOM     13  H2  UNL     1      62.182  31.069  16.178  1.00  0.00     0.169 HD
HETATM   14  S2  UNL     1      63.938  31.053  13.145  1.00  0.00    -0.033 SA
BRANCH   8  15
HETATM   15  O1  UNL     1      65.702  28.535  15.599  1.00  0.00    -0.350 OA
HETATM   16  C5  UNL     1      65.394  27.147  15.488  1.00  0.00     0.210 C 
ENDBRANCH   8  15
BRANCH  12  17
HETATM   17  N1  UNL     1      61.802  32.329  14.061  1.00  0.00    -0.375 N 
HETATM   18  C1  UNL     1      62.039  33.316  13.033  1.00  0.00     0.148 C 
ATOM     19  H1  UNL     1      60.928  32.305  14.586  1.00  0.00     0.161 HD
ENDBRANCH  12  17
ENDBRANCH   1   7
BRANCH   5  20
HETATM   20  C8  UNL     1      67.601  28.512  10.208  1.00  0.00     0.169 A 
HETATM   21  N5  UNL     1      68.377  27.475  10.523  1.00  0.00    -0.278 N 
HETATM   22  N6  UNL     1      69.487  27.332   9.927  1.00  0.00    -0.287 N 
ATOM     23  H5  UNL     1      68.082  26.805  11.234  1.00  0.00     0.189 HD
HETATM   24  C9  UNL     1      69.867  28.204   9.004  1.00  0.00     0.162 A 
ATOM     25  H6  UNL     1      70.091  26.543  10.159  1.00  0.00     0.188 HD
HETATM   26  S1  UNL     1      68.546  29.287   8.999  1.00  0.00    -0.028 SA
BRANCH  24  27
HETATM   27  C10 UNL     1      71.102  28.227   8.198  1.00  0.00     0.294 C 
HETATM   28  O3  UNL     1      72.155  27.965   8.786  1.00  0.00    -0.264 OA
HETATM   29  N7  UNL     1      70.995  28.543   6.823  1.00  0.00    -0.271 N 
ATOM     30  H7  UNL     1      70.090  28.749   6.399  1.00  0.00     0.189 HD
BRANCH  29  31
HETATM   31  N8  UNL     1      72.167  28.564   6.063  1.00  0.00    -0.342 N 
ATOM     32  H82 UNL     1      72.201  29.089   5.190  1.00  0.00     0.176 HD
ATOM     33  H81 UNL     1      72.971  28.042   6.412  1.00  0.00     0.176 HD
ENDBRANCH  29  31
ENDBRANCH  24  27
ENDBRANCH   5  20
TORSDOF 6
ENDMDL
MODEL 4
REMARK VINA RESULT: -8.049762320      4.393      5.724
REMARK  6 active torsions:
REMARK  status: ('A' for Active; 'I' for Inactive)
REMARK    1  A    between atoms: N1_2  and  C2_4 
REMARK    2  A    between atoms: C4_9  and  O1_10 
REMARK    3  A    between atoms: C6_12  and  N3_13 
REMARK       I    between atoms: N3_13  and  C7_15 
REMARK       I    between atoms: C7_15  and  N4_17 
REMARK    4  A    between atoms: N4_17  and  C8_19 
REMARK    5  A    between atoms: C9_24  and  C10_25 
REMARK       I    between atoms: C10_25  and  N7_27 
REMARK    6  A    between atoms: N7_27  and  N8_29 
ROOT
HETATM    1  N3  UNL     1      65.678  30.501  12.721  1.00  0.00    -0.300 N 
ATOM      2  H3  UNL     1      66.618  30.401  12.338  1.00  0.00     0.171 HD
HETATM    3  C7  UNL     1      64.967  31.490  12.129  1.00  0.00     0.327 C 
HETATM    4  O2  UNL     1      63.917  31.222  11.445  1.00  0.00    -0.247 OA
HETATM    5  N4  UNL     1      65.355  32.867  12.237  1.00  0.00    -0.287 N 
ATOM      6  H4  UNL     1      65.340  33.369  13.124  1.00  0.00     0.172 HD
ENDROOT
BRANCH   1   7
HETATM    7  C6  UNL     1      65.433  29.684  13.637  1.00  0.00     0.118 A 
HETATM    8  C4  UNL     1      66.059  28.499  13.896  1.00  0.00     0.141 A 
HETATM    9  C3  UNL     1      65.787  27.652  14.954  1.00  0.00     0.141 A 
HETATM   10  N2  UNL     1      64.879  27.824  15.902  1.00  0.00    -0.325 N 
HETATM   11 CL1  UNL     1      66.772  26.174  15.033  1.00  0.00    -0.061 Cl
HETATM   12  C2  UNL     1      64.041  28.863  16.021  1.00  0.00     0.147 A 
ATOM     13  H2  UNL     1      64.810  27.095  16.612  1.00  0.00     0.169 HD
HETATM   14  S2  UNL     1      64.193  30.046  14.824  1.00  0.00    -0.033 SA
BRANCH   8  15
HETATM   15  O1  UNL     1      67.081  28.089  13.006  1.00  0.00    -0.350 OA
HETATM   16  C5  UNL     1      66.737  27.385  11.815  1.00  0.00     0.210 C 
ENDBRANCH   8  15
BRANCH  12  17
HETATM   17  N1  UNL     1      63.175  28.935  17.006  1.00  0.00    -0.375 N 
HETATM   18  C1  UNL     1      62.637  27.687  17.497  1.00  0.00     0.148 C 
ATOM     19  H1  UNL     1      62.895  29.831  17.405  1.00  0.00     0.161 HD
ENDBRANCH  12  17
ENDBRANCH   1   7
BRANCH   5  20
HETATM   20  C8  UNL     1      65.728  33.436  11.120  1.00  0.00     0.169 A 
HETATM   21  N5  UNL     1      66.568  33.011  10.176  1.00  0.00    -0.278 N 
HETATM   22  N6  UNL     1      66.781  33.745   9.164  1.00  0.00    -0.287 N 
ATOM     23  H5  UNL     1      67.033  32.107  10.266  1.00  0.00     0.189 HD
HETATM   24  C9  UNL     1      66.175  34.919   9.051  1.00  0.00     0.162 A 
ATOM     25  H6  UNL     1      67.421  33.432   8.434  1.00  0.00     0.188 HD
HETATM   26  S1  UNL     1      65.248  34.960  10.485  1.00  0.00    -0.028 SA
BRANCH  24  27
HETATM   27  C10 UNL     1      66.277  35.918   7.971  1.00  0.00     0.294 C 
HETATM   28  O3  UNL     1      65.917  37.067   8.240  1.00  0.00    -0.264 OA
HETATM   29  N7  UNL     1      66.777  35.495   6.717  1.00  0.00    -0.271 N 
ATOM     30  H7  UNL     1      67.060  34.527   6.562  1.00  0.00     0.189 HD
BRANCH  29  31
HETATM   31  N8  UNL     1      66.873  36.444   5.697  1.00  0.00    -0.342 N 
ATOM     32  H82 UNL     1      66.234  36.407   4.903  1.00  0.00     0.176 HD
ATOM     33  H81 UNL     1      67.594  37.161   5.777  1.00  0.00     0.176 HD
ENDBRANCH  29  31
ENDBRANCH  24  27
ENDBRANCH   5  20
TORSDOF 6
ENDMDL
MODEL 5
REMARK VINA RESULT: -7.981359280      3.618      8.789
REMARK  6 active torsions:
REMARK  status: ('A' for Active; 'I' for Inactive)
REMARK    1  A    between atoms: N1_2  and  C2_4 
REMARK    2  A    between atoms: C4_9  and  O1_10 
REMARK    3  A    between atoms: C6_12  and  N3_13 
REMARK       I    between atoms: N3_13  and  C7_15 
REMARK       I    between atoms: C7_15  and  N4_17 
REMARK    4  A    between atoms: N4_17  and  C8_19 
REMARK    5  A    between atoms: C9_24  and  C10_25 
REMARK       I    between atoms: C10_25  and  N7_27 
REMARK    6  A    between atoms: N7_27  and  N8_29 
ROOT
HETATM    1  N3  UNL     1      65.216  29.502  12.068  1.00  0.00    -0.300 N 
ATOM      2  H3  UNL     1      64.306  29.230  11.696  1.00  0.00     0.171 HD
HETATM    3  C7  UNL     1      65.130  30.425  13.055  1.00  0.00     0.327 C 
HETATM    4  O2  UNL     1      65.493  30.140  14.250  1.00  0.00    -0.247 OA
HETATM    5  N4  UNL     1      64.631  31.748  12.811  1.00  0.00    -0.287 N 
ATOM      6  H4  UNL     1      65.121  32.413  12.212  1.00  0.00     0.172 HD
ENDROOT
BRANCH   1   7
HETATM    7  C6  UNL     1      66.168  28.910  11.511  1.00  0.00     0.118 A 
HETATM    8  C4  UNL     1      66.764  29.209  10.320  1.00  0.00     0.141 A 
HETATM    9  C3  UNL     1      67.850  28.555   9.770  1.00  0.00     0.141 A 
HETATM   10  N2  UNL     1      68.510  27.528  10.284  1.00  0.00    -0.325 N 
HETATM   11 CL1  UNL     1      68.409  29.174   8.200  1.00  0.00    -0.061 Cl
HETATM   12  C2  UNL     1      68.249  26.919  11.448  1.00  0.00     0.147 A 
ATOM     13  H2  UNL     1      69.293  27.166   9.741  1.00  0.00     0.169 HD
HETATM   14  S2  UNL     1      66.944  27.556  12.313  1.00  0.00    -0.033 SA
BRANCH   8  15
HETATM   15  O1  UNL     1      66.227  30.284   9.570  1.00  0.00    -0.350 OA
HETATM   16  C5  UNL     1      66.718  31.605   9.785  1.00  0.00     0.210 C 
ENDBRANCH   8  15
BRANCH  12  17
HETATM   17  N1  UNL     1      68.969  25.904  11.866  1.00  0.00    -0.375 N 
HETATM   18  C1  UNL     1      68.960  25.635  13.285  1.00  0.00     0.148 C 
ATOM     19  H1  UNL     1      69.509  25.330  11.218  1.00  0.00     0.161 HD
ENDBRANCH  12  17
ENDBRANCH   1   7
BRANCH   5  20
HETATM   20  C8  UNL     1      63.506  32.044  13.406  1.00  0.00     0.169 A 
HETATM   21  N5  UNL     1      62.948  31.525  14.500  1.00  0.00    -0.278 N 
HETATM   22  N6  UNL     1      61.832  31.979  14.898  1.00  0.00    -0.287 N 
ATOM     23  H5  UNL     1      63.412  30.774  15.011  1.00  0.00     0.189 HD
HETATM   24  C9  UNL     1      61.232  32.956  14.231  1.00  0.00     0.162 A 
ATOM     25  H6  UNL     1      61.394  31.592  15.733  1.00  0.00     0.188 HD
HETATM   26  S1  UNL     1      62.343  33.231  12.963  1.00  0.00    -0.028 SA
BRANCH  24  27
HETATM   27  C10 UNL     1      59.948  33.624  14.514  1.00  0.00     0.294 C 
HETATM   28  O3  UNL     1      59.653  34.587  13.802  1.00  0.00    -0.264 OA
HETATM   29  N7  UNL     1      59.152  33.118  15.570  1.00  0.00    -0.271 N 
ATOM     30  H7  UNL     1      59.457  32.315  16.120  1.00  0.00     0.189 HD
BRANCH  29  31
HETATM   31  N8  UNL     1      57.937  33.753  15.835  1.00  0.00    -0.342 N 
ATOM     32  H82 UNL     1      57.859  34.766  15.743  1.00  0.00     0.176 HD
ATOM     33  H81 UNL     1      57.147  33.173  16.118  1.00  0.00     0.176 HD
ENDBRANCH  29  31
ENDBRANCH  24  27
ENDBRANCH   5  20
TORSDOF 6
ENDMDL
