MODEL 1
REMARK VINA RESULT: -8.250283806      0.000      0.000
REMARK  3 active torsions:
REMARK  status: ('A' for Active; 'I' for Inactive)
REMARK    1  A    between atoms: C2_3  and  N2_4 
REMARK       I    between atoms: N2_4  and  C3_6 
REMARK    2  A    between atoms: C3_6  and  C4_8 
REMARK    3  A    between atoms: C11_17  and  O2_18 
ROOT
HETATM    1  N1  UNL     1      71.229  28.124   8.320  1.00  0.00    -0.196 NA
HETATM    2  C1  UNL     1      70.144  28.522   8.435  1.00  0.00     0.078 C 
HETATM    3  C2  UNL     1      68.780  29.022   8.556  1.00  0.00     0.247 C 
ENDROOT
BRANCH   3   4
HETATM    4  N2  UNL     1      67.998  28.216   9.459  1.00  0.00    -0.348 N 
HETATM    5  C3  UNL     1      66.937  28.801  10.182  1.00  0.00     0.227 C 
HETATM    6  O1  UNL     1      66.720  30.041   9.996  1.00  0.00    -0.273 OA
ATOM      7  H2  UNL     1      68.211  27.226   9.575  1.00  0.00     0.163 HD
BRANCH   5   8
HETATM    8  C4  UNL     1      66.085  28.050  11.127  1.00  0.00     0.123 C 
HETATM    9  C5  UNL     1      66.653  26.768  11.546  1.00  0.00     0.099 C 
HETATM   10  S1  UNL     1      67.642  27.253  13.006  1.00  0.00    -0.121 SA
HETATM   11  C6  UNL     1      66.540  28.612  13.386  1.00  0.00     0.051 A 
HETATM   12  S2  UNL     1      66.054  29.682  14.579  1.00  0.00    -0.065 SA
HETATM   13  C9  UNL     1      65.759  28.933  12.313  1.00  0.00    -0.011 A 
HETATM   14  C7  UNL     1      64.845  30.553  13.722  1.00  0.00     0.081 A 
HETATM   15  C8  UNL     1      64.868  29.953  12.491  1.00  0.00    -0.011 A 
HETATM   16  N5  UNL     1      63.955  31.633  14.050  1.00  0.00    -0.337 N 
HETATM   17  C10 UNL     1      63.857  30.575  11.519  1.00  0.00     0.109 C 
HETATM   18  C11 UNL     1      63.877  32.069  11.720  1.00  0.00     0.205 C 
HETATM   19  N3  UNL     1      65.196  32.625  11.576  1.00  0.00    -0.306 N 
HETATM   20  C14 UNL     1      63.312  32.450  13.056  1.00  0.00     0.308 C 
HETATM   21  C12 UNL     1      65.355  34.027  11.717  1.00  0.00     0.325 C 
ATOM     22  H3  UNL     1      65.997  32.026  11.377  1.00  0.00     0.167 HD
HETATM   23  O3  UNL     1      66.222  34.690  11.116  1.00  0.00    -0.247 OA
HETATM   24  N4  UNL     1      64.452  34.697  12.611  1.00  0.00    -0.275 N 
HETATM   25  C13 UNL     1      63.478  33.895  13.277  1.00  0.00     0.292 C 
ATOM     26  H4  UNL     1      64.506  35.703  12.764  1.00  0.00     0.173 HD
HETATM   27  O4  UNL     1      62.715  34.463  14.103  1.00  0.00    -0.267 OA
HETATM   28  F1  UNL     1      61.972  32.081  13.034  1.00  0.00    -0.203 F 
ATOM     29  H5  UNL     1      63.772  31.829  15.034  1.00  0.00     0.164 HD
BRANCH  18  30
HETATM   30  O2  UNL     1      63.062  32.623  10.736  1.00  0.00    -0.365 OA
ATOM     31  H2  UNL     1      63.401  33.491  10.550  1.00  0.00     0.212 HD
ENDBRANCH  18  30
ENDBRANCH   5   8
ENDBRANCH   3   4
TORSDOF 3
ENDMDL
MODEL 2
REMARK VINA RESULT: -7.751947476      3.450      5.372
REMARK  3 active torsions:
REMARK  status: ('A' for Active; 'I' for Inactive)
REMARK    1  A    between atoms: C2_3  and  N2_4 
REMARK       I    between atoms: N2_4  and  C3_6 
REMARK    2  A    between atoms: C3_6  and  C4_8 
REMARK    3  A    between atoms: C11_17  and  O2_18 
ROOT
HETATM    1  N1  UNL     1      62.683  26.999  17.813  1.00  0.00    -0.196 NA
HETATM    2  C1  UNL     1      62.673  27.958  17.159  1.00  0.00     0.078 C 
HETATM    3  C2  UNL     1      62.647  29.174  16.355  1.00  0.00     0.247 C 
ENDROOT
BRANCH   3   4
HETATM    4  N2  UNL     1      63.966  29.543  15.909  1.00  0.00    -0.348 N 
HETATM    5  C3  UNL     1      64.291  29.466  14.537  1.00  0.00     0.227 C 
HETATM    6  O1  UNL     1      63.379  29.063  13.745  1.00  0.00    -0.273 OA
ATOM      7  H2  UNL     1      64.665  29.858  16.582  1.00  0.00     0.163 HD
BRANCH   5   8
HETATM    8  C4  UNL     1      65.617  29.824  13.994  1.00  0.00     0.123 C 
HETATM    9  C5  UNL     1      66.480  28.673  13.732  1.00  0.00     0.099 C 
HETATM   10  S1  UNL     1      66.023  28.241  12.014  1.00  0.00    -0.121 SA
HETATM   11  C6  UNL     1      65.613  29.940  11.624  1.00  0.00     0.051 A 
HETATM   12  S2  UNL     1      65.364  31.032  10.380  1.00  0.00    -0.065 SA
HETATM   13  C9  UNL     1      65.434  30.680  12.758  1.00  0.00    -0.011 A 
HETATM   14  C7  UNL     1      65.028  32.450  11.292  1.00  0.00     0.081 A 
HETATM   15  C8  UNL     1      65.126  31.999  12.581  1.00  0.00    -0.011 A 
HETATM   16  N5  UNL     1      64.716  33.813  10.961  1.00  0.00    -0.337 N 
HETATM   17  C10 UNL     1      64.852  33.105  13.610  1.00  0.00     0.109 C 
HETATM   18  C11 UNL     1      63.703  33.938  13.102  1.00  0.00     0.205 C 
HETATM   19  N3  UNL     1      62.535  33.148  12.817  1.00  0.00    -0.306 N 
HETATM   20  C14 UNL     1      64.090  34.723  11.883  1.00  0.00     0.308 C 
HETATM   21  C12 UNL     1      61.370  33.810  12.353  1.00  0.00     0.325 C 
ATOM     22  H3  UNL     1      62.545  32.136  12.946  1.00  0.00     0.167 HD
HETATM   23  O3  UNL     1      60.211  33.416  12.585  1.00  0.00    -0.247 OA
HETATM   24  N4  UNL     1      61.566  35.000  11.572  1.00  0.00    -0.275 N 
HETATM   25  C13 UNL     1      62.912  35.410  11.333  1.00  0.00     0.292 C 
ATOM     26  H4  UNL     1      60.777  35.530  11.204  1.00  0.00     0.173 HD
HETATM   27  O4  UNL     1      63.097  36.422  10.606  1.00  0.00    -0.267 OA
HETATM   28  F1  UNL     1      65.069  35.621  12.291  1.00  0.00    -0.203 F 
ATOM     29  H5  UNL     1      64.950  34.152  10.028  1.00  0.00     0.164 HD
BRANCH  18  30
HETATM   30  O2  UNL     1      63.380  34.844  14.110  1.00  0.00    -0.365 OA
ATOM     31  H2  UNL     1      64.198  35.143  14.488  1.00  0.00     0.212 HD
ENDBRANCH  18  30
ENDBRANCH   5   8
ENDBRANCH   3   4
TORSDOF 3
ENDMDL
MODEL 3
REMARK VINA RESULT: -7.698610535      4.029      5.765
REMARK  3 active torsions:
REMARK  status: ('A' for Active; 'I' for Inactive)
REMARK    1  A    between atoms: C2_3  and  N2_4 
REMARK       I    between atoms: N2_4  and  C3_6 
REMARK    2  A    between atoms: C3_6  and  C4_8 
REMARK    3  A    between atoms: C11_17  and  O2_18 
ROOT
HETATM    1  N1  UNL     1      62.758  27.165  17.488  1.00  0.00    -0.196 NA
HETATM    2  C1  UNL     1      62.908  28.281  17.207  1.00  0.00     0.078 C 
HETATM    3  C2  UNL     1      63.094  29.689  16.876  1.00  0.00     0.247 C 
ENDROOT
BRANCH   3   4
HETATM    4  N2  UNL     1      64.263  29.892  16.058  1.00  0.00    -0.348 N 
HETATM    5  C3  UNL     1      64.169  30.657  14.877  1.00  0.00     0.227 C 
HETATM    6  O1  UNL     1      63.028  31.140  14.585  1.00  0.00    -0.273 OA
ATOM      7  H2  UNL     1      65.156  29.483  16.333  1.00  0.00     0.163 HD
BRANCH   5   8
HETATM    8  C4  UNL     1      65.315  30.915  13.981  1.00  0.00     0.123 C 
HETATM    9  C5  UNL     1      66.094  29.721  13.657  1.00  0.00     0.099 C 
HETATM   10  S1  UNL     1      65.226  29.095  12.173  1.00  0.00    -0.121 SA
HETATM   11  C6  UNL     1      64.721  30.743  11.690  1.00  0.00     0.051 A 
HETATM   12  S2  UNL     1      64.162  31.682  10.422  1.00  0.00    -0.065 SA
HETATM   13  C9  UNL     1      64.824  31.619  12.733  1.00  0.00    -0.011 A 
HETATM   14  C7  UNL     1      64.053  33.208  11.208  1.00  0.00     0.081 A 
HETATM   15  C8  UNL     1      64.473  32.915  12.478  1.00  0.00    -0.011 A 
HETATM   16  N5  UNL     1      63.660  34.528  10.799  1.00  0.00    -0.337 N 
HETATM   17  C10 UNL     1      64.456  34.143  13.398  1.00  0.00     0.109 C 
HETATM   18  C11 UNL     1      63.211  34.935  13.092  1.00  0.00     0.205 C 
HETATM   19  N3  UNL     1      62.015  34.145  13.205  1.00  0.00    -0.306 N 
HETATM   20  C14 UNL     1      63.277  35.558  11.728  1.00  0.00     0.308 C 
HETATM   21  C12 UNL     1      60.766  34.774  12.967  1.00  0.00     0.325 C 
ATOM     22  H3  UNL     1      62.063  33.156  13.451  1.00  0.00     0.167 HD
HETATM   23  O3  UNL     1      59.704  34.439  13.526  1.00  0.00    -0.247 OA
HETATM   24  N4  UNL     1      60.753  35.856  12.022  1.00  0.00    -0.275 N 
HETATM   25  C13 UNL     1      61.994  36.201  11.408  1.00  0.00     0.292 C 
ATOM     26  H4  UNL     1      59.893  36.356  11.799  1.00  0.00     0.173 HD
HETATM   27  O4  UNL     1      61.985  37.113  10.538  1.00  0.00    -0.267 OA
HETATM   28  F1  UNL     1      64.320  36.475  11.767  1.00  0.00    -0.203 F 
ATOM     29  H5  UNL     1      63.652  34.746   9.803  1.00  0.00     0.164 HD
BRANCH  18  30
HETATM   30  O2  UNL     1      63.142  35.964  14.029  1.00  0.00    -0.365 OA
ATOM     31  H2  UNL     1      62.698  36.692  13.611  1.00  0.00     0.212 HD
ENDBRANCH  18  30
ENDBRANCH   5   8
ENDBRANCH   3   4
TORSDOF 3
ENDMDL
MODEL 4
REMARK VINA RESULT: -7.664535626      1.631      1.737
REMARK  3 active torsions:
REMARK  status: ('A' for Active; 'I' for Inactive)
REMARK    1  A    between atoms: C2_3  and  N2_4 
REMARK       I    between atoms: N2_4  and  C3_6 
REMARK    2  A    between atoms: C3_6  and  C4_8 
REMARK    3  A    between atoms: C11_17  and  O2_18 
ROOT
HETATM    1  N1  UNL     1      67.211  31.052   8.072  1.00  0.00    -0.196 NA
HETATM    2  C1  UNL     1      67.389  30.123   8.746  1.00  0.00     0.078 C 
HETATM    3  C2  UNL     1      67.634  28.967   9.601  1.00  0.00     0.247 C 
ENDROOT
BRANCH   3   4
HETATM    4  N2  UNL     1      66.483  28.652  10.408  1.00  0.00    -0.348 N 
HETATM    5  C3  UNL     1      66.652  27.997  11.646  1.00  0.00     0.227 C 
HETATM    6  O1  UNL     1      67.842  27.708  11.995  1.00  0.00    -0.273 OA
ATOM      7  H2  UNL     1      65.548  28.902  10.086  1.00  0.00     0.163 HD
BRANCH   5   8
HETATM    8  C4  UNL     1      65.529  27.637  12.536  1.00  0.00     0.123 C 
HETATM    9  C5  UNL     1      65.792  26.473  13.381  1.00  0.00     0.099 C 
HETATM   10  S1  UNL     1      66.561  27.239  14.854  1.00  0.00    -0.121 SA
HETATM   11  C6  UNL     1      65.644  28.760  14.624  1.00  0.00     0.051 A 
HETATM   12  S2  UNL     1      65.127  30.167  15.369  1.00  0.00    -0.065 SA
HETATM   13  C9  UNL     1      65.137  28.848  13.358  1.00  0.00    -0.011 A 
HETATM   14  C7  UNL     1      64.256  30.887  14.073  1.00  0.00     0.081 A 
HETATM   15  C8  UNL     1      64.408  29.966  13.070  1.00  0.00    -0.011 A 
HETATM   16  N5  UNL     1      63.509  32.104  13.911  1.00  0.00    -0.337 N 
HETATM   17  C10 UNL     1      63.710  30.394  11.772  1.00  0.00     0.109 C 
HETATM   18  C11 UNL     1      63.936  31.873  11.589  1.00  0.00     0.205 C 
HETATM   19  N3  UNL     1      65.332  32.222  11.606  1.00  0.00    -0.306 N 
HETATM   20  C14 UNL     1      63.203  32.674  12.625  1.00  0.00     0.308 C 
HETATM   21  C12 UNL     1      65.689  33.582  11.421  1.00  0.00     0.325 C 
ATOM     22  H3  UNL     1      66.047  31.509  11.748  1.00  0.00     0.167 HD
HETATM   23  O3  UNL     1      66.749  33.953  10.880  1.00  0.00    -0.247 OA
HETATM   24  N4  UNL     1      64.758  34.569  11.893  1.00  0.00    -0.275 N 
HETATM   25  C13 UNL     1      63.559  34.096  12.505  1.00  0.00     0.292 C 
ATOM     26  H4  UNL     1      64.946  35.566  11.795  1.00  0.00     0.173 HD
HETATM   27  O4  UNL     1      62.760  34.952  12.970  1.00  0.00    -0.267 OA
HETATM   28  F1  UNL     1      61.849  32.459  12.400  1.00  0.00    -0.203 F 
ATOM     29  H5  UNL     1      63.181  32.587  14.747  1.00  0.00     0.164 HD
BRANCH  18  30
HETATM   30  O2  UNL     1      63.419  32.213  10.341  1.00  0.00    -0.365 OA
ATOM     31  H2  UNL     1      63.468  33.159  10.268  1.00  0.00     0.212 HD
ENDBRANCH  18  30
ENDBRANCH   5   8
ENDBRANCH   3   4
TORSDOF 3
ENDMDL
MODEL 5
REMARK VINA RESULT: -7.581325072      1.420      1.733
REMARK  3 active torsions:
REMARK  status: ('A' for Active; 'I' for Inactive)
REMARK    1  A    between atoms: C2_3  and  N2_4 
REMARK       I    between atoms: N2_4  and  C3_6 
REMARK    2  A    between atoms: C3_6  and  C4_8 
REMARK    3  A    between atoms: C11_17  and  O2_18 
ROOT
HETATM    1  N1  UNL     1      66.815  32.971   8.402  1.00  0.00    -0.196 NA
HETATM    2  C1  UNL     1      67.098  31.859   8.584  1.00  0.00     0.078 C 
HETATM    3  C2  UNL     1      67.477  30.471   8.818  1.00  0.00     0.247 C 
ENDROOT
BRANCH   3   4
HETATM    4  N2  UNL     1      66.549  29.810   9.699  1.00  0.00    -0.348 N 
HETATM    5  C3  UNL     1      66.948  28.652  10.400  1.00  0.00     0.227 C 
HETATM    6  O1  UNL     1      68.138  28.240  10.213  1.00  0.00    -0.273 OA
ATOM      7  H2  UNL     1      65.604  30.177   9.815  1.00  0.00     0.163 HD
BRANCH   5   8
HETATM    8  C4  UNL     1      66.063  27.913  11.323  1.00  0.00     0.123 C 
HETATM    9  C5  UNL     1      66.612  26.636  11.776  1.00  0.00     0.099 C 
HETATM   10  S1  UNL     1      67.551  27.135  13.265  1.00  0.00    -0.121 SA
HETATM   11  C6  UNL     1      66.439  28.500  13.591  1.00  0.00     0.051 A 
HETATM   12  S2  UNL     1      65.914  29.584  14.754  1.00  0.00    -0.065 SA
HETATM   13  C9  UNL     1      65.696  28.810  12.487  1.00  0.00    -0.011 A 
HETATM   14  C7  UNL     1      64.737  30.447  13.846  1.00  0.00     0.081 A 
HETATM   15  C8  UNL     1      64.802  29.834  12.623  1.00  0.00    -0.011 A 
HETATM   16  N5  UNL     1      63.839  31.532  14.130  1.00  0.00    -0.337 N 
HETATM   17  C10 UNL     1      63.828  30.447  11.609  1.00  0.00     0.109 C 
HETATM   18  C11 UNL     1      63.844  31.943  11.794  1.00  0.00     0.205 C 
HETATM   19  N3  UNL     1      65.168  32.495  11.690  1.00  0.00    -0.306 N 
HETATM   20  C14 UNL     1      63.232  32.340  13.105  1.00  0.00     0.308 C 
HETATM   21  C12 UNL     1      65.325  33.898  11.822  1.00  0.00     0.325 C 
ATOM     22  H3  UNL     1      65.974  31.892  11.526  1.00  0.00     0.167 HD
HETATM   23  O3  UNL     1      66.214  34.553  11.244  1.00  0.00    -0.247 OA
HETATM   24  N4  UNL     1      64.393  34.580  12.676  1.00  0.00    -0.275 N 
HETATM   25  C13 UNL     1      63.393  33.787  13.315  1.00  0.00     0.292 C 
ATOM     26  H4  UNL     1      64.443  35.588  12.820  1.00  0.00     0.173 HD
HETATM   27  O4  UNL     1      62.604  34.366  14.109  1.00  0.00    -0.267 OA
HETATM   28  F1  UNL     1      61.894  31.973  13.041  1.00  0.00    -0.203 F 
ATOM     29  H5  UNL     1      63.621  31.739  15.105  1.00  0.00     0.164 HD
BRANCH  18  30
HETATM   30  O2  UNL     1      63.064  32.488  10.776  1.00  0.00    -0.365 OA
ATOM     31  H2  UNL     1      62.163  32.247  10.956  1.00  0.00     0.212 HD
ENDBRANCH  18  30
ENDBRANCH   5   8
ENDBRANCH   3   4
TORSDOF 3
ENDMDL
