MODEL 1
REMARK VINA RESULT: -10.392737438      0.000      0.000
REMARK  6 active torsions:
REMARK  status: ('A' for Active; 'I' for Inactive)
REMARK    1  A    between atoms: C4_5  and  C5_6 
REMARK       I    between atoms: C5_6  and  N2_8 
REMARK    2  A    between atoms: N2_8  and  C6_10 
REMARK    3  A    between atoms: C7_16  and  N5_17 
REMARK    4  A    between atoms: N5_17  and  N6_19 
REMARK       I    between atoms: N6_19  and  C8_21 
REMARK    5  A    between atoms: C8_21  and  C9_23 
REMARK    6  A    between atoms: C13_29  and  O6_30 
ROOT
HETATM    1  N1  UNL     1      68.637  29.212   8.300  1.00  0.00    -0.191 NA
HETATM    2  C1  UNL     1      68.632  28.531   9.241  1.00  0.00     0.102 C 
HETATM    3  C2  UNL     1      68.619  27.704  10.416  1.00  0.00     0.084 A 
HETATM    4  C3  UNL     1      67.554  27.679  11.288  1.00  0.00     0.045 A 
HETATM    5  C4  UNL     1      67.533  26.874  12.439  1.00  0.00     0.067 A 
HETATM    6  C13 UNL     1      68.629  26.098  12.670  1.00  0.00     0.084 A 
HETATM    7  C14 UNL     1      69.728  26.118  11.778  1.00  0.00     0.081 A 
HETATM    8  C15 UNL     1      69.724  26.906  10.673  1.00  0.00     0.139 A 
HETATM    9  F1  UNL     1      70.769  26.949   9.788  1.00  0.00    -0.204 F 
ENDROOT
BRANCH   5  10
HETATM   10  C5  UNL     1      66.356  26.938  13.273  1.00  0.00     0.260 C 
HETATM   11  O1  UNL     1      66.202  26.251  14.283  1.00  0.00    -0.267 OA
HETATM   12  N2  UNL     1      65.269  27.829  12.969  1.00  0.00    -0.304 N 
ATOM     13  H2  UNL     1      64.453  27.522  12.439  1.00  0.00     0.171 HD
BRANCH  12  14
HETATM   14  C6  UNL     1      65.384  29.039  13.404  1.00  0.00     0.178 A 
HETATM   15  N3  UNL     1      65.474  30.195  12.709  1.00  0.00    -0.222 N 
HETATM   16  O2  UNL     1      65.575  31.170  13.548  1.00  0.00    -0.153 OA
ATOM     17  H3  UNL     1      65.464  30.282  11.692  1.00  0.00     0.198 HD
HETATM   18  N4  UNL     1      65.559  30.752  14.768  1.00  0.00    -0.221 N 
HETATM   19  C7  UNL     1      65.440  29.410  14.741  1.00  0.00     0.189 A 
ATOM     20  H4  UNL     1      65.625  31.333  15.603  1.00  0.00     0.198 HD
BRANCH  19  21
HETATM   21  N5  UNL     1      65.381  28.566  15.705  1.00  0.00    -0.278 N 
ATOM     22  H5  UNL     1      66.251  28.185  16.078  1.00  0.00     0.189 HD
BRANCH  21  23
HETATM   23  N6  UNL     1      64.173  28.149  16.263  1.00  0.00    -0.262 N 
HETATM   24  C8  UNL     1      63.414  28.930  17.158  1.00  0.00     0.295 C 
HETATM   25  O3  UNL     1      63.765  30.070  17.527  1.00  0.00    -0.264 OA
ATOM     26  H6  UNL     1      63.818  27.227  16.008  1.00  0.00     0.190 HD
BRANCH  24  27
HETATM   27  C9  UNL     1      62.144  28.416  17.704  1.00  0.00     0.160 C 
HETATM   28  C10 UNL     1      62.005  27.153  18.048  1.00  0.00     0.177 C 
HETATM   29  O4  UNL     1      60.818  26.681  18.557  1.00  0.00    -0.358 OA
HETATM   30  C11 UNL     1      59.642  27.442  18.389  1.00  0.00     0.201 C 
HETATM   31  C12 UNL     1      60.026  28.880  18.761  1.00  0.00     0.202 C 
HETATM   32  O5  UNL     1      61.053  29.262  17.871  1.00  0.00    -0.342 OA
ENDBRANCH  24  27
ENDBRANCH  21  23
ENDBRANCH  19  21
ENDBRANCH  12  14
ENDBRANCH   5  10
BRANCH   6  33
HETATM   33  O6  UNL     1      68.726  25.277  13.749  1.00  0.00    -0.360 OA
ATOM     34  H6  UNL     1      68.650  25.596  14.640  1.00  0.00     0.217 HD
ENDBRANCH   6  33
TORSDOF 6
ENDMDL
MODEL 2
REMARK VINA RESULT: -10.125680799      3.418      6.255
REMARK  6 active torsions:
REMARK  status: ('A' for Active; 'I' for Inactive)
REMARK    1  A    between atoms: C4_5  and  C5_6 
REMARK       I    between atoms: C5_6  and  N2_8 
REMARK    2  A    between atoms: N2_8  and  C6_10 
REMARK    3  A    between atoms: C7_16  and  N5_17 
REMARK    4  A    between atoms: N5_17  and  N6_19 
REMARK       I    between atoms: N6_19  and  C8_21 
REMARK    5  A    between atoms: C8_21  and  C9_23 
REMARK    6  A    between atoms: C13_29  and  O6_30 
ROOT
HETATM    1  N1  UNL     1      68.814  29.083   8.278  1.00  0.00    -0.191 NA
HETATM    2  C1  UNL     1      68.739  28.433   9.238  1.00  0.00     0.102 C 
HETATM    3  C2  UNL     1      68.637  27.644  10.435  1.00  0.00     0.084 A 
HETATM    4  C3  UNL     1      67.516  27.657  11.233  1.00  0.00     0.045 A 
HETATM    5  C4  UNL     1      67.409  26.890  12.405  1.00  0.00     0.067 A 
HETATM    6  C13 UNL     1      68.479  26.112  12.734  1.00  0.00     0.084 A 
HETATM    7  C14 UNL     1      69.634  26.093  11.918  1.00  0.00     0.081 A 
HETATM    8  C15 UNL     1      69.714  26.844  10.790  1.00  0.00     0.139 A 
HETATM    9  F1  UNL     1      70.816  26.850   9.978  1.00  0.00    -0.204 F 
ENDROOT
BRANCH   5  10
HETATM   10  C5  UNL     1      66.180  26.992  13.156  1.00  0.00     0.260 C 
HETATM   11  O1  UNL     1      65.864  26.207  14.051  1.00  0.00    -0.267 OA
HETATM   12  N2  UNL     1      65.229  28.039  12.899  1.00  0.00    -0.304 N 
ATOM     13  H2  UNL     1      64.432  27.903  12.277  1.00  0.00     0.171 HD
BRANCH  12  14
HETATM   14  C6  UNL     1      65.440  29.162  13.501  1.00  0.00     0.178 A 
HETATM   15  N3  UNL     1      65.609  29.411  14.819  1.00  0.00    -0.222 N 
HETATM   16  O2  UNL     1      65.794  30.677  14.976  1.00  0.00    -0.153 OA
ATOM     17  H3  UNL     1      65.593  28.713  15.564  1.00  0.00     0.198 HD
HETATM   18  N4  UNL     1      65.762  31.307  13.850  1.00  0.00    -0.221 N 
HETATM   19  C7  UNL     1      65.541  30.400  12.879  1.00  0.00     0.189 A 
ATOM     20  H4  UNL     1      65.882  32.311  13.719  1.00  0.00     0.198 HD
BRANCH  19  21
HETATM   21  N5  UNL     1      65.433  30.557  11.610  1.00  0.00    -0.278 N 
ATOM     22  H5  UNL     1      65.215  29.745  11.032  1.00  0.00     0.189 HD
BRANCH  21  23
HETATM   23  N6  UNL     1      65.601  31.795  10.992  1.00  0.00    -0.262 N 
HETATM   24  C8  UNL     1      64.541  32.684  10.719  1.00  0.00     0.295 C 
HETATM   25  O3  UNL     1      63.353  32.431  11.012  1.00  0.00    -0.264 OA
ATOM     26  H6  UNL     1      66.545  32.074  10.722  1.00  0.00     0.190 HD
BRANCH  24  27
HETATM   27  C9  UNL     1      64.803  33.977  10.061  1.00  0.00     0.160 C 
HETATM   28  C10 UNL     1      64.278  35.097  10.512  1.00  0.00     0.177 C 
HETATM   29  O4  UNL     1      64.526  36.299   9.893  1.00  0.00    -0.358 OA
HETATM   30  C11 UNL     1      65.048  36.308   8.582  1.00  0.00     0.201 C 
HETATM   31  C12 UNL     1      66.193  35.288   8.589  1.00  0.00     0.202 C 
HETATM   32  O5  UNL     1      65.620  34.046   8.938  1.00  0.00    -0.342 OA
ENDBRANCH  24  27
ENDBRANCH  21  23
ENDBRANCH  19  21
ENDBRANCH  12  14
ENDBRANCH   5  10
BRANCH   6  33
HETATM   33  O6  UNL     1      68.494  25.325  13.843  1.00  0.00    -0.360 OA
ATOM     34  H6  UNL     1      67.770  24.755  14.072  1.00  0.00     0.217 HD
ENDBRANCH   6  33
TORSDOF 6
ENDMDL
MODEL 3
REMARK VINA RESULT: -10.003353259      2.882      5.736
REMARK  6 active torsions:
REMARK  status: ('A' for Active; 'I' for Inactive)
REMARK    1  A    between atoms: C4_5  and  C5_6 
REMARK       I    between atoms: C5_6  and  N2_8 
REMARK    2  A    between atoms: N2_8  and  C6_10 
REMARK    3  A    between atoms: C7_16  and  N5_17 
REMARK    4  A    between atoms: N5_17  and  N6_19 
REMARK       I    between atoms: N6_19  and  C8_21 
REMARK    5  A    between atoms: C8_21  and  C9_23 
REMARK    6  A    between atoms: C13_29  and  O6_30 
ROOT
HETATM    1  N1  UNL     1      66.865  29.248   8.887  1.00  0.00    -0.191 NA
HETATM    2  C1  UNL     1      67.206  28.569   9.765  1.00  0.00     0.102 C 
HETATM    3  C2  UNL     1      67.621  27.743  10.865  1.00  0.00     0.084 A 
HETATM    4  C3  UNL     1      66.815  27.509  11.956  1.00  0.00     0.045 A 
HETATM    5  C4  UNL     1      67.212  26.702  13.035  1.00  0.00     0.067 A 
HETATM    6  C13 UNL     1      68.454  26.146  12.967  1.00  0.00     0.084 A 
HETATM    7  C14 UNL     1      69.289  26.382  11.848  1.00  0.00     0.081 A 
HETATM    8  C15 UNL     1      68.882  27.166  10.817  1.00  0.00     0.139 A 
HETATM    9  F1  UNL     1      69.663  27.415   9.721  1.00  0.00    -0.204 F 
ENDROOT
BRANCH   5  10
HETATM   10  C5  UNL     1      66.274  26.535  14.120  1.00  0.00     0.260 C 
HETATM   11  O1  UNL     1      66.425  25.716  15.028  1.00  0.00    -0.267 OA
HETATM   12  N2  UNL     1      65.080  27.332  14.210  1.00  0.00    -0.304 N 
ATOM     13  H2  UNL     1      64.186  27.005  13.845  1.00  0.00     0.171 HD
BRANCH  12  14
HETATM   14  C6  UNL     1      65.205  28.484  14.777  1.00  0.00     0.178 A 
HETATM   15  N3  UNL     1      65.676  28.788  16.008  1.00  0.00    -0.222 N 
HETATM   16  O2  UNL     1      65.620  30.068  16.162  1.00  0.00    -0.153 OA
ATOM     17  H3  UNL     1      66.018  28.118  16.697  1.00  0.00     0.198 HD
HETATM   18  N4  UNL     1      65.142  30.653  15.117  1.00  0.00    -0.221 N 
HETATM   19  C7  UNL     1      64.860  29.702  14.206  1.00  0.00     0.189 A 
ATOM     20  H4  UNL     1      65.003  31.657  15.002  1.00  0.00     0.198 HD
BRANCH  19  21
HETATM   21  N5  UNL     1      64.372  29.808  13.024  1.00  0.00    -0.278 N 
ATOM     22  H5  UNL     1      63.565  29.236  12.774  1.00  0.00     0.189 HD
BRANCH  21  23
HETATM   23  N6  UNL     1      64.902  30.676  12.070  1.00  0.00    -0.262 N 
HETATM   24  C8  UNL     1      64.637  32.060  12.038  1.00  0.00     0.295 C 
HETATM   25  O3  UNL     1      63.899  32.627  12.872  1.00  0.00    -0.264 OA
ATOM     26  H6  UNL     1      65.516  30.287  11.354  1.00  0.00     0.190 HD
BRANCH  24  27
HETATM   27  C9  UNL     1      65.237  32.910  10.995  1.00  0.00     0.160 C 
HETATM   28  C10 UNL     1      65.379  34.208  11.162  1.00  0.00     0.177 C 
HETATM   29  O4  UNL     1      65.940  34.996  10.184  1.00  0.00    -0.358 OA
HETATM   30  C11 UNL     1      66.044  34.495   8.869  1.00  0.00     0.201 C 
HETATM   31  C12 UNL     1      66.603  33.074   9.013  1.00  0.00     0.202 C 
HETATM   32  O5  UNL     1      65.673  32.356   9.796  1.00  0.00    -0.342 OA
ENDBRANCH  24  27
ENDBRANCH  21  23
ENDBRANCH  19  21
ENDBRANCH  12  14
ENDBRANCH   5  10
BRANCH   6  33
HETATM   33  O6  UNL     1      68.951  25.347  13.949  1.00  0.00    -0.360 OA
ATOM     34  H6  UNL     1      69.821  24.969  13.906  1.00  0.00     0.217 HD
ENDBRANCH   6  33
TORSDOF 6
ENDMDL
MODEL 4
REMARK VINA RESULT: -9.985469949      3.629      8.113
REMARK  6 active torsions:
REMARK  status: ('A' for Active; 'I' for Inactive)
REMARK    1  A    between atoms: C4_5  and  C5_6 
REMARK       I    between atoms: C5_6  and  N2_8 
REMARK    2  A    between atoms: N2_8  and  C6_10 
REMARK    3  A    between atoms: C7_16  and  N5_17 
REMARK    4  A    between atoms: N5_17  and  N6_19 
REMARK       I    between atoms: N6_19  and  C8_21 
REMARK    5  A    between atoms: C8_21  and  C9_23 
REMARK    6  A    between atoms: C13_29  and  O6_30 
ROOT
HETATM    1  N1  UNL     1      66.854  26.955  11.846  1.00  0.00    -0.191 NA
HETATM    2  C1  UNL     1      66.227  27.608  12.574  1.00  0.00     0.102 C 
HETATM    3  C2  UNL     1      65.459  28.431  13.466  1.00  0.00     0.084 A 
HETATM    4  C3  UNL     1      64.755  29.531  13.032  1.00  0.00     0.045 A 
HETATM    5  C4  UNL     1      64.001  30.342  13.897  1.00  0.00     0.067 A 
HETATM    6  C13 UNL     1      63.989  29.995  15.215  1.00  0.00     0.084 A 
HETATM    7  C14 UNL     1      64.710  28.865  15.669  1.00  0.00     0.081 A 
HETATM    8  C15 UNL     1      65.431  28.098  14.813  1.00  0.00     0.139 A 
HETATM    9  F1  UNL     1      66.140  26.998  15.218  1.00  0.00    -0.204 F 
ENDROOT
BRANCH   5  10
HETATM   10  C5  UNL     1      63.308  31.468  13.317  1.00  0.00     0.260 C 
HETATM   11  O1  UNL     1      62.516  32.173  13.943  1.00  0.00    -0.267 OA
HETATM   12  N2  UNL     1      63.504  31.843  11.943  1.00  0.00    -0.304 N 
ATOM     13  H2  UNL     1      62.882  31.521  11.202  1.00  0.00     0.171 HD
BRANCH  12  14
HETATM   14  C6  UNL     1      64.513  32.611  11.699  1.00  0.00     0.178 A 
HETATM   15  N3  UNL     1      64.877  33.766  12.300  1.00  0.00    -0.222 N 
HETATM   16  O2  UNL     1      65.954  34.198  11.737  1.00  0.00    -0.153 OA
ATOM     17  H3  UNL     1      64.383  34.219  13.069  1.00  0.00     0.198 HD
HETATM   18  N4  UNL     1      66.346  33.413  10.792  1.00  0.00    -0.221 N 
HETATM   19  C7  UNL     1      65.474  32.389  10.721  1.00  0.00     0.189 A 
ATOM     20  H4  UNL     1      67.169  33.543  10.205  1.00  0.00     0.198 HD
BRANCH  19  21
HETATM   21  N5  UNL     1      65.455  31.371   9.940  1.00  0.00    -0.278 N 
ATOM     22  H5  UNL     1      64.629  31.209   9.364  1.00  0.00     0.189 HD
BRANCH  21  23
HETATM   23  N6  UNL     1      66.523  30.479   9.847  1.00  0.00    -0.262 N 
HETATM   24  C8  UNL     1      67.414  30.436   8.756  1.00  0.00     0.295 C 
HETATM   25  O3  UNL     1      67.319  31.202   7.773  1.00  0.00    -0.264 OA
ATOM     26  H6  UNL     1      66.668  29.820  10.612  1.00  0.00     0.190 HD
BRANCH  24  27
HETATM   27  C9  UNL     1      68.520  29.461   8.734  1.00  0.00     0.160 C 
HETATM   28  C10 UNL     1      68.565  28.453   9.579  1.00  0.00     0.177 C 
HETATM   29  O4  UNL     1      69.599  27.547   9.553  1.00  0.00    -0.358 OA
HETATM   30  C11 UNL     1      70.789  27.877   8.870  1.00  0.00     0.201 C 
HETATM   31  C12 UNL     1      70.343  28.451   7.520  1.00  0.00     0.202 C 
HETATM   32  O5  UNL     1      69.552  29.583   7.809  1.00  0.00    -0.342 OA
ENDBRANCH  24  27
ENDBRANCH  21  23
ENDBRANCH  19  21
ENDBRANCH  12  14
ENDBRANCH   5  10
BRANCH   6  33
HETATM   33  O6  UNL     1      63.296  30.701  16.148  1.00  0.00    -0.360 OA
ATOM     34  H6  UNL     1      62.911  31.548  15.962  1.00  0.00     0.217 HD
ENDBRANCH   6  33
TORSDOF 6
ENDMDL
MODEL 5
REMARK VINA RESULT: -9.891688642      3.222      5.081
REMARK  6 active torsions:
REMARK  status: ('A' for Active; 'I' for Inactive)
REMARK    1  A    between atoms: C4_5  and  C5_6 
REMARK       I    between atoms: C5_6  and  N2_8 
REMARK    2  A    between atoms: N2_8  and  C6_10 
REMARK    3  A    between atoms: C7_16  and  N5_17 
REMARK    4  A    between atoms: N5_17  and  N6_19 
REMARK       I    between atoms: N6_19  and  C8_21 
REMARK    5  A    between atoms: C8_21  and  C9_23 
REMARK    6  A    between atoms: C13_29  and  O6_30 
ROOT
HETATM    1  N1  UNL     1      70.385  28.530   7.471  1.00  0.00    -0.191 NA
HETATM    2  C1  UNL     1      69.446  28.866   8.067  1.00  0.00     0.102 C 
HETATM    3  C2  UNL     1      68.296  29.296   8.812  1.00  0.00     0.084 A 
HETATM    4  C3  UNL     1      67.942  30.622   8.922  1.00  0.00     0.045 A 
HETATM    5  C4  UNL     1      66.819  31.051   9.648  1.00  0.00     0.067 A 
HETATM    6  C13 UNL     1      66.072  30.088  10.257  1.00  0.00     0.084 A 
HETATM    7  C14 UNL     1      66.429  28.723  10.149  1.00  0.00     0.081 A 
HETATM    8  C15 UNL     1      67.519  28.333   9.441  1.00  0.00     0.139 A 
HETATM    9  F1  UNL     1      67.893  27.022   9.315  1.00  0.00    -0.204 F 
ENDROOT
BRANCH   5  10
HETATM   10  C5  UNL     1      66.555  32.471   9.687  1.00  0.00     0.260 C 
HETATM   11  O1  UNL     1      66.551  33.187   8.686  1.00  0.00    -0.267 OA
HETATM   12  N2  UNL     1      66.275  33.148  10.924  1.00  0.00    -0.304 N 
ATOM     13  H2  UNL     1      67.005  33.620  11.457  1.00  0.00     0.171 HD
BRANCH  12  14
HETATM   14  C6  UNL     1      65.047  33.125  11.322  1.00  0.00     0.178 A 
HETATM   15  N3  UNL     1      63.917  33.408  10.636  1.00  0.00    -0.222 N 
HETATM   16  O2  UNL     1      62.910  33.256  11.427  1.00  0.00    -0.153 OA
ATOM     17  H3  UNL     1      63.870  33.695   9.658  1.00  0.00     0.198 HD
HETATM   18  N4  UNL     1      63.281  32.886  12.606  1.00  0.00    -0.221 N 
HETATM   19  C7  UNL     1      64.624  32.787  12.601  1.00  0.00     0.189 A 
ATOM     20  H4  UNL     1      62.667  32.703  13.399  1.00  0.00     0.198 HD
BRANCH  19  21
HETATM   21  N5  UNL     1      65.432  32.454  13.541  1.00  0.00    -0.278 N 
ATOM     22  H5  UNL     1      65.787  33.180  14.163  1.00  0.00     0.189 HD
BRANCH  21  23
HETATM   23  N6  UNL     1      65.842  31.136  13.743  1.00  0.00    -0.262 N 
HETATM   24  C8  UNL     1      65.018  30.137  14.301  1.00  0.00     0.295 C 
HETATM   25  O3  UNL     1      63.842  30.354  14.662  1.00  0.00    -0.264 OA
ATOM     26  H6  UNL     1      66.792  30.881  13.472  1.00  0.00     0.190 HD
BRANCH  24  27
HETATM   27  C9  UNL     1      65.528  28.766  14.482  1.00  0.00     0.160 C 
HETATM   28  C10 UNL     1      65.166  28.028  15.511  1.00  0.00     0.177 C 
HETATM   29  O4  UNL     1      65.645  26.750  15.674  1.00  0.00    -0.358 OA
HETATM   30  C11 UNL     1      66.786  26.342  14.950  1.00  0.00     0.201 C 
HETATM   31  C12 UNL     1      66.549  26.809  13.509  1.00  0.00     0.202 C 
HETATM   32  O5  UNL     1      66.411  28.213  13.562  1.00  0.00    -0.342 OA
ENDBRANCH  24  27
ENDBRANCH  21  23
ENDBRANCH  19  21
ENDBRANCH  12  14
ENDBRANCH   5  10
BRANCH   6  33
HETATM   33  O6  UNL     1      64.962  30.379  10.988  1.00  0.00    -0.360 OA
ATOM     34  H6  UNL     1      64.863  31.198  11.458  1.00  0.00     0.217 HD
ENDBRANCH   6  33
TORSDOF 6
ENDMDL
