MODEL 1
REMARK VINA RESULT: -9.767706880      0.000      0.000
REMARK  5 active torsions:
REMARK  status: ('A' for Active; 'I' for Inactive)
REMARK    1  A    between atoms: C2_2  and  O1_3 
REMARK    2  A    between atoms: O1_3  and  C3_4 
REMARK       I    between atoms: C3_4  and  N1_6 
REMARK    3  A    between atoms: N1_6  and  C4_8 
REMARK    4  A    between atoms: C8_17  and  N4_18 
REMARK    5  A    between atoms: N4_18  and  C9_20 
ROOT
HETATM    1  C9  UNL     1      15.016  10.406  14.971  1.00  0.00     0.245 C 
HETATM    2  C10 UNL     1      15.142   9.690  16.245  1.00  0.00     0.078 C 
HETATM    3  N5  UNL     1      15.249   9.120  17.248  1.00  0.00    -0.196 NA
ENDROOT
BRANCH   1   4
HETATM    4  N4  UNL     1      13.980   9.788  14.193  1.00  0.00    -0.362 N 
ATOM      5  H4  UNL     1      13.163   9.451  14.704  1.00  0.00     0.162 HD
BRANCH   4   6
HETATM    6  C8  UNL     1      13.976   9.615  12.926  1.00  0.00     0.134 C 
HETATM    7  C7  UNL     1      13.003  10.300  12.201  1.00  0.00     0.106 A 
HETATM    8  N3  UNL     1      12.281  11.320  12.687  1.00  0.00    -0.347 N 
HETATM    9  C13 UNL     1      12.606  10.077  10.901  1.00  0.00     0.096 A 
HETATM   10  C6  UNL     1      11.429  11.747  11.710  1.00  0.00     0.102 A 
ATOM     11  H3  UNL     1      12.355  11.710  13.626  1.00  0.00     0.166 HD
HETATM   12  C5  UNL     1      10.477  12.742  11.650  1.00  0.00     0.148 A 
HETATM   13  C14 UNL     1      11.612  10.978  10.567  1.00  0.00     0.108 A 
HETATM   14  N2  UNL     1       9.773  12.931  10.513  1.00  0.00    -0.178 N 
HETATM   15 CL1  UNL     1      10.240  13.714  13.085  1.00  0.00    -0.061 Cl
HETATM   16  C4  UNL     1       9.950  12.187   9.405  1.00  0.00     0.688 A 
ATOM     17  H2  UNL     1       9.073  13.673  10.493  1.00  0.00     0.185 HD
HETATM   18  N8  UNL     1      10.882  11.212   9.462  1.00  0.00    -0.187 N 
ATOM     19  H8  UNL     1      11.039  10.631   8.638  1.00  0.00     0.184 HD
HETATM   20  N7  UNL     1      13.091   9.138  10.066  1.00  0.00    -0.315 N 
HETATM   21  C12 UNL     1      13.953   8.116  10.310  1.00  0.00     0.314 C 
ATOM     22  H7  UNL     1      12.761   9.204   9.103  1.00  0.00     0.169 HD
HETATM   23  C11 UNL     1      14.819   7.981  11.369  1.00  0.00     0.315 C 
HETATM   24  O4  UNL     1      13.958   7.168   9.457  1.00  0.00    -0.262 OA
HETATM   25  N6  UNL     1      14.937   8.776  12.473  1.00  0.00    -0.303 N 
HETATM   26  O3  UNL     1      15.598   7.001  11.306  1.00  0.00    -0.262 OA
ATOM     27  H6  UNL     1      15.813   8.734  12.994  1.00  0.00     0.171 HD
BRANCH  16  28
HETATM   28  N1  UNL     1       9.236  12.444   8.383  1.00  0.00    -0.135 N 
HETATM   29  C3  UNL     1       8.219  11.636   7.855  1.00  0.00     0.379 C 
HETATM   30  O2  UNL     1       7.198  11.422   8.559  1.00  0.00    -0.238 OA
ATOM     31  H1  UNL     1       9.421  13.325   7.902  1.00  0.00     0.189 HD
BRANCH  29  32
HETATM   32  O1  UNL     1       8.273  11.054   6.597  1.00  0.00    -0.304 OA
BRANCH  32  33
HETATM   33  C2  UNL     1       7.101  11.093   5.769  1.00  0.00     0.176 C 
HETATM   34  C1  UNL     1       7.429  11.564   4.395  1.00  0.00     0.034 C 
ENDBRANCH  32  33
ENDBRANCH  29  32
ENDBRANCH  16  28
ENDBRANCH   4   6
ENDBRANCH   1   4
TORSDOF 5
ENDMDL
MODEL 2
REMARK VINA RESULT: -9.480242120      3.012      3.996
REMARK  5 active torsions:
REMARK  status: ('A' for Active; 'I' for Inactive)
REMARK    1  A    between atoms: C2_2  and  O1_3 
REMARK    2  A    between atoms: O1_3  and  C3_4 
REMARK       I    between atoms: C3_4  and  N1_6 
REMARK    3  A    between atoms: N1_6  and  C4_8 
REMARK    4  A    between atoms: C8_17  and  N4_18 
REMARK    5  A    between atoms: N4_18  and  C9_20 
ROOT
HETATM    1  C9  UNL     1      14.726   8.667  12.942  1.00  0.00     0.245 C 
HETATM    2  C10 UNL     1      14.991   7.890  11.727  1.00  0.00     0.078 C 
HETATM    3  N5  UNL     1      15.210   7.277  10.768  1.00  0.00    -0.196 NA
ENDROOT
BRANCH   1   4
HETATM    4  N4  UNL     1      14.464  10.030  12.572  1.00  0.00    -0.362 N 
ATOM      5  H4  UNL     1      15.154  10.483  11.973  1.00  0.00     0.162 HD
BRANCH   4   6
HETATM    6  C8  UNL     1      13.453  10.734  12.916  1.00  0.00     0.134 C 
HETATM    7  C7  UNL     1      12.493  10.979  11.936  1.00  0.00     0.106 A 
HETATM    8  N3  UNL     1      12.412  10.307  10.778  1.00  0.00    -0.347 N 
HETATM    9  C13 UNL     1      11.484  11.916  11.957  1.00  0.00     0.096 A 
HETATM   10  C6  UNL     1      11.362  10.807  10.064  1.00  0.00     0.102 A 
ATOM     11  H3  UNL     1      13.029   9.551  10.481  1.00  0.00     0.166 HD
HETATM   12  C5  UNL     1      10.823  10.505   8.831  1.00  0.00     0.148 A 
HETATM   13  C14 UNL     1      10.755  11.827  10.786  1.00  0.00     0.108 A 
HETATM   14  N2  UNL     1       9.752  11.193   8.380  1.00  0.00    -0.178 N 
HETATM   15 CL1  UNL     1      11.581   9.222   7.916  1.00  0.00    -0.061 Cl
HETATM   16  C4  UNL     1       9.163  12.182   9.078  1.00  0.00     0.688 A 
ATOM     17  H2  UNL     1       9.371  10.952   7.465  1.00  0.00     0.185 HD
HETATM   18  N8  UNL     1       9.690  12.478  10.286  1.00  0.00    -0.187 N 
ATOM     19  H8  UNL     1       9.265  13.223  10.839  1.00  0.00     0.184 HD
HETATM   20  N7  UNL     1      11.225  12.790  12.948  1.00  0.00    -0.315 N 
HETATM   21  C12 UNL     1      11.938  13.071  14.070  1.00  0.00     0.314 C 
ATOM     22  H7  UNL     1      10.362  13.323  12.840  1.00  0.00     0.169 HD
HETATM   23  C11 UNL     1      12.912  12.304  14.662  1.00  0.00     0.315 C 
HETATM   24  O4  UNL     1      11.673  14.180  14.643  1.00  0.00    -0.262 OA
HETATM   25  N6  UNL     1      13.469  11.143  14.207  1.00  0.00    -0.303 N 
HETATM   26  O3  UNL     1      13.340  12.728  15.762  1.00  0.00    -0.262 OA
ATOM     27  H6  UNL     1      13.931  10.541  14.888  1.00  0.00     0.171 HD
BRANCH  16  28
HETATM   28  N1  UNL     1       8.158  12.769   8.565  1.00  0.00    -0.135 N 
HETATM   29  C3  UNL     1       7.198  12.190   7.722  1.00  0.00     0.379 C 
HETATM   30  O2  UNL     1       6.470  11.274   8.185  1.00  0.00    -0.238 OA
ATOM     31  H1  UNL     1       8.039  13.757   8.788  1.00  0.00     0.189 HD
BRANCH  29  32
HETATM   32  O1  UNL     1       7.003  12.569   6.402  1.00  0.00    -0.304 OA
BRANCH  32  33
HETATM   33  C2  UNL     1       7.726  11.878   5.373  1.00  0.00     0.176 C 
HETATM   34  C1  UNL     1       6.869  10.857   4.707  1.00  0.00     0.034 C 
ENDBRANCH  32  33
ENDBRANCH  29  32
ENDBRANCH  16  28
ENDBRANCH   4   6
ENDBRANCH   1   4
TORSDOF 5
ENDMDL
MODEL 3
REMARK VINA RESULT: -9.439334087      1.634      2.210
REMARK  5 active torsions:
REMARK  status: ('A' for Active; 'I' for Inactive)
REMARK    1  A    between atoms: C2_2  and  O1_3 
REMARK    2  A    between atoms: O1_3  and  C3_4 
REMARK       I    between atoms: C3_4  and  N1_6 
REMARK    3  A    between atoms: N1_6  and  C4_8 
REMARK    4  A    between atoms: C8_17  and  N4_18 
REMARK    5  A    between atoms: N4_18  and  C9_20 
ROOT
HETATM    1  C9  UNL     1      16.061   9.524  16.639  1.00  0.00     0.245 C 
HETATM    2  C10 UNL     1      16.063  10.958  16.945  1.00  0.00     0.078 C 
HETATM    3  N5  UNL     1      16.060  12.089  17.196  1.00  0.00    -0.196 NA
ENDROOT
BRANCH   1   4
HETATM    4  N4  UNL     1      14.928   9.230  15.806  1.00  0.00    -0.362 N 
ATOM      5  H4  UNL     1      14.023   9.158  16.272  1.00  0.00     0.162 HD
BRANCH   4   6
HETATM    6  C8  UNL     1      14.937   9.050  14.540  1.00  0.00     0.134 C 
HETATM    7  C7  UNL     1      14.101   9.868  13.782  1.00  0.00     0.106 A 
HETATM    8  N3  UNL     1      13.526  10.989  14.241  1.00  0.00    -0.347 N 
HETATM    9  C13 UNL     1      13.715   9.697  12.471  1.00  0.00     0.096 A 
HETATM   10  C6  UNL     1      12.778  11.531  13.237  1.00  0.00     0.102 A 
ATOM     11  H3  UNL     1      13.629  11.370  15.181  1.00  0.00     0.166 HD
HETATM   12  C5  UNL     1      11.990  12.658  13.144  1.00  0.00     0.148 A 
HETATM   13  C14 UNL     1      12.879  10.735  12.103  1.00  0.00     0.108 A 
HETATM   14  N2  UNL     1      11.357  12.941  11.984  1.00  0.00    -0.178 N 
HETATM   15 CL1  UNL     1      11.858  13.666  14.567  1.00  0.00    -0.061 Cl
HETATM   16  C4  UNL     1      11.454  12.170  10.884  1.00  0.00     0.688 A 
ATOM     17  H2  UNL     1      10.779  13.780  11.939  1.00  0.00     0.185 HD
HETATM   18  N8  UNL     1      12.227  11.066  10.974  1.00  0.00    -0.187 N 
ATOM     19  H8  UNL     1      12.320  10.462  10.157  1.00  0.00     0.184 HD
HETATM   20  N7  UNL     1      14.078   8.689  11.655  1.00  0.00    -0.315 N 
HETATM   21  C12 UNL     1      14.769   7.551  11.930  1.00  0.00     0.314 C 
ATOM     22  H7  UNL     1      13.792   8.796  10.682  1.00  0.00     0.169 HD
HETATM   23  C11 UNL     1      15.572   7.296  13.015  1.00  0.00     0.315 C 
HETATM   24  O4  UNL     1      14.658   6.607  11.080  1.00  0.00    -0.262 OA
HETATM   25  N6  UNL     1      15.774   8.072  14.120  1.00  0.00    -0.303 N 
HETATM   26  O3  UNL     1      16.196   6.209  12.981  1.00  0.00    -0.262 OA
ATOM     27  H6  UNL     1      16.618   7.904  14.668  1.00  0.00     0.171 HD
BRANCH  16  28
HETATM   28  N1  UNL     1      10.819  12.524   9.840  1.00  0.00    -0.135 N 
HETATM   29  C3  UNL     1       9.426  12.542   9.682  1.00  0.00     0.379 C 
HETATM   30  O2  UNL     1       8.751  13.325  10.399  1.00  0.00    -0.238 OA
ATOM     31  H1  UNL     1      11.378  12.824   9.041  1.00  0.00     0.189 HD
BRANCH  29  32
HETATM   32  O1  UNL     1       8.743  11.743   8.776  1.00  0.00    -0.304 OA
BRANCH  32  33
HETATM   33  C2  UNL     1       7.838  12.367   7.853  1.00  0.00     0.176 C 
HETATM   34  C1  UNL     1       8.560  13.284   6.928  1.00  0.00     0.034 C 
ENDBRANCH  32  33
ENDBRANCH  29  32
ENDBRANCH  16  28
ENDBRANCH   4   6
ENDBRANCH   1   4
TORSDOF 5
ENDMDL
MODEL 4
REMARK VINA RESULT: -9.243115864      3.266      8.735
REMARK  5 active torsions:
REMARK  status: ('A' for Active; 'I' for Inactive)
REMARK    1  A    between atoms: C2_2  and  O1_3 
REMARK    2  A    between atoms: O1_3  and  C3_4 
REMARK       I    between atoms: C3_4  and  N1_6 
REMARK    3  A    between atoms: N1_6  and  C4_8 
REMARK    4  A    between atoms: C8_17  and  N4_18 
REMARK    5  A    between atoms: N4_18  and  C9_20 
ROOT
HETATM    1  C9  UNL     1      10.790   9.160   8.529  1.00  0.00     0.245 C 
HETATM    2  C10 UNL     1       9.667  10.034   8.174  1.00  0.00     0.078 C 
HETATM    3  N5  UNL     1       8.782  10.724   7.884  1.00  0.00    -0.196 NA
ENDROOT
BRANCH   1   4
HETATM    4  N4  UNL     1      11.925   9.976   8.859  1.00  0.00    -0.362 N 
ATOM      5  H4  UNL     1      12.743   9.887   8.256  1.00  0.00     0.162 HD
BRANCH   4   6
HETATM    6  C8  UNL     1      12.016  10.802   9.831  1.00  0.00     0.134 C 
HETATM    7  C7  UNL     1      12.664  10.353  10.980  1.00  0.00     0.106 A 
HETATM    8  N3  UNL     1      13.429   9.252  11.032  1.00  0.00    -0.347 N 
HETATM    9  C13 UNL     1      12.648  10.920  12.235  1.00  0.00     0.096 A 
HETATM   10  C6  UNL     1      13.900   9.115  12.305  1.00  0.00     0.102 A 
ATOM     11  H3  UNL     1      13.626   8.625  10.252  1.00  0.00     0.166 HD
HETATM   12  C5  UNL     1      14.714   8.189  12.921  1.00  0.00     0.148 A 
HETATM   13  C14 UNL     1      13.422  10.157  13.090  1.00  0.00     0.108 A 
HETATM   14  N2  UNL     1      15.012   8.323  14.232  1.00  0.00    -0.178 N 
HETATM   15 CL1  UNL     1      15.320   6.874  11.940  1.00  0.00    -0.061 Cl
HETATM   16  C4  UNL     1      14.550   9.332  14.993  1.00  0.00     0.688 A 
ATOM     17  H2  UNL     1      15.616   7.625  14.666  1.00  0.00     0.185 HD
HETATM   18  N8  UNL     1      13.751  10.240  14.391  1.00  0.00    -0.187 N 
ATOM     19  H8  UNL     1      13.385  11.017  14.942  1.00  0.00     0.184 HD
HETATM   20  N7  UNL     1      11.993  12.039  12.598  1.00  0.00    -0.315 N 
HETATM   21  C12 UNL     1      11.101  12.792  11.902  1.00  0.00     0.314 C 
ATOM     22  H7  UNL     1      12.199  12.374  13.540  1.00  0.00     0.169 HD
HETATM   23  C11 UNL     1      10.898  12.814  10.543  1.00  0.00     0.315 C 
HETATM   24  O4  UNL     1      10.361  13.569  12.592  1.00  0.00    -0.262 OA
HETATM   25  N6  UNL     1      11.459  12.012   9.591  1.00  0.00    -0.303 N 
HETATM   26  O3  UNL     1      10.094  13.683  10.132  1.00  0.00    -0.262 OA
ATOM     27  H6  UNL     1      11.458  12.350   8.628  1.00  0.00     0.171 HD
BRANCH  16  28
HETATM   28  N1  UNL     1      14.888   9.369  16.219  1.00  0.00    -0.135 N 
HETATM   29  C3  UNL     1      15.879  10.184  16.783  1.00  0.00     0.379 C 
HETATM   30  O2  UNL     1      15.716  11.432  16.755  1.00  0.00    -0.238 OA
ATOM     31  H1  UNL     1      14.389   8.744  16.853  1.00  0.00     0.189 HD
BRANCH  29  32
HETATM   32  O1  UNL     1      17.036   9.695  17.373  1.00  0.00    -0.304 OA
BRANCH  32  33
HETATM   33  C2  UNL     1      18.156  10.578  17.529  1.00  0.00     0.176 C 
HETATM   34  C1  UNL     1      19.440   9.822  17.528  1.00  0.00     0.034 C 
ENDBRANCH  32  33
ENDBRANCH  29  32
ENDBRANCH  16  28
ENDBRANCH   4   6
ENDBRANCH   1   4
TORSDOF 5
ENDMDL
MODEL 5
REMARK VINA RESULT: -9.108236967      3.520      8.548
REMARK  5 active torsions:
REMARK  status: ('A' for Active; 'I' for Inactive)
REMARK    1  A    between atoms: C2_2  and  O1_3 
REMARK    2  A    between atoms: O1_3  and  C3_4 
REMARK       I    between atoms: C3_4  and  N1_6 
REMARK    3  A    between atoms: N1_6  and  C4_8 
REMARK    4  A    between atoms: C8_17  and  N4_18 
REMARK    5  A    between atoms: N4_18  and  C9_20 
ROOT
HETATM    1  C9  UNL     1      10.005  12.322  10.059  1.00  0.00     0.245 C 
HETATM    2  C10 UNL     1       9.217  11.554   9.088  1.00  0.00     0.078 C 
HETATM    3  N5  UNL     1       8.588  10.945   8.329  1.00  0.00    -0.196 NA
ENDROOT
BRANCH   1   4
HETATM    4  N4  UNL     1      11.024  11.470  10.605  1.00  0.00    -0.362 N 
ATOM      5  H4  UNL     1      11.178  10.579  10.132  1.00  0.00     0.162 HD
BRANCH   4   6
HETATM    6  C8  UNL     1      11.759  11.714  11.623  1.00  0.00     0.134 C 
HETATM    7  C7  UNL     1      12.705  10.749  11.961  1.00  0.00     0.106 A 
HETATM    8  N3  UNL     1      13.086   9.751  11.150  1.00  0.00    -0.347 N 
HETATM    9  C13 UNL     1      13.407  10.631  13.141  1.00  0.00     0.096 A 
HETATM   10  C6  UNL     1      14.021   9.000  11.802  1.00  0.00     0.102 A 
ATOM     11  H3  UNL     1      12.736   9.581  10.207  1.00  0.00     0.166 HD
HETATM   12  C5  UNL     1      14.743   7.877  11.459  1.00  0.00     0.148 A 
HETATM   13  C14 UNL     1      14.245   9.534  13.065  1.00  0.00     0.108 A 
HETATM   14  N2  UNL     1      15.620   7.348  12.340  1.00  0.00    -0.178 N 
HETATM   15 CL1  UNL     1      14.467   7.199   9.871  1.00  0.00    -0.061 Cl
HETATM   16  C4  UNL     1      15.838   7.864  13.564  1.00  0.00     0.688 A 
ATOM     17  H2  UNL     1      16.142   6.516  12.064  1.00  0.00     0.185 HD
HETATM   18  N8  UNL     1      15.131   8.964  13.901  1.00  0.00    -0.187 N 
ATOM     19  H8  UNL     1      15.274   9.379  14.823  1.00  0.00     0.184 HD
HETATM   20  N7  UNL     1      13.311  11.441  14.212  1.00  0.00    -0.315 N 
HETATM   21  C12 UNL     1      12.440  12.453  14.465  1.00  0.00     0.314 C 
ATOM     22  H7  UNL     1      13.998  11.269  14.947  1.00  0.00     0.169 HD
HETATM   23  C11 UNL     1      11.664  13.140  13.562  1.00  0.00     0.315 C 
HETATM   24  O4  UNL     1      12.327  12.807  15.685  1.00  0.00    -0.262 OA
HETATM   25  N6  UNL     1      11.501  12.897  12.229  1.00  0.00    -0.303 N 
HETATM   26  O3  UNL     1      11.027  14.114  14.030  1.00  0.00    -0.262 OA
ATOM     27  H6  UNL     1      11.159  13.662  11.647  1.00  0.00     0.171 HD
BRANCH  16  28
HETATM   28  N1  UNL     1      16.685   7.291  14.320  1.00  0.00    -0.135 N 
HETATM   29  C3  UNL     1      17.439   6.150  14.008  1.00  0.00     0.379 C 
HETATM   30  O2  UNL     1      18.274   6.223  13.069  1.00  0.00    -0.238 OA
ATOM     31  H1  UNL     1      16.830   7.701  15.243  1.00  0.00     0.189 HD
BRANCH  29  32
HETATM   32  O1  UNL     1      17.319   4.940  14.676  1.00  0.00    -0.304 OA
BRANCH  32  33
HETATM   33  C2  UNL     1      16.865   3.792  13.945  1.00  0.00     0.176 C 
HETATM   34  C1  UNL     1      15.412   3.894  13.634  1.00  0.00     0.034 C 
ENDBRANCH  32  33
ENDBRANCH  29  32
ENDBRANCH  16  28
ENDBRANCH   4   6
ENDBRANCH   1   4
TORSDOF 5
ENDMDL
