MODEL 1
REMARK VINA RESULT: -10.847009153      0.000      0.000
REMARK  3 active torsions:
REMARK  status: ('A' for Active; 'I' for Inactive)
REMARK    1  A    between atoms: N1_5  and  C5_6 
REMARK    2  A    between atoms: C7_14  and  C8_15 
REMARK       I    between atoms: C8_15  and  N5_17 
REMARK    3  A    between atoms: N5_17  and  C9_19 
ROOT
HETATM    1  C1  UNL     1       7.627  12.077   4.647  1.00  0.00     0.012 C 
HETATM    2  C2  UNL     1       7.780  12.266   5.801  1.00  0.00    -0.109 C 
HETATM    3  C3  UNL     1       7.975  12.503   7.232  1.00  0.00     0.100 C 
HETATM    4  C4  UNL     1       9.307  13.113   7.573  1.00  0.00     0.143 C 
HETATM    5  N1  UNL     1       9.440  12.163   8.644  1.00  0.00    -0.363 N 
HETATM    6  C14 UNL     1       8.505  11.304   7.973  1.00  0.00     0.143 C 
ENDROOT
BRANCH   5   7
HETATM    7  C5  UNL     1      10.182  12.119   9.848  1.00  0.00     0.143 A 
HETATM    8  N2  UNL     1       9.953  12.969  10.860  1.00  0.00    -0.175 N 
HETATM    9  C6  UNL     1      10.632  12.969  12.002  1.00  0.00     0.686 A 
ATOM     10  H2  UNL     1       9.210  13.658  10.746  1.00  0.00     0.186 HD
HETATM   11  N3  UNL     1      10.304  13.847  12.874  1.00  0.00    -0.234 N 
HETATM   12  N4  UNL     1      11.625  12.078  12.207  1.00  0.00    -0.122 N 
ATOM     13  H32 UNL     1       9.554  14.521  12.719  1.00  0.00     0.174 HD
ATOM     14  H31 UNL     1      10.826  13.848  13.751  1.00  0.00     0.174 HD
HETATM   15  C7  UNL     1      12.467  11.842  13.220  1.00  0.00     0.199 A 
HETATM   16  C12 UNL     1      11.893  11.191  11.195  1.00  0.00     0.122 A 
HETATM   17  N10 UNL     1      13.278  10.791  12.845  1.00  0.00    -0.326 N 
HETATM   18  C10 UNL     1      12.930  10.405  11.631  1.00  0.00     0.145 A 
ATOM     19  H10 UNL     1      14.022  10.381  13.409  1.00  0.00     0.168 HD
HETATM   20  C11 UNL     1      13.538   9.323  10.858  1.00  0.00     0.120 C 
HETATM   21  N11 UNL     1      14.035   8.471  10.228  1.00  0.00    -0.190 NA
HETATM   22  C13 UNL     1      11.195  11.187  10.018  1.00  0.00     0.109 A 
HETATM   23 CL1  UNL     1      11.590  10.023   8.763  1.00  0.00    -0.078 Cl
BRANCH  15  24
HETATM   24  C8  UNL     1      12.568  12.504  14.513  1.00  0.00     0.305 C 
HETATM   25  O1  UNL     1      12.546  13.726  14.658  1.00  0.00    -0.263 OA
HETATM   26  N5  UNL     1      12.709  11.660  15.694  1.00  0.00    -0.150 N 
ATOM     27  H5  UNL     1      11.972  11.645  16.399  1.00  0.00     0.188 HD
BRANCH  26  28
HETATM   28  C9  UNL     1      13.738  10.947  15.844  1.00  0.00     0.716 A 
HETATM   29  N6  UNL     1      15.047  11.290  15.876  1.00  0.00    -0.115 N 
HETATM   30  N7  UNL     1      15.741  10.192  16.048  1.00  0.00    -0.213 N 
ATOM     31  H6  UNL     1      15.424  12.233  15.784  1.00  0.00     0.207 HD
HETATM   32  N8  UNL     1      14.944   9.136  16.130  1.00  0.00    -0.213 N 
ATOM     33  H7  UNL     1      16.759  10.155  16.109  1.00  0.00     0.210 HD
HETATM   34  N9  UNL     1      13.728   9.590  16.008  1.00  0.00    -0.115 N 
ATOM     35  H8  UNL     1      15.226   8.164  16.263  1.00  0.00     0.210 HD
ATOM     36  H9  UNL     1      12.887   9.013  16.031  1.00  0.00     0.207 HD
ENDBRANCH  26  28
ENDBRANCH  15  24
ENDBRANCH   5   7
TORSDOF 3
ENDMDL
MODEL 2
REMARK VINA RESULT: -9.669044363      2.010      3.363
REMARK  3 active torsions:
REMARK  status: ('A' for Active; 'I' for Inactive)
REMARK    1  A    between atoms: N1_5  and  C5_6 
REMARK    2  A    between atoms: C7_14  and  C8_15 
REMARK       I    between atoms: C8_15  and  N5_17 
REMARK    3  A    between atoms: N5_17  and  C9_19 
ROOT
HETATM    1  C1  UNL     1       7.805  12.992   5.554  1.00  0.00     0.012 C 
HETATM    2  C2  UNL     1       8.163  12.819   6.664  1.00  0.00    -0.109 C 
HETATM    3  C3  UNL     1       8.614  12.607   8.041  1.00  0.00     0.100 C 
HETATM    4  C4  UNL     1      10.065  12.933   8.265  1.00  0.00     0.143 C 
HETATM    5  N1  UNL     1      10.202  11.705   8.999  1.00  0.00    -0.363 N 
HETATM    6  C14 UNL     1       9.045  11.191   8.320  1.00  0.00     0.143 C 
ENDROOT
BRANCH   5   7
HETATM    7  C5  UNL     1      11.103  11.227   9.981  1.00  0.00     0.143 A 
HETATM    8  N2  UNL     1      11.825  10.110   9.804  1.00  0.00    -0.175 N 
HETATM    9  C6  UNL     1      12.673   9.621  10.703  1.00  0.00     0.686 A 
ATOM     10  H2  UNL     1      11.716   9.605   8.925  1.00  0.00     0.186 HD
HETATM   11  N3  UNL     1      13.286   8.540  10.395  1.00  0.00    -0.234 N 
HETATM   12  N4  UNL     1      12.857  10.250  11.882  1.00  0.00    -0.122 N 
ATOM     13  H32 UNL     1      13.147   8.064   9.503  1.00  0.00     0.174 HD
ATOM     14  H31 UNL     1      13.937   8.164  11.085  1.00  0.00     0.174 HD
HETATM   15  C7  UNL     1      13.615  10.005  12.958  1.00  0.00     0.199 A 
HETATM   16  C12 UNL     1      12.136  11.397  12.103  1.00  0.00     0.122 A 
HETATM   17  N10 UNL     1      13.371  11.009  13.871  1.00  0.00    -0.326 N 
HETATM   18  C10 UNL     1      12.484  11.840  13.354  1.00  0.00     0.145 A 
ATOM     19  H10 UNL     1      13.803  11.096  14.791  1.00  0.00     0.168 HD
HETATM   20  C11 UNL     1      11.946  13.040  13.993  1.00  0.00     0.120 C 
HETATM   21  N11 UNL     1      11.497  13.990  14.509  1.00  0.00    -0.190 NA
HETATM   22  C13 UNL     1      11.262  11.904  11.181  1.00  0.00     0.109 A 
HETATM   23 CL1  UNL     1      10.370  13.377  11.528  1.00  0.00    -0.078 Cl
BRANCH  15  24
HETATM   24  C8  UNL     1      14.557   8.921  13.198  1.00  0.00     0.305 C 
HETATM   25  O1  UNL     1      14.426   7.788  12.737  1.00  0.00    -0.263 OA
HETATM   26  N5  UNL     1      15.714   9.208  14.039  1.00  0.00    -0.150 N 
ATOM     27  H5  UNL     1      16.653   9.172  13.642  1.00  0.00     0.188 HD
BRANCH  26  28
HETATM   28  C9  UNL     1      15.556   9.500  15.255  1.00  0.00     0.716 A 
HETATM   29  N6  UNL     1      14.848   8.874  16.224  1.00  0.00    -0.115 N 
HETATM   30  N7  UNL     1      14.984   9.568  17.328  1.00  0.00    -0.213 N 
ATOM     31  H6  UNL     1      14.306   8.016  16.115  1.00  0.00     0.207 HD
HETATM   32  N8  UNL     1      15.755  10.629  17.128  1.00  0.00    -0.213 N 
ATOM     33  H7  UNL     1      14.556   9.325  18.221  1.00  0.00     0.210 HD
HETATM   34  N9  UNL     1      16.104  10.591  15.872  1.00  0.00    -0.115 N 
ATOM     35  H8  UNL     1      16.021  11.332  17.817  1.00  0.00     0.210 HD
ATOM     36  H9  UNL     1      16.702  11.278  15.413  1.00  0.00     0.207 HD
ENDBRANCH  26  28
ENDBRANCH  15  24
ENDBRANCH   5   7
TORSDOF 3
ENDMDL
MODEL 3
REMARK VINA RESULT: -9.478289346      3.260      5.841
REMARK  3 active torsions:
REMARK  status: ('A' for Active; 'I' for Inactive)
REMARK    1  A    between atoms: N1_5  and  C5_6 
REMARK    2  A    between atoms: C7_14  and  C8_15 
REMARK       I    between atoms: C8_15  and  N5_17 
REMARK    3  A    between atoms: N5_17  and  C9_19 
ROOT
HETATM    1  C1  UNL     1       9.297  13.715   7.410  1.00  0.00     0.012 C 
HETATM    2  C2  UNL     1       9.808  13.191   8.335  1.00  0.00    -0.109 C 
HETATM    3  C3  UNL     1      10.449  12.539   9.479  1.00  0.00     0.100 C 
HETATM    4  C4  UNL     1      11.924  12.305   9.302  1.00  0.00     0.143 C 
HETATM    5  N1  UNL     1      11.747  10.971   9.806  1.00  0.00    -0.363 N 
HETATM    6  C14 UNL     1      10.359  11.036   9.443  1.00  0.00     0.143 C 
ENDROOT
BRANCH   5   7
HETATM    7  C5  UNL     1      12.598  10.015  10.410  1.00  0.00     0.143 A 
HETATM    8  N2  UNL     1      13.184   9.034   9.706  1.00  0.00    -0.175 N 
HETATM    9  C6  UNL     1      13.980   8.110  10.234  1.00  0.00     0.686 A 
ATOM     10  H2  UNL     1      13.007   8.995   8.702  1.00  0.00     0.186 HD
HETATM   11  N3  UNL     1      14.459   7.232   9.437  1.00  0.00    -0.234 N 
HETATM   12  N4  UNL     1      14.249   8.115  11.557  1.00  0.00    -0.122 N 
ATOM     13  H32 UNL     1      14.256   7.227   8.437  1.00  0.00     0.174 HD
ATOM     14  H31 UNL     1      15.071   6.522   9.842  1.00  0.00     0.174 HD
HETATM   15  C7  UNL     1      14.986   7.337  12.358  1.00  0.00     0.199 A 
HETATM   16  C12 UNL     1      13.668   9.102  12.314  1.00  0.00     0.122 A 
HETATM   17  N10 UNL     1      14.871   7.838  13.638  1.00  0.00    -0.326 N 
HETATM   18  C10 UNL     1      14.080   8.895  13.606  1.00  0.00     0.145 A 
ATOM     19  H10 UNL     1      15.321   7.456  14.470  1.00  0.00     0.168 HD
HETATM   20  C11 UNL     1      13.692   9.721  14.747  1.00  0.00     0.120 C 
HETATM   21  N11 UNL     1      13.363  10.374  15.662  1.00  0.00    -0.190 NA
HETATM   22  C13 UNL     1      12.848  10.055  11.773  1.00  0.00     0.109 A 
HETATM   23 CL1  UNL     1      12.137  11.291  12.800  1.00  0.00    -0.078 Cl
BRANCH  15  24
HETATM   24  C8  UNL     1      15.799   6.175  12.027  1.00  0.00     0.305 C 
HETATM   25  O1  UNL     1      16.996   6.238  11.746  1.00  0.00    -0.263 OA
HETATM   26  N5  UNL     1      15.144   4.873  12.026  1.00  0.00    -0.150 N 
ATOM     27  H5  UNL     1      15.424   4.162  12.703  1.00  0.00     0.188 HD
BRANCH  26  28
HETATM   28  C9  UNL     1      14.233   4.621  11.192  1.00  0.00     0.716 A 
HETATM   29  N6  UNL     1      12.897   4.823  11.264  1.00  0.00    -0.115 N 
HETATM   30  N7  UNL     1      12.369   4.388  10.146  1.00  0.00    -0.213 N 
ATOM     31  H6  UNL     1      12.392   5.240  12.046  1.00  0.00     0.207 HD
HETATM   32  N8  UNL     1      13.302   3.906   9.337  1.00  0.00    -0.213 N 
ATOM     33  H7  UNL     1      11.373   4.416   9.927  1.00  0.00     0.210 HD
HETATM   34  N9  UNL     1      14.435   4.046   9.969  1.00  0.00    -0.115 N 
ATOM     35  H8  UNL     1      13.163   3.506   8.410  1.00  0.00     0.210 HD
ATOM     36  H9  UNL     1      15.344   3.765   9.601  1.00  0.00     0.207 HD
ENDBRANCH  26  28
ENDBRANCH  15  24
ENDBRANCH   5   7
TORSDOF 3
ENDMDL
MODEL 4
REMARK VINA RESULT: -9.433206230      3.594      5.368
REMARK  3 active torsions:
REMARK  status: ('A' for Active; 'I' for Inactive)
REMARK    1  A    between atoms: N1_5  and  C5_6 
REMARK    2  A    between atoms: C7_14  and  C8_15 
REMARK       I    between atoms: C8_15  and  N5_17 
REMARK    3  A    between atoms: N5_17  and  C9_19 
ROOT
HETATM    1  C1  UNL     1       9.291  13.729   7.478  1.00  0.00     0.012 C 
HETATM    2  C2  UNL     1       9.874  13.215   8.366  1.00  0.00    -0.109 C 
HETATM    3  C3  UNL     1      10.602  12.575   9.463  1.00  0.00     0.100 C 
HETATM    4  C4  UNL     1      11.982  12.107   9.089  1.00  0.00     0.143 C 
HETATM    5  N1  UNL     1      11.714  10.863   9.756  1.00  0.00    -0.363 N 
HETATM    6  C14 UNL     1      10.306  11.106   9.604  1.00  0.00     0.143 C 
ENDROOT
BRANCH   5   7
HETATM    7  C5  UNL     1      12.517   9.845  10.324  1.00  0.00     0.143 A 
HETATM    8  N2  UNL     1      12.787   8.703   9.674  1.00  0.00    -0.175 N 
HETATM    9  C6  UNL     1      13.526   7.718  10.173  1.00  0.00     0.686 A 
ATOM     10  H2  UNL     1      12.401   8.583   8.737  1.00  0.00     0.186 HD
HETATM   11  N3  UNL     1      13.690   6.684   9.437  1.00  0.00    -0.234 N 
HETATM   12  N4  UNL     1      14.062   7.824  11.407  1.00  0.00    -0.122 N 
ATOM     13  H32 UNL     1      13.285   6.603   8.504  1.00  0.00     0.174 HD
ATOM     14  H31 UNL     1      14.258   5.927   9.820  1.00  0.00     0.174 HD
HETATM   15  C7  UNL     1      14.823   7.022  12.162  1.00  0.00     0.199 A 
HETATM   16  C12 UNL     1      13.809   8.977  12.107  1.00  0.00     0.122 A 
HETATM   17  N10 UNL     1      15.054   7.676  13.354  1.00  0.00    -0.326 N 
HETATM   18  C10 UNL     1      14.444   8.847  13.316  1.00  0.00     0.145 A 
ATOM     19  H10 UNL     1      15.604   7.316  14.134  1.00  0.00     0.168 HD
HETATM   20  C11 UNL     1      14.432   9.852  14.377  1.00  0.00     0.120 C 
HETATM   21  N11 UNL     1      14.403  10.651  15.231  1.00  0.00    -0.190 NA
HETATM   22  C13 UNL     1      13.048   9.994  11.596  1.00  0.00     0.109 A 
HETATM   23 CL1  UNL     1      12.763  11.444  12.546  1.00  0.00    -0.078 Cl
BRANCH  15  24
HETATM   24  C8  UNL     1      15.364   5.705  11.857  1.00  0.00     0.305 C 
HETATM   25  O1  UNL     1      14.667   4.706  11.680  1.00  0.00    -0.263 OA
HETATM   26  N5  UNL     1      16.813   5.576  11.767  1.00  0.00    -0.150 N 
ATOM     27  H5  UNL     1      17.248   5.331  10.877  1.00  0.00     0.188 HD
BRANCH  26  28
HETATM   28  C9  UNL     1      17.531   5.766  12.786  1.00  0.00     0.716 A 
HETATM   29  N6  UNL     1      18.443   6.732  13.050  1.00  0.00    -0.115 N 
HETATM   30  N7  UNL     1      18.935   6.499  14.242  1.00  0.00    -0.213 N 
ATOM     31  H6  UNL     1      18.700   7.502  12.432  1.00  0.00     0.207 HD
HETATM   32  N8  UNL     1      18.385   5.418  14.778  1.00  0.00    -0.213 N 
ATOM     33  H7  UNL     1      19.645   7.072  14.697  1.00  0.00     0.210 HD
HETATM   34  N9  UNL     1      17.533   4.971  13.898  1.00  0.00    -0.115 N 
ATOM     35  H8  UNL     1      18.588   5.017  15.694  1.00  0.00     0.210 HD
ATOM     36  H9  UNL     1      16.949   4.143  14.021  1.00  0.00     0.207 HD
ENDBRANCH  26  28
ENDBRANCH  15  24
ENDBRANCH   5   7
TORSDOF 3
ENDMDL
MODEL 5
REMARK VINA RESULT: -9.279943121      3.956      5.785
REMARK  3 active torsions:
REMARK  status: ('A' for Active; 'I' for Inactive)
REMARK    1  A    between atoms: N1_5  and  C5_6 
REMARK    2  A    between atoms: C7_14  and  C8_15 
REMARK       I    between atoms: C8_15  and  N5_17 
REMARK    3  A    between atoms: N5_17  and  C9_19 
ROOT
HETATM    1  C1  UNL     1       9.870  14.111   7.914  1.00  0.00     0.012 C 
HETATM    2  C2  UNL     1      10.510  13.482   8.679  1.00  0.00    -0.109 C 
HETATM    3  C3  UNL     1      11.308  12.697   9.623  1.00  0.00     0.100 C 
HETATM    4  C4  UNL     1      12.227  11.703   8.967  1.00  0.00     0.143 C 
HETATM    5  N1  UNL     1      11.799  10.716   9.920  1.00  0.00    -0.363 N 
HETATM    6  C14 UNL     1      10.597  11.473  10.137  1.00  0.00     0.143 C 
ENDROOT
BRANCH   5   7
HETATM    7  C5  UNL     1      12.350   9.514  10.423  1.00  0.00     0.143 A 
HETATM    8  N2  UNL     1      12.459   8.408   9.671  1.00  0.00    -0.175 N 
HETATM    9  C6  UNL     1      12.960   7.257  10.106  1.00  0.00     0.686 A 
ATOM     10  H2  UNL     1      12.138   8.454   8.705  1.00  0.00     0.186 HD
HETATM   11  N3  UNL     1      12.992   6.285   9.274  1.00  0.00    -0.234 N 
HETATM   12  N4  UNL     1      13.402   7.140  11.376  1.00  0.00    -0.122 N 
ATOM     13  H32 UNL     1      12.658   6.373   8.314  1.00  0.00     0.174 HD
ATOM     14  H31 UNL     1      13.377   5.401   9.608  1.00  0.00     0.174 HD
HETATM   15  C7  UNL     1      13.937   6.139  12.086  1.00  0.00     0.199 A 
HETATM   16  C12 UNL     1      13.307   8.249  12.180  1.00  0.00     0.122 A 
HETATM   17  N10 UNL     1      14.184   6.620  13.355  1.00  0.00    -0.326 N 
HETATM   18  C10 UNL     1      13.805   7.885  13.406  1.00  0.00     0.145 A 
ATOM     19  H10 UNL     1      14.592   6.089  14.124  1.00  0.00     0.168 HD
HETATM   20  C11 UNL     1      13.890   8.768  14.567  1.00  0.00     0.120 C 
HETATM   21  N11 UNL     1      13.938   9.473  15.500  1.00  0.00    -0.190 NA
HETATM   22  C13 UNL     1      12.793   9.436  11.735  1.00  0.00     0.109 A 
HETATM   23 CL1  UNL     1      12.701  10.817  12.817  1.00  0.00    -0.078 Cl
BRANCH  15  24
HETATM   24  C8  UNL     1      14.249   4.778  11.675  1.00  0.00     0.305 C 
HETATM   25  O1  UNL     1      13.463   4.051  11.068  1.00  0.00    -0.263 OA
HETATM   26  N5  UNL     1      15.569   4.258  12.013  1.00  0.00    -0.150 N 
ATOM     27  H5  UNL     1      16.229   4.025  11.271  1.00  0.00     0.188 HD
BRANCH  26  28
HETATM   28  C9  UNL     1      15.896   4.096  13.220  1.00  0.00     0.716 A 
HETATM   29  N6  UNL     1      16.732   4.812  14.007  1.00  0.00    -0.115 N 
HETATM   30  N7  UNL     1      16.753   4.243  15.187  1.00  0.00    -0.213 N 
ATOM     31  H6  UNL     1      17.252   5.646  13.731  1.00  0.00     0.207 HD
HETATM   32  N8  UNL     1      15.964   3.177  15.212  1.00  0.00    -0.213 N 
ATOM     33  H7  UNL     1      17.303   4.574  15.979  1.00  0.00     0.210 HD
HETATM   34  N9  UNL     1      15.442   3.085  14.021  1.00  0.00    -0.115 N 
ATOM     35  H8  UNL     1      15.799   2.556  16.004  1.00  0.00     0.210 HD
ATOM     36  H9  UNL     1      14.787   2.360  13.727  1.00  0.00     0.207 HD
ENDBRANCH  26  28
ENDBRANCH  15  24
ENDBRANCH   5   7
TORSDOF 3
ENDMDL
