MODEL 1
REMARK VINA RESULT: -8.986039119      0.000      0.000
REMARK  4 active torsions:
REMARK  status: ('A' for Active; 'I' for Inactive)
REMARK    1  A    between atoms: C2_3  and  N2_4 
REMARK    2  A    between atoms: C4_8  and  N3_9 
REMARK       I    between atoms: N3_9  and  C5_11 
REMARK    3  A    between atoms: C5_11  and  C6_13 
REMARK    4  A    between atoms: C8_17  and  N5_18 
ROOT
HETATM    1  C1  UNL     1      10.051  12.551  10.162  1.00  0.00     0.163 C 
HETATM    2  N1  UNL     1      11.062  12.126  11.094  1.00  0.00    -0.289 N 
HETATM    3  C2  UNL     1      11.848  11.096  10.738  1.00  0.00     0.122 A 
HETATM    4  C3  UNL     1      12.816  10.678  11.614  1.00  0.00     0.099 A 
HETATM    5  C4  UNL     1      13.771   9.682  11.576  1.00  0.00     0.141 A 
HETATM    6  N7  UNL     1      14.428   9.759  12.731  1.00  0.00    -0.283 N 
ATOM      7  H7  UNL     1      15.199   9.147  12.997  1.00  0.00     0.188 HD
HETATM    8  N8  UNL     1      13.949  10.739  13.491  1.00  0.00    -0.283 N 
ATOM      9  H8  UNL     1      14.286  10.995  14.419  1.00  0.00     0.188 HD
HETATM   10  C11 UNL     1      12.946  11.331  12.827  1.00  0.00     0.143 A 
HETATM   11  N9  UNL     1      12.153  12.360  13.174  1.00  0.00    -0.288 N 
HETATM   12  C12 UNL     1      12.308  13.037  14.462  1.00  0.00     0.163 C 
HETATM   13  C13 UNL     1      11.198  12.755  12.281  1.00  0.00     0.331 A 
HETATM   14  O4  UNL     1      10.441  13.718  12.580  1.00  0.00    -0.246 OA
ENDROOT
BRANCH   5  15
HETATM   15  N3  UNL     1      13.978   8.842  10.601  1.00  0.00    -0.304 N 
HETATM   16  C5  UNL     1      13.638   7.491  10.725  1.00  0.00     0.291 C 
HETATM   17  O1  UNL     1      12.611   7.085  10.093  1.00  0.00    -0.264 OA
ATOM     18  H3  UNL     1      14.397   9.176   9.733  1.00  0.00     0.171 HD
BRANCH  16  19
HETATM   19  C6  UNL     1      14.372   6.519  11.523  1.00  0.00     0.175 A 
HETATM   20  N4  UNL     1      13.788   5.738  12.355  1.00  0.00    -0.345 N 
HETATM   21  C7  UNL     1      14.483   4.784  13.143  1.00  0.00     0.128 A 
ATOM     22  H4  UNL     1      12.774   5.805  12.456  1.00  0.00     0.167 HD
HETATM   23  C8  UNL     1      15.810   4.653  13.052  1.00  0.00     0.145 A 
HETATM   24  C9  UNL     1      16.551   5.483  12.148  1.00  0.00     0.079 A 
HETATM   25  C10 UNL     1      17.853   5.430  11.986  1.00  0.00     0.116 C 
HETATM   26  N6  UNL     1      15.776   6.439  11.371  1.00  0.00    -0.335 N 
HETATM   27 CL1  UNL     1      18.944   4.370  12.810  1.00  0.00    -0.095 Cl
ATOM     28  H6  UNL     1      16.250   7.058  10.712  1.00  0.00     0.168 HD
BRANCH  23  29
HETATM   29  N5  UNL     1      16.462   3.688  13.857  1.00  0.00    -0.112 N 
HETATM   30  O2  UNL     1      16.577   2.514  13.394  1.00  0.00    -0.532 OA
HETATM   31  O3  UNL     1      16.955   3.935  15.090  1.00  0.00    -0.532 OA
ENDBRANCH  23  29
ENDBRANCH  16  19
ENDBRANCH   5  15
BRANCH   3  32
HETATM   32  N2  UNL     1      11.728  10.487   9.608  1.00  0.00    -0.384 N 
ATOM     33  H22 UNL     1      10.804  10.168   9.316  1.00  0.00     0.157 HD
ATOM     34  H21 UNL     1      12.521  10.310   8.991  1.00  0.00     0.157 HD
ENDBRANCH   3  32
TORSDOF 4
ENDMDL
MODEL 2
REMARK VINA RESULT: -8.856398601      1.262      1.358
REMARK  4 active torsions:
REMARK  status: ('A' for Active; 'I' for Inactive)
REMARK    1  A    between atoms: C2_3  and  N2_4 
REMARK    2  A    between atoms: C4_8  and  N3_9 
REMARK       I    between atoms: N3_9  and  C5_11 
REMARK    3  A    between atoms: C5_11  and  C6_13 
REMARK    4  A    between atoms: C8_17  and  N5_18 
ROOT
HETATM    1  C1  UNL     1       9.240  12.670   9.693  1.00  0.00     0.163 C 
HETATM    2  N1  UNL     1      10.328  12.222  10.520  1.00  0.00    -0.289 N 
HETATM    3  C2  UNL     1      11.088  11.212  10.063  1.00  0.00     0.122 A 
HETATM    4  C3  UNL     1      12.130  10.774  10.839  1.00  0.00     0.099 A 
HETATM    5  C4  UNL     1      13.084   9.789  10.686  1.00  0.00     0.141 A 
HETATM    6  N7  UNL     1      13.837   9.833  11.782  1.00  0.00    -0.283 N 
ATOM      7  H7  UNL     1      14.631   9.219  11.961  1.00  0.00     0.188 HD
HETATM    8  N8  UNL     1      13.418  10.782  12.614  1.00  0.00    -0.283 N 
ATOM      9  H8  UNL     1      13.831  11.010  13.518  1.00  0.00     0.188 HD
HETATM   10  C11 UNL     1      12.358  11.387  12.058  1.00  0.00     0.143 A 
HETATM   11  N9  UNL     1      11.591  12.396  12.506  1.00  0.00    -0.288 N 
HETATM   12  C12 UNL     1      11.851  13.030  13.799  1.00  0.00     0.163 C 
HETATM   13  C13 UNL     1      10.562  12.812  11.712  1.00  0.00     0.331 A 
HETATM   14  O4  UNL     1       9.826  13.757  12.107  1.00  0.00    -0.246 OA
ENDROOT
BRANCH   5  15
HETATM   15  N3  UNL     1      13.213   8.984   9.669  1.00  0.00    -0.304 N 
HETATM   16  C5  UNL     1      12.727   7.674   9.716  1.00  0.00     0.291 C 
HETATM   17  O1  UNL     1      11.671   7.417   9.053  1.00  0.00    -0.264 OA
ATOM     18  H3  UNL     1      13.678   9.316   8.823  1.00  0.00     0.171 HD
BRANCH  16  19
HETATM   19  C6  UNL     1      13.339   6.586  10.466  1.00  0.00     0.175 A 
HETATM   20  N4  UNL     1      12.702   5.511  10.753  1.00  0.00    -0.345 N 
HETATM   21  C7  UNL     1      13.279   4.440  11.483  1.00  0.00     0.128 A 
ATOM     22  H4  UNL     1      11.734   5.422  10.443  1.00  0.00     0.167 HD
HETATM   23  C8  UNL     1      14.543   4.503  11.915  1.00  0.00     0.145 A 
HETATM   24  C9  UNL     1      15.335   5.666  11.641  1.00  0.00     0.079 A 
HETATM   25  C10 UNL     1      16.582   5.823  12.021  1.00  0.00     0.116 C 
HETATM   26  N6  UNL     1      14.682   6.727  10.889  1.00  0.00    -0.335 N 
HETATM   27 CL1  UNL     1      17.529   4.686  12.917  1.00  0.00    -0.095 Cl
ATOM     28  H6  UNL     1      15.196   7.580  10.666  1.00  0.00     0.168 HD
BRANCH  23  29
HETATM   29  N5  UNL     1      15.077   3.410  12.639  1.00  0.00    -0.112 N 
HETATM   30  O2  UNL     1      15.570   2.448  11.977  1.00  0.00    -0.532 OA
HETATM   31  O3  UNL     1      15.082   3.322  13.987  1.00  0.00    -0.532 OA
ENDBRANCH  23  29
ENDBRANCH  16  19
ENDBRANCH   5  15
BRANCH   3  32
HETATM   32  N2  UNL     1      10.876  10.641   8.927  1.00  0.00    -0.384 N 
ATOM     33  H22 UNL     1       9.959  10.737   8.491  1.00  0.00     0.157 HD
ATOM     34  H21 UNL     1      11.590  10.094   8.444  1.00  0.00     0.157 HD
ENDBRANCH   3  32
TORSDOF 4
ENDMDL
MODEL 3
REMARK VINA RESULT: -8.735246140      3.112      8.277
REMARK  4 active torsions:
REMARK  status: ('A' for Active; 'I' for Inactive)
REMARK    1  A    between atoms: C2_3  and  N2_4 
REMARK    2  A    between atoms: C4_8  and  N3_9 
REMARK       I    between atoms: N3_9  and  C5_11 
REMARK    3  A    between atoms: C5_11  and  C6_13 
REMARK    4  A    between atoms: C8_17  and  N5_18 
ROOT
HETATM    1  C1  UNL     1      15.295   3.599  13.815  1.00  0.00     0.163 C 
HETATM    2  N1  UNL     1      14.974   4.326  12.616  1.00  0.00    -0.289 N 
HETATM    3  C2  UNL     1      15.132   5.660  12.631  1.00  0.00     0.122 A 
HETATM    4  C3  UNL     1      14.831   6.368  11.497  1.00  0.00     0.099 A 
HETATM    5  C4  UNL     1      14.875   7.708  11.169  1.00  0.00     0.141 A 
HETATM    6  N7  UNL     1      14.458   7.791   9.908  1.00  0.00    -0.283 N 
ATOM      7  H7  UNL     1      14.380   8.662   9.383  1.00  0.00     0.188 HD
HETATM    8  N8  UNL     1      14.156   6.591   9.422  1.00  0.00    -0.283 N 
ATOM      9  H8  UNL     1      13.815   6.395   8.481  1.00  0.00     0.188 HD
HETATM   10  C11 UNL     1      14.377   5.683  10.384  1.00  0.00     0.143 A 
HETATM   11  N9  UNL     1      14.221   4.347  10.380  1.00  0.00    -0.288 N 
HETATM   12  C12 UNL     1      13.739   3.643   9.191  1.00  0.00     0.163 C 
HETATM   13  C13 UNL     1      14.529   3.669  11.523  1.00  0.00     0.331 A 
HETATM   14  O4  UNL     1      14.393   2.415  11.548  1.00  0.00    -0.246 OA
ENDROOT
BRANCH   5  15
HETATM   15  N3  UNL     1      15.250   8.685  11.945  1.00  0.00    -0.304 N 
HETATM   16  C5  UNL     1      14.325   9.388  12.723  1.00  0.00     0.291 C 
HETATM   17  O1  UNL     1      14.318   9.158  13.975  1.00  0.00    -0.264 OA
ATOM     18  H3  UNL     1      16.237   8.942  11.985  1.00  0.00     0.171 HD
BRANCH  16  19
HETATM   19  C6  UNL     1      13.373  10.361  12.206  1.00  0.00     0.175 A 
HETATM   20  N4  UNL     1      13.095  11.444  12.833  1.00  0.00    -0.345 N 
HETATM   21  C7  UNL     1      12.170  12.405  12.348  1.00  0.00     0.128 A 
ATOM     22  H4  UNL     1      13.561  11.624  13.722  1.00  0.00     0.167 HD
HETATM   23  C8  UNL     1      11.531  12.221  11.188  1.00  0.00     0.145 A 
HETATM   24  C9  UNL     1      11.777  11.039  10.415  1.00  0.00     0.079 A 
HETATM   25  C10 UNL     1      11.201  10.767   9.267  1.00  0.00     0.116 C 
HETATM   26  N6  UNL     1      12.736  10.095  10.971  1.00  0.00    -0.335 N 
HETATM   27 CL1  UNL     1      10.041  11.754   8.446  1.00  0.00    -0.095 Cl
ATOM     28  H6  UNL     1      12.950   9.235  10.466  1.00  0.00     0.168 HD
BRANCH  23  29
HETATM   29  N5  UNL     1      10.617  13.206  10.743  1.00  0.00    -0.112 N 
HETATM   30  O2  UNL     1      11.051  14.100   9.955  1.00  0.00    -0.532 OA
HETATM   31  O3  UNL     1       9.320  13.263  11.115  1.00  0.00    -0.532 OA
ENDBRANCH  23  29
ENDBRANCH  16  19
ENDBRANCH   5  15
BRANCH   3  32
HETATM   32  N2  UNL     1      15.556   6.299  13.668  1.00  0.00    -0.384 N 
ATOM     33  H22 UNL     1      14.934   6.968  14.122  1.00  0.00     0.157 HD
ATOM     34  H21 UNL     1      16.490   6.164  14.054  1.00  0.00     0.157 HD
ENDBRANCH   3  32
TORSDOF 4
ENDMDL
MODEL 4
REMARK VINA RESULT: -8.475407721      1.492      1.779
REMARK  4 active torsions:
REMARK  status: ('A' for Active; 'I' for Inactive)
REMARK    1  A    between atoms: C2_3  and  N2_4 
REMARK    2  A    between atoms: C4_8  and  N3_9 
REMARK       I    between atoms: N3_9  and  C5_11 
REMARK    3  A    between atoms: C5_11  and  C6_13 
REMARK    4  A    between atoms: C8_17  and  N5_18 
ROOT
HETATM    1  C1  UNL     1       9.287  11.718   8.453  1.00  0.00     0.163 C 
HETATM    2  N1  UNL     1      10.186  11.644   9.574  1.00  0.00    -0.289 N 
HETATM    3  C2  UNL     1      11.157  10.716   9.538  1.00  0.00     0.122 A 
HETATM    4  C3  UNL     1      12.022  10.633  10.598  1.00  0.00     0.099 A 
HETATM    5  C4  UNL     1      13.102   9.824  10.885  1.00  0.00     0.141 A 
HETATM    6  N7  UNL     1      13.550  10.218  12.076  1.00  0.00    -0.283 N 
ATOM      7  H7  UNL     1      14.347   9.803  12.558  1.00  0.00     0.188 HD
HETATM    8  N8  UNL     1      12.821  11.222  12.554  1.00  0.00    -0.283 N 
ATOM      9  H8  UNL     1      12.966  11.694  13.446  1.00  0.00     0.188 HD
HETATM   10  C11 UNL     1      11.863  11.506  11.660  1.00  0.00     0.143 A 
HETATM   11  N9  UNL     1      10.887  12.430  11.686  1.00  0.00    -0.288 N 
HETATM   12  C12 UNL     1      10.737  13.343  12.820  1.00  0.00     0.163 C 
HETATM   13  C13 UNL     1      10.041  12.491  10.617  1.00  0.00     0.331 A 
HETATM   14  O4  UNL     1       9.116  13.348  10.614  1.00  0.00    -0.246 OA
ENDROOT
BRANCH   5  15
HETATM   15  N3  UNL     1      13.580   8.870  10.136  1.00  0.00    -0.304 N 
HETATM   16  C5  UNL     1      13.727   7.569  10.627  1.00  0.00     0.291 C 
HETATM   17  O1  UNL     1      12.898   6.693  10.220  1.00  0.00    -0.264 OA
ATOM     18  H3  UNL     1      13.852   9.077   9.175  1.00  0.00     0.171 HD
BRANCH  16  19
HETATM   19  C6  UNL     1      14.756   7.146  11.565  1.00  0.00     0.175 A 
HETATM   20  N4  UNL     1      14.831   7.618  12.755  1.00  0.00    -0.345 N 
HETATM   21  C7  UNL     1      15.826   7.221  13.685  1.00  0.00     0.128 A 
ATOM     22  H4  UNL     1      14.142   8.312  13.047  1.00  0.00     0.167 HD
HETATM   23  C8  UNL     1      16.753   6.315  13.356  1.00  0.00     0.145 A 
HETATM   24  C9  UNL     1      16.751   5.731  12.048  1.00  0.00     0.079 A 
HETATM   25  C10 UNL     1      17.616   4.836  11.630  1.00  0.00     0.116 C 
HETATM   26  N6  UNL     1      15.703   6.183  11.144  1.00  0.00    -0.335 N 
HETATM   27 CL1  UNL     1      18.926   4.175  12.547  1.00  0.00    -0.095 Cl
ATOM     28  H6  UNL     1      15.652   5.804  10.198  1.00  0.00     0.168 HD
BRANCH  23  29
HETATM   29  N5  UNL     1      17.727   5.949  14.317  1.00  0.00    -0.112 N 
HETATM   30  O2  UNL     1      17.481   4.946  15.053  1.00  0.00    -0.532 OA
HETATM   31  O3  UNL     1      18.892   6.606  14.508  1.00  0.00    -0.532 OA
ENDBRANCH  23  29
ENDBRANCH  16  19
ENDBRANCH   5  15
BRANCH   3  32
HETATM   32  N2  UNL     1      11.306   9.904   8.549  1.00  0.00    -0.384 N 
ATOM     33  H22 UNL     1      11.117  10.238   7.604  1.00  0.00     0.157 HD
ATOM     34  H21 UNL     1      11.606   8.936   8.671  1.00  0.00     0.157 HD
ENDBRANCH   3  32
TORSDOF 4
ENDMDL
MODEL 5
REMARK VINA RESULT: -8.366289272      3.270      8.426
REMARK  4 active torsions:
REMARK  status: ('A' for Active; 'I' for Inactive)
REMARK    1  A    between atoms: C2_3  and  N2_4 
REMARK    2  A    between atoms: C4_8  and  N3_9 
REMARK       I    between atoms: N3_9  and  C5_11 
REMARK    3  A    between atoms: C5_11  and  C6_13 
REMARK    4  A    between atoms: C8_17  and  N5_18 
ROOT
HETATM    1  C1  UNL     1      15.260   3.302  13.966  1.00  0.00     0.163 C 
HETATM    2  N1  UNL     1      14.972   3.924  12.701  1.00  0.00    -0.289 N 
HETATM    3  C2  UNL     1      15.117   5.257  12.611  1.00  0.00     0.122 A 
HETATM    4  C3  UNL     1      14.847   5.866  11.413  1.00  0.00     0.099 A 
HETATM    5  C4  UNL     1      14.888   7.174  10.977  1.00  0.00     0.141 A 
HETATM    6  N7  UNL     1      14.513   7.149   9.700  1.00  0.00    -0.283 N 
ATOM      7  H7  UNL     1      14.445   7.972   9.103  1.00  0.00     0.188 HD
HETATM    8  N8  UNL     1      14.240   5.909   9.306  1.00  0.00    -0.283 N 
ATOM      9  H8  UNL     1      13.933   5.632   8.373  1.00  0.00     0.188 HD
HETATM   10  C11 UNL     1      14.437   5.086  10.345  1.00  0.00     0.143 A 
HETATM   11  N9  UNL     1      14.295   3.752  10.447  1.00  0.00    -0.288 N 
HETATM   12  C12 UNL     1      13.861   2.947   9.305  1.00  0.00     0.163 C 
HETATM   13  C13 UNL     1      14.572   3.174  11.652  1.00  0.00     0.331 A 
HETATM   14  O4  UNL     1      14.447   1.925  11.775  1.00  0.00    -0.246 OA
ENDROOT
BRANCH   5  15
HETATM   15  N3  UNL     1      15.228   8.217  11.681  1.00  0.00    -0.304 N 
HETATM   16  C5  UNL     1      14.275   8.945  12.402  1.00  0.00     0.291 C 
HETATM   17  O1  UNL     1      14.267   8.806  13.667  1.00  0.00    -0.264 OA
ATOM     18  H3  UNL     1      16.205   8.508  11.707  1.00  0.00     0.171 HD
BRANCH  16  19
HETATM   19  C6  UNL     1      13.297   9.847  11.811  1.00  0.00     0.175 A 
HETATM   20  N4  UNL     1      13.003   9.812  10.563  1.00  0.00    -0.345 N 
HETATM   21  C7  UNL     1      12.054  10.682   9.966  1.00  0.00     0.128 A 
ATOM     22  H4  UNL     1      13.474   9.127   9.972  1.00  0.00     0.167 HD
HETATM   23  C8  UNL     1      11.407  11.598  10.694  1.00  0.00     0.145 A 
HETATM   24  C9  UNL     1      11.669  11.712  12.099  1.00  0.00     0.079 A 
HETATM   25  C10 UNL     1      11.087  12.577  12.896  1.00  0.00     0.116 C 
HETATM   26  N6  UNL     1      12.654  10.790  12.646  1.00  0.00    -0.335 N 
HETATM   27 CL1  UNL     1       9.899  13.749  12.442  1.00  0.00    -0.095 Cl
ATOM     28  H6  UNL     1      12.882  10.826  13.640  1.00  0.00     0.168 HD
BRANCH  23  29
HETATM   29  N5  UNL     1      10.468  12.444  10.056  1.00  0.00    -0.112 N 
HETATM   30  O2  UNL     1       9.294  11.999   9.884  1.00  0.00    -0.532 OA
HETATM   31  O3  UNL     1      10.748  13.688   9.607  1.00  0.00    -0.532 OA
ENDBRANCH  23  29
ENDBRANCH  16  19
ENDBRANCH   5  15
BRANCH   3  32
HETATM   32  N2  UNL     1      15.499   5.984  13.604  1.00  0.00    -0.384 N 
ATOM     33  H22 UNL     1      15.502   6.999  13.499  1.00  0.00     0.157 HD
ATOM     34  H21 UNL     1      15.799   5.586  14.495  1.00  0.00     0.157 HD
ENDBRANCH   3  32
TORSDOF 4
ENDMDL
