MODEL 1
REMARK VINA RESULT: -8.643411225      0.000      0.000
REMARK  9 active torsions:
REMARK  status: ('A' for Active; 'I' for Inactive)
REMARK    1  A    between atoms: O1_2  and  C2_3 
REMARK    2  A    between atoms: C4_5  and  C5_6 
REMARK    3  A    between atoms: C6_7  and  C7_8 
REMARK    4  A    between atoms: C9_12  and  N2_13 
REMARK    5  A    between atoms: N2_13  and  C10_15 
REMARK    6  A    between atoms: C10_15  and  N3_17 
REMARK    7  A    between atoms: N3_17  and  N4_19 
REMARK    8  A    between atoms: N5_22  and  N6_23 
REMARK    9  A    between atoms: C12_28  and  N7_29 
ROOT
HETATM    1  C7  UNL     1      12.886   8.835  10.051  1.00  0.00     0.104 A 
HETATM    2  C8  UNL     1      13.773   9.312  10.989  1.00  0.00     0.132 A 
HETATM    3  N1  UNL     1      14.725   8.507  11.431  1.00  0.00    -0.198 N 
ATOM      4  H1  UNL     1      15.377   8.871  12.126  1.00  0.00     0.183 HD
HETATM    5  C9  UNL     1      14.889   7.209  11.009  1.00  0.00     0.708 A 
HETATM    6  N5  UNL     1      14.050   6.721  10.105  1.00  0.00    -0.053 N 
HETATM    7  C11 UNL     1      13.063   7.541   9.640  1.00  0.00     0.301 A 
HETATM    8  O2  UNL     1      12.234   7.108   8.769  1.00  0.00    -0.264 OA
ENDROOT
BRANCH   1   9
HETATM    9  C6  UNL     1      11.843   9.688   9.554  1.00  0.00    -0.054 C 
HETATM   10  C5  UNL     1      10.961  10.410   9.157  1.00  0.00    -0.059 C 
BRANCH  10  11
HETATM   11  C4  UNL     1       9.907  11.255   8.663  1.00  0.00     0.053 A 
HETATM   12  C3  UNL     1       8.896  10.724   7.883  1.00  0.00     0.063 A 
HETATM   13  C2  UNL     1       7.887  11.539   7.415  1.00  0.00     0.108 A 
HETATM   14  C14 UNL     1       7.840  12.896   7.700  1.00  0.00     0.152 A 
HETATM   15  C13 UNL     1       8.844  13.420   8.475  1.00  0.00     0.082 A 
HETATM   16  F1  UNL     1       6.812  13.656   7.207  1.00  0.00    -0.203 F 
HETATM   17  C12 UNL     1       9.864  12.605   8.949  1.00  0.00     0.124 A 
BRANCH  13  18
HETATM   18  O1  UNL     1       6.879  11.012   6.638  1.00  0.00    -0.353 OA
HETATM   19  C1  UNL     1       6.944  10.910   5.248  1.00  0.00     0.210 C 
ENDBRANCH  13  18
BRANCH  17  20
HETATM   20  N7  UNL     1      10.865  13.225   9.746  1.00  0.00    -0.114 N 
HETATM   21  O3  UNL     1      11.924  13.677   9.245  1.00  0.00    -0.532 OA
HETATM   22  O4  UNL     1      10.745  13.372  11.101  1.00  0.00    -0.532 OA
ENDBRANCH  17  20
ENDBRANCH  10  11
ENDBRANCH   1   9
BRANCH   6  23
HETATM   23  N6  UNL     1      14.082   5.430   9.575  1.00  0.00    -0.321 N 
ATOM     24  H62 UNL     1      13.956   4.666  10.239  1.00  0.00     0.178 HD
ATOM     25  H61 UNL     1      14.217   5.192   8.593  1.00  0.00     0.178 HD
ENDBRANCH   6  23
BRANCH   5  26
HETATM   26  N2  UNL     1      15.837   6.535  11.503  1.00  0.00    -0.163 N 
ATOM     27  H2  UNL     1      16.621   6.393  10.866  1.00  0.00     0.187 HD
BRANCH  26  28
HETATM   28  C10 UNL     1      16.011   5.952  12.749  1.00  0.00     0.204 C 
HETATM   29  S1  UNL     1      15.369   4.449  13.008  1.00  0.00    -0.039 SA
BRANCH  28  30
HETATM   30  N3  UNL     1      16.694   6.581  13.817  1.00  0.00    -0.282 N 
ATOM     31  H3  UNL     1      17.551   6.163  14.179  1.00  0.00     0.189 HD
BRANCH  30  32
HETATM   32  N4  UNL     1      16.215   7.762  14.382  1.00  0.00    -0.343 N 
ATOM     33  H42 UNL     1      15.206   7.904  14.428  1.00  0.00     0.176 HD
ATOM     34  H41 UNL     1      16.854   8.471  14.741  1.00  0.00     0.176 HD
ENDBRANCH  30  32
ENDBRANCH  28  30
ENDBRANCH  26  28
ENDBRANCH   5  26
TORSDOF 9
ENDMDL
MODEL 2
REMARK VINA RESULT: -8.522515502      0.909      1.035
REMARK  9 active torsions:
REMARK  status: ('A' for Active; 'I' for Inactive)
REMARK    1  A    between atoms: O1_2  and  C2_3 
REMARK    2  A    between atoms: C4_5  and  C5_6 
REMARK    3  A    between atoms: C6_7  and  C7_8 
REMARK    4  A    between atoms: C9_12  and  N2_13 
REMARK    5  A    between atoms: N2_13  and  C10_15 
REMARK    6  A    between atoms: C10_15  and  N3_17 
REMARK    7  A    between atoms: N3_17  and  N4_19 
REMARK    8  A    between atoms: N5_22  and  N6_23 
REMARK    9  A    between atoms: C12_28  and  N7_29 
ROOT
HETATM    1  C7  UNL     1      12.923   8.857  10.157  1.00  0.00     0.104 A 
HETATM    2  C8  UNL     1      13.783   9.342  11.116  1.00  0.00     0.132 A 
HETATM    3  N1  UNL     1      14.731   8.544  11.580  1.00  0.00    -0.198 N 
ATOM      4  H1  UNL     1      15.363   8.914  12.290  1.00  0.00     0.183 HD
HETATM    5  C9  UNL     1      14.916   7.248  11.163  1.00  0.00     0.708 A 
HETATM    6  N5  UNL     1      14.103   6.753  10.239  1.00  0.00    -0.053 N 
HETATM    7  C11 UNL     1      13.120   7.564   9.751  1.00  0.00     0.301 A 
HETATM    8  O2  UNL     1      12.315   7.125   8.861  1.00  0.00    -0.264 OA
ENDROOT
BRANCH   1   9
HETATM    9  C6  UNL     1      11.885   9.701   9.636  1.00  0.00    -0.054 C 
HETATM   10  C5  UNL     1      11.007  10.416   9.218  1.00  0.00    -0.059 C 
BRANCH  10  11
HETATM   11  C4  UNL     1       9.957  11.253   8.700  1.00  0.00     0.053 A 
HETATM   12  C3  UNL     1       8.949  10.707   7.927  1.00  0.00     0.063 A 
HETATM   13  C2  UNL     1       7.944  11.514   7.435  1.00  0.00     0.108 A 
HETATM   14  C14 UNL     1       7.900  12.877   7.688  1.00  0.00     0.152 A 
HETATM   15  C13 UNL     1       8.902  13.416   8.456  1.00  0.00     0.082 A 
HETATM   16  F1  UNL     1       6.877  13.628   7.173  1.00  0.00    -0.203 F 
HETATM   17  C12 UNL     1       9.917  12.609   8.954  1.00  0.00     0.124 A 
BRANCH  13  18
HETATM   18  O1  UNL     1       6.939  10.972   6.665  1.00  0.00    -0.353 OA
HETATM   19  C1  UNL     1       6.964  10.934   5.272  1.00  0.00     0.210 C 
ENDBRANCH  13  18
BRANCH  17  20
HETATM   20  N7  UNL     1      10.916  13.245   9.741  1.00  0.00    -0.114 N 
HETATM   21  O3  UNL     1      11.971  13.697   9.232  1.00  0.00    -0.532 OA
HETATM   22  O4  UNL     1      10.798  13.406  11.094  1.00  0.00    -0.532 OA
ENDBRANCH  17  20
ENDBRANCH  10  11
ENDBRANCH   1   9
BRANCH   6  23
HETATM   23  N6  UNL     1      14.157   5.462   9.710  1.00  0.00    -0.321 N 
ATOM     24  H62 UNL     1      14.994   4.921   9.926  1.00  0.00     0.178 HD
ATOM     25  H61 UNL     1      13.439   5.023   9.135  1.00  0.00     0.178 HD
ENDBRANCH   6  23
BRANCH   5  26
HETATM   26  N2  UNL     1      15.857   6.581  11.678  1.00  0.00    -0.163 N 
ATOM     27  H2  UNL     1      16.694   6.528  11.098  1.00  0.00     0.187 HD
BRANCH  26  28
HETATM   28  C10 UNL     1      15.966   5.909  12.886  1.00  0.00     0.204 C 
HETATM   29  S1  UNL     1      17.348   6.110  13.774  1.00  0.00    -0.039 SA
BRANCH  28  30
HETATM   30  N3  UNL     1      14.964   5.048  13.393  1.00  0.00    -0.282 N 
ATOM     31  H3  UNL     1      13.982   5.274  13.236  1.00  0.00     0.189 HD
BRANCH  30  32
HETATM   32  N4  UNL     1      15.298   3.896  14.105  1.00  0.00    -0.343 N 
ATOM     33  H42 UNL     1      16.027   3.289  13.731  1.00  0.00     0.176 HD
ATOM     34  H41 UNL     1      14.827   3.662  14.979  1.00  0.00     0.176 HD
ENDBRANCH  30  32
ENDBRANCH  28  30
ENDBRANCH  26  28
ENDBRANCH   5  26
TORSDOF 9
ENDMDL
MODEL 3
REMARK VINA RESULT: -8.501819122      1.348      1.924
REMARK  9 active torsions:
REMARK  status: ('A' for Active; 'I' for Inactive)
REMARK    1  A    between atoms: O1_2  and  C2_3 
REMARK    2  A    between atoms: C4_5  and  C5_6 
REMARK    3  A    between atoms: C6_7  and  C7_8 
REMARK    4  A    between atoms: C9_12  and  N2_13 
REMARK    5  A    between atoms: N2_13  and  C10_15 
REMARK    6  A    between atoms: C10_15  and  N3_17 
REMARK    7  A    between atoms: N3_17  and  N4_19 
REMARK    8  A    between atoms: N5_22  and  N6_23 
REMARK    9  A    between atoms: C12_28  and  N7_29 
ROOT
HETATM    1  C7  UNL     1      13.218   8.742  10.290  1.00  0.00     0.104 A 
HETATM    2  C8  UNL     1      13.560   7.600   9.603  1.00  0.00     0.132 A 
HETATM    3  N1  UNL     1      14.511   6.822  10.096  1.00  0.00    -0.198 N 
ATOM      4  H1  UNL     1      14.756   5.978   9.579  1.00  0.00     0.183 HD
HETATM    5  C9  UNL     1      15.187   7.083  11.264  1.00  0.00     0.708 A 
HETATM    6  N5  UNL     1      14.879   8.177  11.949  1.00  0.00    -0.053 N 
HETATM    7  C11 UNL     1      13.900   8.988  11.452  1.00  0.00     0.301 A 
HETATM    8  O2  UNL     1      13.575  10.051  12.081  1.00  0.00    -0.264 OA
ENDROOT
BRANCH   1   9
HETATM    9  C6  UNL     1      12.191   9.603   9.778  1.00  0.00    -0.054 C 
HETATM   10  C5  UNL     1      11.320  10.332   9.367  1.00  0.00    -0.059 C 
BRANCH  10  11
HETATM   11  C4  UNL     1      10.280  11.186   8.857  1.00  0.00     0.053 A 
HETATM   12  C3  UNL     1       9.228  10.649   8.139  1.00  0.00     0.063 A 
HETATM   13  C2  UNL     1       8.233  11.472   7.654  1.00  0.00     0.108 A 
HETATM   14  C14 UNL     1       8.242  12.843   7.861  1.00  0.00     0.152 A 
HETATM   15  C13 UNL     1       9.288  13.374   8.574  1.00  0.00     0.082 A 
HETATM   16  F1  UNL     1       7.227  13.611   7.356  1.00  0.00    -0.203 F 
HETATM   17  C12 UNL     1      10.294  12.550   9.065  1.00  0.00     0.124 A 
BRANCH  13  18
HETATM   18  O1  UNL     1       7.184  10.939   6.939  1.00  0.00    -0.353 OA
HETATM   19  C1  UNL     1       7.094  10.979   5.548  1.00  0.00     0.210 C 
ENDBRANCH  13  18
BRANCH  17  20
HETATM   20  N7  UNL     1      11.340  13.178   9.794  1.00  0.00    -0.114 N 
HETATM   21  O3  UNL     1      12.135  13.984   9.250  1.00  0.00    -0.532 OA
HETATM   22  O4  UNL     1      11.552  12.949  11.126  1.00  0.00    -0.532 OA
ENDBRANCH  17  20
ENDBRANCH  10  11
ENDBRANCH   1   9
BRANCH   6  23
HETATM   23  N6  UNL     1      15.468   8.582  13.147  1.00  0.00    -0.321 N 
ATOM     24  H62 UNL     1      16.381   8.181  13.360  1.00  0.00     0.178 HD
ATOM     25  H61 UNL     1      15.067   9.238  13.817  1.00  0.00     0.178 HD
ENDBRANCH   6  23
BRANCH   5  26
HETATM   26  N2  UNL     1      16.076   6.266  11.636  1.00  0.00    -0.163 N 
ATOM     27  H2  UNL     1      17.025   6.544  11.386  1.00  0.00     0.187 HD
BRANCH  26  28
HETATM   28  C10 UNL     1      16.002   5.063  12.320  1.00  0.00     0.204 C 
HETATM   29  S1  UNL     1      16.954   3.809  11.807  1.00  0.00    -0.039 SA
BRANCH  28  30
HETATM   30  N3  UNL     1      15.146   4.843  13.425  1.00  0.00    -0.282 N 
ATOM     31  H3  UNL     1      14.429   5.534  13.648  1.00  0.00     0.189 HD
BRANCH  30  32
HETATM   32  N4  UNL     1      15.266   3.700  14.214  1.00  0.00    -0.343 N 
ATOM     33  H42 UNL     1      16.180   3.252  14.284  1.00  0.00     0.176 HD
ATOM     34  H41 UNL     1      14.463   3.316  14.711  1.00  0.00     0.176 HD
ENDBRANCH  30  32
ENDBRANCH  28  30
ENDBRANCH  26  28
ENDBRANCH   5  26
TORSDOF 9
ENDMDL
MODEL 4
REMARK VINA RESULT: -8.475222476      1.094      1.704
REMARK  9 active torsions:
REMARK  status: ('A' for Active; 'I' for Inactive)
REMARK    1  A    between atoms: O1_2  and  C2_3 
REMARK    2  A    between atoms: C4_5  and  C5_6 
REMARK    3  A    between atoms: C6_7  and  C7_8 
REMARK    4  A    between atoms: C9_12  and  N2_13 
REMARK    5  A    between atoms: N2_13  and  C10_15 
REMARK    6  A    between atoms: C10_15  and  N3_17 
REMARK    7  A    between atoms: N3_17  and  N4_19 
REMARK    8  A    between atoms: N5_22  and  N6_23 
REMARK    9  A    between atoms: C12_28  and  N7_29 
ROOT
HETATM    1  C7  UNL     1      12.987   8.995  10.326  1.00  0.00     0.104 A 
HETATM    2  C8  UNL     1      13.300   7.780   9.760  1.00  0.00     0.132 A 
HETATM    3  N1  UNL     1      14.263   7.055  10.306  1.00  0.00    -0.198 N 
ATOM      4  H1  UNL     1      14.487   6.156   9.878  1.00  0.00     0.183 HD
HETATM    5  C9  UNL     1      14.978   7.438  11.415  1.00  0.00     0.708 A 
HETATM    6  N5  UNL     1      14.698   8.604  11.983  1.00  0.00    -0.053 N 
HETATM    7  C11 UNL     1      13.708   9.363  11.431  1.00  0.00     0.301 A 
HETATM    8  O2  UNL     1      13.408  10.493  11.948  1.00  0.00    -0.264 OA
ENDROOT
BRANCH   1   9
HETATM    9  C6  UNL     1      11.947   9.803   9.755  1.00  0.00    -0.054 C 
HETATM   10  C5  UNL     1      11.082  10.500   9.281  1.00  0.00    -0.059 C 
BRANCH  10  11
HETATM   11  C4  UNL     1      10.035  11.311   8.721  1.00  0.00     0.053 A 
HETATM   12  C3  UNL     1       9.036  10.732   7.961  1.00  0.00     0.063 A 
HETATM   13  C2  UNL     1       8.033  11.515   7.429  1.00  0.00     0.108 A 
HETATM   14  C14 UNL     1       7.981  12.887   7.628  1.00  0.00     0.152 A 
HETATM   15  C13 UNL     1       8.974  13.459   8.383  1.00  0.00     0.082 A 
HETATM   16  F1  UNL     1       6.960  13.613   7.074  1.00  0.00    -0.203 F 
HETATM   17  C12 UNL     1       9.988  12.676   8.921  1.00  0.00     0.124 A 
BRANCH  13  18
HETATM   18  O1  UNL     1       7.036  10.940   6.672  1.00  0.00    -0.353 OA
HETATM   19  C1  UNL     1       7.038  10.915   5.277  1.00  0.00     0.210 C 
ENDBRANCH  13  18
BRANCH  17  20
HETATM   20  N7  UNL     1      10.977  13.346   9.692  1.00  0.00    -0.114 N 
HETATM   21  O3  UNL     1      11.990  13.865   9.162  1.00  0.00    -0.532 OA
HETATM   22  O4  UNL     1      10.895  13.470  11.052  1.00  0.00    -0.532 OA
ENDBRANCH  17  20
ENDBRANCH  10  11
ENDBRANCH   1   9
BRANCH   6  23
HETATM   23  N6  UNL     1      15.328   9.135  13.109  1.00  0.00    -0.321 N 
ATOM     24  H62 UNL     1      15.718   8.462  13.769  1.00  0.00     0.178 HD
ATOM     25  H61 UNL     1      15.431  10.127  13.323  1.00  0.00     0.178 HD
ENDBRANCH   6  23
BRANCH   5  26
HETATM   26  N2  UNL     1      15.875   6.660  11.847  1.00  0.00    -0.163 N 
ATOM     27  H2  UNL     1      16.743   6.690  11.312  1.00  0.00     0.187 HD
BRANCH  26  28
HETATM   28  C10 UNL     1      15.901   5.774  12.913  1.00  0.00     0.204 C 
HETATM   29  S1  UNL     1      14.911   4.449  12.855  1.00  0.00    -0.039 SA
BRANCH  28  30
HETATM   30  N3  UNL     1      16.716   5.951  14.056  1.00  0.00    -0.282 N 
ATOM     31  H3  UNL     1      16.458   5.495  14.931  1.00  0.00     0.189 HD
BRANCH  30  32
HETATM   32  N4  UNL     1      17.865   6.739  14.005  1.00  0.00    -0.343 N 
ATOM     33  H42 UNL     1      18.722   6.376  14.424  1.00  0.00     0.176 HD
ATOM     34  H41 UNL     1      17.855   7.657  13.562  1.00  0.00     0.176 HD
ENDBRANCH  30  32
ENDBRANCH  28  30
ENDBRANCH  26  28
ENDBRANCH   5  26
TORSDOF 9
ENDMDL
MODEL 5
REMARK VINA RESULT: -8.350391536      5.466      9.116
REMARK  9 active torsions:
REMARK  status: ('A' for Active; 'I' for Inactive)
REMARK    1  A    between atoms: O1_2  and  C2_3 
REMARK    2  A    between atoms: C4_5  and  C5_6 
REMARK    3  A    between atoms: C6_7  and  C7_8 
REMARK    4  A    between atoms: C9_12  and  N2_13 
REMARK    5  A    between atoms: N2_13  and  C10_15 
REMARK    6  A    between atoms: C10_15  and  N3_17 
REMARK    7  A    between atoms: N3_17  and  N4_19 
REMARK    8  A    between atoms: N5_22  and  N6_23 
REMARK    9  A    between atoms: C12_28  and  N7_29 
ROOT
HETATM    1  C7  UNL     1      10.927  12.152  10.082  1.00  0.00     0.104 A 
HETATM    2  C8  UNL     1       9.989  11.324   9.509  1.00  0.00     0.132 A 
HETATM    3  N1  UNL     1       9.262  11.787   8.505  1.00  0.00    -0.198 N 
ATOM      4  H1  UNL     1       8.569  11.164   8.088  1.00  0.00     0.183 HD
HETATM    5  C9  UNL     1       9.383  13.055   7.990  1.00  0.00     0.708 A 
HETATM    6  N5  UNL     1      10.280  13.876   8.521  1.00  0.00    -0.053 N 
HETATM    7  C11 UNL     1      11.037  13.412   9.558  1.00  0.00     0.301 A 
HETATM    8  O2  UNL     1      11.912  14.172  10.097  1.00  0.00    -0.264 OA
ENDROOT
BRANCH   1   9
HETATM    9  C6  UNL     1      11.730  11.675  11.173  1.00  0.00    -0.054 C 
HETATM   10  C5  UNL     1      12.420  11.290  12.085  1.00  0.00    -0.059 C 
BRANCH  10  11
HETATM   11  C4  UNL     1      13.233  10.806  13.169  1.00  0.00     0.053 A 
HETATM   12  C3  UNL     1      13.989   9.658  13.015  1.00  0.00     0.063 A 
HETATM   13  C2  UNL     1      14.768   9.201  14.057  1.00  0.00     0.108 A 
HETATM   14  C14 UNL     1      14.829   9.856  15.278  1.00  0.00     0.152 A 
HETATM   15  C13 UNL     1      14.078  10.995  15.428  1.00  0.00     0.082 A 
HETATM   16  F1  UNL     1      15.620   9.355  16.277  1.00  0.00    -0.203 F 
HETATM   17  C12 UNL     1      13.290  11.461  14.383  1.00  0.00     0.124 A 
BRANCH  13  18
HETATM   18  O1  UNL     1      15.522   8.059  13.905  1.00  0.00    -0.353 OA
HETATM   19  C1  UNL     1      15.385   7.177  12.833  1.00  0.00     0.210 C 
ENDBRANCH  13  18
BRANCH  17  20
HETATM   20  N7  UNL     1      12.544  12.648  14.619  1.00  0.00    -0.114 N 
HETATM   21  O3  UNL     1      12.399  13.526  13.733  1.00  0.00    -0.532 OA
HETATM   22  O4  UNL     1      11.937  12.913  15.816  1.00  0.00    -0.532 OA
ENDBRANCH  17  20
ENDBRANCH  10  11
ENDBRANCH   1   9
BRANCH   6  23
HETATM   23  N6  UNL     1      10.527  15.188   8.115  1.00  0.00    -0.321 N 
ATOM     24  H62 UNL     1      10.798  15.315   7.139  1.00  0.00     0.178 HD
ATOM     25  H61 UNL     1      10.460  16.017   8.703  1.00  0.00     0.178 HD
ENDBRANCH   6  23
BRANCH   5  26
HETATM   26  N2  UNL     1       8.634  13.385   7.028  1.00  0.00    -0.163 N 
ATOM     27  H2  UNL     1       8.903  14.257   6.573  1.00  0.00     0.187 HD
BRANCH  26  28
HETATM   28  C10 UNL     1       7.513  12.783   6.476  1.00  0.00     0.204 C 
HETATM   29  S1  UNL     1       7.689  11.953   5.055  1.00  0.00    -0.039 SA
BRANCH  28  30
HETATM   30  N3  UNL     1       6.223  12.855   7.054  1.00  0.00    -0.282 N 
ATOM     31  H3  UNL     1       5.681  12.000   7.177  1.00  0.00     0.189 HD
BRANCH  30  32
HETATM   32  N4  UNL     1       5.683  14.075   7.458  1.00  0.00    -0.343 N 
ATOM     33  H42 UNL     1       4.715  14.095   7.779  1.00  0.00     0.176 HD
ATOM     34  H41 UNL     1       6.238  14.930   7.435  1.00  0.00     0.176 HD
ENDBRANCH  30  32
ENDBRANCH  28  30
ENDBRANCH  26  28
ENDBRANCH   5  26
TORSDOF 9
ENDMDL
