MODEL 1
REMARK VINA RESULT: -6.513353480      0.000      0.000
REMARK  10 active torsions:
REMARK  status: ('A' for Active; 'I' for Inactive)
REMARK    1  A    between atoms: C2_2  and  C3_3 
REMARK    2  A    between atoms: C3_3  and  C4_4 
REMARK    3  A    between atoms: C3_3  and  C14_19 
REMARK    4  A    between atoms: C4_4  and  O1_5 
REMARK    5  A    between atoms: C4_4  and  C5_7 
REMARK    6  A    between atoms: C7_9  and  O2_10 
REMARK    7  A    between atoms: C9_12  and  O3_13 
REMARK    8  A    between atoms: C11_15  and  O4_16 
REMARK    9  A    between atoms: C14_19  and  O5_20 
REMARK   10  A    between atoms: C14_19  and  O6_22 
ROOT
HETATM    1  C5  UNL     1      -4.277   1.553  14.258  1.00  0.00     0.003 A 
HETATM    2  C6  UNL     1      -3.694   2.749  13.784  1.00  0.00     0.054 A 
HETATM    3  C7  UNL     1      -3.185   2.947  12.544  1.00  0.00     0.105 A 
HETATM    4  C9  UNL     1      -3.241   1.889  11.665  1.00  0.00     0.135 A 
HETATM    5  C11 UNL     1      -3.787   0.691  12.037  1.00  0.00     0.105 A 
HETATM    6  C13 UNL     1      -4.302   0.536  13.339  1.00  0.00     0.054 A 
ENDROOT
BRANCH   1   7
HETATM    7  C4  UNL     1      -4.668   1.425  15.620  1.00  0.00     0.086 C 
BRANCH   7   8
HETATM    8  C3  UNL     1      -5.755   1.712  16.469  1.00  0.00     0.026 C 
BRANCH   8   9
HETATM    9  C2  UNL     1      -6.554   2.698  16.563  1.00  0.00    -0.016 C 
HETATM   10  C1  UNL     1      -6.513   4.046  16.036  1.00  0.00     0.037 C 
ENDBRANCH   8   9
BRANCH   8  11
HETATM   11  C14 UNL     1      -6.075   0.593  17.522  1.00  0.00     0.290 C 
BRANCH  11  12
HETATM   12  O5  UNL     1      -5.427   0.859  18.695  1.00  0.00    -0.367 OA
ATOM     13  H5  UNL     1      -6.038   1.213  19.330  1.00  0.00     0.213 HD
ENDBRANCH  11  12
BRANCH  11  14
HETATM   14  O6  UNL     1      -5.812  -0.614  17.003  1.00  0.00    -0.367 OA
ATOM     15  H6  UNL     1      -4.891  -0.821  17.110  1.00  0.00     0.213 HD
ENDBRANCH  11  14
ENDBRANCH   8  11
ENDBRANCH   7   8
BRANCH   7  16
HETATM   16  O1  UNL     1      -3.652   0.833  16.312  1.00  0.00    -0.359 OA
ATOM     17  H1  UNL     1      -2.898   1.409  16.364  1.00  0.00     0.217 HD
ENDBRANCH   7  16
ENDBRANCH   1   7
BRANCH   3  18
HETATM   18  O2  UNL     1      -2.618   4.136  12.111  1.00  0.00    -0.353 OA
HETATM   19  C8  UNL     1      -1.440   4.699  12.591  1.00  0.00     0.210 C 
ENDBRANCH   3  18
BRANCH   5  20
HETATM   20  O4  UNL     1      -3.852  -0.370  11.179  1.00  0.00    -0.353 OA
HETATM   21  C12 UNL     1      -3.162  -1.573  11.423  1.00  0.00     0.210 C 
ENDBRANCH   5  20
BRANCH   4  22
HETATM   22  O3  UNL     1      -2.736   2.038  10.385  1.00  0.00    -0.351 OA
HETATM   23  C10 UNL     1      -1.343   1.838  10.134  1.00  0.00     0.210 C 
ENDBRANCH   4  22
TORSDOF 10
ENDMDL
MODEL 2
REMARK VINA RESULT: -6.447142724      1.239      3.056
REMARK  10 active torsions:
REMARK  status: ('A' for Active; 'I' for Inactive)
REMARK    1  A    between atoms: C2_2  and  C3_3 
REMARK    2  A    between atoms: C3_3  and  C4_4 
REMARK    3  A    between atoms: C3_3  and  C14_19 
REMARK    4  A    between atoms: C4_4  and  O1_5 
REMARK    5  A    between atoms: C4_4  and  C5_7 
REMARK    6  A    between atoms: C7_9  and  O2_10 
REMARK    7  A    between atoms: C9_12  and  O3_13 
REMARK    8  A    between atoms: C11_15  and  O4_16 
REMARK    9  A    between atoms: C14_19  and  O5_20 
REMARK   10  A    between atoms: C14_19  and  O6_22 
ROOT
HETATM    1  C5  UNL     1      -4.382   0.978  14.061  1.00  0.00     0.003 A 
HETATM    2  C6  UNL     1      -4.285  -0.323  13.519  1.00  0.00     0.054 A 
HETATM    3  C7  UNL     1      -4.127  -0.626  12.208  1.00  0.00     0.105 A 
HETATM    4  C9  UNL     1      -4.054   0.427  11.323  1.00  0.00     0.135 A 
HETATM    5  C11 UNL     1      -4.140   1.721  11.759  1.00  0.00     0.105 A 
HETATM    6  C13 UNL     1      -4.305   1.982  13.133  1.00  0.00     0.054 A 
ENDROOT
BRANCH   1   7
HETATM    7  C4  UNL     1      -4.668   1.170  15.442  1.00  0.00     0.086 C 
BRANCH   7   8
HETATM    8  C3  UNL     1      -5.682   1.670  16.282  1.00  0.00     0.026 C 
BRANCH   8   9
HETATM    9  C2  UNL     1      -6.351   2.753  16.296  1.00  0.00    -0.016 C 
HETATM   10  C1  UNL     1      -6.227   3.990  15.555  1.00  0.00     0.037 C 
ENDBRANCH   8   9
BRANCH   8  11
HETATM   11  C14 UNL     1      -6.103   0.704  17.445  1.00  0.00     0.290 C 
BRANCH  11  12
HETATM   12  O5  UNL     1      -5.498   1.088  18.610  1.00  0.00    -0.367 OA
ATOM     13  H5  UNL     1      -6.128   1.522  19.173  1.00  0.00     0.213 HD
ENDBRANCH  11  12
BRANCH  11  14
HETATM   14  O6  UNL     1      -5.871  -0.568  17.093  1.00  0.00    -0.367 OA
ATOM     15  H6  UNL     1      -4.999  -0.649  16.725  1.00  0.00     0.213 HD
ENDBRANCH  11  14
ENDBRANCH   8  11
ENDBRANCH   7   8
BRANCH   7  16
HETATM   16  O1  UNL     1      -3.606   0.723  16.174  1.00  0.00    -0.359 OA
ATOM     17  H1  UNL     1      -3.805  -0.108  16.587  1.00  0.00     0.217 HD
ENDBRANCH   7  16
ENDBRANCH   1   7
BRANCH   3  18
HETATM   18  O2  UNL     1      -4.036  -1.915  11.708  1.00  0.00    -0.353 OA
HETATM   19  C8  UNL     1      -2.857  -2.610  11.455  1.00  0.00     0.210 C 
ENDBRANCH   3  18
BRANCH   5  20
HETATM   20  O4  UNL     1      -4.069   2.778  10.897  1.00  0.00    -0.353 OA
HETATM   21  C12 UNL     1      -2.896   3.541  10.742  1.00  0.00     0.210 C 
ENDBRANCH   5  20
BRANCH   4  22
HETATM   22  O3  UNL     1      -3.892   0.173   9.973  1.00  0.00    -0.351 OA
HETATM   23  C10 UNL     1      -5.014  -0.206   9.173  1.00  0.00     0.210 C 
ENDBRANCH   4  22
TORSDOF 10
ENDMDL
MODEL 3
REMARK VINA RESULT: -6.389556164      1.470      3.315
REMARK  10 active torsions:
REMARK  status: ('A' for Active; 'I' for Inactive)
REMARK    1  A    between atoms: C2_2  and  C3_3 
REMARK    2  A    between atoms: C3_3  and  C4_4 
REMARK    3  A    between atoms: C3_3  and  C14_19 
REMARK    4  A    between atoms: C4_4  and  O1_5 
REMARK    5  A    between atoms: C4_4  and  C5_7 
REMARK    6  A    between atoms: C7_9  and  O2_10 
REMARK    7  A    between atoms: C9_12  and  O3_13 
REMARK    8  A    between atoms: C11_15  and  O4_16 
REMARK    9  A    between atoms: C14_19  and  O5_20 
REMARK   10  A    between atoms: C14_19  and  O6_22 
ROOT
HETATM    1  C5  UNL     1      -4.493   2.683  13.584  1.00  0.00     0.003 A 
HETATM    2  C6  UNL     1      -4.534   1.748  12.526  1.00  0.00     0.054 A 
HETATM    3  C7  UNL     1      -3.763   1.777  11.411  1.00  0.00     0.105 A 
HETATM    4  C9  UNL     1      -2.858   2.808  11.298  1.00  0.00     0.135 A 
HETATM    5  C11 UNL     1      -2.750   3.760  12.275  1.00  0.00     0.105 A 
HETATM    6  C13 UNL     1      -3.575   3.686  13.414  1.00  0.00     0.054 A 
ENDROOT
BRANCH   1   7
HETATM    7  C4  UNL     1      -5.435   2.619  14.648  1.00  0.00     0.086 C 
BRANCH   7   8
HETATM    8  C3  UNL     1      -5.619   2.000  15.900  1.00  0.00     0.026 C 
BRANCH   8   9
HETATM    9  C2  UNL     1      -6.435   2.190  16.858  1.00  0.00    -0.016 C 
HETATM   10  C1  UNL     1      -6.360   1.920  18.278  1.00  0.00     0.037 C 
ENDBRANCH   8   9
BRANCH   8  11
HETATM   11  C14 UNL     1      -4.630   0.818  16.196  1.00  0.00     0.290 C 
BRANCH  11  12
HETATM   12  O5  UNL     1      -3.345   1.284  16.228  1.00  0.00    -0.367 OA
ATOM     13  H5  UNL     1      -3.023   1.283  17.121  1.00  0.00     0.213 HD
ENDBRANCH  11  12
BRANCH  11  14
HETATM   14  O6  UNL     1      -4.836  -0.182  15.329  1.00  0.00    -0.367 OA
ATOM     15  H6  UNL     1      -4.480  -0.992  15.674  1.00  0.00     0.213 HD
ENDBRANCH  11  14
ENDBRANCH   8  11
ENDBRANCH   7   8
BRANCH   7  16
HETATM   16  O1  UNL     1      -6.499   3.416  14.338  1.00  0.00    -0.359 OA
ATOM     17  H1  UNL     1      -6.209   4.225  13.932  1.00  0.00     0.217 HD
ENDBRANCH   7  16
ENDBRANCH   1   7
BRANCH   3  18
HETATM   18  O2  UNL     1      -3.830   0.843  10.389  1.00  0.00    -0.353 OA
HETATM   19  C8  UNL     1      -3.359  -0.465  10.449  1.00  0.00     0.210 C 
ENDBRANCH   3  18
BRANCH   5  20
HETATM   20  O4  UNL     1      -1.857   4.791  12.181  1.00  0.00    -0.353 OA
HETATM   21  C12 UNL     1      -1.265   5.374  13.317  1.00  0.00     0.210 C 
ENDBRANCH   5  20
BRANCH   4  22
HETATM   22  O3  UNL     1      -2.046   2.884  10.181  1.00  0.00    -0.351 OA
HETATM   23  C10 UNL     1      -0.704   2.393  10.233  1.00  0.00     0.210 C 
ENDBRANCH   4  22
TORSDOF 10
ENDMDL
MODEL 4
REMARK VINA RESULT: -6.354578137      1.496      1.903
REMARK  10 active torsions:
REMARK  status: ('A' for Active; 'I' for Inactive)
REMARK    1  A    between atoms: C2_2  and  C3_3 
REMARK    2  A    between atoms: C3_3  and  C4_4 
REMARK    3  A    between atoms: C3_3  and  C14_19 
REMARK    4  A    between atoms: C4_4  and  O1_5 
REMARK    5  A    between atoms: C4_4  and  C5_7 
REMARK    6  A    between atoms: C7_9  and  O2_10 
REMARK    7  A    between atoms: C9_12  and  O3_13 
REMARK    8  A    between atoms: C11_15  and  O4_16 
REMARK    9  A    between atoms: C14_19  and  O5_20 
REMARK   10  A    between atoms: C14_19  and  O6_22 
ROOT
HETATM    1  C5  UNL     1      -4.721   2.841  13.685  1.00  0.00     0.003 A 
HETATM    2  C6  UNL     1      -3.637   3.741  13.578  1.00  0.00     0.054 A 
HETATM    3  C7  UNL     1      -2.789   3.839  12.525  1.00  0.00     0.105 A 
HETATM    4  C9  UNL     1      -3.001   2.989  11.464  1.00  0.00     0.135 A 
HETATM    5  C11 UNL     1      -4.027   2.083  11.481  1.00  0.00     0.105 A 
HETATM    6  C13 UNL     1      -4.880   2.019  12.600  1.00  0.00     0.054 A 
ENDROOT
BRANCH   1   7
HETATM    7  C4  UNL     1      -5.471   2.746  14.891  1.00  0.00     0.086 C 
BRANCH   7   8
HETATM    8  C3  UNL     1      -5.697   1.859  15.962  1.00  0.00     0.026 C 
BRANCH   8   9
HETATM    9  C2  UNL     1      -6.495   1.871  16.953  1.00  0.00    -0.016 C 
HETATM   10  C1  UNL     1      -6.295   2.102  18.368  1.00  0.00     0.037 C 
ENDBRANCH   8   9
BRANCH   8  11
HETATM   11  C14 UNL     1      -4.799   0.572  15.945  1.00  0.00     0.290 C 
BRANCH  11  12
HETATM   12  O5  UNL     1      -5.433  -0.445  16.602  1.00  0.00    -0.367 OA
ATOM     13  H5  UNL     1      -6.312  -0.177  16.842  1.00  0.00     0.213 HD
ENDBRANCH  11  12
BRANCH  11  14
HETATM   14  O6  UNL     1      -3.577   0.858  16.413  1.00  0.00    -0.367 OA
ATOM     15  H6  UNL     1      -3.393   1.783  16.298  1.00  0.00     0.213 HD
ENDBRANCH  11  14
ENDBRANCH   8  11
ENDBRANCH   7   8
BRANCH   7  16
HETATM   16  O1  UNL     1      -6.201   3.889  15.042  1.00  0.00    -0.359 OA
ATOM     17  H1  UNL     1      -6.668   4.100  14.242  1.00  0.00     0.217 HD
ENDBRANCH   7  16
ENDBRANCH   1   7
BRANCH   3  18
HETATM   18  O2  UNL     1      -1.733   4.734  12.453  1.00  0.00    -0.353 OA
HETATM   19  C8  UNL     1      -1.378   5.657  13.432  1.00  0.00     0.210 C 
ENDBRANCH   3  18
BRANCH   5  20
HETATM   20  O4  UNL     1      -4.254   1.231  10.438  1.00  0.00    -0.353 OA
HETATM   21  C12 UNL     1      -4.706  -0.088  10.632  1.00  0.00     0.210 C 
ENDBRANCH   5  20
BRANCH   4  22
HETATM   22  O3  UNL     1      -2.165   3.049  10.364  1.00  0.00    -0.351 OA
HETATM   23  C10 UNL     1      -0.955   2.287  10.338  1.00  0.00     0.210 C 
ENDBRANCH   4  22
TORSDOF 10
ENDMDL
MODEL 5
REMARK VINA RESULT: -6.344157972      2.046      3.532
REMARK  10 active torsions:
REMARK  status: ('A' for Active; 'I' for Inactive)
REMARK    1  A    between atoms: C2_2  and  C3_3 
REMARK    2  A    between atoms: C3_3  and  C4_4 
REMARK    3  A    between atoms: C3_3  and  C14_19 
REMARK    4  A    between atoms: C4_4  and  O1_5 
REMARK    5  A    between atoms: C4_4  and  C5_7 
REMARK    6  A    between atoms: C7_9  and  O2_10 
REMARK    7  A    between atoms: C9_12  and  O3_13 
REMARK    8  A    between atoms: C11_15  and  O4_16 
REMARK    9  A    between atoms: C14_19  and  O5_20 
REMARK   10  A    between atoms: C14_19  and  O6_22 
ROOT
HETATM    1  C5  UNL     1      -4.076   3.291  13.415  1.00  0.00     0.003 A 
HETATM    2  C6  UNL     1      -3.362   2.488  12.499  1.00  0.00     0.054 A 
HETATM    3  C7  UNL     1      -3.214   2.735  11.175  1.00  0.00     0.105 A 
HETATM    4  C9  UNL     1      -3.812   3.870  10.676  1.00  0.00     0.135 A 
HETATM    5  C11 UNL     1      -4.525   4.706  11.490  1.00  0.00     0.105 A 
HETATM    6  C13 UNL     1      -4.650   4.404  12.860  1.00  0.00     0.054 A 
ENDROOT
BRANCH   1   7
HETATM    7  C4  UNL     1      -4.265   2.867  14.761  1.00  0.00     0.086 C 
BRANCH   7   8
HETATM    8  C3  UNL     1      -5.154   2.106  15.545  1.00  0.00     0.026 C 
BRANCH   8   9
HETATM    9  C2  UNL     1      -6.270   2.363  16.100  1.00  0.00    -0.016 C 
HETATM   10  C1  UNL     1      -7.148   1.581  16.944  1.00  0.00     0.037 C 
ENDBRANCH   8   9
BRANCH   8  11
HETATM   11  C14 UNL     1      -4.703   0.623  15.791  1.00  0.00     0.290 C 
BRANCH  11  12
HETATM   12  O5  UNL     1      -3.461   0.603  16.360  1.00  0.00    -0.367 OA
ATOM     13  H5  UNL     1      -3.502   0.963  17.238  1.00  0.00     0.213 HD
ENDBRANCH  11  12
BRANCH  11  14
HETATM   14  O6  UNL     1      -4.805  -0.082  14.656  1.00  0.00    -0.367 OA
ATOM     15  H6  UNL     1      -5.305   0.406  14.013  1.00  0.00     0.213 HD
ENDBRANCH  11  14
ENDBRANCH   8  11
ENDBRANCH   7   8
BRANCH   7  16
HETATM   16  O1  UNL     1      -3.251   3.370  15.523  1.00  0.00    -0.359 OA
ATOM     17  H1  UNL     1      -3.517   3.448  16.431  1.00  0.00     0.217 HD
ENDBRANCH   7  16
ENDBRANCH   1   7
BRANCH   3  18
HETATM   18  O2  UNL     1      -2.505   1.924  10.302  1.00  0.00    -0.353 OA
HETATM   19  C8  UNL     1      -1.537   0.990  10.660  1.00  0.00     0.210 C 
ENDBRANCH   3  18
BRANCH   5  20
HETATM   20  O4  UNL     1      -5.126   5.837  11.014  1.00  0.00    -0.353 OA
HETATM   21  C12 UNL     1      -4.723   7.125  11.415  1.00  0.00     0.210 C 
ENDBRANCH   5  20
BRANCH   4  22
HETATM   22  O3  UNL     1      -3.690   4.170   9.331  1.00  0.00    -0.351 OA
HETATM   23  C10 UNL     1      -2.662   5.055   8.882  1.00  0.00     0.210 C 
ENDBRANCH   4  22
TORSDOF 10
ENDMDL
