MODEL 1
REMARK VINA RESULT: -6.691700202      0.000      0.000
REMARK  7 active torsions:
REMARK  status: ('A' for Active; 'I' for Inactive)
REMARK    1  A    between atoms: N1_2  and  C2_4 
REMARK    2  A    between atoms: C5_7  and  C6_8 
REMARK    3  A    between atoms: N2_9  and  O1_11 
REMARK    4  A    between atoms: O1_11  and  C7_12 
REMARK    5  A    between atoms: C8_13  and  O2_14 
REMARK    6  A    between atoms: C11_17  and  O3_18 
REMARK    7  A    between atoms: C12_20  and  O4_21 
ROOT
HETATM    1  C6  UNL     1      -3.975   1.186  12.236  1.00  0.00     0.125 C 
HETATM    2  N2  UNL     1      -4.220   1.225  13.431  1.00  0.00    -0.277 N 
ATOM      3  H2  UNL     1      -5.019   0.634  13.664  1.00  0.00     0.193 HD
ENDROOT
BRANCH   2   4
HETATM    4  O1  UNL     1      -3.739   1.817  14.498  1.00  0.00    -0.270 OA
BRANCH   4   5
HETATM    5  C7  UNL     1      -4.241   1.664  15.791  1.00  0.00     0.212 C 
HETATM    6  C8  UNL     1      -5.183   2.765  16.182  1.00  0.00     0.157 C 
HETATM    7  C10 UNL     1      -5.833   2.131  17.409  1.00  0.00     0.069 C 
HETATM    8  C11 UNL     1      -5.875   0.644  17.129  1.00  0.00     0.152 C 
HETATM    9  C12 UNL     1      -5.264   0.494  15.767  1.00  0.00     0.180 C 
BRANCH   6  10
HETATM   10  O2  UNL     1      -6.107   2.929  15.163  1.00  0.00    -0.388 OA
HETATM   11  C9  UNL     1      -6.176   4.170  14.601  1.00  0.00     0.202 C 
ENDBRANCH   6  10
BRANCH   8  12
HETATM   12  O3  UNL     1      -7.168   0.165  17.138  1.00  0.00    -0.393 OA
ATOM     13  H3  UNL     1      -7.389  -0.224  17.976  1.00  0.00     0.210 HD
ENDBRANCH   8  12
BRANCH   9  14
HETATM   14  O4  UNL     1      -4.621  -0.707  15.567  1.00  0.00    -0.390 OA
ATOM     15  H4  UNL     1      -5.251  -1.411  15.469  1.00  0.00     0.210 HD
ENDBRANCH   9  14
ENDBRANCH   4   5
ENDBRANCH   2   4
BRANCH   1  16
HETATM   16  C5  UNL     1      -2.908   1.904  11.547  1.00  0.00    -0.019 A 
HETATM   17  C4  UNL     1      -1.747   1.323  11.111  1.00  0.00     0.015 A 
HETATM   18  C3  UNL     1      -0.780   2.032  10.471  1.00  0.00     0.030 A 
HETATM   19  C2  UNL     1      -0.896   3.377  10.213  1.00  0.00     0.027 A 
HETATM   20  C14 UNL     1      -2.070   3.981  10.648  1.00  0.00     0.030 A 
HETATM   21  C13 UNL     1      -3.048   3.278  11.294  1.00  0.00     0.015 A 
BRANCH  19  22
HETATM   22  N1  UNL     1       0.111   4.125   9.546  1.00  0.00    -0.394 N 
HETATM   23  C1  UNL     1       1.479   3.670   9.620  1.00  0.00     0.146 C 
ATOM     24  H1  UNL     1      -0.128   4.968   9.024  1.00  0.00     0.159 HD
ENDBRANCH  19  22
ENDBRANCH   1  16
TORSDOF 7
ENDMDL
MODEL 2
REMARK VINA RESULT: -6.675986633      0.054      1.052
REMARK  7 active torsions:
REMARK  status: ('A' for Active; 'I' for Inactive)
REMARK    1  A    between atoms: N1_2  and  C2_4 
REMARK    2  A    between atoms: C5_7  and  C6_8 
REMARK    3  A    between atoms: N2_9  and  O1_11 
REMARK    4  A    between atoms: O1_11  and  C7_12 
REMARK    5  A    between atoms: C8_13  and  O2_14 
REMARK    6  A    between atoms: C11_17  and  O3_18 
REMARK    7  A    between atoms: C12_20  and  O4_21 
ROOT
HETATM    1  C6  UNL     1      -3.985   1.226  12.224  1.00  0.00     0.125 C 
HETATM    2  N2  UNL     1      -4.210   1.234  13.424  1.00  0.00    -0.277 N 
ATOM      3  H2  UNL     1      -4.976   0.603  13.661  1.00  0.00     0.193 HD
ENDROOT
BRANCH   2   4
HETATM    4  O1  UNL     1      -3.737   1.831  14.493  1.00  0.00    -0.270 OA
BRANCH   4   5
HETATM    5  C7  UNL     1      -4.238   1.670  15.785  1.00  0.00     0.212 C 
HETATM    6  C8  UNL     1      -5.179   2.771  16.183  1.00  0.00     0.157 C 
HETATM    7  C10 UNL     1      -5.829   2.130  17.406  1.00  0.00     0.069 C 
HETATM    8  C11 UNL     1      -5.874   0.645  17.117  1.00  0.00     0.152 C 
HETATM    9  C12 UNL     1      -5.263   0.502  15.754  1.00  0.00     0.180 C 
BRANCH   6  10
HETATM   10  O2  UNL     1      -6.103   2.941  15.166  1.00  0.00    -0.388 OA
HETATM   11  C9  UNL     1      -6.159   4.181  14.599  1.00  0.00     0.202 C 
ENDBRANCH   6  10
BRANCH   8  12
HETATM   12  O3  UNL     1      -7.167   0.167  17.123  1.00  0.00    -0.393 OA
ATOM     13  H3  UNL     1      -7.530   0.133  16.246  1.00  0.00     0.210 HD
ENDBRANCH   8  12
BRANCH   9  14
HETATM   14  O4  UNL     1      -4.621  -0.699  15.546  1.00  0.00    -0.390 OA
ATOM     15  H4  UNL     1      -5.099  -1.228  14.918  1.00  0.00     0.210 HD
ENDBRANCH   9  14
ENDBRANCH   4   5
ENDBRANCH   2   4
BRANCH   1  16
HETATM   16  C5  UNL     1      -2.965   2.004  11.529  1.00  0.00    -0.019 A 
HETATM   17  C4  UNL     1      -3.058   3.346  11.280  1.00  0.00     0.015 A 
HETATM   18  C3  UNL     1      -2.080   4.031  10.630  1.00  0.00     0.030 A 
HETATM   19  C2  UNL     1      -0.930   3.428  10.177  1.00  0.00     0.027 A 
HETATM   20  C14 UNL     1      -0.821   2.064  10.423  1.00  0.00     0.030 A 
HETATM   21  C13 UNL     1      -1.798   1.367  11.075  1.00  0.00     0.015 A 
BRANCH  19  22
HETATM   22  N1  UNL     1       0.095   4.137   9.495  1.00  0.00    -0.394 N 
HETATM   23  C1  UNL     1       1.441   3.616   9.528  1.00  0.00     0.146 C 
ATOM     24  H1  UNL     1      -0.116   4.998   8.990  1.00  0.00     0.159 HD
ENDBRANCH  19  22
ENDBRANCH   1  16
TORSDOF 7
ENDMDL
MODEL 3
REMARK VINA RESULT: -6.282919810      2.944      5.067
REMARK  7 active torsions:
REMARK  status: ('A' for Active; 'I' for Inactive)
REMARK    1  A    between atoms: N1_2  and  C2_4 
REMARK    2  A    between atoms: C5_7  and  C6_8 
REMARK    3  A    between atoms: N2_9  and  O1_11 
REMARK    4  A    between atoms: O1_11  and  C7_12 
REMARK    5  A    between atoms: C8_13  and  O2_14 
REMARK    6  A    between atoms: C11_17  and  O3_18 
REMARK    7  A    between atoms: C12_20  and  O4_21 
ROOT
HETATM    1  C6  UNL     1      -4.478   2.328  15.700  1.00  0.00     0.125 C 
HETATM    2  N2  UNL     1      -4.374   1.227  15.184  1.00  0.00    -0.277 N 
ATOM      3  H2  UNL     1      -4.766   0.499  15.782  1.00  0.00     0.193 HD
ENDROOT
BRANCH   2   4
HETATM    4  O1  UNL     1      -3.896   0.722  14.070  1.00  0.00    -0.270 OA
BRANCH   4   5
HETATM    5  C7  UNL     1      -4.479   0.872  12.812  1.00  0.00     0.212 C 
HETATM    6  C8  UNL     1      -3.889   2.012  12.031  1.00  0.00     0.157 C 
HETATM    7  C10 UNL     1      -4.415   1.676  10.638  1.00  0.00     0.069 C 
HETATM    8  C11 UNL     1      -4.474   0.165  10.575  1.00  0.00     0.152 C 
HETATM    9  C12 UNL     1      -3.977  -0.294  11.915  1.00  0.00     0.180 C 
BRANCH   6  10
HETATM   10  O2  UNL     1      -2.510   1.902  12.078  1.00  0.00    -0.388 OA
HETATM   11  C9  UNL     1      -1.804   2.790  11.318  1.00  0.00     0.202 C 
ENDBRANCH   6  10
BRANCH   8  12
HETATM   12  O3  UNL     1      -3.677  -0.330   9.565  1.00  0.00    -0.393 OA
ATOM     13  H3  UNL     1      -3.063  -0.977   9.891  1.00  0.00     0.210 HD
ENDBRANCH   8  12
BRANCH   9  14
HETATM   14  O4  UNL     1      -4.512  -1.492  12.335  1.00  0.00    -0.390 OA
ATOM     15  H4  UNL     1      -4.173  -2.210  11.812  1.00  0.00     0.210 HD
ENDBRANCH   9  14
ENDBRANCH   4   5
ENDBRANCH   2   4
BRANCH   1  16
HETATM   16  C5  UNL     1      -4.028   3.596  15.135  1.00  0.00    -0.019 A 
HETATM   17  C4  UNL     1      -2.714   3.947  14.984  1.00  0.00     0.015 A 
HETATM   18  C3  UNL     1      -2.342   5.141  14.449  1.00  0.00     0.030 A 
HETATM   19  C2  UNL     1      -3.253   6.077  14.022  1.00  0.00     0.027 A 
HETATM   20  C14 UNL     1      -4.592   5.734  14.168  1.00  0.00     0.030 A 
HETATM   21  C13 UNL     1      -4.977   4.538  14.705  1.00  0.00     0.015 A 
BRANCH  19  22
HETATM   22  N1  UNL     1      -2.871   7.327  13.464  1.00  0.00    -0.394 N 
HETATM   23  C1  UNL     1      -1.882   8.122  14.152  1.00  0.00     0.146 C 
ATOM     24  H1  UNL     1      -3.288   7.657  12.594  1.00  0.00     0.159 HD
ENDBRANCH  19  22
ENDBRANCH   1  16
TORSDOF 7
ENDMDL
MODEL 4
REMARK VINA RESULT: -6.266197507      3.944      5.462
REMARK  7 active torsions:
REMARK  status: ('A' for Active; 'I' for Inactive)
REMARK    1  A    between atoms: N1_2  and  C2_4 
REMARK    2  A    between atoms: C5_7  and  C6_8 
REMARK    3  A    between atoms: N2_9  and  O1_11 
REMARK    4  A    between atoms: O1_11  and  C7_12 
REMARK    5  A    between atoms: C8_13  and  O2_14 
REMARK    6  A    between atoms: C11_17  and  O3_18 
REMARK    7  A    between atoms: C12_20  and  O4_21 
ROOT
HETATM    1  C6  UNL     1      -4.082   5.455  12.201  1.00  0.00     0.125 C 
HETATM    2  N2  UNL     1      -4.205   4.300  12.579  1.00  0.00    -0.277 N 
ATOM      3  H2  UNL     1      -3.428   4.022  13.178  1.00  0.00     0.193 HD
ENDROOT
BRANCH   2   4
HETATM    4  O1  UNL     1      -5.063   3.319  12.426  1.00  0.00    -0.270 OA
BRANCH   4   5
HETATM    5  C7  UNL     1      -5.184   2.224  13.282  1.00  0.00     0.212 C 
HETATM    6  C8  UNL     1      -4.318   1.068  12.872  1.00  0.00     0.157 C 
HETATM    7  C10 UNL     1      -4.363   0.239  14.153  1.00  0.00     0.069 C 
HETATM    8  C11 UNL     1      -4.465   1.239  15.285  1.00  0.00     0.152 C 
HETATM    9  C12 UNL     1      -4.464   2.581  14.613  1.00  0.00     0.180 C 
BRANCH   6  10
HETATM   10  O2  UNL     1      -3.039   1.545  12.637  1.00  0.00    -0.388 OA
HETATM   11  C9  UNL     1      -2.462   1.180  11.456  1.00  0.00     0.202 C 
ENDBRANCH   6  10
BRANCH   8  12
HETATM   12  O3  UNL     1      -3.399   1.129  16.153  1.00  0.00    -0.393 OA
ATOM     13  H3  UNL     1      -2.848   1.903  16.127  1.00  0.00     0.210 HD
ENDBRANCH   8  12
BRANCH   9  14
HETATM   14  O4  UNL     1      -5.161   3.553  15.294  1.00  0.00    -0.390 OA
ATOM     15  H4  UNL     1      -4.578   4.250  15.570  1.00  0.00     0.210 HD
ENDBRANCH   9  14
ENDBRANCH   4   5
ENDBRANCH   2   4
BRANCH   1  16
HETATM   16  C5  UNL     1      -5.000   6.185  11.332  1.00  0.00    -0.019 A 
HETATM   17  C4  UNL     1      -4.988   6.110   9.966  1.00  0.00     0.015 A 
HETATM   18  C3  UNL     1      -5.866   6.808   9.197  1.00  0.00     0.030 A 
HETATM   19  C2  UNL     1      -6.826   7.634   9.732  1.00  0.00     0.027 A 
HETATM   20  C14 UNL     1      -6.850   7.719  11.119  1.00  0.00     0.030 A 
HETATM   21  C13 UNL     1      -5.972   7.023  11.902  1.00  0.00     0.015 A 
BRANCH  19  22
HETATM   22  N1  UNL     1      -7.744   8.368   8.934  1.00  0.00    -0.394 N 
HETATM   23  C1  UNL     1      -8.778   7.652   8.227  1.00  0.00     0.146 C 
ATOM     24  H1  UNL     1      -7.674   9.383   8.863  1.00  0.00     0.159 HD
ENDBRANCH  19  22
ENDBRANCH   1  16
TORSDOF 7
ENDMDL
MODEL 5
REMARK VINA RESULT: -6.170327281      2.242      3.428
REMARK  7 active torsions:
REMARK  status: ('A' for Active; 'I' for Inactive)
REMARK    1  A    between atoms: N1_2  and  C2_4 
REMARK    2  A    between atoms: C5_7  and  C6_8 
REMARK    3  A    between atoms: N2_9  and  O1_11 
REMARK    4  A    between atoms: O1_11  and  C7_12 
REMARK    5  A    between atoms: C8_13  and  O2_14 
REMARK    6  A    between atoms: C11_17  and  O3_18 
REMARK    7  A    between atoms: C12_20  and  O4_21 
ROOT
HETATM    1  C6  UNL     1      -3.984   2.421  12.656  1.00  0.00     0.125 C 
HETATM    2  N2  UNL     1      -3.929   2.833  13.803  1.00  0.00    -0.277 N 
ATOM      3  H2  UNL     1      -4.275   3.791  13.870  1.00  0.00     0.193 HD
ENDROOT
BRANCH   2   4
HETATM    4  O1  UNL     1      -3.549   2.382  14.976  1.00  0.00    -0.270 OA
BRANCH   4   5
HETATM    5  C7  UNL     1      -4.390   2.207  16.075  1.00  0.00     0.212 C 
HETATM    6  C8  UNL     1      -5.497   3.221  16.126  1.00  0.00     0.157 C 
HETATM    7  C10 UNL     1      -6.418   2.552  17.143  1.00  0.00     0.069 C 
HETATM    8  C11 UNL     1      -6.248   1.063  16.933  1.00  0.00     0.152 C 
HETATM    9  C12 UNL     1      -5.257   0.944  15.813  1.00  0.00     0.180 C 
BRANCH   6  10
HETATM   10  O2  UNL     1      -6.095   3.274  14.878  1.00  0.00    -0.388 OA
HETATM   11  C9  UNL     1      -6.497   4.505  14.449  1.00  0.00     0.202 C 
ENDBRANCH   6  10
BRANCH   8  12
HETATM   12  O3  UNL     1      -7.441   0.462  16.592  1.00  0.00    -0.393 OA
ATOM     13  H3  UNL     1      -7.335  -0.129  15.856  1.00  0.00     0.210 HD
ENDBRANCH   8  12
BRANCH   9  14
HETATM   14  O4  UNL     1      -4.481  -0.193  15.864  1.00  0.00    -0.390 OA
ATOM     15  H4  UNL     1      -4.604  -0.715  15.080  1.00  0.00     0.210 HD
ENDBRANCH   9  14
ENDBRANCH   4   5
ENDBRANCH   2   4
BRANCH   1  16
HETATM   16  C5  UNL     1      -3.574   1.101  12.188  1.00  0.00    -0.019 A 
HETATM   17  C4  UNL     1      -2.440   0.861  11.460  1.00  0.00     0.015 A 
HETATM   18  C3  UNL     1      -2.097  -0.389  11.048  1.00  0.00     0.030 A 
HETATM   19  C2  UNL     1      -2.859  -1.497  11.332  1.00  0.00     0.027 A 
HETATM   20  C14 UNL     1      -4.014  -1.269  12.072  1.00  0.00     0.030 A 
HETATM   21  C13 UNL     1      -4.368  -0.018  12.490  1.00  0.00     0.015 A 
BRANCH  19  22
HETATM   22  N1  UNL     1      -2.508  -2.805  10.903  1.00  0.00    -0.394 N 
HETATM   23  C1  UNL     1      -3.358  -3.911  11.274  1.00  0.00     0.146 C 
ATOM     24  H1  UNL     1      -1.670  -2.960  10.342  1.00  0.00     0.159 HD
ENDBRANCH  19  22
ENDBRANCH   1  16
TORSDOF 7
ENDMDL
