MODEL 1
REMARK VINA RESULT: -7.190311416      0.000      0.000
REMARK  9 active torsions:
REMARK  status: ('A' for Active; 'I' for Inactive)
REMARK    1  A    between atoms: O1_2  and  C2_3 
REMARK    2  A    between atoms: C5_6  and  C6_7 
REMARK    3  A    between atoms: C6_7  and  C7_8 
REMARK    4  A    between atoms: C7_8  and  C8_9 
REMARK    5  A    between atoms: C8_9  and  O2_10 
REMARK    6  A    between atoms: C8_9  and  C9_12 
REMARK    7  A    between atoms: C9_12  and  O3_13 
REMARK    8  A    between atoms: C9_12  and  C10_15 
REMARK    9  A    between atoms: C14_21  and  O6_22 
ROOT
HETATM    1  C7  UNL     1      -3.264   5.137  12.934  1.00  0.00     0.039 C 
ENDROOT
BRANCH   1   2
HETATM    2  C6  UNL     1      -3.262   5.075  14.460  1.00  0.00     0.041 C 
BRANCH   2   3
HETATM    3  C5  UNL     1      -4.067   3.939  14.942  1.00  0.00    -0.055 A 
HETATM    4  C4  UNL     1      -5.444   4.005  14.868  1.00  0.00     0.010 A 
HETATM    5  C3  UNL     1      -6.165   2.942  15.320  1.00  0.00     0.040 A 
HETATM    6  C2  UNL     1      -5.587   1.791  15.852  1.00  0.00     0.101 A 
HETATM    7  C14 UNL     1      -4.218   1.729  15.924  1.00  0.00     0.099 A 
HETATM    8  C13 UNL     1      -3.476   2.791  15.474  1.00  0.00     0.046 A 
BRANCH   6   9
HETATM    9  O1  UNL     1      -6.334   0.723  16.305  1.00  0.00    -0.353 OA
HETATM   10  C1  UNL     1      -7.385   0.971  17.227  1.00  0.00     0.210 C 
ENDBRANCH   6   9
BRANCH   7  11
HETATM   11  O6  UNL     1      -3.593   0.606  16.445  1.00  0.00    -0.358 OA
ATOM     12  H6  UNL     1      -2.679   0.641  16.705  1.00  0.00     0.217 HD
ENDBRANCH   7  11
ENDBRANCH   2   3
ENDBRANCH   1   2
BRANCH   1  13
HETATM   13  C8  UNL     1      -1.910   4.622  12.422  1.00  0.00     0.149 C 
BRANCH  13  14
HETATM   14  O2  UNL     1      -1.125   4.365  13.590  1.00  0.00    -0.393 OA
ATOM     15  H2  UNL     1      -0.270   4.098  13.273  1.00  0.00     0.210 HD
ENDBRANCH  13  14
BRANCH  13  16
HETATM   16  C9  UNL     1      -2.107   3.333  11.711  1.00  0.00     0.178 C 
BRANCH  16  17
HETATM   17  O3  UNL     1      -1.014   2.481  11.710  1.00  0.00    -0.390 OA
ATOM     18  H3  UNL     1      -1.212   1.564  11.562  1.00  0.00     0.210 HD
ENDBRANCH  16  17
BRANCH  16  19
HETATM   19  C10 UNL     1      -3.351   2.601  11.908  1.00  0.00     0.179 C 
HETATM   20  C11 UNL     1      -4.351   2.498  10.815  1.00  0.00     0.205 C 
HETATM   21  O4  UNL     1      -5.312   1.670  11.491  1.00  0.00    -0.364 OA
HETATM   22  C12 UNL     1      -4.590   0.893  12.355  1.00  0.00     0.338 C 
HETATM   23  O5  UNL     1      -3.225   1.240  12.255  1.00  0.00    -0.357 OA
ENDBRANCH  16  19
ENDBRANCH  13  16
ENDBRANCH   1  13
TORSDOF 9
ENDMDL
MODEL 2
REMARK VINA RESULT: -7.119974677      1.150      1.385
REMARK  9 active torsions:
REMARK  status: ('A' for Active; 'I' for Inactive)
REMARK    1  A    between atoms: O1_2  and  C2_3 
REMARK    2  A    between atoms: C5_6  and  C6_7 
REMARK    3  A    between atoms: C6_7  and  C7_8 
REMARK    4  A    between atoms: C7_8  and  C8_9 
REMARK    5  A    between atoms: C8_9  and  O2_10 
REMARK    6  A    between atoms: C8_9  and  C9_12 
REMARK    7  A    between atoms: C9_12  and  O3_13 
REMARK    8  A    between atoms: C9_12  and  C10_15 
REMARK    9  A    between atoms: C14_21  and  O6_22 
ROOT
HETATM    1  C7  UNL     1      -2.115   5.003  13.788  1.00  0.00     0.039 C 
ENDROOT
BRANCH   1   2
HETATM    2  C6  UNL     1      -3.404   5.390  14.511  1.00  0.00     0.041 C 
BRANCH   2   3
HETATM    3  C5  UNL     1      -4.146   4.193  14.943  1.00  0.00    -0.055 A 
HETATM    4  C4  UNL     1      -5.525   4.187  14.865  1.00  0.00     0.010 A 
HETATM    5  C3  UNL     1      -6.188   3.068  15.270  1.00  0.00     0.040 A 
HETATM    6  C2  UNL     1      -5.549   1.930  15.758  1.00  0.00     0.101 A 
HETATM    7  C14 UNL     1      -4.178   1.940  15.833  1.00  0.00     0.099 A 
HETATM    8  C13 UNL     1      -3.494   3.058  15.430  1.00  0.00     0.046 A 
BRANCH   6   9
HETATM    9  O1  UNL     1      -6.236   0.805  16.164  1.00  0.00    -0.353 OA
HETATM   10  C1  UNL     1      -7.225   0.941  17.174  1.00  0.00     0.210 C 
ENDBRANCH   6   9
BRANCH   7  11
HETATM   11  O6  UNL     1      -3.493   0.832  16.311  1.00  0.00    -0.358 OA
ATOM     12  H6  UNL     1      -3.913   0.231  16.916  1.00  0.00     0.217 HD
ENDBRANCH   7  11
ENDBRANCH   2   3
ENDBRANCH   1   2
BRANCH   1  13
HETATM   13  C8  UNL     1      -2.446   4.726  12.313  1.00  0.00     0.149 C 
BRANCH  13  14
HETATM   14  O2  UNL     1      -2.106   5.923  11.607  1.00  0.00    -0.393 OA
ATOM     15  H2  UNL     1      -2.095   5.686  10.687  1.00  0.00     0.210 HD
ENDBRANCH  13  14
BRANCH  13  16
HETATM   16  C9  UNL     1      -1.576   3.634  11.807  1.00  0.00     0.178 C 
BRANCH  16  17
HETATM   17  O3  UNL     1      -0.465   3.350  12.585  1.00  0.00    -0.390 OA
ATOM     18  H3  UNL     1      -0.501   2.531  13.064  1.00  0.00     0.210 HD
ENDBRANCH  16  17
BRANCH  16  19
HETATM   19  C10 UNL     1      -2.194   2.417  11.298  1.00  0.00     0.179 C 
HETATM   20  C11 UNL     1      -1.377   1.378  10.623  1.00  0.00     0.205 C 
HETATM   21  O4  UNL     1      -2.422   0.420  10.379  1.00  0.00    -0.364 OA
HETATM   22  C12 UNL     1      -3.317   0.579  11.402  1.00  0.00     0.338 C 
HETATM   23  O5  UNL     1      -2.873   1.621  12.244  1.00  0.00    -0.357 OA
ENDBRANCH  16  19
ENDBRANCH  13  16
ENDBRANCH   1  13
TORSDOF 9
ENDMDL
MODEL 3
REMARK VINA RESULT: -7.113438275      1.441      2.240
REMARK  9 active torsions:
REMARK  status: ('A' for Active; 'I' for Inactive)
REMARK    1  A    between atoms: O1_2  and  C2_3 
REMARK    2  A    between atoms: C5_6  and  C6_7 
REMARK    3  A    between atoms: C6_7  and  C7_8 
REMARK    4  A    between atoms: C7_8  and  C8_9 
REMARK    5  A    between atoms: C8_9  and  O2_10 
REMARK    6  A    between atoms: C8_9  and  C9_12 
REMARK    7  A    between atoms: C9_12  and  O3_13 
REMARK    8  A    between atoms: C9_12  and  C10_15 
REMARK    9  A    between atoms: C14_21  and  O6_22 
ROOT
HETATM    1  C7  UNL     1      -3.276   5.039  12.673  1.00  0.00     0.039 C 
ENDROOT
BRANCH   1   2
HETATM    2  C6  UNL     1      -4.061   5.520  13.892  1.00  0.00     0.041 C 
BRANCH   2   3
HETATM    3  C5  UNL     1      -4.561   4.380  14.680  1.00  0.00    -0.055 A 
HETATM    4  C4  UNL     1      -5.903   4.318  15.004  1.00  0.00     0.010 A 
HETATM    5  C3  UNL     1      -6.341   3.255  15.733  1.00  0.00     0.040 A 
HETATM    6  C2  UNL     1      -5.508   2.226  16.169  1.00  0.00     0.101 A 
HETATM    7  C14 UNL     1      -4.175   2.292  15.845  1.00  0.00     0.099 A 
HETATM    8  C13 UNL     1      -3.717   3.355  15.111  1.00  0.00     0.046 A 
BRANCH   6   9
HETATM    9  O1  UNL     1      -5.969   1.157  16.908  1.00  0.00    -0.353 OA
HETATM   10  C1  UNL     1      -7.369   1.005  17.083  1.00  0.00     0.210 C 
ENDBRANCH   6   9
BRANCH   7  11
HETATM   11  O6  UNL     1      -3.304   1.293  16.254  1.00  0.00    -0.358 OA
ATOM     12  H6  UNL     1      -2.863   1.354  17.094  1.00  0.00     0.217 HD
ENDBRANCH   7  11
ENDBRANCH   2   3
ENDBRANCH   1   2
BRANCH   1  13
HETATM   13  C8  UNL     1      -4.273   4.632  11.577  1.00  0.00     0.149 C 
BRANCH  13  14
HETATM   14  O2  UNL     1      -3.855   5.322  10.395  1.00  0.00    -0.393 OA
ATOM     15  H2  UNL     1      -3.277   6.015  10.691  1.00  0.00     0.210 HD
ENDBRANCH  13  14
BRANCH  13  16
HETATM   16  C9  UNL     1      -4.159   3.174  11.320  1.00  0.00     0.178 C 
BRANCH  16  17
HETATM   17  O3  UNL     1      -4.927   2.693  10.272  1.00  0.00    -0.390 OA
ATOM     18  H3  UNL     1      -4.659   1.851   9.922  1.00  0.00     0.210 HD
ENDBRANCH  16  17
BRANCH  16  19
HETATM   19  C10 UNL     1      -2.841   2.554  11.341  1.00  0.00     0.179 C 
HETATM   20  C11 UNL     1      -2.698   1.079  11.436  1.00  0.00     0.205 C 
HETATM   21  O4  UNL     1      -1.264   1.006  11.370  1.00  0.00    -0.364 OA
HETATM   22  C12 UNL     1      -0.873   2.070  10.604  1.00  0.00     0.338 C 
HETATM   23  O5  UNL     1      -2.014   2.810  10.227  1.00  0.00    -0.357 OA
ENDBRANCH  16  19
ENDBRANCH  13  16
ENDBRANCH   1  13
TORSDOF 9
ENDMDL
MODEL 4
REMARK VINA RESULT: -6.979604871      1.713      1.935
REMARK  9 active torsions:
REMARK  status: ('A' for Active; 'I' for Inactive)
REMARK    1  A    between atoms: O1_2  and  C2_3 
REMARK    2  A    between atoms: C5_6  and  C6_7 
REMARK    3  A    between atoms: C6_7  and  C7_8 
REMARK    4  A    between atoms: C7_8  and  C8_9 
REMARK    5  A    between atoms: C8_9  and  O2_10 
REMARK    6  A    between atoms: C8_9  and  C9_12 
REMARK    7  A    between atoms: C9_12  and  O3_13 
REMARK    8  A    between atoms: C9_12  and  C10_15 
REMARK    9  A    between atoms: C14_21  and  O6_22 
ROOT
HETATM    1  C7  UNL     1      -2.876   4.999  13.118  1.00  0.00     0.039 C 
ENDROOT
BRANCH   1   2
HETATM    2  C6  UNL     1      -3.527   5.262  14.475  1.00  0.00     0.041 C 
BRANCH   2   3
HETATM    3  C5  UNL     1      -4.255   4.072  14.949  1.00  0.00    -0.055 A 
HETATM    4  C4  UNL     1      -5.636   4.069  14.925  1.00  0.00     0.010 A 
HETATM    5  C3  UNL     1      -6.286   2.958  15.369  1.00  0.00     0.040 A 
HETATM    6  C2  UNL     1      -5.632   1.823  15.844  1.00  0.00     0.101 A 
HETATM    7  C14 UNL     1      -4.259   1.829  15.867  1.00  0.00     0.099 A 
HETATM    8  C13 UNL     1      -3.588   2.940  15.424  1.00  0.00     0.046 A 
BRANCH   6   9
HETATM    9  O1  UNL     1      -6.307   0.706  16.290  1.00  0.00    -0.353 OA
HETATM   10  C1  UNL     1      -7.365   0.876  17.220  1.00  0.00     0.210 C 
ENDBRANCH   6   9
BRANCH   7  11
HETATM   11  O6  UNL     1      -3.560   0.725  16.330  1.00  0.00    -0.358 OA
ATOM     12  H6  UNL     1      -3.934  -0.146  16.257  1.00  0.00     0.217 HD
ENDBRANCH   7  11
ENDBRANCH   2   3
ENDBRANCH   1   2
BRANCH   1  13
HETATM   13  C8  UNL     1      -1.358   5.193  13.258  1.00  0.00     0.149 C 
BRANCH  13  14
HETATM   14  O2  UNL     1      -0.944   4.288  14.286  1.00  0.00    -0.393 OA
ATOM     15  H2  UNL     1      -1.218   4.683  15.105  1.00  0.00     0.210 HD
ENDBRANCH  13  14
BRANCH  13  16
HETATM   16  C9  UNL     1      -0.689   4.789  11.996  1.00  0.00     0.178 C 
BRANCH  16  17
HETATM   17  O3  UNL     1       0.692   4.893  11.995  1.00  0.00    -0.390 OA
ATOM     18  H3  UNL     1       1.035   5.774  11.900  1.00  0.00     0.210 HD
ENDBRANCH  16  17
BRANCH  16  19
HETATM   19  C10 UNL     1      -1.132   3.578  11.318  1.00  0.00     0.179 C 
HETATM   20  C11 UNL     1      -0.733   3.306   9.914  1.00  0.00     0.205 C 
HETATM   21  O4  UNL     1      -1.366   2.024   9.764  1.00  0.00    -0.364 OA
HETATM   22  C12 UNL     1      -1.350   1.455  11.008  1.00  0.00     0.338 C 
HETATM   23  O5  UNL     1      -0.761   2.357  11.920  1.00  0.00    -0.357 OA
ENDBRANCH  16  19
ENDBRANCH  13  16
ENDBRANCH   1  13
TORSDOF 9
ENDMDL
MODEL 5
REMARK VINA RESULT: -6.967772365      1.326      2.074
REMARK  9 active torsions:
REMARK  status: ('A' for Active; 'I' for Inactive)
REMARK    1  A    between atoms: O1_2  and  C2_3 
REMARK    2  A    between atoms: C5_6  and  C6_7 
REMARK    3  A    between atoms: C6_7  and  C7_8 
REMARK    4  A    between atoms: C7_8  and  C8_9 
REMARK    5  A    between atoms: C8_9  and  O2_10 
REMARK    6  A    between atoms: C8_9  and  C9_12 
REMARK    7  A    between atoms: C9_12  and  O3_13 
REMARK    8  A    between atoms: C9_12  and  C10_15 
REMARK    9  A    between atoms: C14_21  and  O6_22 
ROOT
HETATM    1  C7  UNL     1      -2.651   3.899  12.446  1.00  0.00     0.039 C 
ENDROOT
BRANCH   1   2
HETATM    2  C6  UNL     1      -3.863   4.621  13.032  1.00  0.00     0.041 C 
BRANCH   2   3
HETATM    3  C5  UNL     1      -4.442   3.855  14.150  1.00  0.00    -0.055 A 
HETATM    4  C4  UNL     1      -5.720   4.151  14.583  1.00  0.00     0.010 A 
HETATM    5  C3  UNL     1      -6.233   3.430  15.618  1.00  0.00     0.040 A 
HETATM    6  C2  UNL     1      -5.538   2.408  16.262  1.00  0.00     0.101 A 
HETATM    7  C14 UNL     1      -4.268   2.117  15.829  1.00  0.00     0.099 A 
HETATM    8  C13 UNL     1      -3.736   2.833  14.788  1.00  0.00     0.046 A 
BRANCH   6   9
HETATM    9  O1  UNL     1      -6.073   1.687  17.309  1.00  0.00    -0.353 OA
HETATM   10  C1  UNL     1      -7.279   0.969  17.094  1.00  0.00     0.210 C 
ENDBRANCH   6   9
BRANCH   7  11
HETATM   11  O6  UNL     1      -3.534   1.109  16.436  1.00  0.00    -0.358 OA
ATOM     12  H6  UNL     1      -3.944   0.279  16.652  1.00  0.00     0.217 HD
ENDBRANCH   7  11
ENDBRANCH   2   3
ENDBRANCH   1   2
BRANCH   1  13
HETATM   13  C8  UNL     1      -3.006   3.414  11.032  1.00  0.00     0.149 C 
BRANCH  13  14
HETATM   14  O2  UNL     1      -1.811   2.825  10.511  1.00  0.00    -0.393 OA
ATOM     15  H2  UNL     1      -1.450   2.305  11.219  1.00  0.00     0.210 HD
ENDBRANCH  13  14
BRANCH  13  16
HETATM   16  C9  UNL     1      -4.040   2.352  11.118  1.00  0.00     0.178 C 
BRANCH  16  17
HETATM   17  O3  UNL     1      -5.055   2.433  10.178  1.00  0.00    -0.390 OA
ATOM     18  H3  UNL     1      -5.908   2.676  10.518  1.00  0.00     0.210 HD
ENDBRANCH  16  17
BRANCH  16  19
HETATM   19  C10 UNL     1      -3.620   0.974  11.332  1.00  0.00     0.179 C 
HETATM   20  C11 UNL     1      -4.416   0.065  12.196  1.00  0.00     0.205 C 
HETATM   21  O4  UNL     1      -3.625  -1.124  12.028  1.00  0.00    -0.364 OA
HETATM   22  C12 UNL     1      -3.091  -1.040  10.771  1.00  0.00     0.338 C 
HETATM   23  O5  UNL     1      -3.500   0.173  10.177  1.00  0.00    -0.357 OA
ENDBRANCH  16  19
ENDBRANCH  13  16
ENDBRANCH   1  13
TORSDOF 9
ENDMDL
