MODEL 1
REMARK VINA RESULT: -6.148721263      0.000      0.000
REMARK  13 active torsions:
REMARK  status: ('A' for Active; 'I' for Inactive)
REMARK    1  A    between atoms: O1_1  and  C1_3 
REMARK    2  A    between atoms: C1_3  and  C2_4 
REMARK    3  A    between atoms: C2_4  and  N1_5 
REMARK    4  A    between atoms: N1_5  and  C3_7 
REMARK    5  A    between atoms: C7_13  and  C8_14 
REMARK    6  A    between atoms: C8_14  and  C9_15 
REMARK    7  A    between atoms: C9_15  and  N3_16 
REMARK    8  A    between atoms: C11_18  and  O2_19 
REMARK    9  A    between atoms: C12_21  and  O3_22 
REMARK   10  A    between atoms: C13_24  and  O4_25 
REMARK   11  A    between atoms: C14_27  and  C15_28 
REMARK   12  A    between atoms: C15_28  and  C16_29 
REMARK   13  A    between atoms: C16_29  and  O5_30 
ROOT
HETATM    1  N3  UNL     1     -17.646  36.053  42.139  1.00  0.00    -0.403 N 
HETATM    2  C10 UNL     1     -17.913  36.227  40.768  1.00  0.00     0.151 C 
HETATM    3  C11 UNL     1     -16.726  35.782  39.903  1.00  0.00     0.167 C 
HETATM    4  C12 UNL     1     -16.503  34.338  40.205  1.00  0.00     0.179 C 
HETATM    5  C13 UNL     1     -16.089  34.211  41.654  1.00  0.00     0.172 C 
HETATM    6  C14 UNL     1     -17.085  34.843  42.588  1.00  0.00     0.112 C 
ENDROOT
BRANCH   1   7
HETATM    7  C9  UNL     1     -17.292  37.197  42.902  1.00  0.00     0.122 C 
BRANCH   7   8
HETATM    8  C8  UNL     1     -18.338  38.287  42.862  1.00  0.00     0.062 C 
BRANCH   8   9
HETATM    9  C7  UNL     1     -19.558  37.885  43.628  1.00  0.00    -0.013 A 
HETATM   10  C3  UNL     1     -19.567  38.042  45.020  1.00  0.00     0.107 A 
HETATM   11  N2  UNL     1     -20.649  37.677  45.713  1.00  0.00    -0.352 N 
HETATM   12  C4  UNL     1     -21.712  37.160  45.055  1.00  0.00     0.089 A 
ATOM     13  H2  UNL     1     -20.673  37.786  46.727  1.00  0.00     0.166 HD
HETATM   14  C5  UNL     1     -21.740  36.990  43.686  1.00  0.00     0.018 A 
HETATM   15  C6  UNL     1     -20.635  37.362  42.954  1.00  0.00     0.012 A 
BRANCH  10  16
HETATM   16  N1  UNL     1     -18.511  38.542  45.537  1.00  0.00    -0.374 N 
ATOM     17  H1  UNL     1     -18.049  39.308  45.045  1.00  0.00     0.161 HD
BRANCH  16  18
HETATM   18  C2  UNL     1     -17.937  38.084  46.774  1.00  0.00     0.147 C 
BRANCH  18  19
HETATM   19  C1  UNL     1     -18.228  39.020  47.928  1.00  0.00     0.183 C 
BRANCH  19  20
HETATM   20  O1  UNL     1     -17.374  40.118  47.828  1.00  0.00    -0.399 OA
ATOM     21  H1  UNL     1     -17.383  40.580  48.658  1.00  0.00     0.209 HD
ENDBRANCH  19  20
ENDBRANCH  18  19
ENDBRANCH  16  18
ENDBRANCH  10  16
ENDBRANCH   8   9
ENDBRANCH   7   8
ENDBRANCH   1   7
BRANCH   6  22
HETATM   22  C15 UNL     1     -18.144  33.773  42.883  1.00  0.00     0.053 C 
BRANCH  22  23
HETATM   23  C16 UNL     1     -18.880  34.071  44.171  1.00  0.00     0.166 C 
BRANCH  23  24
HETATM   24  O5  UNL     1     -19.134  32.847  44.781  1.00  0.00    -0.401 OA
ATOM     25  H5  UNL     1     -18.493  32.749  45.476  1.00  0.00     0.209 HD
ENDBRANCH  23  24
ENDBRANCH  22  23
ENDBRANCH   6  22
BRANCH   3  26
HETATM   26  O2  UNL     1     -17.099  35.946  38.556  1.00  0.00    -0.391 OA
ATOM     27  H2  UNL     1     -16.308  35.890  38.033  1.00  0.00     0.210 HD
ENDBRANCH   3  26
BRANCH   5  28
HETATM   28  O4  UNL     1     -14.786  34.671  41.872  1.00  0.00    -0.391 OA
ATOM     29  H4  UNL     1     -14.663  34.987  42.759  1.00  0.00     0.210 HD
ENDBRANCH   5  28
BRANCH   4  30
HETATM   30  O3  UNL     1     -15.523  33.752  39.413  1.00  0.00    -0.390 OA
ATOM     31  H3  UNL     1     -15.108  34.360  38.813  1.00  0.00     0.210 HD
ENDBRANCH   4  30
TORSDOF 13
ENDMDL
MODEL 2
REMARK VINA RESULT: -6.106654686      1.994      3.997
REMARK  13 active torsions:
REMARK  status: ('A' for Active; 'I' for Inactive)
REMARK    1  A    between atoms: O1_1  and  C1_3 
REMARK    2  A    between atoms: C1_3  and  C2_4 
REMARK    3  A    between atoms: C2_4  and  N1_5 
REMARK    4  A    between atoms: N1_5  and  C3_7 
REMARK    5  A    between atoms: C7_13  and  C8_14 
REMARK    6  A    between atoms: C8_14  and  C9_15 
REMARK    7  A    between atoms: C9_15  and  N3_16 
REMARK    8  A    between atoms: C11_18  and  O2_19 
REMARK    9  A    between atoms: C12_21  and  O3_22 
REMARK   10  A    between atoms: C13_24  and  O4_25 
REMARK   11  A    between atoms: C14_27  and  C15_28 
REMARK   12  A    between atoms: C15_28  and  C16_29 
REMARK   13  A    between atoms: C16_29  and  O5_30 
ROOT
HETATM    1  N3  UNL     1     -19.435  37.600  42.942  1.00  0.00    -0.403 N 
HETATM    2  C10 UNL     1     -18.862  38.397  43.952  1.00  0.00     0.151 C 
HETATM    3  C11 UNL     1     -17.931  37.576  44.855  1.00  0.00     0.167 C 
HETATM    4  C12 UNL     1     -16.865  37.023  43.970  1.00  0.00     0.179 C 
HETATM    5  C13 UNL     1     -17.508  36.070  42.987  1.00  0.00     0.172 C 
HETATM    6  C14 UNL     1     -18.619  36.720  42.206  1.00  0.00     0.112 C 
ENDROOT
BRANCH   1   7
HETATM    7  C9  UNL     1     -20.779  37.173  43.110  1.00  0.00     0.122 C 
BRANCH   7   8
HETATM    8  C8  UNL     1     -21.555  38.019  44.092  1.00  0.00     0.062 C 
BRANCH   8   9
HETATM    9  C7  UNL     1     -22.037  37.194  45.242  1.00  0.00    -0.013 A 
HETATM   10  C3  UNL     1     -21.738  37.609  46.547  1.00  0.00     0.107 A 
HETATM   11  N2  UNL     1     -22.158  36.873  47.580  1.00  0.00    -0.352 N 
HETATM   12  C4  UNL     1     -22.859  35.741  47.343  1.00  0.00     0.089 A 
ATOM     13  H2  UNL     1     -21.951  37.161  48.536  1.00  0.00     0.166 HD
HETATM   14  C5  UNL     1     -23.172  35.300  46.074  1.00  0.00     0.018 A 
HETATM   15  C6  UNL     1     -22.750  36.045  44.996  1.00  0.00     0.012 A 
BRANCH  10  16
HETATM   16  N1  UNL     1     -21.073  38.694  46.653  1.00  0.00    -0.374 N 
ATOM     17  H1  UNL     1     -21.113  39.362  45.883  1.00  0.00     0.161 HD
BRANCH  16  18
HETATM   18  C2  UNL     1     -20.271  39.026  47.800  1.00  0.00     0.147 C 
BRANCH  18  19
HETATM   19  C1  UNL     1     -19.738  40.443  47.743  1.00  0.00     0.183 C 
BRANCH  19  20
HETATM   20  O1  UNL     1     -19.227  40.667  46.464  1.00  0.00    -0.399 OA
ATOM     21  H1  UNL     1     -18.346  41.013  46.551  1.00  0.00     0.209 HD
ENDBRANCH  19  20
ENDBRANCH  18  19
ENDBRANCH  16  18
ENDBRANCH  10  16
ENDBRANCH   8   9
ENDBRANCH   7   8
ENDBRANCH   1   7
BRANCH   6  22
HETATM   22  C15 UNL     1     -17.961  37.395  40.996  1.00  0.00     0.053 C 
BRANCH  22  23
HETATM   23  C16 UNL     1     -17.799  36.422  39.849  1.00  0.00     0.166 C 
BRANCH  23  24
HETATM   24  O5  UNL     1     -16.449  36.419  39.512  1.00  0.00    -0.401 OA
ATOM     25  H5  UNL     1     -16.367  35.916  38.710  1.00  0.00     0.209 HD
ENDBRANCH  23  24
ENDBRANCH  22  23
ENDBRANCH   6  22
BRANCH   3  26
HETATM   26  O2  UNL     1     -17.371  38.459  45.798  1.00  0.00    -0.391 OA
ATOM     27  H2  UNL     1     -18.055  38.686  46.417  1.00  0.00     0.210 HD
ENDBRANCH   3  26
BRANCH   5  28
HETATM   28  O4  UNL     1     -17.912  34.877  43.596  1.00  0.00    -0.391 OA
ATOM     29  H4  UNL     1     -18.809  34.650  43.378  1.00  0.00     0.210 HD
ENDBRANCH   5  28
BRANCH   4  30
HETATM   30  O3  UNL     1     -15.872  36.340  44.661  1.00  0.00    -0.390 OA
ATOM     31  H3  UNL     1     -15.610  35.528  44.243  1.00  0.00     0.210 HD
ENDBRANCH   4  30
TORSDOF 13
ENDMDL
MODEL 3
REMARK VINA RESULT: -5.804788231      2.088      6.589
REMARK  13 active torsions:
REMARK  status: ('A' for Active; 'I' for Inactive)
REMARK    1  A    between atoms: O1_1  and  C1_3 
REMARK    2  A    between atoms: C1_3  and  C2_4 
REMARK    3  A    between atoms: C2_4  and  N1_5 
REMARK    4  A    between atoms: N1_5  and  C3_7 
REMARK    5  A    between atoms: C7_13  and  C8_14 
REMARK    6  A    between atoms: C8_14  and  C9_15 
REMARK    7  A    between atoms: C9_15  and  N3_16 
REMARK    8  A    between atoms: C11_18  and  O2_19 
REMARK    9  A    between atoms: C12_21  and  O3_22 
REMARK   10  A    between atoms: C13_24  and  O4_25 
REMARK   11  A    between atoms: C14_27  and  C15_28 
REMARK   12  A    between atoms: C15_28  and  C16_29 
REMARK   13  A    between atoms: C16_29  and  O5_30 
ROOT
HETATM    1  N3  UNL     1     -20.024  36.653  46.154  1.00  0.00    -0.403 N 
HETATM    2  C10 UNL     1     -19.218  36.280  47.248  1.00  0.00     0.151 C 
HETATM    3  C11 UNL     1     -17.992  37.195  47.381  1.00  0.00     0.167 C 
HETATM    4  C12 UNL     1     -18.518  38.577  47.577  1.00  0.00     0.179 C 
HETATM    5  C13 UNL     1     -19.263  38.987  46.326  1.00  0.00     0.172 C 
HETATM    6  C14 UNL     1     -20.348  38.009  45.963  1.00  0.00     0.112 C 
ENDROOT
BRANCH   1   7
HETATM    7  C9  UNL     1     -19.932  35.885  44.964  1.00  0.00     0.122 C 
BRANCH   7   8
HETATM    8  C8  UNL     1     -18.565  35.940  44.323  1.00  0.00     0.062 C 
BRANCH   8   9
HETATM    9  C7  UNL     1     -18.652  36.447  42.919  1.00  0.00    -0.013 A 
HETATM   10  C3  UNL     1     -17.753  35.957  41.963  1.00  0.00     0.107 A 
HETATM   11  N2  UNL     1     -17.819  36.412  40.709  1.00  0.00    -0.352 N 
HETATM   12  C4  UNL     1     -18.750  37.339  40.390  1.00  0.00     0.089 A 
ATOM     13  H2  UNL     1     -17.173  36.064  40.000  1.00  0.00     0.166 HD
HETATM   14  C5  UNL     1     -19.651  37.847  41.303  1.00  0.00     0.018 A 
HETATM   15  C6  UNL     1     -19.601  37.389  42.601  1.00  0.00     0.012 A 
BRANCH  10  16
HETATM   16  N1  UNL     1     -16.918  35.082  42.374  1.00  0.00    -0.374 N 
ATOM     17  H1  UNL     1     -16.324  35.318  43.169  1.00  0.00     0.161 HD
BRANCH  16  18
HETATM   18  C2  UNL     1     -16.770  33.781  41.777  1.00  0.00     0.147 C 
BRANCH  18  19
HETATM   19  C1  UNL     1     -15.493  33.656  40.973  1.00  0.00     0.183 C 
BRANCH  19  20
HETATM   20  O1  UNL     1     -15.754  34.075  39.668  1.00  0.00    -0.399 OA
ATOM     21  H1  UNL     1     -15.168  34.794  39.462  1.00  0.00     0.209 HD
ENDBRANCH  19  20
ENDBRANCH  18  19
ENDBRANCH  16  18
ENDBRANCH  10  16
ENDBRANCH   8   9
ENDBRANCH   7   8
ENDBRANCH   1   7
BRANCH   6  22
HETATM   22  C15 UNL     1     -21.596  38.435  46.747  1.00  0.00     0.053 C 
BRANCH  22  23
HETATM   23  C16 UNL     1     -22.861  37.982  46.051  1.00  0.00     0.166 C 
BRANCH  23  24
HETATM   24  O5  UNL     1     -22.606  38.032  44.684  1.00  0.00    -0.401 OA
ATOM     25  H5  UNL     1     -22.782  37.164  44.340  1.00  0.00     0.209 HD
ENDBRANCH  23  24
ENDBRANCH  22  23
ENDBRANCH   6  22
BRANCH   3  26
HETATM   26  O2  UNL     1     -17.277  36.780  48.519  1.00  0.00    -0.391 OA
ATOM     27  H2  UNL     1     -17.904  36.414  49.132  1.00  0.00     0.210 HD
ENDBRANCH   3  26
BRANCH   5  28
HETATM   28  O4  UNL     1     -18.398  39.244  45.258  1.00  0.00    -0.391 OA
ATOM     29  H4  UNL     1     -18.854  39.609  44.509  1.00  0.00     0.210 HD
ENDBRANCH   5  28
BRANCH   4  30
HETATM   30  O3  UNL     1     -17.525  39.516  47.827  1.00  0.00    -0.390 OA
ATOM     31  H3  UNL     1     -16.883  39.227  48.464  1.00  0.00     0.210 HD
ENDBRANCH   4  30
TORSDOF 13
ENDMDL
MODEL 4
REMARK VINA RESULT: -5.677585869      2.435      4.617
REMARK  13 active torsions:
REMARK  status: ('A' for Active; 'I' for Inactive)
REMARK    1  A    between atoms: O1_1  and  C1_3 
REMARK    2  A    between atoms: C1_3  and  C2_4 
REMARK    3  A    between atoms: C2_4  and  N1_5 
REMARK    4  A    between atoms: N1_5  and  C3_7 
REMARK    5  A    between atoms: C7_13  and  C8_14 
REMARK    6  A    between atoms: C8_14  and  C9_15 
REMARK    7  A    between atoms: C9_15  and  N3_16 
REMARK    8  A    between atoms: C11_18  and  O2_19 
REMARK    9  A    between atoms: C12_21  and  O3_22 
REMARK   10  A    between atoms: C13_24  and  O4_25 
REMARK   11  A    between atoms: C14_27  and  C15_28 
REMARK   12  A    between atoms: C15_28  and  C16_29 
REMARK   13  A    between atoms: C16_29  and  O5_30 
ROOT
HETATM    1  N3  UNL     1     -19.770  37.518  43.735  1.00  0.00    -0.403 N 
HETATM    2  C10 UNL     1     -19.080  38.303  44.678  1.00  0.00     0.151 C 
HETATM    3  C11 UNL     1     -17.856  37.563  45.238  1.00  0.00     0.167 C 
HETATM    4  C12 UNL     1     -16.975  37.265  44.071  1.00  0.00     0.179 C 
HETATM    5  C13 UNL     1     -17.705  36.314  43.150  1.00  0.00     0.172 C 
HETATM    6  C14 UNL     1     -19.049  36.847  42.730  1.00  0.00     0.112 C 
ENDROOT
BRANCH   1   7
HETATM    7  C9  UNL     1     -20.964  36.870  44.150  1.00  0.00     0.122 C 
BRANCH   7   8
HETATM    8  C8  UNL     1     -20.729  35.794  45.185  1.00  0.00     0.062 C 
BRANCH   8   9
HETATM    9  C7  UNL     1     -21.820  35.789  46.207  1.00  0.00    -0.013 A 
HETATM   10  C3  UNL     1     -21.524  36.187  47.518  1.00  0.00     0.107 A 
HETATM   11  N2  UNL     1     -22.491  36.176  48.439  1.00  0.00    -0.352 N 
HETATM   12  C4  UNL     1     -23.735  35.779  48.087  1.00  0.00     0.089 A 
ATOM     13  H2  UNL     1     -22.293  36.464  49.398  1.00  0.00     0.166 HD
HETATM   14  C5  UNL     1     -24.065  35.380  46.809  1.00  0.00     0.018 A 
HETATM   15  C6  UNL     1     -23.083  35.385  45.844  1.00  0.00     0.012 A 
BRANCH  10  16
HETATM   16  N1  UNL     1     -20.317  36.545  47.737  1.00  0.00    -0.374 N 
ATOM     17  H1  UNL     1     -19.920  37.283  47.157  1.00  0.00     0.161 HD
BRANCH  16  18
HETATM   18  C2  UNL     1     -19.489  35.963  48.760  1.00  0.00     0.147 C 
BRANCH  18  19
HETATM   19  C1  UNL     1     -18.399  35.081  48.188  1.00  0.00     0.183 C 
BRANCH  19  20
HETATM   20  O1  UNL     1     -18.956  33.838  47.883  1.00  0.00    -0.399 OA
ATOM     21  H1  UNL     1     -18.248  33.226  47.721  1.00  0.00     0.209 HD
ENDBRANCH  19  20
ENDBRANCH  18  19
ENDBRANCH  16  18
ENDBRANCH  10  16
ENDBRANCH   8   9
ENDBRANCH   7   8
ENDBRANCH   1   7
BRANCH   6  22
HETATM   22  C15 UNL     1     -18.801  37.722  41.495  1.00  0.00     0.053 C 
BRANCH  22  23
HETATM   23  C16 UNL     1     -18.435  36.879  40.292  1.00  0.00     0.166 C 
BRANCH  23  24
HETATM   24  O5  UNL     1     -17.274  37.428  39.756  1.00  0.00    -0.401 OA
ATOM     25  H5  UNL     1     -17.165  38.283  40.155  1.00  0.00     0.209 HD
ENDBRANCH  23  24
ENDBRANCH  22  23
ENDBRANCH   6  22
BRANCH   3  26
HETATM   26  O2  UNL     1     -17.206  38.435  46.130  1.00  0.00    -0.391 OA
ATOM     27  H2  UNL     1     -16.818  37.905  46.816  1.00  0.00     0.210 HD
ENDBRANCH   3  26
BRANCH   5  28
HETATM   28  O4  UNL     1     -17.787  35.023  43.683  1.00  0.00    -0.391 OA
ATOM     29  H4  UNL     1     -17.946  34.369  43.012  1.00  0.00     0.210 HD
ENDBRANCH   5  28
BRANCH   4  30
HETATM   30  O3  UNL     1     -15.761  36.690  44.428  1.00  0.00    -0.390 OA
ATOM     31  H3  UNL     1     -15.842  36.018  45.094  1.00  0.00     0.210 HD
ENDBRANCH   4  30
TORSDOF 13
ENDMDL
MODEL 5
REMARK VINA RESULT: -5.652356876      2.765      4.644
REMARK  13 active torsions:
REMARK  status: ('A' for Active; 'I' for Inactive)
REMARK    1  A    between atoms: O1_1  and  C1_3 
REMARK    2  A    between atoms: C1_3  and  C2_4 
REMARK    3  A    between atoms: C2_4  and  N1_5 
REMARK    4  A    between atoms: N1_5  and  C3_7 
REMARK    5  A    between atoms: C7_13  and  C8_14 
REMARK    6  A    between atoms: C8_14  and  C9_15 
REMARK    7  A    between atoms: C9_15  and  N3_16 
REMARK    8  A    between atoms: C11_18  and  O2_19 
REMARK    9  A    between atoms: C12_21  and  O3_22 
REMARK   10  A    between atoms: C13_24  and  O4_25 
REMARK   11  A    between atoms: C14_27  and  C15_28 
REMARK   12  A    between atoms: C15_28  and  C16_29 
REMARK   13  A    between atoms: C16_29  and  O5_30 
ROOT
HETATM    1  N3  UNL     1     -18.415  36.226  44.463  1.00  0.00    -0.403 N 
HETATM    2  C10 UNL     1     -19.798  36.486  44.415  1.00  0.00     0.151 C 
HETATM    3  C11 UNL     1     -20.127  37.593  43.404  1.00  0.00     0.167 C 
HETATM    4  C12 UNL     1     -19.649  37.108  42.077  1.00  0.00     0.179 C 
HETATM    5  C13 UNL     1     -18.144  36.969  42.133  1.00  0.00     0.172 C 
HETATM    6  C14 UNL     1     -17.695  36.081  43.263  1.00  0.00     0.112 C 
ENDROOT
BRANCH   1   7
HETATM    7  C9  UNL     1     -17.671  36.760  45.548  1.00  0.00     0.122 C 
BRANCH   7   8
HETATM    8  C8  UNL     1     -18.510  37.009  46.780  1.00  0.00     0.062 C 
BRANCH   8   9
HETATM    9  C7  UNL     1     -17.686  36.878  48.022  1.00  0.00    -0.013 A 
HETATM   10  C3  UNL     1     -17.572  37.980  48.879  1.00  0.00     0.107 A 
HETATM   11  N2  UNL     1     -16.830  37.874  49.985  1.00  0.00    -0.352 N 
HETATM   12  C4  UNL     1     -16.203  36.706  50.251  1.00  0.00     0.089 A 
ATOM     13  H2  UNL     1     -16.738  38.666  50.622  1.00  0.00     0.166 HD
HETATM   14  C5  UNL     1     -16.291  35.600  49.431  1.00  0.00     0.018 A 
HETATM   15  C6  UNL     1     -17.052  35.688  48.287  1.00  0.00     0.012 A 
BRANCH  10  16
HETATM   16  N1  UNL     1     -18.209  39.032  48.531  1.00  0.00    -0.374 N 
ATOM     17  H1  UNL     1     -18.673  39.036  47.623  1.00  0.00     0.161 HD
BRANCH  16  18
HETATM   18  C2  UNL     1     -18.307  40.210  49.351  1.00  0.00     0.147 C 
BRANCH  18  19
HETATM   19  C1  UNL     1     -17.977  41.475  48.586  1.00  0.00     0.183 C 
BRANCH  19  20
HETATM   20  O1  UNL     1     -16.615  41.463  48.286  1.00  0.00    -0.399 OA
ATOM     21  H1  UNL     1     -16.237  40.668  48.643  1.00  0.00     0.209 HD
ENDBRANCH  19  20
ENDBRANCH  18  19
ENDBRANCH  16  18
ENDBRANCH  10  16
ENDBRANCH   8   9
ENDBRANCH   7   8
ENDBRANCH   1   7
BRANCH   6  22
HETATM   22  C15 UNL     1     -17.725  34.645  42.723  1.00  0.00     0.053 C 
BRANCH  22  23
HETATM   23  C16 UNL     1     -16.668  34.439  41.660  1.00  0.00     0.166 C 
BRANCH  23  24
HETATM   24  O5  UNL     1     -16.505  33.065  41.516  1.00  0.00    -0.401 OA
ATOM     25  H5  UNL     1     -16.720  32.674  42.355  1.00  0.00     0.209 HD
ENDBRANCH  23  24
ENDBRANCH  22  23
ENDBRANCH   6  22
BRANCH   3  26
HETATM   26  O2  UNL     1     -21.525  37.751  43.390  1.00  0.00    -0.391 OA
ATOM     27  H2  UNL     1     -21.729  38.432  42.759  1.00  0.00     0.210 HD
ENDBRANCH   3  26
BRANCH   5  28
HETATM   28  O4  UNL     1     -17.500  38.211  42.144  1.00  0.00    -0.391 OA
ATOM     29  H4  UNL     1     -16.556  38.125  42.079  1.00  0.00     0.210 HD
ENDBRANCH   5  28
BRANCH   4  30
HETATM   30  O3  UNL     1     -19.975  37.957  41.027  1.00  0.00    -0.390 OA
ATOM     31  H3  UNL     1     -19.232  38.186  40.481  1.00  0.00     0.210 HD
ENDBRANCH   4  30
TORSDOF 13
ENDMDL
