MODEL 1
REMARK VINA RESULT: -6.761796267      0.000      0.000
REMARK  12 active torsions:
REMARK  status: ('A' for Active; 'I' for Inactive)
REMARK    1  A    between atoms: C6_7  and  C7_8 
REMARK    2  A    between atoms: C7_8  and  C8_9 
REMARK    3  A    between atoms: C8_9  and  C9_10 
REMARK    4  A    between atoms: C9_10  and  C10_11 
REMARK    5  A    between atoms: C10_11  and  O1_12 
REMARK    6  A    between atoms: C10_11  and  N2_14 
REMARK    7  A    between atoms: N2_14  and  C11_16 
REMARK    8  A    between atoms: C12_17  and  O2_18 
REMARK    9  A    between atoms: C13_21  and  C14_22 
REMARK   10  A    between atoms: C14_22  and  O4_23 
REMARK   11  A    between atoms: C15_25  and  O5_26 
REMARK   12  A    between atoms: C16_28  and  O6_29 
ROOT
HETATM    1  C11 UNL     1     -17.278  37.438  42.414  1.00  0.00     0.165 C 
HETATM    2  C12 UNL     1     -16.886  36.444  43.476  1.00  0.00     0.282 C 
HETATM    3  O3  UNL     1     -16.113  35.460  42.927  1.00  0.00    -0.349 OA
HETATM    4  C13 UNL     1     -16.769  34.651  42.020  1.00  0.00     0.179 C 
HETATM    5  C15 UNL     1     -17.333  35.465  40.869  1.00  0.00     0.180 C 
HETATM    6  C16 UNL     1     -17.997  36.710  41.307  1.00  0.00     0.176 C 
ENDROOT
BRANCH   1   7
HETATM    7  N2  UNL     1     -18.123  38.481  42.928  1.00  0.00    -0.386 N 
ATOM      8  H2  UNL     1     -18.205  39.380  42.452  1.00  0.00     0.156 HD
BRANCH   7   9
HETATM    9  C10 UNL     1     -18.829  38.216  44.103  1.00  0.00     0.213 C 
BRANCH   9  10
HETATM   10  C9  UNL     1     -20.312  38.105  44.067  1.00  0.00     0.053 C 
BRANCH  10  11
HETATM   11  C8  UNL     1     -20.805  36.689  44.008  1.00  0.00     0.010 C 
BRANCH  11  12
HETATM   12  C7  UNL     1     -20.494  35.892  45.224  1.00  0.00     0.057 C 
BRANCH  12  13
HETATM   13  C6  UNL     1     -21.624  35.595  46.121  1.00  0.00     0.010 A 
HETATM   14  N1  UNL     1     -21.294  35.340  47.407  1.00  0.00    -0.364 N 
HETATM   15  C1  UNL     1     -19.918  35.353  47.894  1.00  0.00     0.155 C 
HETATM   16  C2  UNL     1     -22.228  35.035  48.346  1.00  0.00     0.090 A 
HETATM   17  C3  UNL     1     -23.558  34.977  48.004  1.00  0.00     0.017 A 
HETATM   18  C4  UNL     1     -23.893  35.236  46.691  1.00  0.00     0.003 A 
HETATM   19  C5  UNL     1     -22.933  35.543  45.753  1.00  0.00     0.025 A 
ENDBRANCH  12  13
ENDBRANCH  11  12
ENDBRANCH  10  11
ENDBRANCH   9  10
BRANCH   9  20
HETATM   20  O1  UNL     1     -18.428  39.127  45.116  1.00  0.00    -0.377 OA
ATOM     21  H1  UNL     1     -18.336  38.677  45.947  1.00  0.00     0.212 HD
ENDBRANCH   9  20
ENDBRANCH   7   9
ENDBRANCH   1   7
BRANCH   2  22
HETATM   22  O2  UNL     1     -16.194  37.052  44.525  1.00  0.00    -0.369 OA
ATOM     23  H2  UNL     1     -15.278  37.183  44.313  1.00  0.00     0.212 HD
ENDBRANCH   2  22
BRANCH   6  24
HETATM   24  O6  UNL     1     -18.137  37.552  40.176  1.00  0.00    -0.391 OA
ATOM     25  H6  UNL     1     -18.179  37.032  39.382  1.00  0.00     0.210 HD
ENDBRANCH   6  24
BRANCH   5  26
HETATM   26  O5  UNL     1     -16.365  35.660  39.900  1.00  0.00    -0.390 OA
ATOM     27  H5  UNL     1     -16.031  36.548  39.941  1.00  0.00     0.210 HD
ENDBRANCH   5  26
BRANCH   4  28
HETATM   28  C14 UNL     1     -17.862  33.801  42.632  1.00  0.00     0.198 C 
BRANCH  28  29
HETATM   29  O4  UNL     1     -17.375  32.472  42.628  1.00  0.00    -0.398 OA
ATOM     30  H4  UNL     1     -17.748  32.053  43.395  1.00  0.00     0.209 HD
ENDBRANCH  28  29
ENDBRANCH   4  28
TORSDOF 12
ENDMDL
MODEL 2
REMARK VINA RESULT: -6.469305556      0.661      1.591
REMARK  12 active torsions:
REMARK  status: ('A' for Active; 'I' for Inactive)
REMARK    1  A    between atoms: C6_7  and  C7_8 
REMARK    2  A    between atoms: C7_8  and  C8_9 
REMARK    3  A    between atoms: C8_9  and  C9_10 
REMARK    4  A    between atoms: C9_10  and  C10_11 
REMARK    5  A    between atoms: C10_11  and  O1_12 
REMARK    6  A    between atoms: C10_11  and  N2_14 
REMARK    7  A    between atoms: N2_14  and  C11_16 
REMARK    8  A    between atoms: C12_17  and  O2_18 
REMARK    9  A    between atoms: C13_21  and  C14_22 
REMARK   10  A    between atoms: C14_22  and  O4_23 
REMARK   11  A    between atoms: C15_25  and  O5_26 
REMARK   12  A    between atoms: C16_28  and  O6_29 
ROOT
HETATM    1  C11 UNL     1     -17.301  37.444  42.431  1.00  0.00     0.165 C 
HETATM    2  C12 UNL     1     -16.905  36.452  43.493  1.00  0.00     0.282 C 
HETATM    3  O3  UNL     1     -16.122  35.475  42.946  1.00  0.00    -0.349 OA
HETATM    4  C13 UNL     1     -16.768  34.662  42.035  1.00  0.00     0.179 C 
HETATM    5  C15 UNL     1     -17.333  35.473  40.883  1.00  0.00     0.180 C 
HETATM    6  C16 UNL     1     -18.009  36.712  41.321  1.00  0.00     0.176 C 
ENDROOT
BRANCH   1   7
HETATM    7  N2  UNL     1     -18.156  38.479  42.944  1.00  0.00    -0.386 N 
ATOM      8  H2  UNL     1     -18.248  39.376  42.466  1.00  0.00     0.156 HD
BRANCH   7   9
HETATM    9  C10 UNL     1     -18.857  38.210  44.121  1.00  0.00     0.213 C 
BRANCH   9  10
HETATM   10  C9  UNL     1     -20.344  38.141  44.098  1.00  0.00     0.053 C 
BRANCH  10  11
HETATM   11  C8  UNL     1     -20.875  36.745  43.961  1.00  0.00     0.010 C 
BRANCH  11  12
HETATM   12  C7  UNL     1     -21.722  36.308  45.101  1.00  0.00     0.057 C 
BRANCH  12  13
HETATM   13  C6  UNL     1     -21.026  35.660  46.227  1.00  0.00     0.010 A 
HETATM   14  N1  UNL     1     -21.727  35.589  47.381  1.00  0.00    -0.364 N 
HETATM   15  C1  UNL     1     -23.081  36.114  47.524  1.00  0.00     0.155 C 
HETATM   16  C2  UNL     1     -21.209  35.033  48.507  1.00  0.00     0.090 A 
HETATM   17  C3  UNL     1     -19.935  34.517  48.500  1.00  0.00     0.017 A 
HETATM   18  C4  UNL     1     -19.221  34.591  47.322  1.00  0.00     0.003 A 
HETATM   19  C5  UNL     1     -19.762  35.158  46.190  1.00  0.00     0.025 A 
ENDBRANCH  12  13
ENDBRANCH  11  12
ENDBRANCH  10  11
ENDBRANCH   9  10
BRANCH   9  20
HETATM   20  O1  UNL     1     -18.422  39.090  45.147  1.00  0.00    -0.377 OA
ATOM     21  H1  UNL     1     -17.810  38.646  45.723  1.00  0.00     0.212 HD
ENDBRANCH   9  20
ENDBRANCH   7   9
ENDBRANCH   1   7
BRANCH   2  22
HETATM   22  O2  UNL     1     -16.222  37.064  44.546  1.00  0.00    -0.369 OA
ATOM     23  H2  UNL     1     -15.603  36.472  44.956  1.00  0.00     0.212 HD
ENDBRANCH   2  22
BRANCH   6  24
HETATM   24  O6  UNL     1     -18.152  37.555  40.191  1.00  0.00    -0.391 OA
ATOM     25  H6  UNL     1     -18.873  37.258  39.647  1.00  0.00     0.210 HD
ENDBRANCH   6  24
BRANCH   5  26
HETATM   26  O5  UNL     1     -16.363  35.678  39.918  1.00  0.00    -0.390 OA
ATOM     27  H5  UNL     1     -16.766  35.799  39.067  1.00  0.00     0.210 HD
ENDBRANCH   5  26
BRANCH   4  28
HETATM   28  C14 UNL     1     -17.856  33.802  42.642  1.00  0.00     0.198 C 
BRANCH  28  29
HETATM   29  O4  UNL     1     -17.370  32.474  42.612  1.00  0.00    -0.398 OA
ATOM     30  H4  UNL     1     -17.953  31.992  42.037  1.00  0.00     0.209 HD
ENDBRANCH  28  29
ENDBRANCH   4  28
TORSDOF 12
ENDMDL
MODEL 3
REMARK VINA RESULT: -6.432492166      3.353      7.108
REMARK  12 active torsions:
REMARK  status: ('A' for Active; 'I' for Inactive)
REMARK    1  A    between atoms: C6_7  and  C7_8 
REMARK    2  A    between atoms: C7_8  and  C8_9 
REMARK    3  A    between atoms: C8_9  and  C9_10 
REMARK    4  A    between atoms: C9_10  and  C10_11 
REMARK    5  A    between atoms: C10_11  and  O1_12 
REMARK    6  A    between atoms: C10_11  and  N2_14 
REMARK    7  A    between atoms: N2_14  and  C11_16 
REMARK    8  A    between atoms: C12_17  and  O2_18 
REMARK    9  A    between atoms: C13_21  and  C14_22 
REMARK   10  A    between atoms: C14_22  and  O4_23 
REMARK   11  A    between atoms: C15_25  and  O5_26 
REMARK   12  A    between atoms: C16_28  and  O6_29 
ROOT
HETATM    1  C11 UNL     1     -19.743  38.448  46.403  1.00  0.00     0.165 C 
HETATM    2  C12 UNL     1     -18.343  39.003  46.375  1.00  0.00     0.282 C 
HETATM    3  O3  UNL     1     -17.780  38.904  47.617  1.00  0.00    -0.349 OA
HETATM    4  C13 UNL     1     -18.373  39.694  48.583  1.00  0.00     0.179 C 
HETATM    5  C15 UNL     1     -19.845  39.360  48.736  1.00  0.00     0.180 C 
HETATM    6  C16 UNL     1     -20.541  39.191  47.443  1.00  0.00     0.176 C 
ENDROOT
BRANCH   1   7
HETATM    7  N2  UNL     1     -20.398  38.557  45.129  1.00  0.00    -0.386 N 
ATOM      8  H2  UNL     1     -20.900  39.405  44.862  1.00  0.00     0.156 HD
BRANCH   7   9
HETATM    9  C10 UNL     1     -20.322  37.460  44.269  1.00  0.00     0.213 C 
BRANCH   9  10
HETATM   10  C9  UNL     1     -21.019  37.498  42.955  1.00  0.00     0.053 C 
BRANCH  10  11
HETATM   11  C8  UNL     1     -20.088  37.655  41.789  1.00  0.00     0.010 C 
BRANCH  11  12
HETATM   12  C7  UNL     1     -18.664  37.382  42.114  1.00  0.00     0.057 C 
BRANCH  12  13
HETATM   13  C6  UNL     1     -17.924  36.530  41.167  1.00  0.00     0.010 A 
HETATM   14  N1  UNL     1     -17.570  35.312  41.633  1.00  0.00    -0.364 N 
HETATM   15  C1  UNL     1     -17.888  34.852  42.982  1.00  0.00     0.155 C 
HETATM   16  C2  UNL     1     -16.872  34.423  40.879  1.00  0.00     0.090 A 
HETATM   17  C3  UNL     1     -16.502  34.748  39.595  1.00  0.00     0.017 A 
HETATM   18  C4  UNL     1     -16.862  35.992  39.120  1.00  0.00     0.003 A 
HETATM   19  C5  UNL     1     -17.570  36.880  39.900  1.00  0.00     0.025 A 
ENDBRANCH  12  13
ENDBRANCH  11  12
ENDBRANCH  10  11
ENDBRANCH   9  10
BRANCH   9  20
HETATM   20  O1  UNL     1     -20.667  36.277  44.975  1.00  0.00    -0.377 OA
ATOM     21  H1  UNL     1     -20.656  35.529  44.389  1.00  0.00     0.212 HD
ENDBRANCH   9  20
ENDBRANCH   7   9
ENDBRANCH   1   7
BRANCH   2  22
HETATM   22  O2  UNL     1     -17.541  38.341  45.445  1.00  0.00    -0.369 OA
ATOM     23  H2  UNL     1     -17.814  38.520  44.553  1.00  0.00     0.212 HD
ENDBRANCH   2  22
BRANCH   6  24
HETATM   24  O6  UNL     1     -21.767  38.524  47.690  1.00  0.00    -0.391 OA
ATOM     25  H6  UNL     1     -21.957  38.518  48.621  1.00  0.00     0.210 HD
ENDBRANCH   6  24
BRANCH   5  26
HETATM   26  O5  UNL     1     -20.008  38.292  49.600  1.00  0.00    -0.390 OA
ATOM     27  H5  UNL     1     -19.720  37.487  49.187  1.00  0.00     0.210 HD
ENDBRANCH   5  26
BRANCH   4  28
HETATM   28  C14 UNL     1     -18.205  41.181  48.348  1.00  0.00     0.198 C 
BRANCH  28  29
HETATM   29  O4  UNL     1     -16.810  41.417  48.306  1.00  0.00    -0.398 OA
ATOM     30  H4  UNL     1     -16.680  42.114  47.675  1.00  0.00     0.209 HD
ENDBRANCH  28  29
ENDBRANCH   4  28
TORSDOF 12
ENDMDL
MODEL 4
REMARK VINA RESULT: -6.426526912      1.333      1.733
REMARK  12 active torsions:
REMARK  status: ('A' for Active; 'I' for Inactive)
REMARK    1  A    between atoms: C6_7  and  C7_8 
REMARK    2  A    between atoms: C7_8  and  C8_9 
REMARK    3  A    between atoms: C8_9  and  C9_10 
REMARK    4  A    between atoms: C9_10  and  C10_11 
REMARK    5  A    between atoms: C10_11  and  O1_12 
REMARK    6  A    between atoms: C10_11  and  N2_14 
REMARK    7  A    between atoms: N2_14  and  C11_16 
REMARK    8  A    between atoms: C12_17  and  O2_18 
REMARK    9  A    between atoms: C13_21  and  C14_22 
REMARK   10  A    between atoms: C14_22  and  O4_23 
REMARK   11  A    between atoms: C15_25  and  O5_26 
REMARK   12  A    between atoms: C16_28  and  O6_29 
ROOT
HETATM    1  C11 UNL     1     -17.315  37.449  42.439  1.00  0.00     0.165 C 
HETATM    2  C12 UNL     1     -16.910  36.455  43.496  1.00  0.00     0.282 C 
HETATM    3  O3  UNL     1     -16.115  35.490  42.944  1.00  0.00    -0.349 OA
HETATM    4  C13 UNL     1     -16.751  34.675  42.027  1.00  0.00     0.179 C 
HETATM    5  C15 UNL     1     -17.324  35.487  40.880  1.00  0.00     0.180 C 
HETATM    6  C16 UNL     1     -18.014  36.716  41.323  1.00  0.00     0.176 C 
ENDROOT
BRANCH   1   7
HETATM    7  N2  UNL     1     -18.183  38.472  42.957  1.00  0.00    -0.386 N 
ATOM      8  H2  UNL     1     -18.294  39.365  42.477  1.00  0.00     0.156 HD
BRANCH   7   9
HETATM    9  C10 UNL     1     -18.868  38.195  44.142  1.00  0.00     0.213 C 
BRANCH   9  10
HETATM   10  C9  UNL     1     -20.350  38.063  44.126  1.00  0.00     0.053 C 
BRANCH  10  11
HETATM   11  C8  UNL     1     -20.974  38.172  45.486  1.00  0.00     0.010 C 
BRANCH  11  12
HETATM   12  C7  UNL     1     -22.460  38.174  45.469  1.00  0.00     0.057 C 
BRANCH  12  13
HETATM   13  C6  UNL     1     -23.128  37.075  46.187  1.00  0.00     0.010 A 
HETATM   14  N1  UNL     1     -24.029  37.452  47.122  1.00  0.00    -0.364 N 
HETATM   15  C1  UNL     1     -24.334  38.849  47.415  1.00  0.00     0.155 C 
HETATM   16  C2  UNL     1     -24.711  36.550  47.874  1.00  0.00     0.090 A 
HETATM   17  C3  UNL     1     -24.498  35.203  47.699  1.00  0.00     0.017 A 
HETATM   18  C4  UNL     1     -23.577  34.819  46.747  1.00  0.00     0.003 A 
HETATM   19  C5  UNL     1     -22.894  35.748  45.994  1.00  0.00     0.025 A 
ENDBRANCH  12  13
ENDBRANCH  11  12
ENDBRANCH  10  11
ENDBRANCH   9  10
BRANCH   9  20
HETATM   20  O1  UNL     1     -18.465  39.110  45.149  1.00  0.00    -0.377 OA
ATOM     21  H1  UNL     1     -17.637  39.514  44.916  1.00  0.00     0.212 HD
ENDBRANCH   9  20
ENDBRANCH   7   9
ENDBRANCH   1   7
BRANCH   2  22
HETATM   22  O2  UNL     1     -16.235  37.068  44.553  1.00  0.00    -0.369 OA
ATOM     23  H2  UNL     1     -15.850  36.431  45.142  1.00  0.00     0.212 HD
ENDBRANCH   2  22
BRANCH   6  24
HETATM   24  O6  UNL     1     -18.165  37.564  40.198  1.00  0.00    -0.391 OA
ATOM     25  H6  UNL     1     -19.026  37.450  39.813  1.00  0.00     0.210 HD
ENDBRANCH   6  24
BRANCH   5  26
HETATM   26  O5  UNL     1     -16.355  35.708  39.917  1.00  0.00    -0.390 OA
ATOM     27  H5  UNL     1     -16.639  36.382  39.312  1.00  0.00     0.210 HD
ENDBRANCH   5  26
BRANCH   4  28
HETATM   28  C14 UNL     1     -17.830  33.800  42.627  1.00  0.00     0.198 C 
BRANCH  28  29
HETATM   29  O4  UNL     1     -17.327  32.478  42.594  1.00  0.00    -0.398 OA
ATOM     30  H4  UNL     1     -18.051  31.914  42.842  1.00  0.00     0.209 HD
ENDBRANCH  28  29
ENDBRANCH   4  28
TORSDOF 12
ENDMDL
MODEL 5
REMARK VINA RESULT: -6.306583584      2.877      6.464
REMARK  12 active torsions:
REMARK  status: ('A' for Active; 'I' for Inactive)
REMARK    1  A    between atoms: C6_7  and  C7_8 
REMARK    2  A    between atoms: C7_8  and  C8_9 
REMARK    3  A    between atoms: C8_9  and  C9_10 
REMARK    4  A    between atoms: C9_10  and  C10_11 
REMARK    5  A    between atoms: C10_11  and  O1_12 
REMARK    6  A    between atoms: C10_11  and  N2_14 
REMARK    7  A    between atoms: N2_14  and  C11_16 
REMARK    8  A    between atoms: C12_17  and  O2_18 
REMARK    9  A    between atoms: C13_21  and  C14_22 
REMARK   10  A    between atoms: C14_22  and  O4_23 
REMARK   11  A    between atoms: C15_25  and  O5_26 
REMARK   12  A    between atoms: C16_28  and  O6_29 
ROOT
HETATM    1  C11 UNL     1     -19.345  36.544  45.919  1.00  0.00     0.165 C 
HETATM    2  C12 UNL     1     -18.049  37.214  46.295  1.00  0.00     0.282 C 
HETATM    3  O3  UNL     1     -17.254  36.336  46.977  1.00  0.00    -0.349 OA
HETATM    4  C13 UNL     1     -17.740  35.961  48.214  1.00  0.00     0.179 C 
HETATM    5  C15 UNL     1     -19.108  35.316  48.092  1.00  0.00     0.180 C 
HETATM    6  C16 UNL     1     -20.012  36.038  47.172  1.00  0.00     0.176 C 
ENDROOT
BRANCH   1   7
HETATM    7  N2  UNL     1     -20.237  37.433  45.227  1.00  0.00    -0.386 N 
ATOM      8  H2  UNL     1     -20.453  38.360  45.595  1.00  0.00     0.156 HD
BRANCH   7   9
HETATM    9  C10 UNL     1     -20.797  36.980  44.031  1.00  0.00     0.213 C 
BRANCH   9  10
HETATM   10  C9  UNL     1     -20.974  37.922  42.893  1.00  0.00     0.053 C 
BRANCH  10  11
HETATM   11  C8  UNL     1     -20.114  37.596  41.708  1.00  0.00     0.010 C 
BRANCH  11  12
HETATM   12  C7  UNL     1     -18.687  37.352  42.048  1.00  0.00     0.057 C 
BRANCH  12  13
HETATM   13  C6  UNL     1     -17.928  36.496  41.120  1.00  0.00     0.010 A 
HETATM   14  N1  UNL     1     -17.544  35.298  41.615  1.00  0.00    -0.364 N 
HETATM   15  C1  UNL     1     -17.850  34.863  42.974  1.00  0.00     0.155 C 
HETATM   16  C2  UNL     1     -16.824  34.410  40.881  1.00  0.00     0.090 A 
HETATM   17  C3  UNL     1     -16.462  34.713  39.590  1.00  0.00     0.017 A 
HETATM   18  C4  UNL     1     -16.853  35.937  39.086  1.00  0.00     0.003 A 
HETATM   19  C5  UNL     1     -17.582  36.825  39.845  1.00  0.00     0.025 A 
ENDBRANCH  12  13
ENDBRANCH  11  12
ENDBRANCH  10  11
ENDBRANCH   9  10
BRANCH   9  20
HETATM   20  O1  UNL     1     -22.015  36.301  44.302  1.00  0.00    -0.377 OA
ATOM     21  H1  UNL     1     -22.662  36.509  43.639  1.00  0.00     0.212 HD
ENDBRANCH   9  20
ENDBRANCH   7   9
ENDBRANCH   1   7
BRANCH   2  22
HETATM   22  O2  UNL     1     -17.366  37.688  45.174  1.00  0.00    -0.369 OA
ATOM     23  H2  UNL     1     -17.859  37.547  44.374  1.00  0.00     0.212 HD
ENDBRANCH   2  22
BRANCH   6  24
HETATM   24  O6  UNL     1     -21.084  35.172  46.841  1.00  0.00    -0.391 OA
ATOM     25  H6  UNL     1     -20.768  34.438  46.327  1.00  0.00     0.210 HD
ENDBRANCH   6  24
BRANCH   5  26
HETATM   26  O5  UNL     1     -18.980  33.969  47.804  1.00  0.00    -0.390 OA
ATOM     27  H5  UNL     1     -19.647  33.699  47.183  1.00  0.00     0.210 HD
ENDBRANCH   5  26
BRANCH   4  28
HETATM   28  C14 UNL     1     -17.792  37.089  49.222  1.00  0.00     0.198 C 
BRANCH  28  29
HETATM   29  O4  UNL     1     -18.639  36.645  50.266  1.00  0.00    -0.398 OA
ATOM     30  H4  UNL     1     -18.515  37.255  50.984  1.00  0.00     0.209 HD
ENDBRANCH  28  29
ENDBRANCH   4  28
TORSDOF 12
ENDMDL
