MODEL 1
REMARK VINA RESULT: -6.942829568      0.000      0.000
REMARK  8 active torsions:
REMARK  status: ('A' for Active; 'I' for Inactive)
REMARK    1  A    between atoms: C1_2  and  C2_4 
REMARK    2  A    between atoms: C2_4  and  C3_5 
REMARK    3  A    between atoms: C6_8  and  C7_9 
REMARK       I    between atoms: C7_9  and  N1_11 
REMARK    4  A    between atoms: N1_11  and  C8_13 
REMARK    5  A    between atoms: C8_13  and  C9_14 
REMARK    6  A    between atoms: C8_13  and  C10_17 
REMARK    7  A    between atoms: C11_20  and  O8_21 
REMARK    8  A    between atoms: C11_20  and  C12_23 
ROOT
HETATM    1  C3  UNL     1     -21.225  37.094  45.152  1.00  0.00     0.042 C 
HETATM    2  C4  UNL     1     -21.654  38.022  44.060  1.00  0.00     0.010 C 
HETATM    3  C5  UNL     1     -20.852  37.584  42.822  1.00  0.00     0.018 C 
HETATM    4  C6  UNL     1     -19.907  36.522  43.343  1.00  0.00     0.123 C 
HETATM    5  C11 UNL     1     -19.736  36.951  44.784  1.00  0.00     0.161 C 
ENDROOT
BRANCH   4   6
HETATM    6  C7  UNL     1     -18.630  36.506  42.597  1.00  0.00     0.226 C 
HETATM    7  O3  UNL     1     -18.065  37.616  42.416  1.00  0.00    -0.273 OA
HETATM    8  N1  UNL     1     -18.015  35.350  42.086  1.00  0.00    -0.338 N 
ATOM      9  H1  UNL     1     -18.450  34.436  42.215  1.00  0.00     0.163 HD
BRANCH   8  10
HETATM   10  C8  UNL     1     -16.759  35.464  41.374  1.00  0.00     0.287 C 
BRANCH  10  11
HETATM   11  C9  UNL     1     -16.979  35.566  39.917  1.00  0.00     0.207 C 
HETATM   12  O4  UNL     1     -18.132  35.417  39.464  1.00  0.00    -0.646 OA
HETATM   13  O5  UNL     1     -15.918  35.823  39.085  1.00  0.00    -0.646 OA
ENDBRANCH  10  11
BRANCH  10  14
HETATM   14  C10 UNL     1     -15.926  34.246  41.585  1.00  0.00     0.207 C 
HETATM   15  O6  UNL     1     -14.694  34.296  41.765  1.00  0.00    -0.646 OA
HETATM   16  O7  UNL     1     -16.590  33.024  41.572  1.00  0.00    -0.646 OA
ENDBRANCH  10  14
ENDBRANCH   8  10
ENDBRANCH   4   6
BRANCH   5  17
HETATM   17  O8  UNL     1     -19.112  38.189  44.760  1.00  0.00    -0.377 OA
ATOM     18  H8  UNL     1     -18.720  38.386  45.603  1.00  0.00     0.211 HD
ENDBRANCH   5  17
BRANCH   5  19
HETATM   19  C12 UNL     1     -19.065  35.974  45.636  1.00  0.00     0.210 C 
HETATM   20  O9  UNL     1     -19.442  34.775  45.598  1.00  0.00    -0.646 OA
HETATM   21  O10 UNL     1     -18.023  36.284  46.497  1.00  0.00    -0.646 OA
ENDBRANCH   5  19
BRANCH   1  22
HETATM   22  C2  UNL     1     -21.430  37.518  46.543  1.00  0.00     0.121 C 
BRANCH  22  23
HETATM   23  C1  UNL     1     -22.265  36.701  47.405  1.00  0.00     0.173 C 
HETATM   24  O1  UNL     1     -22.885  37.144  48.400  1.00  0.00    -0.648 OA
HETATM   25  O2  UNL     1     -22.409  35.341  47.146  1.00  0.00    -0.648 OA
ENDBRANCH  22  23
ENDBRANCH   1  22
TORSDOF 8
ENDMDL
MODEL 2
REMARK VINA RESULT: -6.876107448      1.428      1.946
REMARK  8 active torsions:
REMARK  status: ('A' for Active; 'I' for Inactive)
REMARK    1  A    between atoms: C1_2  and  C2_4 
REMARK    2  A    between atoms: C2_4  and  C3_5 
REMARK    3  A    between atoms: C6_8  and  C7_9 
REMARK       I    between atoms: C7_9  and  N1_11 
REMARK    4  A    between atoms: N1_11  and  C8_13 
REMARK    5  A    between atoms: C8_13  and  C9_14 
REMARK    6  A    between atoms: C8_13  and  C10_17 
REMARK    7  A    between atoms: C11_20  and  O8_21 
REMARK    8  A    between atoms: C11_20  and  C12_23 
ROOT
HETATM    1  C3  UNL     1     -20.387  37.968  45.346  1.00  0.00     0.042 C 
HETATM    2  C4  UNL     1     -21.069  37.993  44.014  1.00  0.00     0.010 C 
HETATM    3  C5  UNL     1     -20.295  36.986  43.147  1.00  0.00     0.018 C 
HETATM    4  C6  UNL     1     -19.127  36.564  44.011  1.00  0.00     0.123 C 
HETATM    5  C11 UNL     1     -18.931  37.793  44.873  1.00  0.00     0.161 C 
ENDROOT
BRANCH   4   6
HETATM    6  C7  UNL     1     -17.931  36.239  43.203  1.00  0.00     0.226 C 
HETATM    7  O3  UNL     1     -16.816  36.579  43.678  1.00  0.00    -0.273 OA
HETATM    8  N1  UNL     1     -17.958  35.584  41.960  1.00  0.00    -0.338 N 
ATOM      9  H1  UNL     1     -18.848  35.298  41.550  1.00  0.00     0.163 HD
BRANCH   8  10
HETATM   10  C8  UNL     1     -16.717  35.317  41.266  1.00  0.00     0.287 C 
BRANCH  10  11
HETATM   11  C9  UNL     1     -16.879  35.467  39.806  1.00  0.00     0.207 C 
HETATM   12  O4  UNL     1     -15.913  35.865  39.124  1.00  0.00    -0.646 OA
HETATM   13  O5  UNL     1     -18.084  35.168  39.219  1.00  0.00    -0.646 OA
ENDBRANCH  10  11
BRANCH  10  14
HETATM   14  C10 UNL     1     -16.282  33.909  41.494  1.00  0.00     0.207 C 
HETATM   15  O6  UNL     1     -17.000  33.068  42.067  1.00  0.00    -0.646 OA
HETATM   16  O7  UNL     1     -15.015  33.564  41.035  1.00  0.00    -0.646 OA
ENDBRANCH  10  14
ENDBRANCH   8  10
ENDBRANCH   4   6
BRANCH   5  17
HETATM   17  O8  UNL     1     -18.561  38.823  44.022  1.00  0.00    -0.377 OA
ATOM     18  H8  UNL     1     -18.569  38.533  43.117  1.00  0.00     0.211 HD
ENDBRANCH   5  17
BRANCH   5  19
HETATM   19  C12 UNL     1     -18.022  37.610  46.000  1.00  0.00     0.210 C 
HETATM   20  O9  UNL     1     -17.251  38.551  46.317  1.00  0.00    -0.646 OA
HETATM   21  O10 UNL     1     -17.951  36.449  46.756  1.00  0.00    -0.646 OA
ENDBRANCH   5  19
BRANCH   1  22
HETATM   22  C2  UNL     1     -20.563  39.121  46.237  1.00  0.00     0.121 C 
BRANCH  22  23
HETATM   23  C1  UNL     1     -21.062  38.894  47.581  1.00  0.00     0.173 C 
HETATM   24  O1  UNL     1     -20.325  38.764  48.587  1.00  0.00    -0.648 OA
HETATM   25  O2  UNL     1     -22.433  38.806  47.807  1.00  0.00    -0.648 OA
ENDBRANCH  22  23
ENDBRANCH   1  22
TORSDOF 8
ENDMDL
MODEL 3
REMARK VINA RESULT: -6.791699321      1.724      2.217
REMARK  8 active torsions:
REMARK  status: ('A' for Active; 'I' for Inactive)
REMARK    1  A    between atoms: C1_2  and  C2_4 
REMARK    2  A    between atoms: C2_4  and  C3_5 
REMARK    3  A    between atoms: C6_8  and  C7_9 
REMARK       I    between atoms: C7_9  and  N1_11 
REMARK    4  A    between atoms: N1_11  and  C8_13 
REMARK    5  A    between atoms: C8_13  and  C9_14 
REMARK    6  A    between atoms: C8_13  and  C10_17 
REMARK    7  A    between atoms: C11_20  and  O8_21 
REMARK    8  A    between atoms: C11_20  and  C12_23 
ROOT
HETATM    1  C3  UNL     1     -20.235  36.898  46.350  1.00  0.00     0.042 C 
HETATM    2  C4  UNL     1     -20.693  35.566  45.845  1.00  0.00     0.010 C 
HETATM    3  C5  UNL     1     -19.463  34.953  45.156  1.00  0.00     0.018 C 
HETATM    4  C6  UNL     1     -18.424  36.053  45.192  1.00  0.00     0.123 C 
HETATM    5  C11 UNL     1     -19.295  37.290  45.194  1.00  0.00     0.161 C 
ENDROOT
BRANCH   4   6
HETATM    6  C7  UNL     1     -17.519  35.995  44.023  1.00  0.00     0.226 C 
HETATM    7  O3  UNL     1     -16.364  36.473  44.176  1.00  0.00    -0.273 OA
HETATM    8  N1  UNL     1     -17.858  35.450  42.773  1.00  0.00    -0.338 N 
ATOM      9  H1  UNL     1     -18.787  35.057  42.619  1.00  0.00     0.163 HD
BRANCH   8  10
HETATM   10  C8  UNL     1     -16.881  35.449  41.705  1.00  0.00     0.287 C 
BRANCH  10  11
HETATM   11  C9  UNL     1     -17.515  35.730  40.401  1.00  0.00     0.207 C 
HETATM   12  O4  UNL     1     -17.796  36.909  40.103  1.00  0.00    -0.646 OA
HETATM   13  O5  UNL     1     -17.785  34.698  39.538  1.00  0.00    -0.646 OA
ENDBRANCH  10  11
BRANCH  10  14
HETATM   14  C10 UNL     1     -16.246  34.105  41.578  1.00  0.00     0.207 C 
HETATM   15  O6  UNL     1     -15.124  33.938  41.064  1.00  0.00    -0.646 OA
HETATM   16  O7  UNL     1     -16.971  33.023  42.065  1.00  0.00    -0.646 OA
ENDBRANCH  10  14
ENDBRANCH   8  10
ENDBRANCH   4   6
BRANCH   5  17
HETATM   17  O8  UNL     1     -19.975  37.301  43.986  1.00  0.00    -0.377 OA
ATOM     18  H8  UNL     1     -20.272  38.178  43.774  1.00  0.00     0.211 HD
ENDBRANCH   5  17
BRANCH   5  19
HETATM   19  C12 UNL     1     -18.587  38.534  45.478  1.00  0.00     0.210 C 
HETATM   20  O9  UNL     1     -18.738  39.510  44.700  1.00  0.00    -0.646 OA
HETATM   21  O10 UNL     1     -17.747  38.716  46.567  1.00  0.00    -0.646 OA
ENDBRANCH   5  19
BRANCH   1  22
HETATM   22  C2  UNL     1     -21.251  37.921  46.631  1.00  0.00     0.121 C 
BRANCH  22  23
HETATM   23  C1  UNL     1     -22.569  37.774  46.041  1.00  0.00     0.173 C 
HETATM   24  O1  UNL     1     -23.589  37.432  46.685  1.00  0.00    -0.648 OA
HETATM   25  O2  UNL     1     -22.753  38.014  44.682  1.00  0.00    -0.648 OA
ENDBRANCH  22  23
ENDBRANCH   1  22
TORSDOF 8
ENDMDL
MODEL 4
REMARK VINA RESULT: -6.675246305      1.947      2.993
REMARK  8 active torsions:
REMARK  status: ('A' for Active; 'I' for Inactive)
REMARK    1  A    between atoms: C1_2  and  C2_4 
REMARK    2  A    between atoms: C2_4  and  C3_5 
REMARK    3  A    between atoms: C6_8  and  C7_9 
REMARK       I    between atoms: C7_9  and  N1_11 
REMARK    4  A    between atoms: N1_11  and  C8_13 
REMARK    5  A    between atoms: C8_13  and  C9_14 
REMARK    6  A    between atoms: C8_13  and  C10_17 
REMARK    7  A    between atoms: C11_20  and  O8_21 
REMARK    8  A    between atoms: C11_20  and  C12_23 
ROOT
HETATM    1  C3  UNL     1     -19.221  37.930  45.398  1.00  0.00     0.042 C 
HETATM    2  C4  UNL     1     -20.205  38.129  44.288  1.00  0.00     0.010 C 
HETATM    3  C5  UNL     1     -20.164  36.823  43.476  1.00  0.00     0.018 C 
HETATM    4  C6  UNL     1     -19.041  36.025  44.104  1.00  0.00     0.123 C 
HETATM    5  C11 UNL     1     -18.150  37.126  44.638  1.00  0.00     0.161 C 
ENDROOT
BRANCH   4   6
HETATM    6  C7  UNL     1     -18.355  35.165  43.115  1.00  0.00     0.226 C 
HETATM    7  O3  UNL     1     -18.269  33.940  43.392  1.00  0.00    -0.273 OA
HETATM    8  N1  UNL     1     -17.803  35.619  41.905  1.00  0.00    -0.338 N 
ATOM      9  H1  UNL     1     -17.856  36.607  41.655  1.00  0.00     0.163 HD
BRANCH   8  10
HETATM   10  C8  UNL     1     -17.158  34.676  41.016  1.00  0.00     0.287 C 
BRANCH  10  11
HETATM   11  C9  UNL     1     -15.778  34.387  41.455  1.00  0.00     0.207 C 
HETATM   12  O4  UNL     1     -15.250  35.114  42.321  1.00  0.00    -0.646 OA
HETATM   13  O5  UNL     1     -15.096  33.329  40.907  1.00  0.00    -0.646 OA
ENDBRANCH  10  11
BRANCH  10  14
HETATM   14  C10 UNL     1     -17.048  35.244  39.642  1.00  0.00     0.207 C 
HETATM   15  O6  UNL     1     -16.002  35.767  39.212  1.00  0.00    -0.646 OA
HETATM   16  O7  UNL     1     -18.183  35.168  38.842  1.00  0.00    -0.646 OA
ENDBRANCH  10  14
ENDBRANCH   8  10
ENDBRANCH   4   6
BRANCH   5  17
HETATM   17  O8  UNL     1     -17.689  37.833  43.538  1.00  0.00    -0.377 OA
ATOM     18  H8  UNL     1     -16.866  38.265  43.735  1.00  0.00     0.211 HD
ENDBRANCH   5  17
BRANCH   5  19
HETATM   19  C12 UNL     1     -17.088  36.673  45.529  1.00  0.00     0.210 C 
HETATM   20  O9  UNL     1     -15.908  36.632  45.096  1.00  0.00    -0.646 OA
HETATM   21  O10 UNL     1     -17.295  36.279  46.843  1.00  0.00    -0.646 OA
ENDBRANCH   5  19
BRANCH   1  22
HETATM   22  C2  UNL     1     -18.676  39.121  46.062  1.00  0.00     0.121 C 
BRANCH  22  23
HETATM   23  C1  UNL     1     -19.592  40.032  46.724  1.00  0.00     0.173 C 
HETATM   24  O1  UNL     1     -20.574  39.660  47.409  1.00  0.00    -0.648 OA
HETATM   25  O2  UNL     1     -19.406  41.407  46.613  1.00  0.00    -0.648 OA
ENDBRANCH  22  23
ENDBRANCH   1  22
TORSDOF 8
ENDMDL
MODEL 5
REMARK VINA RESULT: -6.484734565      1.575      2.880
REMARK  8 active torsions:
REMARK  status: ('A' for Active; 'I' for Inactive)
REMARK    1  A    between atoms: C1_2  and  C2_4 
REMARK    2  A    between atoms: C2_4  and  C3_5 
REMARK    3  A    between atoms: C6_8  and  C7_9 
REMARK       I    between atoms: C7_9  and  N1_11 
REMARK    4  A    between atoms: N1_11  and  C8_13 
REMARK    5  A    between atoms: C8_13  and  C9_14 
REMARK    6  A    between atoms: C8_13  and  C10_17 
REMARK    7  A    between atoms: C11_20  and  O8_21 
REMARK    8  A    between atoms: C11_20  and  C12_23 
ROOT
HETATM    1  C3  UNL     1     -20.092  37.084  45.935  1.00  0.00     0.042 C 
HETATM    2  C4  UNL     1     -20.652  35.729  46.232  1.00  0.00     0.010 C 
HETATM    3  C5  UNL     1     -19.694  34.739  45.547  1.00  0.00     0.018 C 
HETATM    4  C6  UNL     1     -18.731  35.618  44.778  1.00  0.00     0.123 C 
HETATM    5  C11 UNL     1     -19.589  36.834  44.500  1.00  0.00     0.161 C 
ENDROOT
BRANCH   4   6
HETATM    6  C7  UNL     1     -18.252  34.963  43.541  1.00  0.00     0.226 C 
HETATM    7  O3  UNL     1     -18.289  33.705  43.515  1.00  0.00    -0.273 OA
HETATM    8  N1  UNL     1     -17.768  35.643  42.411  1.00  0.00    -0.338 N 
ATOM      9  H1  UNL     1     -17.724  36.663  42.404  1.00  0.00     0.163 HD
BRANCH   8  10
HETATM   10  C8  UNL     1     -17.330  34.888  41.256  1.00  0.00     0.287 C 
BRANCH  10  11
HETATM   11  C9  UNL     1     -16.088  34.143  41.545  1.00  0.00     0.207 C 
HETATM   12  O4  UNL     1     -16.053  32.914  41.332  1.00  0.00    -0.646 OA
HETATM   13  O5  UNL     1     -14.994  34.807  42.040  1.00  0.00    -0.646 OA
ENDBRANCH  10  11
BRANCH  10  14
HETATM   14  C10 UNL     1     -17.013  35.803  40.122  1.00  0.00     0.207 C 
HETATM   15  O6  UNL     1     -17.537  36.926  39.998  1.00  0.00    -0.646 OA
HETATM   16  O7  UNL     1     -16.091  35.344  39.188  1.00  0.00    -0.646 OA
ENDBRANCH  10  14
ENDBRANCH   8  10
ENDBRANCH   4   6
BRANCH   5  17
HETATM   17  O8  UNL     1     -20.624  36.412  43.680  1.00  0.00    -0.377 OA
ATOM     18  H8  UNL     1     -20.762  37.024  42.967  1.00  0.00     0.211 HD
ENDBRANCH   5  17
BRANCH   5  19
HETATM   19  C12 UNL     1     -18.863  37.987  43.979  1.00  0.00     0.210 C 
HETATM   20  O9  UNL     1     -18.898  38.220  42.744  1.00  0.00    -0.646 OA
HETATM   21  O10 UNL     1     -18.125  38.859  44.767  1.00  0.00    -0.646 OA
ENDBRANCH   5  19
BRANCH   1  22
HETATM   22  C2  UNL     1     -20.990  38.242  46.030  1.00  0.00     0.121 C 
BRANCH  22  23
HETATM   23  C1  UNL     1     -22.417  38.032  45.865  1.00  0.00     0.173 C 
HETATM   24  O1  UNL     1     -22.971  37.832  44.758  1.00  0.00    -0.648 OA
HETATM   25  O2  UNL     1     -23.255  38.050  46.977  1.00  0.00    -0.648 OA
ENDBRANCH  22  23
ENDBRANCH   1  22
TORSDOF 8
ENDMDL
