MODEL 1
REMARK VINA RESULT: -5.689883911      0.000      0.000
REMARK  12 active torsions:
REMARK  status: ('A' for Active; 'I' for Inactive)
REMARK    1  A    between atoms: C2_2  and  O1_3 
REMARK    2  A    between atoms: C3_5  and  C4_6 
REMARK       I    between atoms: C4_6  and  N1_8 
REMARK    3  A    between atoms: N1_8  and  C5_10 
REMARK    4  A    between atoms: C5_10  and  C6_11 
REMARK    5  A    between atoms: C6_11  and  C7_12 
REMARK    6  A    between atoms: C7_12  and  C8_13 
REMARK    7  A    between atoms: C8_13  and  N2_14 
REMARK    8  A    between atoms: C12_18  and  O3_19 
REMARK    9  A    between atoms: C13_21  and  O4_22 
REMARK   10  A    between atoms: C14_24  and  C15_25 
REMARK   11  A    between atoms: C15_25  and  O5_26 
REMARK   12  A    between atoms: C15_25  and  O6_28 
ROOT
HETATM    1  C1  UNL     1     -18.239  34.643  42.862  1.00  0.00     0.047 C 
HETATM    2  C2  UNL     1     -17.203  35.678  42.549  1.00  0.00     0.079 C 
HETATM    3  C3  UNL     1     -17.927  36.969  42.226  1.00  0.00     0.143 C 
HETATM    4  C12 UNL     1     -18.579  36.586  40.908  1.00  0.00     0.163 C 
HETATM    5  C13 UNL     1     -17.564  35.679  40.218  1.00  0.00     0.159 C 
HETATM    6  C14 UNL     1     -16.510  35.461  41.232  1.00  0.00     0.106 C 
ENDROOT
BRANCH   3   7
HETATM    7  C4  UNL     1     -18.865  37.427  43.239  1.00  0.00     0.227 C 
HETATM    8  O2  UNL     1     -18.439  37.761  44.366  1.00  0.00    -0.273 OA
HETATM    9  N1  UNL     1     -20.243  37.497  42.969  1.00  0.00    -0.361 N 
ATOM     10  H1  UNL     1     -20.550  37.217  42.037  1.00  0.00     0.162 HD
BRANCH   9  11
HETATM   11  C5  UNL     1     -21.261  37.932  43.898  1.00  0.00     0.122 C 
BRANCH  11  12
HETATM   12  C6  UNL     1     -22.316  36.895  44.105  1.00  0.00     0.021 C 
BRANCH  12  13
HETATM   13  C7  UNL     1     -22.075  36.052  45.341  1.00  0.00     0.029 C 
BRANCH  13  14
HETATM   14  C8  UNL     1     -21.360  36.846  46.418  1.00  0.00     0.236 C 
BRANCH  14  15
HETATM   15  N2  UNL     1     -20.421  35.982  47.102  1.00  0.00    -0.079 N 
HETATM   16  C9  UNL     1     -19.768  35.051  46.204  1.00  0.00     0.271 C 
HETATM   17  C10 UNL     1     -19.376  36.792  47.715  1.00  0.00     0.271 C 
HETATM   18  C11 UNL     1     -21.108  35.285  48.155  1.00  0.00     0.271 C 
ENDBRANCH  14  15
ENDBRANCH  13  14
ENDBRANCH  12  13
ENDBRANCH  11  12
ENDBRANCH   9  11
ENDBRANCH   3   7
BRANCH   2  19
HETATM   19  O1  UNL     1     -16.275  35.817  43.552  1.00  0.00    -0.389 OA
ATOM     20  H1  UNL     1     -15.422  35.478  43.309  1.00  0.00     0.210 HD
ENDBRANCH   2  19
BRANCH   4  21
HETATM   21  O3  UNL     1     -18.798  37.766  40.199  1.00  0.00    -0.392 OA
ATOM     22  H3  UNL     1     -19.542  38.200  40.600  1.00  0.00     0.210 HD
ENDBRANCH   4  21
BRANCH   6  23
HETATM   23  C15 UNL     1     -15.770  34.173  41.130  1.00  0.00     0.263 C 
BRANCH  23  24
HETATM   24  O5  UNL     1     -15.410  33.800  39.866  1.00  0.00    -0.371 OA
ATOM     25  H5  UNL     1     -16.125  33.529  39.300  1.00  0.00     0.212 HD
ENDBRANCH  23  24
BRANCH  23  26
HETATM   26  O6  UNL     1     -14.597  34.302  41.887  1.00  0.00    -0.371 OA
ATOM     27  H6  UNL     1     -14.836  34.212  42.802  1.00  0.00     0.212 HD
ENDBRANCH  23  26
ENDBRANCH   6  23
BRANCH   5  28
HETATM   28  O4  UNL     1     -18.129  34.548  39.677  1.00  0.00    -0.392 OA
ATOM     29  H4  UNL     1     -17.861  34.388  38.780  1.00  0.00     0.210 HD
ENDBRANCH   5  28
TORSDOF 12
ENDMDL
MODEL 2
REMARK VINA RESULT: -5.689794780      1.580      2.612
REMARK  12 active torsions:
REMARK  status: ('A' for Active; 'I' for Inactive)
REMARK    1  A    between atoms: C2_2  and  O1_3 
REMARK    2  A    between atoms: C3_5  and  C4_6 
REMARK       I    between atoms: C4_6  and  N1_8 
REMARK    3  A    between atoms: N1_8  and  C5_10 
REMARK    4  A    between atoms: C5_10  and  C6_11 
REMARK    5  A    between atoms: C6_11  and  C7_12 
REMARK    6  A    between atoms: C7_12  and  C8_13 
REMARK    7  A    between atoms: C8_13  and  N2_14 
REMARK    8  A    between atoms: C12_18  and  O3_19 
REMARK    9  A    between atoms: C13_21  and  O4_22 
REMARK   10  A    between atoms: C14_24  and  C15_25 
REMARK   11  A    between atoms: C15_25  and  O5_26 
REMARK   12  A    between atoms: C15_25  and  O6_28 
ROOT
HETATM    1  C1  UNL     1     -18.493  35.126  42.839  1.00  0.00     0.047 C 
HETATM    2  C2  UNL     1     -17.182  35.582  42.278  1.00  0.00     0.079 C 
HETATM    3  C3  UNL     1     -16.919  36.979  42.801  1.00  0.00     0.143 C 
HETATM    4  C12 UNL     1     -18.005  37.747  42.064  1.00  0.00     0.163 C 
HETATM    5  C13 UNL     1     -18.104  37.072  40.699  1.00  0.00     0.159 C 
HETATM    6  C14 UNL     1     -17.227  35.886  40.805  1.00  0.00     0.106 C 
ENDROOT
BRANCH   3   7
HETATM    7  C4  UNL     1     -16.971  37.122  44.247  1.00  0.00     0.227 C 
HETATM    8  O2  UNL     1     -16.175  36.473  44.959  1.00  0.00    -0.273 OA
HETATM    9  N1  UNL     1     -17.905  37.980  44.855  1.00  0.00    -0.361 N 
ATOM     10  H1  UNL     1     -18.536  38.494  44.240  1.00  0.00     0.162 HD
BRANCH   9  11
HETATM   11  C5  UNL     1     -18.047  38.196  46.277  1.00  0.00     0.122 C 
BRANCH  11  12
HETATM   12  C6  UNL     1     -19.237  39.038  46.603  1.00  0.00     0.021 C 
BRANCH  12  13
HETATM   13  C7  UNL     1     -20.420  38.757  45.700  1.00  0.00     0.029 C 
BRANCH  13  14
HETATM   14  C8  UNL     1     -21.399  37.801  46.355  1.00  0.00     0.236 C 
BRANCH  14  15
HETATM   15  N2  UNL     1     -21.544  36.624  45.525  1.00  0.00    -0.079 N 
HETATM   16  C9  UNL     1     -20.612  35.573  45.886  1.00  0.00     0.271 C 
HETATM   17  C10 UNL     1     -22.886  36.081  45.685  1.00  0.00     0.271 C 
HETATM   18  C11 UNL     1     -21.385  37.001  44.147  1.00  0.00     0.271 C 
ENDBRANCH  14  15
ENDBRANCH  13  14
ENDBRANCH  12  13
ENDBRANCH  11  12
ENDBRANCH   9  11
ENDBRANCH   3   7
BRANCH   2  19
HETATM   19  O1  UNL     1     -16.159  34.706  42.546  1.00  0.00    -0.389 OA
ATOM     20  H1  UNL     1     -15.494  34.702  41.868  1.00  0.00     0.210 HD
ENDBRANCH   2  19
BRANCH   4  21
HETATM   21  O3  UNL     1     -17.579  39.071  41.967  1.00  0.00    -0.392 OA
ATOM     22  H3  UNL     1     -18.180  39.516  41.381  1.00  0.00     0.210 HD
ENDBRANCH   4  21
BRANCH   6  23
HETATM   23  C15 UNL     1     -17.599  34.727  39.949  1.00  0.00     0.263 C 
BRANCH  23  24
HETATM   24  O5  UNL     1     -18.088  35.043  38.712  1.00  0.00    -0.371 OA
ATOM     25  H5  UNL     1     -18.747  35.727  38.695  1.00  0.00     0.212 HD
ENDBRANCH  23  24
BRANCH  23  26
HETATM   26  O6  UNL     1     -16.446  33.952  39.765  1.00  0.00    -0.371 OA
ATOM     27  H6  UNL     1     -16.725  33.057  39.609  1.00  0.00     0.212 HD
ENDBRANCH  23  26
ENDBRANCH   6  23
BRANCH   5  28
HETATM   28  O4  UNL     1     -19.400  36.835  40.305  1.00  0.00    -0.392 OA
ATOM     29  H4  UNL     1     -19.483  36.091  39.721  1.00  0.00     0.210 HD
ENDBRANCH   5  28
TORSDOF 12
ENDMDL
MODEL 3
REMARK VINA RESULT: -5.565753958      0.975      1.287
REMARK  12 active torsions:
REMARK  status: ('A' for Active; 'I' for Inactive)
REMARK    1  A    between atoms: C2_2  and  O1_3 
REMARK    2  A    between atoms: C3_5  and  C4_6 
REMARK       I    between atoms: C4_6  and  N1_8 
REMARK    3  A    between atoms: N1_8  and  C5_10 
REMARK    4  A    between atoms: C5_10  and  C6_11 
REMARK    5  A    between atoms: C6_11  and  C7_12 
REMARK    6  A    between atoms: C7_12  and  C8_13 
REMARK    7  A    between atoms: C8_13  and  N2_14 
REMARK    8  A    between atoms: C12_18  and  O3_19 
REMARK    9  A    between atoms: C13_21  and  O4_22 
REMARK   10  A    between atoms: C14_24  and  C15_25 
REMARK   11  A    between atoms: C15_25  and  O5_26 
REMARK   12  A    between atoms: C15_25  and  O6_28 
ROOT
HETATM    1  C1  UNL     1     -18.177  34.703  42.904  1.00  0.00     0.047 C 
HETATM    2  C2  UNL     1     -17.138  35.716  42.535  1.00  0.00     0.079 C 
HETATM    3  C3  UNL     1     -17.845  37.033  42.295  1.00  0.00     0.143 C 
HETATM    4  C12 UNL     1     -18.606  36.699  41.023  1.00  0.00     0.163 C 
HETATM    5  C13 UNL     1     -17.673  35.780  40.238  1.00  0.00     0.159 C 
HETATM    6  C14 UNL     1     -16.553  35.509  41.165  1.00  0.00     0.106 C 
ENDROOT
BRANCH   3   7
HETATM    7  C4  UNL     1     -18.690  37.493  43.385  1.00  0.00     0.227 C 
HETATM    8  O2  UNL     1     -18.179  37.738  44.500  1.00  0.00    -0.273 OA
HETATM    9  N1  UNL     1     -20.074  37.666  43.204  1.00  0.00    -0.361 N 
ATOM     10  H1  UNL     1     -20.453  37.457  42.280  1.00  0.00     0.162 HD
BRANCH   9  11
HETATM   11  C5  UNL     1     -21.005  38.113  44.214  1.00  0.00     0.122 C 
BRANCH  11  12
HETATM   12  C6  UNL     1     -22.379  37.570  43.995  1.00  0.00     0.021 C 
BRANCH  12  13
HETATM   13  C7  UNL     1     -22.613  36.259  44.718  1.00  0.00     0.029 C 
BRANCH  13  14
HETATM   14  C8  UNL     1     -21.736  36.144  45.949  1.00  0.00     0.236 C 
BRANCH  14  15
HETATM   15  N2  UNL     1     -22.569  35.900  47.108  1.00  0.00    -0.079 N 
HETATM   16  C9  UNL     1     -21.864  35.194  48.159  1.00  0.00     0.271 C 
HETATM   17  C10 UNL     1     -23.008  37.173  47.665  1.00  0.00     0.271 C 
HETATM   18  C11 UNL     1     -23.740  35.176  46.697  1.00  0.00     0.271 C 
ENDBRANCH  14  15
ENDBRANCH  13  14
ENDBRANCH  12  13
ENDBRANCH  11  12
ENDBRANCH   9  11
ENDBRANCH   3   7
BRANCH   2  19
HETATM   19  O1  UNL     1     -16.134  35.805  43.467  1.00  0.00    -0.389 OA
ATOM     20  H1  UNL     1     -15.654  36.623  43.411  1.00  0.00     0.210 HD
ENDBRANCH   2  19
BRANCH   4  21
HETATM   21  O3  UNL     1     -18.842  37.900  40.357  1.00  0.00    -0.392 OA
ATOM     22  H3  UNL     1     -18.316  38.566  40.784  1.00  0.00     0.210 HD
ENDBRANCH   4  21
BRANCH   6  23
HETATM   23  C15 UNL     1     -15.861  34.204  40.981  1.00  0.00     0.263 C 
BRANCH  23  24
HETATM   24  O5  UNL     1     -15.478  33.917  39.701  1.00  0.00    -0.371 OA
ATOM     25  H5  UNL     1     -15.347  32.995  39.510  1.00  0.00     0.212 HD
ENDBRANCH  23  24
BRANCH  23  26
HETATM   26  O6  UNL     1     -14.707  34.224  41.776  1.00  0.00    -0.371 OA
ATOM     27  H6  UNL     1     -14.376  33.334  41.821  1.00  0.00     0.212 HD
ENDBRANCH  23  26
ENDBRANCH   6  23
BRANCH   5  28
HETATM   28  O4  UNL     1     -18.310  34.678  39.719  1.00  0.00    -0.392 OA
ATOM     29  H4  UNL     1     -18.392  34.705  38.773  1.00  0.00     0.210 HD
ENDBRANCH   5  28
TORSDOF 12
ENDMDL
MODEL 4
REMARK VINA RESULT: -5.498701886      1.265      2.081
REMARK  12 active torsions:
REMARK  status: ('A' for Active; 'I' for Inactive)
REMARK    1  A    between atoms: C2_2  and  O1_3 
REMARK    2  A    between atoms: C3_5  and  C4_6 
REMARK       I    between atoms: C4_6  and  N1_8 
REMARK    3  A    between atoms: N1_8  and  C5_10 
REMARK    4  A    between atoms: C5_10  and  C6_11 
REMARK    5  A    between atoms: C6_11  and  C7_12 
REMARK    6  A    between atoms: C7_12  and  C8_13 
REMARK    7  A    between atoms: C8_13  and  N2_14 
REMARK    8  A    between atoms: C12_18  and  O3_19 
REMARK    9  A    between atoms: C13_21  and  O4_22 
REMARK   10  A    between atoms: C14_24  and  C15_25 
REMARK   11  A    between atoms: C15_25  and  O5_26 
REMARK   12  A    between atoms: C15_25  and  O6_28 
ROOT
HETATM    1  C1  UNL     1     -18.287  34.919  42.946  1.00  0.00     0.047 C 
HETATM    2  C2  UNL     1     -17.165  35.844  42.590  1.00  0.00     0.079 C 
HETATM    3  C3  UNL     1     -17.772  37.180  42.215  1.00  0.00     0.143 C 
HETATM    4  C12 UNL     1     -18.462  36.802  40.914  1.00  0.00     0.163 C 
HETATM    5  C13 UNL     1     -17.536  35.780  40.261  1.00  0.00     0.159 C 
HETATM    6  C14 UNL     1     -16.500  35.511  41.282  1.00  0.00     0.106 C 
ENDROOT
BRANCH   3   7
HETATM    7  C4  UNL     1     -18.660  37.761  43.208  1.00  0.00     0.227 C 
HETATM    8  O2  UNL     1     -19.875  37.893  42.946  1.00  0.00    -0.273 OA
HETATM    9  N1  UNL     1     -18.171  38.177  44.459  1.00  0.00    -0.361 N 
ATOM     10  H1  UNL     1     -17.174  38.051  44.636  1.00  0.00     0.162 HD
BRANCH   9  11
HETATM   11  C5  UNL     1     -18.960  38.767  45.516  1.00  0.00     0.122 C 
BRANCH  11  12
HETATM   12  C6  UNL     1     -19.199  37.815  46.642  1.00  0.00     0.021 C 
BRANCH  12  13
HETATM   13  C7  UNL     1     -20.661  37.454  46.804  1.00  0.00     0.029 C 
BRANCH  13  14
HETATM   14  C8  UNL     1     -21.062  36.336  45.861  1.00  0.00     0.236 C 
BRANCH  14  15
HETATM   15  N2  UNL     1     -22.473  36.448  45.560  1.00  0.00    -0.079 N 
HETATM   16  C9  UNL     1     -23.246  35.352  46.109  1.00  0.00     0.271 C 
HETATM   17  C10 UNL     1     -22.997  37.676  46.142  1.00  0.00     0.271 C 
HETATM   18  C11 UNL     1     -22.641  36.533  44.135  1.00  0.00     0.271 C 
ENDBRANCH  14  15
ENDBRANCH  13  14
ENDBRANCH  12  13
ENDBRANCH  11  12
ENDBRANCH   9  11
ENDBRANCH   3   7
BRANCH   2  19
HETATM   19  O1  UNL     1     -16.223  35.941  43.585  1.00  0.00    -0.389 OA
ATOM     20  H1  UNL     1     -15.522  36.543  43.367  1.00  0.00     0.210 HD
ENDBRANCH   2  19
BRANCH   4  21
HETATM   21  O3  UNL     1     -18.578  37.966  40.157  1.00  0.00    -0.392 OA
ATOM     22  H3  UNL     1     -17.976  38.602  40.525  1.00  0.00     0.210 HD
ENDBRANCH   4  21
BRANCH   6  23
HETATM   23  C15 UNL     1     -15.878  34.159  41.233  1.00  0.00     0.263 C 
BRANCH  23  24
HETATM   24  O5  UNL     1     -15.681  33.648  39.981  1.00  0.00    -0.371 OA
ATOM     25  H5  UNL     1     -16.233  34.012  39.299  1.00  0.00     0.212 HD
ENDBRANCH  23  24
BRANCH  23  26
HETATM   26  O6  UNL     1     -14.627  34.249  41.859  1.00  0.00    -0.371 OA
ATOM     27  H6  UNL     1     -14.598  33.582  42.535  1.00  0.00     0.212 HD
ENDBRANCH  23  26
ENDBRANCH   6  23
BRANCH   5  28
HETATM   28  O4  UNL     1     -18.201  34.683  39.768  1.00  0.00    -0.392 OA
ATOM     29  H4  UNL     1     -19.127  34.681  39.981  1.00  0.00     0.210 HD
ENDBRANCH   5  28
TORSDOF 12
ENDMDL
MODEL 5
REMARK VINA RESULT: -5.463278196      1.093      1.804
REMARK  12 active torsions:
REMARK  status: ('A' for Active; 'I' for Inactive)
REMARK    1  A    between atoms: C2_2  and  O1_3 
REMARK    2  A    between atoms: C3_5  and  C4_6 
REMARK       I    between atoms: C4_6  and  N1_8 
REMARK    3  A    between atoms: N1_8  and  C5_10 
REMARK    4  A    between atoms: C5_10  and  C6_11 
REMARK    5  A    between atoms: C6_11  and  C7_12 
REMARK    6  A    between atoms: C7_12  and  C8_13 
REMARK    7  A    between atoms: C8_13  and  N2_14 
REMARK    8  A    between atoms: C12_18  and  O3_19 
REMARK    9  A    between atoms: C13_21  and  O4_22 
REMARK   10  A    between atoms: C14_24  and  C15_25 
REMARK   11  A    between atoms: C15_25  and  O5_26 
REMARK   12  A    between atoms: C15_25  and  O6_28 
ROOT
HETATM    1  C1  UNL     1     -18.292  34.870  42.993  1.00  0.00     0.047 C 
HETATM    2  C2  UNL     1     -17.188  35.815  42.634  1.00  0.00     0.079 C 
HETATM    3  C3  UNL     1     -17.820  37.143  42.270  1.00  0.00     0.143 C 
HETATM    4  C12 UNL     1     -18.512  36.760  40.972  1.00  0.00     0.163 C 
HETATM    5  C13 UNL     1     -17.573  35.757  40.307  1.00  0.00     0.159 C 
HETATM    6  C14 UNL     1     -16.526  35.501  41.320  1.00  0.00     0.106 C 
ENDROOT
BRANCH   3   7
HETATM    7  C4  UNL     1     -18.711  37.704  43.272  1.00  0.00     0.227 C 
HETATM    8  O2  UNL     1     -19.945  37.693  43.073  1.00  0.00    -0.273 OA
HETATM    9  N1  UNL     1     -18.205  38.258  44.461  1.00  0.00    -0.361 N 
ATOM     10  H1  UNL     1     -17.192  38.246  44.587  1.00  0.00     0.162 HD
BRANCH   9  11
HETATM   11  C5  UNL     1     -18.995  38.843  45.520  1.00  0.00     0.122 C 
BRANCH  11  12
HETATM   12  C6  UNL     1     -18.620  38.311  46.864  1.00  0.00     0.021 C 
BRANCH  12  13
HETATM   13  C7  UNL     1     -19.571  37.241  47.357  1.00  0.00     0.029 C 
BRANCH  13  14
HETATM   14  C8  UNL     1     -20.970  37.450  46.809  1.00  0.00     0.236 C 
BRANCH  14  15
HETATM   15  N2  UNL     1     -21.516  36.176  46.395  1.00  0.00    -0.079 N 
HETATM   16  C9  UNL     1     -22.403  36.296  45.255  1.00  0.00     0.271 C 
HETATM   17  C10 UNL     1     -20.430  35.288  46.002  1.00  0.00     0.271 C 
HETATM   18  C11 UNL     1     -22.192  35.572  47.511  1.00  0.00     0.271 C 
ENDBRANCH  14  15
ENDBRANCH  13  14
ENDBRANCH  12  13
ENDBRANCH  11  12
ENDBRANCH   9  11
ENDBRANCH   3   7
BRANCH   2  19
HETATM   19  O1  UNL     1     -16.242  35.923  43.624  1.00  0.00    -0.389 OA
ATOM     20  H1  UNL     1     -15.363  35.753  43.308  1.00  0.00     0.210 HD
ENDBRANCH   2  19
BRANCH   4  21
HETATM   21  O3  UNL     1     -18.652  37.927  40.221  1.00  0.00    -0.392 OA
ATOM     22  H3  UNL     1     -19.523  38.267  40.392  1.00  0.00     0.210 HD
ENDBRANCH   4  21
BRANCH   6  23
HETATM   23  C15 UNL     1     -15.883  34.160  41.261  1.00  0.00     0.263 C 
BRANCH  23  24
HETATM   24  O5  UNL     1     -15.697  33.652  40.005  1.00  0.00    -0.371 OA
ATOM     25  H5  UNL     1     -15.589  34.297  39.315  1.00  0.00     0.212 HD
ENDBRANCH  23  24
BRANCH  23  26
HETATM   26  O6  UNL     1     -14.623  34.271  41.866  1.00  0.00    -0.371 OA
ATOM     27  H6  UNL     1     -14.433  35.197  41.962  1.00  0.00     0.212 HD
ENDBRANCH  23  26
ENDBRANCH   6  23
BRANCH   5  28
HETATM   28  O4  UNL     1     -18.223  34.652  39.813  1.00  0.00    -0.392 OA
ATOM     29  H4  UNL     1     -17.691  34.141  39.215  1.00  0.00     0.210 HD
ENDBRANCH   5  28
TORSDOF 12
ENDMDL
