MODEL 1
REMARK VINA RESULT: -6.152188195      0.000      0.000
REMARK  12 active torsions:
REMARK  status: ('A' for Active; 'I' for Inactive)
REMARK    1  A    between atoms: C2_2  and  C3_3 
REMARK    2  A    between atoms: C3_3  and  C4_4 
REMARK    3  A    between atoms: C4_4  and  C5_5 
REMARK    4  A    between atoms: C5_5  and  O1_6 
REMARK    5  A    between atoms: C5_5  and  N1_8 
REMARK       I    between atoms: N1_8  and  C6_10 
REMARK    6  A    between atoms: C6_10  and  C7_12 
REMARK    7  A    between atoms: C8_13  and  C9_14 
REMARK    8  A    between atoms: C9_14  and  N2_15 
REMARK    9  A    between atoms: C12_18  and  O3_19 
REMARK   10  A    between atoms: C13_21  and  O4_22 
REMARK   11  A    between atoms: C14_24  and  O5_25 
REMARK   12  A    between atoms: C15_27  and  O6_28 
ROOT
HETATM    1  N2  UNL     1     -20.017  36.436  45.289  1.00  0.00    -0.037 N 
HETATM    2  C10 UNL     1     -20.677  36.728  44.020  1.00  0.00     0.276 C 
HETATM    3  C11 UNL     1     -18.989  37.400  45.540  1.00  0.00     0.274 C 
HETATM    4  C12 UNL     1     -19.581  38.746  45.913  1.00  0.00     0.175 C 
HETATM    5  C13 UNL     1     -20.286  38.516  47.258  1.00  0.00     0.181 C 
HETATM    6  C14 UNL     1     -21.416  37.556  46.978  1.00  0.00     0.206 C 
HETATM    7  C15 UNL     1     -20.974  36.289  46.338  1.00  0.00     0.355 C 
ENDROOT
BRANCH   1   8
HETATM    8  C9  UNL     1     -19.345  35.141  45.102  1.00  0.00     0.267 C 
BRANCH   8   9
HETATM    9  C8  UNL     1     -18.556  35.111  43.863  1.00  0.00     0.006 C 
HETATM   10  C7  UNL     1     -18.141  33.973  43.360  1.00  0.00     0.072 C 
BRANCH  10  11
HETATM   11  C6  UNL     1     -17.358  33.876  42.140  1.00  0.00     0.242 C 
HETATM   12  N1  UNL     1     -17.373  34.949  41.223  1.00  0.00    -0.331 N 
ATOM     13  H1  UNL     1     -17.934  35.776  41.432  1.00  0.00     0.165 HD
HETATM   14  O2  UNL     1     -16.687  32.846  41.924  1.00  0.00    -0.269 OA
BRANCH  12  15
HETATM   15  C5  UNL     1     -16.617  34.904  39.998  1.00  0.00     0.220 C 
BRANCH  15  16
HETATM   16  C4  UNL     1     -16.746  36.153  39.190  1.00  0.00     0.053 C 
BRANCH  16  17
HETATM   17  C3  UNL     1     -17.573  37.212  39.890  1.00  0.00     0.004 C 
BRANCH  17  18
HETATM   18  C2  UNL     1     -19.051  36.985  39.683  1.00  0.00    -0.004 C 
HETATM   19  C1  UNL     1     -19.901  37.785  40.613  1.00  0.00     0.005 C 
ENDBRANCH  17  18
ENDBRANCH  16  17
ENDBRANCH  15  16
BRANCH  15  20
HETATM   20  O1  UNL     1     -16.987  33.762  39.292  1.00  0.00    -0.377 OA
ATOM     21  H1  UNL     1     -17.032  32.988  39.840  1.00  0.00     0.212 HD
ENDBRANCH  15  20
ENDBRANCH  12  15
ENDBRANCH  10  11
ENDBRANCH   8   9
ENDBRANCH   1   8
BRANCH   7  22
HETATM   22  O6  UNL     1     -20.536  35.418  47.356  1.00  0.00    -0.367 OA
ATOM     23  H6  UNL     1     -21.197  35.271  48.021  1.00  0.00     0.212 HD
ENDBRANCH   7  22
BRANCH   4  24
HETATM   24  O3  UNL     1     -18.606  39.710  46.037  1.00  0.00    -0.391 OA
ATOM     25  H3  UNL     1     -18.820  40.488  45.536  1.00  0.00     0.210 HD
ENDBRANCH   4  24
BRANCH   6  26
HETATM   26  O5  UNL     1     -22.418  38.221  46.269  1.00  0.00    -0.388 OA
ATOM     27  H5  UNL     1     -22.471  37.861  45.391  1.00  0.00     0.210 HD
ENDBRANCH   6  26
BRANCH   5  28
HETATM   28  O4  UNL     1     -20.796  39.694  47.745  1.00  0.00    -0.390 OA
ATOM     29  H4  UNL     1     -20.340  39.956  48.536  1.00  0.00     0.210 HD
ENDBRANCH   5  28
TORSDOF 12
ENDMDL
MODEL 2
REMARK VINA RESULT: -6.138566632      1.305      1.591
REMARK  12 active torsions:
REMARK  status: ('A' for Active; 'I' for Inactive)
REMARK    1  A    between atoms: C2_2  and  C3_3 
REMARK    2  A    between atoms: C3_3  and  C4_4 
REMARK    3  A    between atoms: C4_4  and  C5_5 
REMARK    4  A    between atoms: C5_5  and  O1_6 
REMARK    5  A    between atoms: C5_5  and  N1_8 
REMARK       I    between atoms: N1_8  and  C6_10 
REMARK    6  A    between atoms: C6_10  and  C7_12 
REMARK    7  A    between atoms: C8_13  and  C9_14 
REMARK    8  A    between atoms: C9_14  and  N2_15 
REMARK    9  A    between atoms: C12_18  and  O3_19 
REMARK   10  A    between atoms: C13_21  and  O4_22 
REMARK   11  A    between atoms: C14_24  and  O5_25 
REMARK   12  A    between atoms: C15_27  and  O6_28 
ROOT
HETATM    1  N2  UNL     1     -20.977  37.360  45.707  1.00  0.00    -0.037 N 
HETATM    2  C10 UNL     1     -22.073  37.963  44.955  1.00  0.00     0.276 C 
HETATM    3  C11 UNL     1     -19.801  38.168  45.592  1.00  0.00     0.274 C 
HETATM    4  C12 UNL     1     -19.935  39.447  46.397  1.00  0.00     0.175 C 
HETATM    5  C13 UNL     1     -19.997  38.994  47.863  1.00  0.00     0.181 C 
HETATM    6  C14 UNL     1     -21.276  38.204  48.002  1.00  0.00     0.206 C 
HETATM    7  C15 UNL     1     -21.380  37.070  47.046  1.00  0.00     0.355 C 
ENDROOT
BRANCH   1   8
HETATM    8  C9  UNL     1     -20.683  36.086  45.034  1.00  0.00     0.267 C 
BRANCH   8   9
HETATM    9  C8  UNL     1     -19.492  36.184  44.179  1.00  0.00     0.006 C 
HETATM   10  C7  UNL     1     -18.796  35.115  43.875  1.00  0.00     0.072 C 
BRANCH  10  11
HETATM   11  C6  UNL     1     -17.611  35.146  43.035  1.00  0.00     0.242 C 
HETATM   12  N1  UNL     1     -17.560  34.331  41.883  1.00  0.00    -0.331 N 
ATOM     13  H1  UNL     1     -18.356  33.734  41.659  1.00  0.00     0.165 HD
HETATM   14  O2  UNL     1     -16.659  35.891  43.347  1.00  0.00    -0.269 OA
BRANCH  12  15
HETATM   15  C5  UNL     1     -16.409  34.323  41.017  1.00  0.00     0.220 C 
BRANCH  15  16
HETATM   16  C4  UNL     1     -16.769  34.422  39.572  1.00  0.00     0.053 C 
BRANCH  16  17
HETATM   17  C3  UNL     1     -17.904  35.395  39.325  1.00  0.00     0.004 C 
BRANCH  17  18
HETATM   18  C2  UNL     1     -17.505  36.810  39.668  1.00  0.00    -0.004 C 
HETATM   19  C1  UNL     1     -18.510  37.511  40.518  1.00  0.00     0.005 C 
ENDBRANCH  17  18
ENDBRANCH  16  17
ENDBRANCH  15  16
BRANCH  15  20
HETATM   20  O1  UNL     1     -15.645  33.194  41.307  1.00  0.00    -0.377 OA
ATOM     21  H1  UNL     1     -16.044  32.390  40.996  1.00  0.00     0.212 HD
ENDBRANCH  15  20
ENDBRANCH  12  15
ENDBRANCH  10  11
ENDBRANCH   8   9
ENDBRANCH   1   8
BRANCH   7  22
HETATM   22  O6  UNL     1     -20.686  35.973  47.596  1.00  0.00    -0.367 OA
ATOM     23  H6  UNL     1     -19.845  36.219  47.963  1.00  0.00     0.212 HD
ENDBRANCH   7  22
BRANCH   4  24
HETATM   24  O3  UNL     1     -18.861  40.285  46.196  1.00  0.00    -0.391 OA
ATOM     25  H3  UNL     1     -18.167  40.118  46.822  1.00  0.00     0.210 HD
ENDBRANCH   4  24
BRANCH   6  26
HETATM   26  O5  UNL     1     -22.363  39.079  47.952  1.00  0.00    -0.388 OA
ATOM     27  H5  UNL     1     -22.859  39.005  48.759  1.00  0.00     0.210 HD
ENDBRANCH   6  26
BRANCH   5  28
HETATM   28  O4  UNL     1     -20.036  40.078  48.704  1.00  0.00    -0.390 OA
ATOM     29  H4  UNL     1     -20.865  40.536  48.622  1.00  0.00     0.210 HD
ENDBRANCH   5  28
TORSDOF 12
ENDMDL
MODEL 3
REMARK VINA RESULT: -6.058807777      1.102      1.828
REMARK  12 active torsions:
REMARK  status: ('A' for Active; 'I' for Inactive)
REMARK    1  A    between atoms: C2_2  and  C3_3 
REMARK    2  A    between atoms: C3_3  and  C4_4 
REMARK    3  A    between atoms: C4_4  and  C5_5 
REMARK    4  A    between atoms: C5_5  and  O1_6 
REMARK    5  A    between atoms: C5_5  and  N1_8 
REMARK       I    between atoms: N1_8  and  C6_10 
REMARK    6  A    between atoms: C6_10  and  C7_12 
REMARK    7  A    between atoms: C8_13  and  C9_14 
REMARK    8  A    between atoms: C9_14  and  N2_15 
REMARK    9  A    between atoms: C12_18  and  O3_19 
REMARK   10  A    between atoms: C13_21  and  O4_22 
REMARK   11  A    between atoms: C14_24  and  O5_25 
REMARK   12  A    between atoms: C15_27  and  O6_28 
ROOT
HETATM    1  N2  UNL     1     -19.076  36.751  45.826  1.00  0.00    -0.037 N 
HETATM    2  C10 UNL     1     -17.635  36.937  45.680  1.00  0.00     0.276 C 
HETATM    3  C11 UNL     1     -19.403  36.526  47.202  1.00  0.00     0.274 C 
HETATM    4  C12 UNL     1     -19.271  37.803  48.010  1.00  0.00     0.175 C 
HETATM    5  C13 UNL     1     -20.356  38.741  47.462  1.00  0.00     0.181 C 
HETATM    6  C14 UNL     1     -19.970  39.036  46.033  1.00  0.00     0.206 C 
HETATM    7  C15 UNL     1     -19.792  37.817  45.202  1.00  0.00     0.355 C 
ENDROOT
BRANCH   1   8
HETATM    8  C9  UNL     1     -19.393  35.507  45.108  1.00  0.00     0.267 C 
BRANCH   8   9
HETATM    9  C8  UNL     1     -18.600  35.371  43.879  1.00  0.00     0.006 C 
HETATM   10  C7  UNL     1     -18.241  34.188  43.440  1.00  0.00     0.072 C 
BRANCH  10  11
HETATM   11  C6  UNL     1     -17.457  33.987  42.233  1.00  0.00     0.242 C 
HETATM   12  N1  UNL     1     -17.360  35.034  41.291  1.00  0.00    -0.331 N 
ATOM     13  H1  UNL     1     -17.840  35.915  41.473  1.00  0.00     0.165 HD
HETATM   14  O2  UNL     1     -16.886  32.892  42.051  1.00  0.00    -0.269 OA
BRANCH  12  15
HETATM   15  C5  UNL     1     -16.597  34.886  40.078  1.00  0.00     0.220 C 
BRANCH  15  16
HETATM   16  C4  UNL     1     -16.685  36.081  39.188  1.00  0.00     0.053 C 
BRANCH  16  17
HETATM   17  C3  UNL     1     -17.383  37.249  39.856  1.00  0.00     0.004 C 
BRANCH  17  18
HETATM   18  C2  UNL     1     -18.880  37.054  39.889  1.00  0.00    -0.004 C 
HETATM   19  C1  UNL     1     -19.528  37.708  41.062  1.00  0.00     0.005 C 
ENDBRANCH  17  18
ENDBRANCH  16  17
ENDBRANCH  15  16
BRANCH  15  20
HETATM   20  O1  UNL     1     -16.996  33.711  39.446  1.00  0.00    -0.377 OA
ATOM     21  H1  UNL     1     -17.062  32.975  40.043  1.00  0.00     0.212 HD
ENDBRANCH  15  20
ENDBRANCH  12  15
ENDBRANCH  10  11
ENDBRANCH   8   9
ENDBRANCH   1   8
BRANCH   7  22
HETATM   22  O6  UNL     1     -21.062  37.419  44.738  1.00  0.00    -0.367 OA
ATOM     23  H6  UNL     1     -21.699  38.122  44.768  1.00  0.00     0.212 HD
ENDBRANCH   7  22
BRANCH   4  24
HETATM   24  O3  UNL     1     -19.465  37.573  49.354  1.00  0.00    -0.391 OA
ATOM     25  H3  UNL     1     -19.217  38.326  49.876  1.00  0.00     0.210 HD
ENDBRANCH   4  24
BRANCH   6  26
HETATM   26  O5  UNL     1     -18.862  39.886  46.024  1.00  0.00    -0.388 OA
ATOM     27  H5  UNL     1     -18.109  39.413  45.690  1.00  0.00     0.210 HD
ENDBRANCH   6  26
BRANCH   5  28
HETATM   28  O4  UNL     1     -20.391  39.912  48.178  1.00  0.00    -0.390 OA
ATOM     29  H4  UNL     1     -20.379  39.735  49.111  1.00  0.00     0.210 HD
ENDBRANCH   5  28
TORSDOF 12
ENDMDL
MODEL 4
REMARK VINA RESULT: -6.032416264      1.347      1.655
REMARK  12 active torsions:
REMARK  status: ('A' for Active; 'I' for Inactive)
REMARK    1  A    between atoms: C2_2  and  C3_3 
REMARK    2  A    between atoms: C3_3  and  C4_4 
REMARK    3  A    between atoms: C4_4  and  C5_5 
REMARK    4  A    between atoms: C5_5  and  O1_6 
REMARK    5  A    between atoms: C5_5  and  N1_8 
REMARK       I    between atoms: N1_8  and  C6_10 
REMARK    6  A    between atoms: C6_10  and  C7_12 
REMARK    7  A    between atoms: C8_13  and  C9_14 
REMARK    8  A    between atoms: C9_14  and  N2_15 
REMARK    9  A    between atoms: C12_18  and  O3_19 
REMARK   10  A    between atoms: C13_21  and  O4_22 
REMARK   11  A    between atoms: C14_24  and  O5_25 
REMARK   12  A    between atoms: C15_27  and  O6_28 
ROOT
HETATM    1  N2  UNL     1     -21.026  36.623  45.769  1.00  0.00    -0.037 N 
HETATM    2  C10 UNL     1     -21.464  37.104  44.462  1.00  0.00     0.276 C 
HETATM    3  C11 UNL     1     -20.164  37.587  46.382  1.00  0.00     0.274 C 
HETATM    4  C12 UNL     1     -20.946  38.799  46.852  1.00  0.00     0.175 C 
HETATM    5  C13 UNL     1     -21.862  38.277  47.969  1.00  0.00     0.181 C 
HETATM    6  C14 UNL     1     -22.820  37.316  47.307  1.00  0.00     0.206 C 
HETATM    7  C15 UNL     1     -22.143  36.223  46.562  1.00  0.00     0.355 C 
ENDROOT
BRANCH   1   8
HETATM    8  C9  UNL     1     -20.207  35.432  45.501  1.00  0.00     0.267 C 
BRANCH   8   9
HETATM    9  C8  UNL     1     -19.079  35.735  44.609  1.00  0.00     0.006 C 
HETATM   10  C7  UNL     1     -18.561  34.804  43.845  1.00  0.00     0.072 C 
BRANCH  10  11
HETATM   11  C6  UNL     1     -17.447  35.041  42.942  1.00  0.00     0.242 C 
HETATM   12  N1  UNL     1     -17.293  34.218  41.805  1.00  0.00    -0.331 N 
ATOM     13  H1  UNL     1     -17.967  33.471  41.635  1.00  0.00     0.165 HD
HETATM   14  O2  UNL     1     -16.646  35.966  43.188  1.00  0.00    -0.269 OA
BRANCH  12  15
HETATM   15  C5  UNL     1     -16.207  34.409  40.879  1.00  0.00     0.220 C 
BRANCH  15  16
HETATM   16  C4  UNL     1     -16.640  34.339  39.452  1.00  0.00     0.053 C 
BRANCH  16  17
HETATM   17  C3  UNL     1     -17.783  35.287  39.148  1.00  0.00     0.004 C 
BRANCH  17  18
HETATM   18  C2  UNL     1     -17.466  36.694  39.595  1.00  0.00    -0.004 C 
HETATM   19  C1  UNL     1     -18.563  37.312  40.397  1.00  0.00     0.005 C 
ENDBRANCH  17  18
ENDBRANCH  16  17
ENDBRANCH  15  16
BRANCH  15  20
HETATM   20  O1  UNL     1     -15.201  33.495  41.184  1.00  0.00    -0.377 OA
ATOM     21  H1  UNL     1     -15.418  32.941  41.924  1.00  0.00     0.212 HD
ENDBRANCH  15  20
ENDBRANCH  12  15
ENDBRANCH  10  11
ENDBRANCH   8   9
ENDBRANCH   1   8
BRANCH   7  22
HETATM   22  O6  UNL     1     -21.818  35.206  47.483  1.00  0.00    -0.367 OA
ATOM     23  H6  UNL     1     -22.395  34.456  47.419  1.00  0.00     0.212 HD
ENDBRANCH   7  22
BRANCH   4  24
HETATM   24  O3  UNL     1     -20.112  39.783  47.333  1.00  0.00    -0.391 OA
ATOM     25  H3  UNL     1     -20.097  39.794  48.283  1.00  0.00     0.210 HD
ENDBRANCH   4  24
BRANCH   6  26
HETATM   26  O5  UNL     1     -23.733  38.037  46.535  1.00  0.00    -0.388 OA
ATOM     27  H5  UNL     1     -24.391  37.443  46.194  1.00  0.00     0.210 HD
ENDBRANCH   6  26
BRANCH   5  28
HETATM   28  O4  UNL     1     -22.569  39.308  48.537  1.00  0.00    -0.390 OA
ATOM     29  H4  UNL     1     -22.233  39.508  49.403  1.00  0.00     0.210 HD
ENDBRANCH   5  28
TORSDOF 12
ENDMDL
MODEL 5
REMARK VINA RESULT: -6.031718200      1.873      3.159
REMARK  12 active torsions:
REMARK  status: ('A' for Active; 'I' for Inactive)
REMARK    1  A    between atoms: C2_2  and  C3_3 
REMARK    2  A    between atoms: C3_3  and  C4_4 
REMARK    3  A    between atoms: C4_4  and  C5_5 
REMARK    4  A    between atoms: C5_5  and  O1_6 
REMARK    5  A    between atoms: C5_5  and  N1_8 
REMARK       I    between atoms: N1_8  and  C6_10 
REMARK    6  A    between atoms: C6_10  and  C7_12 
REMARK    7  A    between atoms: C8_13  and  C9_14 
REMARK    8  A    between atoms: C9_14  and  N2_15 
REMARK    9  A    between atoms: C12_18  and  O3_19 
REMARK   10  A    between atoms: C13_21  and  O4_22 
REMARK   11  A    between atoms: C14_24  and  O5_25 
REMARK   12  A    between atoms: C15_27  and  O6_28 
ROOT
HETATM    1  N2  UNL     1     -20.555  38.196  45.946  1.00  0.00    -0.037 N 
HETATM    2  C10 UNL     1     -20.532  39.106  47.088  1.00  0.00     0.276 C 
HETATM    3  C11 UNL     1     -20.276  36.860  46.378  1.00  0.00     0.274 C 
HETATM    4  C12 UNL     1     -21.451  36.276  47.139  1.00  0.00     0.175 C 
HETATM    5  C13 UNL     1     -22.582  36.161  46.106  1.00  0.00     0.181 C 
HETATM    6  C14 UNL     1     -22.926  37.576  45.707  1.00  0.00     0.206 C 
HETATM    7  C15 UNL     1     -21.762  38.349  45.200  1.00  0.00     0.355 C 
ENDROOT
BRANCH   1   8
HETATM    8  C9  UNL     1     -19.434  38.606  45.087  1.00  0.00     0.267 C 
BRANCH   8   9
HETATM    9  C8  UNL     1     -18.515  37.491  44.822  1.00  0.00     0.006 C 
HETATM   10  C7  UNL     1     -18.118  37.225  43.600  1.00  0.00     0.072 C 
BRANCH  10  11
HETATM   11  C6  UNL     1     -17.211  36.138  43.273  1.00  0.00     0.242 C 
HETATM   12  N1  UNL     1     -17.654  35.100  42.427  1.00  0.00    -0.331 N 
ATOM     13  H1  UNL     1     -18.605  35.129  42.058  1.00  0.00     0.165 HD
HETATM   14  O2  UNL     1     -16.056  36.143  43.748  1.00  0.00    -0.269 OA
BRANCH  12  15
HETATM   15  C5  UNL     1     -16.796  33.999  42.072  1.00  0.00     0.220 C 
BRANCH  15  16
HETATM   16  C4  UNL     1     -16.431  33.989  40.625  1.00  0.00     0.053 C 
BRANCH  16  17
HETATM   17  C3  UNL     1     -17.435  34.738  39.771  1.00  0.00     0.004 C 
BRANCH  17  18
HETATM   18  C2  UNL     1     -16.822  35.969  39.148  1.00  0.00    -0.004 C 
HETATM   19  C1  UNL     1     -17.364  37.239  39.711  1.00  0.00     0.005 C 
ENDBRANCH  17  18
ENDBRANCH  16  17
ENDBRANCH  15  16
BRANCH  15  20
HETATM   20  O1  UNL     1     -17.404  32.814  42.484  1.00  0.00    -0.377 OA
ATOM     21  H1  UNL     1     -16.853  32.298  43.060  1.00  0.00     0.212 HD
ENDBRANCH  15  20
ENDBRANCH  12  15
ENDBRANCH  10  11
ENDBRANCH   8   9
ENDBRANCH   1   8
BRANCH   7  22
HETATM   22  O6  UNL     1     -21.599  38.042  43.834  1.00  0.00    -0.367 OA
ATOM     23  H6  UNL     1     -22.414  38.085  43.349  1.00  0.00     0.212 HD
ENDBRANCH   7  22
BRANCH   4  24
HETATM   24  O3  UNL     1     -21.149  35.039  47.662  1.00  0.00    -0.391 OA
ATOM     25  H3  UNL     1     -21.597  34.343  47.195  1.00  0.00     0.210 HD
ENDBRANCH   4  24
BRANCH   6  26
HETATM   26  O5  UNL     1     -23.596  38.200  46.760  1.00  0.00    -0.388 OA
ATOM     27  H5  UNL     1     -24.222  37.592  47.136  1.00  0.00     0.210 HD
ENDBRANCH   6  26
BRANCH   5  28
HETATM   28  O4  UNL     1     -23.686  35.562  46.661  1.00  0.00    -0.390 OA
ATOM     29  H4  UNL     1     -23.896  34.757  46.202  1.00  0.00     0.210 HD
ENDBRANCH   5  28
TORSDOF 12
ENDMDL
