MODEL 1
REMARK VINA RESULT: -5.507313651      0.000      0.000
REMARK  4 active torsions:
REMARK  status: ('A' for Active; 'I' for Inactive)
REMARK    1  A    between atoms: N1_1  and  N2_4 
REMARK    2  A    between atoms: N2_4  and  C1_5 
REMARK    3  A    between atoms: C1_5  and  C2_6 
REMARK    4  A    between atoms: C1_5  and  C3_9 
REMARK       I    between atoms: N4_11  and  C5_12 
ROOT
HETATM    1  C3  UNL     1      53.742   9.943 123.566  1.00  0.00     0.074 A 
HETATM    2  C4  UNL     1      53.999   8.973 122.621  1.00  0.00     0.151 A 
HETATM    3  N4  UNL     1      54.703   7.982 123.166  1.00  0.00    -0.203 N 
HETATM    4  C5  UNL     1      55.143   6.822 122.490  1.00  0.00     0.354 C 
HETATM    5  N5  UNL     1      55.885   5.866 123.227  1.00  0.00    -0.038 NA
HETATM    6  O2  UNL     1      54.874   6.657 121.258  1.00  0.00    -0.249 OA
HETATM    7  N6  UNL     1      54.885   8.320 124.425  1.00  0.00    -0.233 N 
ATOM      8  H6  UNL     1      55.395   7.756 125.104  1.00  0.00     0.209 HD
HETATM    9  N7  UNL     1      54.321   9.489 124.696  1.00  0.00    -0.286 N 
ATOM     10  H7  UNL     1      54.325   9.961 125.600  1.00  0.00     0.188 HD
ENDROOT
BRANCH   1  11
HETATM   11  C1  UNL     1      52.979  11.226 123.371  1.00  0.00     0.240 C 
BRANCH  11  12
HETATM   12  N2  UNL     1      53.569  11.875 122.224  1.00  0.00    -0.128 NA
BRANCH  12  13
HETATM   13  N1  UNL     1      53.718  13.237 122.364  1.00  0.00    -0.347 N 
ATOM     14  H12 UNL     1      52.925  13.876 122.311  1.00  0.00     0.172 HD
ATOM     15  H11 UNL     1      54.680  13.538 122.522  1.00  0.00     0.172 HD
ENDBRANCH  12  13
ENDBRANCH  11  12
BRANCH  11  16
HETATM   16  C2  UNL     1      53.144  12.053 124.587  1.00  0.00     0.258 C 
HETATM   17  N3  UNL     1      54.404  12.353 125.163  1.00  0.00    -0.060 NA
HETATM   18  O1  UNL     1      52.120  12.514 125.141  1.00  0.00    -0.275 OA
ENDBRANCH  11  16
ENDBRANCH   1  11
TORSDOF 4
ENDMDL
MODEL 2
REMARK VINA RESULT: -5.368241641      3.261      5.268
REMARK  4 active torsions:
REMARK  status: ('A' for Active; 'I' for Inactive)
REMARK    1  A    between atoms: N1_1  and  N2_4 
REMARK    2  A    between atoms: N2_4  and  C1_5 
REMARK    3  A    between atoms: C1_5  and  C2_6 
REMARK    4  A    between atoms: C1_5  and  C3_9 
REMARK       I    between atoms: N4_11  and  C5_12 
ROOT
HETATM    1  C3  UNL     1      53.291  10.654 120.759  1.00  0.00     0.074 A 
HETATM    2  C4  UNL     1      53.497  10.187 122.039  1.00  0.00     0.151 A 
HETATM    3  N4  UNL     1      53.689  11.210 122.871  1.00  0.00    -0.203 N 
HETATM    4  C5  UNL     1      53.930  11.102 124.259  1.00  0.00     0.354 C 
HETATM    5  N5  UNL     1      54.112  12.299 124.995  1.00  0.00    -0.038 NA
HETATM    6  O2  UNL     1      53.978   9.960 124.815  1.00  0.00    -0.249 OA
HETATM    7  N6  UNL     1      53.606  12.295 122.131  1.00  0.00    -0.233 N 
ATOM      8  H6  UNL     1      53.711  13.244 122.488  1.00  0.00     0.209 HD
HETATM    9  N7  UNL     1      53.368  11.997 120.862  1.00  0.00    -0.286 N 
ATOM     10  H7  UNL     1      53.261  12.664 120.098  1.00  0.00     0.188 HD
ENDROOT
BRANCH   1  11
HETATM   11  C1  UNL     1      53.036   9.837 119.521  1.00  0.00     0.240 C 
BRANCH  11  12
HETATM   12  N2  UNL     1      53.934   8.708 119.592  1.00  0.00    -0.128 NA
BRANCH  12  13
HETATM   13  N1  UNL     1      54.565   8.415 118.403  1.00  0.00    -0.347 N 
ATOM     14  H12 UNL     1      54.294   8.855 117.524  1.00  0.00     0.172 HD
ATOM     15  H11 UNL     1      55.316   7.730 118.487  1.00  0.00     0.172 HD
ENDBRANCH  12  13
ENDBRANCH  11  12
BRANCH  11  16
HETATM   16  C2  UNL     1      53.339  10.676 118.340  1.00  0.00     0.258 C 
HETATM   17  N3  UNL     1      54.579  11.333 118.145  1.00  0.00    -0.060 NA
HETATM   18  O1  UNL     1      52.455  10.817 117.464  1.00  0.00    -0.275 OA
ENDBRANCH  11  16
ENDBRANCH   1  11
TORSDOF 4
ENDMDL
MODEL 3
REMARK VINA RESULT: -5.261995394      3.309      4.697
REMARK  4 active torsions:
REMARK  status: ('A' for Active; 'I' for Inactive)
REMARK    1  A    between atoms: N1_1  and  N2_4 
REMARK    2  A    between atoms: N2_4  and  C1_5 
REMARK    3  A    between atoms: C1_5  and  C2_6 
REMARK    4  A    between atoms: C1_5  and  C3_9 
REMARK       I    between atoms: N4_11  and  C5_12 
ROOT
HETATM    1  C3  UNL     1      53.637   7.837 122.038  1.00  0.00     0.074 A 
HETATM    2  C4  UNL     1      52.798   7.392 121.039  1.00  0.00     0.151 A 
HETATM    3  N4  UNL     1      53.275   7.755 119.850  1.00  0.00    -0.203 N 
HETATM    4  C5  UNL     1      52.673   7.468 118.604  1.00  0.00     0.354 C 
HETATM    5  N5  UNL     1      53.319   7.933 117.432  1.00  0.00    -0.038 NA
HETATM    6  O2  UNL     1      51.585   6.812 118.554  1.00  0.00    -0.249 OA
HETATM    7  N6  UNL     1      54.388   8.414 120.094  1.00  0.00    -0.233 N 
ATOM      8  H6  UNL     1      54.985   8.821 119.375  1.00  0.00     0.209 HD
HETATM    9  N7  UNL     1      54.633   8.480 121.395  1.00  0.00    -0.286 N 
ATOM     10  H7  UNL     1      55.433   8.937 121.833  1.00  0.00     0.188 HD
ENDROOT
BRANCH   1  11
HETATM   11  C1  UNL     1      53.471   7.643 123.522  1.00  0.00     0.240 C 
BRANCH  11  12
HETATM   12  N2  UNL     1      53.656   8.944 124.121  1.00  0.00    -0.128 NA
BRANCH  12  13
HETATM   13  N1  UNL     1      54.851   9.090 124.790  1.00  0.00    -0.347 N 
ATOM     14  H12 UNL     1      55.550   8.347 124.819  1.00  0.00     0.172 HD
ATOM     15  H11 UNL     1      54.968   9.997 125.243  1.00  0.00     0.172 HD
ENDBRANCH  12  13
ENDBRANCH  11  12
BRANCH  11  16
HETATM   16  C2  UNL     1      54.510   6.697 123.986  1.00  0.00     0.258 C 
HETATM   17  N3  UNL     1      55.646   6.345 123.215  1.00  0.00    -0.060 NA
HETATM   18  O1  UNL     1      54.383   6.176 125.117  1.00  0.00    -0.275 OA
ENDBRANCH  11  16
ENDBRANCH   1  11
TORSDOF 4
ENDMDL
MODEL 4
REMARK VINA RESULT: -5.242038730      3.331      4.920
REMARK  4 active torsions:
REMARK  status: ('A' for Active; 'I' for Inactive)
REMARK    1  A    between atoms: N1_1  and  N2_4 
REMARK    2  A    between atoms: N2_4  and  C1_5 
REMARK    3  A    between atoms: C1_5  and  C2_6 
REMARK    4  A    between atoms: C1_5  and  C3_9 
REMARK       I    between atoms: N4_11  and  C5_12 
ROOT
HETATM    1  C3  UNL     1      53.765   7.431 121.696  1.00  0.00     0.074 A 
HETATM    2  C4  UNL     1      54.164   8.035 120.523  1.00  0.00     0.151 A 
HETATM    3  N4  UNL     1      53.630   7.400 119.481  1.00  0.00    -0.203 N 
HETATM    4  C5  UNL     1      53.824   7.746 118.125  1.00  0.00     0.354 C 
HETATM    5  N5  UNL     1      53.178   6.958 117.140  1.00  0.00    -0.038 NA
HETATM    6  O2  UNL     1      54.559   8.736 117.814  1.00  0.00    -0.249 OA
HETATM    7  N6  UNL     1      52.912   6.419 119.986  1.00  0.00    -0.233 N 
ATOM      8  H6  UNL     1      52.379   5.752 119.430  1.00  0.00     0.209 HD
HETATM    9  N7  UNL     1      52.971   6.411 121.310  1.00  0.00    -0.286 N 
ATOM     10  H7  UNL     1      52.500   5.750 121.928  1.00  0.00     0.188 HD
ENDROOT
BRANCH   1  11
HETATM   11  C1  UNL     1      54.137   7.830 123.099  1.00  0.00     0.240 C 
BRANCH  11  12
HETATM   12  N2  UNL     1      55.067   8.928 122.972  1.00  0.00    -0.128 NA
BRANCH  12  13
HETATM   13  N1  UNL     1      56.152   8.846 123.816  1.00  0.00    -0.347 N 
ATOM     14  H12 UNL     1      56.892   9.548 123.816  1.00  0.00     0.172 HD
ATOM     15  H11 UNL     1      56.143   8.032 124.430  1.00  0.00     0.172 HD
ENDBRANCH  12  13
ENDBRANCH  11  12
BRANCH  11  16
HETATM   16  C2  UNL     1      54.779   6.670 123.757  1.00  0.00     0.258 C 
HETATM   17  N3  UNL     1      55.767   5.867 123.135  1.00  0.00    -0.060 NA
HETATM   18  O1  UNL     1      54.433   6.378 124.925  1.00  0.00    -0.275 OA
ENDBRANCH  11  16
ENDBRANCH   1  11
TORSDOF 4
ENDMDL
MODEL 5
REMARK VINA RESULT: -5.197693408      1.918      5.586
REMARK  4 active torsions:
REMARK  status: ('A' for Active; 'I' for Inactive)
REMARK    1  A    between atoms: N1_1  and  N2_4 
REMARK    2  A    between atoms: N2_4  and  C1_5 
REMARK    3  A    between atoms: C1_5  and  C2_6 
REMARK    4  A    between atoms: C1_5  and  C3_9 
REMARK       I    between atoms: N4_11  and  C5_12 
ROOT
HETATM    1  C3  UNL     1      52.942   9.550 121.890  1.00  0.00     0.074 A 
HETATM    2  C4  UNL     1      53.169  10.413 122.940  1.00  0.00     0.151 A 
HETATM    3  N4  UNL     1      53.459  11.628 122.475  1.00  0.00    -0.203 N 
HETATM    4  C5  UNL     1      53.748  12.760 123.269  1.00  0.00     0.354 C 
HETATM    5  N5  UNL     1      54.037  13.979 122.606  1.00  0.00    -0.038 NA
HETATM    6  O2  UNL     1      53.746  12.672 124.538  1.00  0.00    -0.249 OA
HETATM    7  N6  UNL     1      53.416  11.530 121.164  1.00  0.00    -0.233 N 
ATOM      8  H6  UNL     1      53.596  12.303 120.524  1.00  0.00     0.209 HD
HETATM    9  N7  UNL     1      53.108  10.299 120.781  1.00  0.00    -0.286 N 
ATOM     10  H7  UNL     1      53.014   9.976 119.818  1.00  0.00     0.188 HD
ENDROOT
BRANCH   1  11
HETATM   11  C1  UNL     1      52.586   8.090 121.972  1.00  0.00     0.240 C 
BRANCH  11  12
HETATM   12  N2  UNL     1      53.101   7.619 123.236  1.00  0.00    -0.128 NA
BRANCH  12  13
HETATM   13  N1  UNL     1      53.812   6.443 123.151  1.00  0.00    -0.347 N 
ATOM     14  H12 UNL     1      53.719   5.810 122.357  1.00  0.00     0.172 HD
ATOM     15  H11 UNL     1      54.430   6.271 123.945  1.00  0.00     0.172 HD
ENDBRANCH  12  13
ENDBRANCH  11  12
BRANCH  11  16
HETATM   16  C2  UNL     1      53.239   7.388 120.844  1.00  0.00     0.258 C 
HETATM   17  N3  UNL     1      54.575   7.633 120.440  1.00  0.00    -0.060 NA
HETATM   18  O1  UNL     1      52.580   6.533 120.209  1.00  0.00    -0.275 OA
ENDBRANCH  11  16
ENDBRANCH   1  11
TORSDOF 4
ENDMDL
