MODEL 1
REMARK VINA RESULT: -5.545680082      0.000      0.000
REMARK  3 active torsions:
REMARK  status: ('A' for Active; 'I' for Inactive)
REMARK    1  A    between atoms: N1_1  and  C1_4 
REMARK    2  A    between atoms: C2_5  and  C3_6 
REMARK    3  A    between atoms: N5_13  and  S1_14 
ROOT
HETATM    1  C1  UNL     1      53.953   9.818 121.055  1.00  0.00     0.170 A 
HETATM    2  C2  UNL     1      53.698  10.807 120.132  1.00  0.00     0.161 A 
HETATM    3  N3  UNL     1      53.378  11.899 120.848  1.00  0.00    -0.277 N 
ATOM      4  H3  UNL     1      53.133  12.807 120.452  1.00  0.00     0.189 HD
HETATM    5  N4  UNL     1      53.426  11.624 122.145  1.00  0.00    -0.222 N 
ATOM      6  H4  UNL     1      53.228  12.274 122.905  1.00  0.00     0.210 HD
HETATM    7  N5  UNL     1      53.775  10.362 122.273  1.00  0.00    -0.129 N 
ENDROOT
BRANCH   7   8
HETATM    8  S1  UNL     1      53.973   9.530 123.778  1.00  0.00     0.233 S 
HETATM    9  O2  UNL     1      55.324   8.904 123.809  1.00  0.00    -0.576 OA
HETATM   10  O3  UNL     1      52.940   8.471 123.922  1.00  0.00    -0.576 OA
HETATM   11  O4  UNL     1      53.828  10.600 125.054  1.00  0.00    -0.576 OA
ENDBRANCH   7   8
BRANCH   1  12
HETATM   12  N1  UNL     1      54.295   8.618 120.775  1.00  0.00    -0.381 N 
ATOM     13  H12 UNL     1      54.908   8.302 120.024  1.00  0.00     0.157 HD
ATOM     14  H11 UNL     1      53.990   7.787 121.280  1.00  0.00     0.157 HD
ENDBRANCH   1  12
BRANCH   2  15
HETATM   15  C3  UNL     1      53.761  10.698 118.670  1.00  0.00     0.286 C 
HETATM   16  N2  UNL     1      52.904   9.815 117.983  1.00  0.00    -0.056 NA
HETATM   17  O1  UNL     1      54.570  11.379 117.998  1.00  0.00    -0.269 OA
ENDBRANCH   2  15
TORSDOF 3
ENDMDL
MODEL 2
REMARK VINA RESULT: -5.426142749      2.114      4.688
REMARK  3 active torsions:
REMARK  status: ('A' for Active; 'I' for Inactive)
REMARK    1  A    between atoms: N1_1  and  C1_4 
REMARK    2  A    between atoms: C2_5  and  C3_6 
REMARK    3  A    between atoms: N5_13  and  S1_14 
ROOT
HETATM    1  C1  UNL     1      53.694   9.678 121.155  1.00  0.00     0.170 A 
HETATM    2  C2  UNL     1      53.527  10.226 122.407  1.00  0.00     0.161 A 
HETATM    3  N3  UNL     1      53.369  11.547 122.209  1.00  0.00    -0.277 N 
ATOM      4  H3  UNL     1      53.222  12.235 122.948  1.00  0.00     0.189 HD
HETATM    5  N4  UNL     1      53.431  11.823 120.913  1.00  0.00    -0.222 N 
ATOM      6  H4  UNL     1      53.343  12.748 120.491  1.00  0.00     0.210 HD
HETATM    7  N5  UNL     1      53.629  10.692 120.272  1.00  0.00    -0.129 N 
ENDROOT
BRANCH   7   8
HETATM    8  S1  UNL     1      53.781  10.533 118.554  1.00  0.00     0.233 S 
HETATM    9  O2  UNL     1      52.468  10.840 117.923  1.00  0.00    -0.576 OA
HETATM   10  O3  UNL     1      54.182   9.147 118.199  1.00  0.00    -0.576 OA
HETATM   11  O4  UNL     1      54.937  11.592 117.975  1.00  0.00    -0.576 OA
ENDBRANCH   7   8
BRANCH   1  12
HETATM   12  N1  UNL     1      53.874   8.437 120.911  1.00  0.00    -0.381 N 
ATOM     13  H12 UNL     1      54.162   7.707 121.563  1.00  0.00     0.157 HD
ATOM     14  H11 UNL     1      53.752   7.992 120.001  1.00  0.00     0.157 HD
ENDBRANCH   1  12
BRANCH   2  15
HETATM   15  C3  UNL     1      53.520   9.520 123.693  1.00  0.00     0.286 C 
HETATM   16  N2  UNL     1      52.881   8.270 123.817  1.00  0.00    -0.056 NA
HETATM   17  O1  UNL     1      54.076  10.003 124.707  1.00  0.00    -0.269 OA
ENDBRANCH   2  15
TORSDOF 3
ENDMDL
MODEL 3
REMARK VINA RESULT: -5.332468785      2.119      4.698
REMARK  3 active torsions:
REMARK  status: ('A' for Active; 'I' for Inactive)
REMARK    1  A    between atoms: N1_1  and  C1_4 
REMARK    2  A    between atoms: C2_5  and  C3_6 
REMARK    3  A    between atoms: N5_13  and  S1_14 
ROOT
HETATM    1  C1  UNL     1      53.689   9.701 121.116  1.00  0.00     0.170 A 
HETATM    2  C2  UNL     1      53.515  10.248 122.368  1.00  0.00     0.161 A 
HETATM    3  N3  UNL     1      53.361  11.569 122.170  1.00  0.00    -0.277 N 
ATOM      4  H3  UNL     1      53.212  12.257 122.908  1.00  0.00     0.189 HD
HETATM    5  N4  UNL     1      53.432  11.847 120.875  1.00  0.00    -0.222 N 
ATOM      6  H4  UNL     1      53.348  12.772 120.453  1.00  0.00     0.210 HD
HETATM    7  N5  UNL     1      53.631  10.716 120.233  1.00  0.00    -0.129 N 
ENDROOT
BRANCH   7   8
HETATM    8  S1  UNL     1      53.793  10.558 118.517  1.00  0.00     0.233 S 
HETATM    9  O2  UNL     1      54.218   9.167 118.198  1.00  0.00    -0.576 OA
HETATM   10  O3  UNL     1      54.814  11.510 118.006  1.00  0.00    -0.576 OA
HETATM   11  O4  UNL     1      52.335  10.879 117.766  1.00  0.00    -0.576 OA
ENDBRANCH   7   8
BRANCH   1  12
HETATM   12  N1  UNL     1      53.869   8.460 120.872  1.00  0.00    -0.381 N 
ATOM     13  H12 UNL     1      53.319   7.671 121.210  1.00  0.00     0.157 HD
ATOM     14  H11 UNL     1      54.611   8.077 120.287  1.00  0.00     0.157 HD
ENDBRANCH   1  12
BRANCH   2  15
HETATM   15  C3  UNL     1      53.500   9.541 123.653  1.00  0.00     0.286 C 
HETATM   16  N2  UNL     1      52.860   8.291 123.771  1.00  0.00    -0.056 NA
HETATM   17  O1  UNL     1      54.049  10.023 124.671  1.00  0.00    -0.269 OA
ENDBRANCH   2  15
TORSDOF 3
ENDMDL
MODEL 4
REMARK VINA RESULT: -5.236718168      2.154      4.974
REMARK  3 active torsions:
REMARK  status: ('A' for Active; 'I' for Inactive)
REMARK    1  A    between atoms: N1_1  and  C1_4 
REMARK    2  A    between atoms: C2_5  and  C3_6 
REMARK    3  A    between atoms: N5_13  and  S1_14 
ROOT
HETATM    1  C1  UNL     1      53.590  11.055 121.150  1.00  0.00     0.170 A 
HETATM    2  C2  UNL     1      53.776  10.480 122.388  1.00  0.00     0.161 A 
HETATM    3  N3  UNL     1      54.099   9.197 122.148  1.00  0.00    -0.277 N 
ATOM      4  H3  UNL     1      54.300   8.501 122.866  1.00  0.00     0.189 HD
HETATM    5  N4  UNL     1      54.118   8.968 120.842  1.00  0.00    -0.222 N 
ATOM      6  H4  UNL     1      54.332   8.079 120.390  1.00  0.00     0.210 HD
HETATM    7  N5  UNL     1      53.809  10.093 120.234  1.00  0.00    -0.129 N 
ENDROOT
BRANCH   7   8
HETATM    8  S1  UNL     1      53.702  10.304 118.519  1.00  0.00     0.233 S 
HETATM    9  O2  UNL     1      52.313  10.707 118.168  1.00  0.00    -0.576 OA
HETATM   10  O3  UNL     1      54.033   9.033 117.822  1.00  0.00    -0.576 OA
HETATM   11  O4  UNL     1      54.769  11.487 118.013  1.00  0.00    -0.576 OA
ENDBRANCH   7   8
BRANCH   1  12
HETATM   12  N1  UNL     1      53.271  12.275 120.944  1.00  0.00    -0.381 N 
ATOM     13  H12 UNL     1      52.933  12.956 121.624  1.00  0.00     0.157 HD
ATOM     14  H11 UNL     1      53.312  12.750 120.042  1.00  0.00     0.157 HD
ENDBRANCH   1  12
BRANCH   2  15
HETATM   15  C3  UNL     1      53.651  11.128 123.697  1.00  0.00     0.286 C 
HETATM   16  N2  UNL     1      53.697  12.533 123.805  1.00  0.00    -0.056 NA
HETATM   17  O1  UNL     1      53.500  10.459 124.746  1.00  0.00    -0.269 OA
ENDBRANCH   2  15
TORSDOF 3
ENDMDL
MODEL 5
REMARK VINA RESULT: -5.219521325      2.655      3.004
REMARK  3 active torsions:
REMARK  status: ('A' for Active; 'I' for Inactive)
REMARK    1  A    between atoms: N1_1  and  C1_4 
REMARK    2  A    between atoms: C2_5  and  C3_6 
REMARK    3  A    between atoms: N5_13  and  S1_14 
ROOT
HETATM    1  C1  UNL     1      54.605   7.456 121.289  1.00  0.00     0.170 A 
HETATM    2  C2  UNL     1      54.288   7.617 119.958  1.00  0.00     0.161 A 
HETATM    3  N3  UNL     1      54.088   8.936 119.789  1.00  0.00    -0.277 N 
ATOM      4  H3  UNL     1      53.836   9.380 118.906  1.00  0.00     0.189 HD
HETATM    5  N4  UNL     1      54.267   9.575 120.937  1.00  0.00    -0.222 N 
ATOM      6  H4  UNL     1      54.177  10.580 121.086  1.00  0.00     0.210 HD
HETATM    7  N5  UNL     1      54.580   8.680 121.849  1.00  0.00    -0.129 N 
ENDROOT
BRANCH   7   8
HETATM    8  S1  UNL     1      54.911   9.025 123.513  1.00  0.00     0.233 S 
HETATM    9  O2  UNL     1      56.384   9.017 123.724  1.00  0.00    -0.576 OA
HETATM   10  O3  UNL     1      54.286   7.997 124.386  1.00  0.00    -0.576 OA
HETATM   11  O4  UNL     1      54.299  10.525 123.926  1.00  0.00    -0.576 OA
ENDBRANCH   7   8
BRANCH   1  12
HETATM   12  N1  UNL     1      54.870   6.341 121.855  1.00  0.00    -0.381 N 
ATOM     13  H12 UNL     1      54.879   5.413 121.432  1.00  0.00     0.157 HD
ATOM     14  H11 UNL     1      55.114   6.223 122.838  1.00  0.00     0.157 HD
ENDBRANCH   1  12
BRANCH   2  15
HETATM   15  C3  UNL     1      54.188   6.571 118.935  1.00  0.00     0.286 C 
HETATM   16  N2  UNL     1      54.916   6.677 117.733  1.00  0.00    -0.056 NA
HETATM   17  O1  UNL     1      53.459   5.565 119.098  1.00  0.00    -0.269 OA
ENDBRANCH   2  15
TORSDOF 3
ENDMDL
