MODEL 1
REMARK VINA RESULT: -8.561505312      0.000      0.000
REMARK  10 active torsions:
REMARK  status: ('A' for Active; 'I' for Inactive)
REMARK    1  A    between atoms: C2_2  and  C3_3 
REMARK    2  A    between atoms: N2_10  and  C7_11 
REMARK    3  A    between atoms: C7_11  and  C8_12 
REMARK    4  A    between atoms: C11_15  and  C12_16 
REMARK    5  A    between atoms: C17_23  and  C18_24 
REMARK    6  A    between atoms: C18_24  and  C19_25 
REMARK    7  A    between atoms: C25_33  and  C26_34 
REMARK    8  A    between atoms: C26_34  and  O1_35 
REMARK    9  A    between atoms: C26_34  and  C27_37 
REMARK   10  A    between atoms: C27_37  and  O2_38 
ROOT
HETATM    1  C12 UNL     1      14.113 -26.515 -56.156  1.00  0.00    -0.024 A 
HETATM    2  C13 UNL     1      14.774 -27.466 -56.873  1.00  0.00     0.036 A 
HETATM    3  C14 UNL     1      16.008 -27.145 -57.378  1.00  0.00     0.067 A 
HETATM    4  C15 UNL     1      16.708 -28.141 -58.142  1.00  0.00     0.101 C 
HETATM    5  N3  UNL     1      17.252 -28.941 -58.761  1.00  0.00    -0.191 NA
HETATM    6  C16 UNL     1      16.586 -25.881 -57.173  1.00  0.00     0.061 A 
HETATM    7 CL2  UNL     1      18.165 -25.602 -57.855  1.00  0.00    -0.082 Cl
HETATM    8  C17 UNL     1      15.925 -24.931 -56.458  1.00  0.00    -0.030 A 
HETATM    9  C29 UNL     1      14.675 -25.270 -55.951  1.00  0.00     0.021 A 
ENDROOT
BRANCH   1  10
HETATM   10  C11 UNL     1      12.812 -26.791 -55.550  1.00  0.00    -0.023 A 
HETATM   11  C10 UNL     1      11.740 -27.230 -56.302  1.00  0.00     0.013 A 
HETATM   12  C9  UNL     1      10.522 -27.503 -55.733  1.00  0.00     0.017 A 
HETATM   13  C8  UNL     1      10.298 -27.350 -54.355  1.00  0.00     0.018 A 
HETATM   14  C31 UNL     1      11.340 -26.920 -53.610  1.00  0.00     0.128 A 
HETATM   15  C30 UNL     1      12.591 -26.642 -54.201  1.00  0.00     0.055 A 
HETATM   16  F1  UNL     1      11.212 -26.732 -52.279  1.00  0.00    -0.205 F 
BRANCH  13  17
HETATM   17  C7  UNL     1       8.953 -27.684 -53.866  1.00  0.00     0.113 C 
BRANCH  17  18
HETATM   18  N2  UNL     1       8.578 -29.038 -53.751  1.00  0.00    -0.312 N 
HETATM   19  C3  UNL     1       7.925 -29.789 -54.657  1.00  0.00     0.056 A 
HETATM   20  C4  UNL     1       7.761 -31.045 -54.100  1.00  0.00     0.128 A 
HETATM   21 CL1  UNL     1       6.983 -32.454 -54.797  1.00  0.00    -0.062 Cl
HETATM   22  N1  UNL     1       8.316 -31.019 -52.882  1.00  0.00    -0.335 N 
HETATM   23  C5  UNL     1       8.822 -29.804 -52.647  1.00  0.00     0.085 A 
ATOM     24  H1  UNL     1       8.348 -31.805 -52.233  1.00  0.00     0.168 HD
HETATM   25  C6  UNL     1       9.520 -29.383 -51.402  1.00  0.00     0.089 C 
BRANCH  19  26
HETATM   26  C2  UNL     1       7.448 -29.431 -56.028  1.00  0.00     0.056 C 
HETATM   27  C1  UNL     1       8.249 -30.078 -57.119  1.00  0.00     0.011 C 
ENDBRANCH  19  26
ENDBRANCH  17  18
ENDBRANCH  13  17
ENDBRANCH   1  10
BRANCH   8  28
HETATM   28  C18 UNL     1      16.473 -23.540 -56.148  1.00  0.00     0.081 C 
BRANCH  28  29
HETATM   29  C19 UNL     1      17.403 -23.714 -55.028  1.00  0.00    -0.025 A 
HETATM   30  C20 UNL     1      17.071 -24.439 -53.851  1.00  0.00     0.096 A 
HETATM   31  N4  UNL     1      17.988 -24.226 -52.924  1.00  0.00    -0.365 N 
HETATM   32  C21 UNL     1      18.945 -23.385 -53.413  1.00  0.00     0.043 A 
ATOM     33  H4  UNL     1      17.982 -24.629 -51.987  1.00  0.00     0.165 HD
HETATM   34  C22 UNL     1      20.067 -22.858 -52.837  1.00  0.00     0.030 A 
HETATM   35  C28 UNL     1      18.574 -23.077 -54.727  1.00  0.00     0.011 A 
HETATM   36  C23 UNL     1      20.855 -22.015 -53.556  1.00  0.00     0.003 A 
HETATM   37  C24 UNL     1      20.507 -21.715 -54.850  1.00  0.00     0.015 A 
HETATM   38  C25 UNL     1      19.362 -22.229 -55.499  1.00  0.00     0.008 A 
BRANCH  38  39
HETATM   39  C26 UNL     1      19.181 -22.083 -56.927  1.00  0.00     0.077 C 
BRANCH  39  40
HETATM   40  O1  UNL     1      19.921 -22.827 -57.840  1.00  0.00    -0.362 OA
ATOM     41  H1  UNL     1      19.710 -23.733 -58.036  1.00  0.00     0.217 HD
ENDBRANCH  39  40
BRANCH  39  42
HETATM   42  C27 UNL     1      18.212 -21.111 -57.494  1.00  0.00     0.229 C 
BRANCH  42  43
HETATM   43  O2  UNL     1      18.604 -19.784 -57.490  1.00  0.00    -0.394 OA
ATOM     44  H2  UNL     1      18.971 -19.458 -56.677  1.00  0.00     0.209 HD
ENDBRANCH  42  43
ENDBRANCH  39  42
ENDBRANCH  38  39
ENDBRANCH  28  29
ENDBRANCH   8  28
TORSDOF 10
ENDMDL
MODEL 2
REMARK VINA RESULT: -8.446121339      1.113      2.043
REMARK  10 active torsions:
REMARK  status: ('A' for Active; 'I' for Inactive)
REMARK    1  A    between atoms: C2_2  and  C3_3 
REMARK    2  A    between atoms: N2_10  and  C7_11 
REMARK    3  A    between atoms: C7_11  and  C8_12 
REMARK    4  A    between atoms: C11_15  and  C12_16 
REMARK    5  A    between atoms: C17_23  and  C18_24 
REMARK    6  A    between atoms: C18_24  and  C19_25 
REMARK    7  A    between atoms: C25_33  and  C26_34 
REMARK    8  A    between atoms: C26_34  and  O1_35 
REMARK    9  A    between atoms: C26_34  and  C27_37 
REMARK   10  A    between atoms: C27_37  and  O2_38 
ROOT
HETATM    1  C12 UNL     1      14.012 -26.669 -56.271  1.00  0.00    -0.024 A 
HETATM    2  C13 UNL     1      14.702 -27.614 -56.969  1.00  0.00     0.036 A 
HETATM    3  C14 UNL     1      15.941 -27.276 -57.451  1.00  0.00     0.067 A 
HETATM    4  C15 UNL     1      16.673 -28.265 -58.194  1.00  0.00     0.101 C 
HETATM    5  N3  UNL     1      17.242 -29.059 -58.798  1.00  0.00    -0.191 NA
HETATM    6  C16 UNL     1      16.495 -26.001 -57.243  1.00  0.00     0.061 A 
HETATM    7 CL2  UNL     1      18.083 -25.701 -57.894  1.00  0.00    -0.082 Cl
HETATM    8  C17 UNL     1      15.805 -25.058 -56.546  1.00  0.00    -0.030 A 
HETATM    9  C29 UNL     1      14.550 -25.414 -56.063  1.00  0.00     0.021 A 
ENDROOT
BRANCH   1  10
HETATM   10  C11 UNL     1      12.704 -26.963 -55.691  1.00  0.00    -0.023 A 
HETATM   11  C10 UNL     1      12.419 -26.687 -54.367  1.00  0.00     0.013 A 
HETATM   12  C9  UNL     1      11.187 -26.950 -53.824  1.00  0.00     0.017 A 
HETATM   13  C8  UNL     1      10.149 -27.514 -54.582  1.00  0.00     0.018 A 
HETATM   14  C31 UNL     1      10.417 -27.789 -55.878  1.00  0.00     0.128 A 
HETATM   15  C30 UNL     1      11.686 -27.516 -56.431  1.00  0.00     0.055 A 
HETATM   16  F1  UNL     1       9.482 -28.345 -56.679  1.00  0.00    -0.205 F 
BRANCH  13  17
HETATM   17  C7  UNL     1       8.873 -27.737 -53.888  1.00  0.00     0.113 C 
BRANCH  17  18
HETATM   18  N2  UNL     1       8.514 -29.047 -53.508  1.00  0.00    -0.312 N 
HETATM   19  C3  UNL     1       8.973 -29.751 -52.457  1.00  0.00     0.056 A 
HETATM   20  C4  UNL     1       8.355 -30.989 -52.497  1.00  0.00     0.128 A 
HETATM   21 CL1  UNL     1       8.546 -32.340 -51.396  1.00  0.00    -0.062 Cl
HETATM   22  N1  UNL     1       7.544 -30.997 -53.563  1.00  0.00    -0.335 N 
HETATM   23  C5  UNL     1       7.625 -29.822 -54.196  1.00  0.00     0.085 A 
ATOM     24  H1  UNL     1       6.956 -31.780 -53.849  1.00  0.00     0.168 HD
HETATM   25  C6  UNL     1       6.873 -29.447 -55.424  1.00  0.00     0.089 C 
BRANCH  19  26
HETATM   26  C2  UNL     1       9.944 -29.354 -51.392  1.00  0.00     0.056 C 
HETATM   27  C1  UNL     1      11.320 -29.908 -51.610  1.00  0.00     0.011 C 
ENDBRANCH  19  26
ENDBRANCH  17  18
ENDBRANCH  13  17
ENDBRANCH   1  10
BRANCH   8  28
HETATM   28  C18 UNL     1      16.323 -23.657 -56.233  1.00  0.00     0.081 C 
BRANCH  28  29
HETATM   29  C19 UNL     1      17.222 -23.807 -55.085  1.00  0.00    -0.025 A 
HETATM   30  C20 UNL     1      16.868 -24.530 -53.914  1.00  0.00     0.096 A 
HETATM   31  N4  UNL     1      17.754 -24.295 -52.962  1.00  0.00    -0.365 N 
HETATM   32  C21 UNL     1      18.710 -23.441 -53.428  1.00  0.00     0.043 A 
ATOM     33  H4  UNL     1      17.727 -24.692 -52.022  1.00  0.00     0.165 HD
HETATM   34  C22 UNL     1      19.805 -22.890 -52.823  1.00  0.00     0.030 A 
HETATM   35  C28 UNL     1      18.373 -23.148 -54.755  1.00  0.00     0.011 A 
HETATM   36  C23 UNL     1      20.599 -22.039 -53.524  1.00  0.00     0.003 A 
HETATM   37  C24 UNL     1      20.285 -21.753 -54.830  1.00  0.00     0.015 A 
HETATM   38  C25 UNL     1      19.169 -22.291 -55.509  1.00  0.00     0.008 A 
BRANCH  38  39
HETATM   39  C26 UNL     1      19.028 -22.158 -56.943  1.00  0.00     0.077 C 
BRANCH  39  40
HETATM   40  O1  UNL     1      19.828 -22.873 -57.828  1.00  0.00    -0.362 OA
ATOM     41  H1  UNL     1      19.539 -23.692 -58.214  1.00  0.00     0.217 HD
ENDBRANCH  39  40
BRANCH  39  42
HETATM   42  C27 UNL     1      18.037 -21.230 -57.545  1.00  0.00     0.229 C 
BRANCH  42  43
HETATM   43  O2  UNL     1      18.328 -19.881 -57.451  1.00  0.00    -0.394 OA
ATOM     44  H2  UNL     1      17.584 -19.293 -57.405  1.00  0.00     0.209 HD
ENDBRANCH  42  43
ENDBRANCH  39  42
ENDBRANCH  38  39
ENDBRANCH  28  29
ENDBRANCH   8  28
TORSDOF 10
ENDMDL
MODEL 3
REMARK VINA RESULT: -8.228983597      4.915     10.706
REMARK  10 active torsions:
REMARK  status: ('A' for Active; 'I' for Inactive)
REMARK    1  A    between atoms: C2_2  and  C3_3 
REMARK    2  A    between atoms: N2_10  and  C7_11 
REMARK    3  A    between atoms: C7_11  and  C8_12 
REMARK    4  A    between atoms: C11_15  and  C12_16 
REMARK    5  A    between atoms: C17_23  and  C18_24 
REMARK    6  A    between atoms: C18_24  and  C19_25 
REMARK    7  A    between atoms: C25_33  and  C26_34 
REMARK    8  A    between atoms: C26_34  and  O1_35 
REMARK    9  A    between atoms: C26_34  and  C27_37 
REMARK   10  A    between atoms: C27_37  and  O2_38 
ROOT
HETATM    1  C12 UNL     1      18.756 -27.311 -52.638  1.00  0.00    -0.024 A 
HETATM    2  C13 UNL     1      19.142 -28.403 -51.922  1.00  0.00     0.036 A 
HETATM    3  C14 UNL     1      18.540 -29.602 -52.209  1.00  0.00     0.067 A 
HETATM    4  C15 UNL     1      18.938 -30.759 -51.452  1.00  0.00     0.101 C 
HETATM    5  N3  UNL     1      19.253 -31.672 -50.832  1.00  0.00    -0.191 NA
HETATM    6  C16 UNL     1      17.556 -29.717 -53.204  1.00  0.00     0.061 A 
HETATM    7 CL2  UNL     1      16.879 -31.299 -53.482  1.00  0.00    -0.082 Cl
HETATM    8  C17 UNL     1      17.171 -28.626 -53.919  1.00  0.00    -0.030 A 
HETATM    9  C29 UNL     1      17.789 -27.417 -53.618  1.00  0.00     0.021 A 
ENDROOT
BRANCH   1  10
HETATM   10  C11 UNL     1      19.377 -26.006 -52.422  1.00  0.00    -0.023 A 
HETATM   11  C10 UNL     1      20.739 -25.874 -52.227  1.00  0.00     0.013 A 
HETATM   12  C9  UNL     1      21.325 -24.648 -52.038  1.00  0.00     0.017 A 
HETATM   13  C8  UNL     1      20.573 -23.462 -52.029  1.00  0.00     0.018 A 
HETATM   14  C31 UNL     1      19.240 -23.580 -52.216  1.00  0.00     0.128 A 
HETATM   15  C30 UNL     1      18.643 -24.843 -52.412  1.00  0.00     0.055 A 
HETATM   16  F1  UNL     1      18.438 -22.493 -52.211  1.00  0.00    -0.205 F 
BRANCH  13  17
HETATM   17  C7  UNL     1      21.320 -22.211 -51.826  1.00  0.00     0.113 C 
BRANCH  17  18
HETATM   18  N2  UNL     1      22.243 -21.793 -52.805  1.00  0.00    -0.312 N 
HETATM   19  C3  UNL     1      23.543 -21.490 -52.631  1.00  0.00     0.056 A 
HETATM   20  C4  UNL     1      24.040 -21.114 -53.867  1.00  0.00     0.128 A 
HETATM   21 CL1  UNL     1      25.668 -20.607 -54.279  1.00  0.00    -0.062 Cl
HETATM   22  N1  UNL     1      23.035 -21.200 -54.746  1.00  0.00    -0.335 N 
HETATM   23  C5  UNL     1      21.927 -21.613 -54.121  1.00  0.00     0.085 A 
ATOM     24  H1  UNL     1      23.103 -20.983 -55.740  1.00  0.00     0.168 HD
HETATM   25  C6  UNL     1      20.602 -21.831 -54.762  1.00  0.00     0.089 C 
BRANCH  19  26
HETATM   26  C2  UNL     1      24.377 -21.540 -51.392  1.00  0.00     0.056 C 
HETATM   27  C1  UNL     1      25.373 -22.661 -51.395  1.00  0.00     0.011 C 
ENDBRANCH  19  26
ENDBRANCH  17  18
ENDBRANCH  13  17
ENDBRANCH   1  10
BRANCH   8  28
HETATM   28  C18 UNL     1      16.137 -28.644 -55.043  1.00  0.00     0.081 C 
BRANCH  28  29
HETATM   29  C19 UNL     1      16.622 -27.696 -56.051  1.00  0.00    -0.025 A 
HETATM   30  C20 UNL     1      17.732 -27.968 -56.898  1.00  0.00     0.096 A 
HETATM   31  N4  UNL     1      18.094 -26.861 -57.523  1.00  0.00    -0.365 N 
HETATM   32  C21 UNL     1      17.278 -25.836 -57.146  1.00  0.00     0.043 A 
ATOM     33  H4  UNL     1      18.865 -26.786 -58.186  1.00  0.00     0.165 HD
HETATM   34  C22 UNL     1      17.266 -24.513 -57.493  1.00  0.00     0.030 A 
HETATM   35  C28 UNL     1      16.360 -26.368 -56.233  1.00  0.00     0.011 A 
HETATM   36  C23 UNL     1      16.336 -23.686 -56.946  1.00  0.00     0.003 A 
HETATM   37  C24 UNL     1      15.423 -24.200 -56.058  1.00  0.00     0.015 A 
HETATM   38  C25 UNL     1      15.384 -25.556 -55.663  1.00  0.00     0.008 A 
BRANCH  38  39
HETATM   39  C26 UNL     1      14.258 -26.090 -54.928  1.00  0.00     0.077 C 
BRANCH  39  40
HETATM   40  O1  UNL     1      14.246 -26.140 -53.538  1.00  0.00    -0.362 OA
ATOM     41  H1  UNL     1      14.504 -25.395 -53.008  1.00  0.00     0.217 HD
ENDBRANCH  39  40
BRANCH  39  42
HETATM   42  C27 UNL     1      13.065 -26.639 -55.623  1.00  0.00     0.229 C 
BRANCH  42  43
HETATM   43  O2  UNL     1      12.394 -25.768 -56.463  1.00  0.00    -0.394 OA
ATOM     44  H2  UNL     1      11.469 -25.642 -56.284  1.00  0.00     0.209 HD
ENDBRANCH  42  43
ENDBRANCH  39  42
ENDBRANCH  38  39
ENDBRANCH  28  29
ENDBRANCH   8  28
TORSDOF 10
ENDMDL
MODEL 4
REMARK VINA RESULT: -8.091811297      3.811      9.741
REMARK  10 active torsions:
REMARK  status: ('A' for Active; 'I' for Inactive)
REMARK    1  A    between atoms: C2_2  and  C3_3 
REMARK    2  A    between atoms: N2_10  and  C7_11 
REMARK    3  A    between atoms: C7_11  and  C8_12 
REMARK    4  A    between atoms: C11_15  and  C12_16 
REMARK    5  A    between atoms: C17_23  and  C18_24 
REMARK    6  A    between atoms: C18_24  and  C19_25 
REMARK    7  A    between atoms: C25_33  and  C26_34 
REMARK    8  A    between atoms: C26_34  and  O1_35 
REMARK    9  A    between atoms: C26_34  and  C27_37 
REMARK   10  A    between atoms: C27_37  and  O2_38 
ROOT
HETATM    1  C12 UNL     1      15.296 -28.593 -56.648  1.00  0.00    -0.024 A 
HETATM    2  C13 UNL     1      15.639 -29.463 -57.639  1.00  0.00     0.036 A 
HETATM    3  C14 UNL     1      15.181 -30.752 -57.545  1.00  0.00     0.067 A 
HETATM    4  C15 UNL     1      15.545 -31.678 -58.583  1.00  0.00     0.101 C 
HETATM    5  N3  UNL     1      15.853 -32.411 -59.411  1.00  0.00    -0.191 NA
HETATM    6  C16 UNL     1      14.386 -31.180 -56.468  1.00  0.00     0.061 A 
HETATM    7 CL2  UNL     1      13.857 -32.840 -56.473  1.00  0.00    -0.082 Cl
HETATM    8  C17 UNL     1      14.045 -30.311 -55.479  1.00  0.00    -0.030 A 
HETATM    9  C29 UNL     1      14.514 -29.006 -55.587  1.00  0.00     0.021 A 
ENDROOT
BRANCH   1  10
HETATM   10  C11 UNL     1      15.709 -27.192 -56.695  1.00  0.00    -0.023 A 
HETATM   11  C10 UNL     1      14.942 -26.190 -56.131  1.00  0.00     0.013 A 
HETATM   12  C9  UNL     1      15.335 -24.877 -56.161  1.00  0.00     0.017 A 
HETATM   13  C8  UNL     1      16.536 -24.477 -56.769  1.00  0.00     0.018 A 
HETATM   14  C31 UNL     1      17.293 -25.449 -57.325  1.00  0.00     0.128 A 
HETATM   15  C30 UNL     1      16.885 -26.798 -57.289  1.00  0.00     0.055 A 
HETATM   16  F1  UNL     1      18.458 -25.155 -57.942  1.00  0.00    -0.205 F 
BRANCH  13  17
HETATM   17  C7  UNL     1      16.849 -23.042 -56.727  1.00  0.00     0.113 C 
BRANCH  17  18
HETATM   18  N2  UNL     1      18.081 -22.620 -56.186  1.00  0.00    -0.312 N 
HETATM   19  C3  UNL     1      18.560 -22.859 -54.951  1.00  0.00     0.056 A 
HETATM   20  C4  UNL     1      19.793 -22.234 -54.867  1.00  0.00     0.128 A 
HETATM   21 CL1  UNL     1      20.899 -22.185 -53.508  1.00  0.00    -0.062 Cl
HETATM   22  N1  UNL     1      20.023 -21.641 -56.045  1.00  0.00    -0.335 N 
HETATM   23  C5  UNL     1      18.991 -21.863 -56.867  1.00  0.00     0.085 A 
ATOM     24  H1  UNL     1      20.856 -21.102 -56.280  1.00  0.00     0.168 HD
HETATM   25  C6  UNL     1      18.877 -21.367 -58.265  1.00  0.00     0.089 C 
BRANCH  19  26
HETATM   26  C2  UNL     1      17.962 -23.647 -53.831  1.00  0.00     0.056 C 
HETATM   27  C1  UNL     1      18.516 -25.036 -53.726  1.00  0.00     0.011 C 
ENDBRANCH  19  26
ENDBRANCH  17  18
ENDBRANCH  13  17
ENDBRANCH   1  10
BRANCH   8  28
HETATM   28  C18 UNL     1      13.160 -30.659 -54.284  1.00  0.00     0.081 C 
BRANCH  28  29
HETATM   29  C19 UNL     1      11.823 -30.156 -54.613  1.00  0.00    -0.025 A 
HETATM   30  C20 UNL     1      11.050 -30.663 -55.693  1.00  0.00     0.096 A 
HETATM   31  N4  UNL     1      10.013 -29.872 -55.906  1.00  0.00    -0.365 N 
HETATM   32  C21 UNL     1      10.035 -28.840 -55.015  1.00  0.00     0.043 A 
ATOM     33  H4  UNL     1       9.305 -30.012 -56.627  1.00  0.00     0.165 HD
HETATM   34  C22 UNL     1       9.204 -27.767 -54.851  1.00  0.00     0.030 A 
HETATM   35  C28 UNL     1      11.163 -29.030 -54.209  1.00  0.00     0.011 A 
HETATM   36  C23 UNL     1       9.469 -26.858 -53.876  1.00  0.00     0.003 A 
HETATM   37  C24 UNL     1      10.566 -27.041 -53.071  1.00  0.00     0.015 A 
HETATM   38  C25 UNL     1      11.460 -28.128 -53.191  1.00  0.00     0.008 A 
BRANCH  38  39
HETATM   39  C26 UNL     1      12.445 -28.406 -52.168  1.00  0.00     0.077 C 
BRANCH  39  40
HETATM   40  O1  UNL     1      12.144 -29.176 -51.050  1.00  0.00    -0.362 OA
ATOM     41  H1  UNL     1      12.809 -29.422 -50.417  1.00  0.00     0.217 HD
ENDBRANCH  39  40
BRANCH  39  42
HETATM   42  C27 UNL     1      13.824 -27.860 -52.246  1.00  0.00     0.229 C 
BRANCH  42  43
HETATM   43  O2  UNL     1      13.941 -26.560 -52.705  1.00  0.00    -0.394 OA
ATOM     44  H2  UNL     1      13.820 -25.874 -52.059  1.00  0.00     0.209 HD
ENDBRANCH  42  43
ENDBRANCH  39  42
ENDBRANCH  38  39
ENDBRANCH  28  29
ENDBRANCH   8  28
TORSDOF 10
ENDMDL
MODEL 5
REMARK VINA RESULT: -8.032462023      3.230      4.985
REMARK  10 active torsions:
REMARK  status: ('A' for Active; 'I' for Inactive)
REMARK    1  A    between atoms: C2_2  and  C3_3 
REMARK    2  A    between atoms: N2_10  and  C7_11 
REMARK    3  A    between atoms: C7_11  and  C8_12 
REMARK    4  A    between atoms: C11_15  and  C12_16 
REMARK    5  A    between atoms: C17_23  and  C18_24 
REMARK    6  A    between atoms: C18_24  and  C19_25 
REMARK    7  A    between atoms: C25_33  and  C26_34 
REMARK    8  A    between atoms: C26_34  and  O1_35 
REMARK    9  A    between atoms: C26_34  and  C27_37 
REMARK   10  A    between atoms: C27_37  and  O2_38 
ROOT
HETATM    1  C12 UNL     1      16.508 -24.276 -56.020  1.00  0.00    -0.024 A 
HETATM    2  C13 UNL     1      17.198 -23.575 -56.962  1.00  0.00     0.036 A 
HETATM    3  C14 UNL     1      18.226 -22.773 -56.537  1.00  0.00     0.067 A 
HETATM    4  C15 UNL     1      18.955 -22.024 -57.525  1.00  0.00     0.101 C 
HETATM    5  N3  UNL     1      19.521 -21.421 -58.323  1.00  0.00    -0.191 NA
HETATM    6  C16 UNL     1      18.569 -22.664 -55.179  1.00  0.00     0.061 A 
HETATM    7 CL2  UNL     1      19.905 -21.622 -54.771  1.00  0.00    -0.082 Cl
HETATM    8  C17 UNL     1      17.879 -23.364 -54.239  1.00  0.00    -0.030 A 
HETATM    9  C29 UNL     1      16.839 -24.174 -54.682  1.00  0.00     0.021 A 
ENDROOT
BRANCH   1  10
HETATM   10  C11 UNL     1      15.426 -25.184 -56.393  1.00  0.00    -0.023 A 
HETATM   11  C10 UNL     1      15.670 -26.495 -56.754  1.00  0.00     0.013 A 
HETATM   12  C9  UNL     1      14.654 -27.352 -57.092  1.00  0.00     0.017 A 
HETATM   13  C8  UNL     1      13.310 -26.944 -57.091  1.00  0.00     0.018 A 
HETATM   14  C31 UNL     1      13.060 -25.663 -56.742  1.00  0.00     0.128 A 
HETATM   15  C30 UNL     1      14.109 -24.786 -56.394  1.00  0.00     0.055 A 
HETATM   16  F1  UNL     1      11.799 -25.180 -56.726  1.00  0.00    -0.205 F 
BRANCH  13  17
HETATM   17  C7  UNL     1      12.314 -27.959 -57.463  1.00  0.00     0.113 C 
BRANCH  17  18
HETATM   18  N2  UNL     1      11.892 -28.896 -56.498  1.00  0.00    -0.312 N 
HETATM   19  C3  UNL     1      10.900 -28.758 -55.599  1.00  0.00     0.056 A 
HETATM   20  C4  UNL     1      10.865 -29.923 -54.852  1.00  0.00     0.128 A 
HETATM   21 CL1  UNL     1       9.790 -30.339 -53.531  1.00  0.00    -0.062 Cl
HETATM   22  N1  UNL     1      11.829 -30.727 -55.318  1.00  0.00    -0.335 N 
HETATM   23  C5  UNL     1      12.469 -30.121 -56.324  1.00  0.00     0.085 A 
ATOM     24  H1  UNL     1      12.042 -31.658 -54.962  1.00  0.00     0.168 HD
HETATM   25  C6  UNL     1      13.602 -30.695 -57.099  1.00  0.00     0.089 C 
BRANCH  19  26
HETATM   26  C2  UNL     1       9.956 -27.619 -55.386  1.00  0.00     0.056 C 
HETATM   27  C1  UNL     1      10.289 -26.794 -54.178  1.00  0.00     0.011 C 
ENDBRANCH  19  26
ENDBRANCH  17  18
ENDBRANCH  13  17
ENDBRANCH   1  10
BRANCH   8  28
HETATM   28  C18 UNL     1      18.187 -23.346 -52.743  1.00  0.00     0.081 C 
BRANCH  28  29
HETATM   29  C19 UNL     1      19.251 -24.334 -52.539  1.00  0.00    -0.025 A 
HETATM   30  C20 UNL     1      20.627 -23.985 -52.459  1.00  0.00     0.096 A 
HETATM   31  N4  UNL     1      21.367 -25.078 -52.522  1.00  0.00    -0.365 N 
HETATM   32  C21 UNL     1      20.558 -26.171 -52.639  1.00  0.00     0.043 A 
ATOM     33  H4  UNL     1      22.386 -25.101 -52.488  1.00  0.00     0.165 HD
HETATM   34  C22 UNL     1      20.846 -27.502 -52.760  1.00  0.00     0.030 A 
HETATM   35  C28 UNL     1      19.241 -25.697 -52.642  1.00  0.00     0.011 A 
HETATM   36  C23 UNL     1      19.832 -28.398 -52.881  1.00  0.00     0.003 A 
HETATM   37  C24 UNL     1      18.535 -27.945 -52.873  1.00  0.00     0.015 A 
HETATM   38  C25 UNL     1      18.175 -26.585 -52.750  1.00  0.00     0.008 A 
BRANCH  38  39
HETATM   39  C26 UNL     1      16.806 -26.191 -52.496  1.00  0.00     0.077 C 
BRANCH  39  40
HETATM   40  O1  UNL     1      16.493 -25.121 -51.665  1.00  0.00    -0.362 OA
ATOM     41  H1  UNL     1      15.712 -25.119 -51.123  1.00  0.00     0.217 HD
ENDBRANCH  39  40
BRANCH  39  42
HETATM   42  C27 UNL     1      15.661 -26.928 -53.091  1.00  0.00     0.229 C 
BRANCH  42  43
HETATM   43  O2  UNL     1      14.441 -26.276 -53.074  1.00  0.00    -0.394 OA
ATOM     44  H2  UNL     1      14.319 -25.632 -52.387  1.00  0.00     0.209 HD
ENDBRANCH  42  43
ENDBRANCH  39  42
ENDBRANCH  38  39
ENDBRANCH  28  29
ENDBRANCH   8  28
TORSDOF 10
ENDMDL
