MODEL 1
REMARK VINA RESULT: -7.948247840      0.000      0.000
REMARK  11 active torsions:
REMARK  status: ('A' for Active; 'I' for Inactive)
REMARK    1  A    between atoms: O1_2  and  C2_3 
REMARK    2  A    between atoms: C8_11  and  N2_12 
REMARK    3  A    between atoms: N2_12  and  C9_14 
REMARK    4  A    between atoms: C9_14  and  C10_15 
REMARK    5  A    between atoms: C10_15  and  N3_16 
REMARK    6  A    between atoms: N3_16  and  C11_17 
REMARK    7  A    between atoms: N3_16  and  C27_40 
REMARK    8  A    between atoms: C11_17  and  C12_18 
REMARK    9  A    between atoms: N4_19  and  C13_21 
REMARK   10  A    between atoms: C21_31  and  C22_32 
REMARK   11  A    between atoms: C27_40  and  C29_42 
ROOT
HETATM    1  N3  UNL     1      16.761 -28.162 -53.813  1.00  0.00    -0.382 N 
ENDROOT
BRANCH   1   2
HETATM    2  C10 UNL     1      15.849 -29.226 -53.712  1.00  0.00     0.142 C 
BRANCH   2   3
HETATM    3  C9  UNL     1      14.400 -28.763 -53.909  1.00  0.00     0.139 C 
BRANCH   3   4
HETATM    4  N2  UNL     1      14.071 -28.682 -55.294  1.00  0.00    -0.388 N 
ATOM      5  H2  UNL     1      14.297 -29.516 -55.836  1.00  0.00     0.159 HD
BRANCH   4   6
HETATM    6  C8  UNL     1      13.545 -27.743 -55.959  1.00  0.00     0.042 A 
HETATM    7  C7  UNL     1      12.514 -26.966 -55.475  1.00  0.00     0.047 A 
HETATM    8  C6  UNL     1      12.027 -25.964 -56.289  1.00  0.00     0.090 A 
HETATM    9  N1  UNL     1      12.546 -25.757 -57.516  1.00  0.00    -0.365 N 
HETATM   10  C5  UNL     1      13.551 -26.511 -57.993  1.00  0.00     0.044 A 
ATOM     11  H1  UNL     1      12.167 -25.008 -58.097  1.00  0.00     0.165 HD
HETATM   12  C4  UNL     1      14.078 -26.283 -59.267  1.00  0.00     0.033 A 
HETATM   13  C32 UNL     1      14.085 -27.525 -57.239  1.00  0.00     0.020 A 
HETATM   14  C3  UNL     1      15.123 -27.082 -59.737  1.00  0.00     0.039 A 
HETATM   15  C2  UNL     1      15.660 -28.101 -58.980  1.00  0.00     0.069 A 
HETATM   16  C33 UNL     1      15.116 -28.296 -57.732  1.00  0.00     0.052 A 
BRANCH  15  17
HETATM   17  O1  UNL     1      16.691 -28.843 -59.522  1.00  0.00    -0.356 OA
HETATM   18  C1  UNL     1      16.910 -30.215 -59.255  1.00  0.00     0.210 C 
ENDBRANCH  15  17
ENDBRANCH   4   6
ENDBRANCH   3   4
ENDBRANCH   2   3
ENDBRANCH   1   2
BRANCH   1  19
HETATM   19  C11 UNL     1      16.384 -27.085 -52.992  1.00  0.00     0.103 C 
BRANCH  19  20
HETATM   20  C12 UNL     1      17.423 -26.163 -52.455  1.00  0.00     0.105 C 
HETATM   21  N4  UNL     1      17.680 -24.959 -53.014  1.00  0.00    -0.363 N 
ATOM     22  H4  UNL     1      17.242 -24.337 -52.334  1.00  0.00     0.165 HD
BRANCH  21  23
HETATM   23  C13 UNL     1      18.102 -24.156 -53.813  1.00  0.00     0.057 A 
HETATM   24  C14 UNL     1      19.293 -23.472 -53.484  1.00  0.00     0.018 A 
HETATM   25  C15 UNL     1      19.958 -23.760 -52.321  1.00  0.00     0.016 A 
HETATM   26  C19 UNL     1      19.810 -22.532 -54.309  1.00  0.00     0.045 A 
HETATM   27  C16 UNL     1      21.117 -23.104 -52.008  1.00  0.00     0.001 A 
HETATM   28  C17 UNL     1      21.646 -22.144 -52.847  1.00  0.00     0.002 A 
HETATM   29  C18 UNL     1      20.993 -21.843 -54.019  1.00  0.00     0.030 A 
HETATM   30  N5  UNL     1      19.198 -22.220 -55.477  1.00  0.00    -0.354 N 
HETATM   31  C20 UNL     1      18.068 -22.832 -55.851  1.00  0.00     0.060 A 
ATOM     32  H5  UNL     1      19.605 -21.506 -56.081  1.00  0.00     0.166 HD
HETATM   33  C21 UNL     1      17.502 -22.463 -57.075  1.00  0.00     0.075 A 
HETATM   34  C26 UNL     1      17.518 -23.795 -55.031  1.00  0.00     0.019 A 
HETATM   35  C23 UNL     1      16.332 -23.142 -57.414  1.00  0.00     0.018 A 
HETATM   36  C24 UNL     1      15.783 -24.091 -56.618  1.00  0.00     0.002 A 
HETATM   37  C25 UNL     1      16.360 -24.433 -55.421  1.00  0.00     0.016 A 
BRANCH  33  38
HETATM   38  C22 UNL     1      18.054 -21.444 -57.973  1.00  0.00     0.419 C 
HETATM   39  F1  UNL     1      17.146 -21.290 -59.036  1.00  0.00    -0.166 F 
HETATM   40  F2  UNL     1      19.232 -21.814 -58.600  1.00  0.00    -0.166 F 
HETATM   41  F3  UNL     1      18.120 -20.174 -57.414  1.00  0.00    -0.166 F 
ENDBRANCH  33  38
ENDBRANCH  21  23
ENDBRANCH  19  20
ENDBRANCH   1  19
BRANCH   1  42
HETATM   42  C27 UNL     1      17.988 -28.266 -54.425  1.00  0.00     0.083 C 
HETATM   43  C28 UNL     1      18.982 -29.164 -53.675  1.00  0.00     0.033 C 
BRANCH  42  44
HETATM   44  C29 UNL     1      18.044 -28.580 -55.905  1.00  0.00    -0.000 C 
HETATM   45  C30 UNL     1      18.869 -29.766 -56.288  1.00  0.00     0.011 C 
HETATM   46  C31 UNL     1      18.454 -27.341 -56.700  1.00  0.00     0.011 C 
ENDBRANCH  42  44
ENDBRANCH   1  42
TORSDOF 11
ENDMDL
MODEL 2
REMARK VINA RESULT: -7.782159778      3.110      5.362
REMARK  11 active torsions:
REMARK  status: ('A' for Active; 'I' for Inactive)
REMARK    1  A    between atoms: O1_2  and  C2_3 
REMARK    2  A    between atoms: C8_11  and  N2_12 
REMARK    3  A    between atoms: N2_12  and  C9_14 
REMARK    4  A    between atoms: C9_14  and  C10_15 
REMARK    5  A    between atoms: C10_15  and  N3_16 
REMARK    6  A    between atoms: N3_16  and  C11_17 
REMARK    7  A    between atoms: N3_16  and  C27_40 
REMARK    8  A    between atoms: C11_17  and  C12_18 
REMARK    9  A    between atoms: N4_19  and  C13_21 
REMARK   10  A    between atoms: C21_31  and  C22_32 
REMARK   11  A    between atoms: C27_40  and  C29_42 
ROOT
HETATM    1  N3  UNL     1      15.258 -27.068 -56.043  1.00  0.00    -0.382 N 
ENDROOT
BRANCH   1   2
HETATM    2  C10 UNL     1      14.983 -28.446 -56.013  1.00  0.00     0.142 C 
BRANCH   2   3
HETATM    3  C9  UNL     1      14.263 -28.862 -54.725  1.00  0.00     0.139 C 
BRANCH   3   4
HETATM    4  N2  UNL     1      12.870 -28.570 -54.798  1.00  0.00    -0.388 N 
ATOM      5  H2  UNL     1      12.409 -28.893 -55.649  1.00  0.00     0.159 HD
BRANCH   4   6
HETATM    6  C8  UNL     1      12.112 -27.974 -53.978  1.00  0.00     0.042 A 
HETATM    7  C7  UNL     1      12.578 -27.352 -52.840  1.00  0.00     0.047 A 
HETATM    8  C6  UNL     1      11.657 -26.727 -52.025  1.00  0.00     0.090 A 
HETATM    9  N1  UNL     1      10.345 -26.729 -52.337  1.00  0.00    -0.365 N 
HETATM   10  C5  UNL     1       9.885 -27.335 -53.445  1.00  0.00     0.044 A 
ATOM     11  H1  UNL     1       9.685 -26.258 -51.716  1.00  0.00     0.165 HD
HETATM   12  C4  UNL     1       8.522 -27.327 -53.753  1.00  0.00     0.033 A 
HETATM   13  C32 UNL     1      10.744 -27.976 -54.301  1.00  0.00     0.020 A 
HETATM   14  C3  UNL     1       8.071 -27.965 -54.912  1.00  0.00     0.039 A 
HETATM   15  C2  UNL     1       8.933 -28.609 -55.773  1.00  0.00     0.069 A 
HETATM   16  C33 UNL     1      10.266 -28.595 -55.436  1.00  0.00     0.052 A 
BRANCH  15  17
HETATM   17  O1  UNL     1       8.403 -29.214 -56.896  1.00  0.00    -0.356 OA
HETATM   18  C1  UNL     1       8.097 -30.592 -56.987  1.00  0.00     0.210 C 
ENDBRANCH  15  17
ENDBRANCH   4   6
ENDBRANCH   3   4
ENDBRANCH   2   3
ENDBRANCH   1   2
BRANCH   1  19
HETATM   19  C11 UNL     1      16.284 -26.733 -55.144  1.00  0.00     0.103 C 
BRANCH  19  20
HETATM   20  C12 UNL     1      16.192 -25.475 -54.350  1.00  0.00     0.105 C 
HETATM   21  N4  UNL     1      16.957 -24.393 -54.618  1.00  0.00    -0.363 N 
ATOM     22  H4  UNL     1      16.272 -23.780 -55.059  1.00  0.00     0.165 HD
BRANCH  21  23
HETATM   23  C13 UNL     1      17.944 -23.696 -54.662  1.00  0.00     0.057 A 
HETATM   24  C14 UNL     1      18.106 -22.866 -55.793  1.00  0.00     0.018 A 
HETATM   25  C15 UNL     1      17.145 -22.829 -56.769  1.00  0.00     0.016 A 
HETATM   26  C19 UNL     1      19.202 -22.085 -55.935  1.00  0.00     0.045 A 
HETATM   27  C16 UNL     1      17.298 -22.018 -57.859  1.00  0.00     0.001 A 
HETATM   28  C17 UNL     1      18.415 -21.219 -58.007  1.00  0.00     0.002 A 
HETATM   29  C18 UNL     1      19.389 -21.243 -57.038  1.00  0.00     0.030 A 
HETATM   30  N5  UNL     1      20.175 -22.074 -54.993  1.00  0.00    -0.354 N 
HETATM   31  C20 UNL     1      20.083 -22.834 -53.895  1.00  0.00     0.060 A 
ATOM     32  H5  UNL     1      20.993 -21.478 -55.123  1.00  0.00     0.166 HD
HETATM   33  C21 UNL     1      21.124 -22.761 -52.963  1.00  0.00     0.075 A 
HETATM   34  C26 UNL     1      18.978 -23.642 -53.723  1.00  0.00     0.019 A 
HETATM   35  C23 UNL     1      20.965 -23.568 -51.837  1.00  0.00     0.018 A 
HETATM   36  C24 UNL     1      19.884 -24.363 -51.655  1.00  0.00     0.002 A 
HETATM   37  C25 UNL     1      18.878 -24.415 -52.587  1.00  0.00     0.016 A 
BRANCH  33  38
HETATM   38  C22 UNL     1      22.314 -21.918 -53.110  1.00  0.00     0.419 C 
HETATM   39  F1  UNL     1      23.434 -22.741 -52.897  1.00  0.00    -0.166 F 
HETATM   40  F2  UNL     1      22.440 -20.935 -52.143  1.00  0.00    -0.166 F 
HETATM   41  F3  UNL     1      22.506 -21.432 -54.397  1.00  0.00    -0.166 F 
ENDBRANCH  33  38
ENDBRANCH  21  23
ENDBRANCH  19  20
ENDBRANCH   1  19
BRANCH   1  42
HETATM   42  C27 UNL     1      14.773 -26.216 -57.007  1.00  0.00     0.083 C 
HETATM   43  C28 UNL     1      15.749 -25.971 -58.167  1.00  0.00     0.033 C 
BRANCH  42  44
HETATM   44  C29 UNL     1      13.383 -26.448 -57.558  1.00  0.00    -0.000 C 
HETATM   45  C30 UNL     1      13.251 -26.371 -59.045  1.00  0.00     0.011 C 
HETATM   46  C31 UNL     1      12.372 -25.534 -56.866  1.00  0.00     0.011 C 
ENDBRANCH  42  44
ENDBRANCH   1  42
TORSDOF 11
ENDMDL
MODEL 3
REMARK VINA RESULT: -7.726250153      2.502      3.742
REMARK  11 active torsions:
REMARK  status: ('A' for Active; 'I' for Inactive)
REMARK    1  A    between atoms: O1_2  and  C2_3 
REMARK    2  A    between atoms: C8_11  and  N2_12 
REMARK    3  A    between atoms: N2_12  and  C9_14 
REMARK    4  A    between atoms: C9_14  and  C10_15 
REMARK    5  A    between atoms: C10_15  and  N3_16 
REMARK    6  A    between atoms: N3_16  and  C11_17 
REMARK    7  A    between atoms: N3_16  and  C27_40 
REMARK    8  A    between atoms: C11_17  and  C12_18 
REMARK    9  A    between atoms: N4_19  and  C13_21 
REMARK   10  A    between atoms: C21_31  and  C22_32 
REMARK   11  A    between atoms: C27_40  and  C29_42 
ROOT
HETATM    1  N3  UNL     1      16.589 -27.916 -55.737  1.00  0.00    -0.382 N 
ENDROOT
BRANCH   1   2
HETATM    2  C10 UNL     1      15.337 -28.449 -55.386  1.00  0.00     0.142 C 
BRANCH   2   3
HETATM    3  C9  UNL     1      14.269 -27.359 -55.235  1.00  0.00     0.139 C 
BRANCH   3   4
HETATM    4  N2  UNL     1      13.023 -27.915 -54.823  1.00  0.00    -0.388 N 
ATOM      5  H2  UNL     1      12.754 -28.770 -55.311  1.00  0.00     0.159 HD
BRANCH   4   6
HETATM    6  C8  UNL     1      12.196 -27.519 -53.951  1.00  0.00     0.042 A 
HETATM    7  C7  UNL     1      12.579 -26.947 -52.757  1.00  0.00     0.047 A 
HETATM    8  C6  UNL     1      11.586 -26.545 -51.888  1.00  0.00     0.090 A 
HETATM    9  N1  UNL     1      10.284 -26.711 -52.202  1.00  0.00    -0.365 N 
HETATM   10  C5  UNL     1       9.905 -27.269 -53.364  1.00  0.00     0.044 A 
ATOM     11  H1  UNL     1       9.570 -26.404 -51.540  1.00  0.00     0.165 HD
HETATM   12  C4  UNL     1       8.553 -27.433 -53.673  1.00  0.00     0.033 A 
HETATM   13  C32 UNL     1      10.839 -27.691 -54.276  1.00  0.00     0.020 A 
HETATM   14  C3  UNL     1       8.187 -28.016 -54.889  1.00  0.00     0.039 A 
HETATM   15  C2  UNL     1       9.123 -28.440 -55.806  1.00  0.00     0.069 A 
HETATM   16  C33 UNL     1      10.444 -28.263 -55.467  1.00  0.00     0.052 A 
BRANCH  15  17
HETATM   17  O1  UNL     1       8.674 -29.006 -56.984  1.00  0.00    -0.356 OA
HETATM   18  C1  UNL     1       7.695 -30.025 -57.054  1.00  0.00     0.210 C 
ENDBRANCH  15  17
ENDBRANCH   4   6
ENDBRANCH   3   4
ENDBRANCH   2   3
ENDBRANCH   1   2
BRANCH   1  19
HETATM   19  C11 UNL     1      17.467 -27.908 -54.640  1.00  0.00     0.103 C 
BRANCH  19  20
HETATM   20  C12 UNL     1      17.544 -26.708 -53.761  1.00  0.00     0.105 C 
HETATM   21  N4  UNL     1      17.517 -25.449 -54.253  1.00  0.00    -0.363 N 
ATOM     22  H4  UNL     1      16.569 -25.167 -54.003  1.00  0.00     0.165 HD
BRANCH  21  23
HETATM   23  C13 UNL     1      17.911 -24.447 -54.802  1.00  0.00     0.057 A 
HETATM   24  C14 UNL     1      18.983 -23.750 -54.201  1.00  0.00     0.018 A 
HETATM   25  C15 UNL     1      19.574 -24.237 -53.065  1.00  0.00     0.016 A 
HETATM   26  C19 UNL     1      19.456 -22.601 -54.734  1.00  0.00     0.045 A 
HETATM   27  C16 UNL     1      20.618 -23.567 -52.488  1.00  0.00     0.001 A 
HETATM   28  C17 UNL     1      21.103 -22.393 -53.030  1.00  0.00     0.002 A 
HETATM   29  C18 UNL     1      20.523 -21.891 -54.170  1.00  0.00     0.030 A 
HETATM   30  N5  UNL     1      18.915 -22.084 -55.864  1.00  0.00    -0.354 N 
HETATM   31  C20 UNL     1      17.900 -22.695 -56.487  1.00  0.00     0.060 A 
ATOM     32  H5  UNL     1      19.287 -21.215 -56.247  1.00  0.00     0.166 HD
HETATM   33  C21 UNL     1      17.402 -22.105 -57.654  1.00  0.00     0.075 A 
HETATM   34  C26 UNL     1      17.396 -23.869 -55.966  1.00  0.00     0.019 A 
HETATM   35  C23 UNL     1      16.352 -22.793 -58.261  1.00  0.00     0.018 A 
HETATM   36  C24 UNL     1      15.851 -23.948 -57.761  1.00  0.00     0.002 A 
HETATM   37  C25 UNL     1      16.358 -24.503 -56.614  1.00  0.00     0.016 A 
BRANCH  33  38
HETATM   38  C22 UNL     1      17.908 -20.859 -58.237  1.00  0.00     0.419 C 
HETATM   39  F1  UNL     1      17.224 -20.660 -59.449  1.00  0.00    -0.166 F 
HETATM   40  F2  UNL     1      19.239 -20.905 -58.614  1.00  0.00    -0.166 F 
HETATM   41  F3  UNL     1      17.599 -19.724 -57.498  1.00  0.00    -0.166 F 
ENDBRANCH  33  38
ENDBRANCH  21  23
ENDBRANCH  19  20
ENDBRANCH   1  19
BRANCH   1  42
HETATM   42  C27 UNL     1      16.980 -27.682 -57.034  1.00  0.00     0.083 C 
HETATM   43  C28 UNL     1      18.499 -27.760 -57.248  1.00  0.00     0.033 C 
BRANCH  42  44
HETATM   44  C29 UNL     1      16.276 -28.414 -58.155  1.00  0.00    -0.000 C 
HETATM   45  C30 UNL     1      17.134 -29.314 -58.986  1.00  0.00     0.011 C 
HETATM   46  C31 UNL     1      15.496 -27.432 -59.030  1.00  0.00     0.011 C 
ENDBRANCH  42  44
ENDBRANCH   1  42
TORSDOF 11
ENDMDL
MODEL 4
REMARK VINA RESULT: -7.701786409      1.524      2.816
REMARK  11 active torsions:
REMARK  status: ('A' for Active; 'I' for Inactive)
REMARK    1  A    between atoms: O1_2  and  C2_3 
REMARK    2  A    between atoms: C8_11  and  N2_12 
REMARK    3  A    between atoms: N2_12  and  C9_14 
REMARK    4  A    between atoms: C9_14  and  C10_15 
REMARK    5  A    between atoms: C10_15  and  N3_16 
REMARK    6  A    between atoms: N3_16  and  C11_17 
REMARK    7  A    between atoms: N3_16  and  C27_40 
REMARK    8  A    between atoms: C11_17  and  C12_18 
REMARK    9  A    between atoms: N4_19  and  C13_21 
REMARK   10  A    between atoms: C21_31  and  C22_32 
REMARK   11  A    between atoms: C27_40  and  C29_42 
ROOT
HETATM    1  N3  UNL     1      18.460 -27.980 -54.484  1.00  0.00    -0.382 N 
ENDROOT
BRANCH   1   2
HETATM    2  C10 UNL     1      18.086 -27.645 -55.797  1.00  0.00     0.142 C 
BRANCH   2   3
HETATM    3  C9  UNL     1      17.666 -28.876 -56.608  1.00  0.00     0.139 C 
BRANCH   3   4
HETATM    4  N2  UNL     1      16.271 -28.847 -56.899  1.00  0.00    -0.388 N 
ATOM      5  H2  UNL     1      15.707 -29.502 -56.357  1.00  0.00     0.159 HD
BRANCH   4   6
HETATM    6  C8  UNL     1      15.619 -28.140 -57.722  1.00  0.00     0.042 A 
HETATM    7  C7  UNL     1      15.895 -28.111 -59.072  1.00  0.00     0.047 A 
HETATM    8  C6  UNL     1      15.110 -27.308 -59.873  1.00  0.00     0.090 A 
HETATM    9  N1  UNL     1      14.106 -26.577 -59.346  1.00  0.00    -0.365 N 
HETATM   10  C5  UNL     1      13.833 -26.601 -58.029  1.00  0.00     0.044 A 
ATOM     11  H1  UNL     1      13.540 -25.991 -59.961  1.00  0.00     0.165 HD
HETATM   12  C4  UNL     1      12.790 -25.837 -57.500  1.00  0.00     0.033 A 
HETATM   13  C32 UNL     1      14.573 -27.377 -57.174  1.00  0.00     0.020 A 
HETATM   14  C3  UNL     1      12.528 -25.881 -56.128  1.00  0.00     0.039 A 
HETATM   15  C2  UNL     1      13.270 -26.661 -55.268  1.00  0.00     0.069 A 
HETATM   16  C33 UNL     1      14.288 -27.398 -55.826  1.00  0.00     0.052 A 
BRANCH  15  17
HETATM   17  O1  UNL     1      12.943 -26.645 -53.926  1.00  0.00    -0.356 OA
HETATM   18  C1  UNL     1      13.658 -27.344 -52.925  1.00  0.00     0.210 C 
ENDBRANCH  15  17
ENDBRANCH   4   6
ENDBRANCH   3   4
ENDBRANCH   2   3
ENDBRANCH   1   2
BRANCH   1  19
HETATM   19  C11 UNL     1      17.516 -27.519 -53.551  1.00  0.00     0.103 C 
BRANCH  19  20
HETATM   20  C12 UNL     1      17.732 -26.217 -52.860  1.00  0.00     0.105 C 
HETATM   21  N4  UNL     1      17.730 -25.038 -53.522  1.00  0.00    -0.363 N 
ATOM     22  H4  UNL     1      16.823 -24.665 -53.241  1.00  0.00     0.165 HD
BRANCH  21  23
HETATM   23  C13 UNL     1      18.127 -24.148 -54.237  1.00  0.00     0.057 A 
HETATM   24  C14 UNL     1      19.278 -23.442 -53.822  1.00  0.00     0.018 A 
HETATM   25  C15 UNL     1      19.935 -23.801 -52.674  1.00  0.00     0.016 A 
HETATM   26  C19 UNL     1      19.763 -22.409 -54.548  1.00  0.00     0.045 A 
HETATM   27  C16 UNL     1      21.054 -23.123 -52.278  1.00  0.00     0.001 A 
HETATM   28  C17 UNL     1      21.552 -22.068 -53.017  1.00  0.00     0.002 A 
HETATM   29  C18 UNL     1      20.907 -21.695 -54.172  1.00  0.00     0.030 A 
HETATM   30  N5  UNL     1      19.159 -22.022 -55.697  1.00  0.00    -0.354 N 
HETATM   31  C20 UNL     1      18.066 -22.650 -56.149  1.00  0.00     0.060 A 
ATOM     32  H5  UNL     1      19.542 -21.239 -56.227  1.00  0.00     0.166 HD
HETATM   33  C21 UNL     1      17.505 -22.199 -57.349  1.00  0.00     0.075 A 
HETATM   34  C26 UNL     1      17.549 -23.707 -55.430  1.00  0.00     0.019 A 
HETATM   35  C23 UNL     1      16.376 -22.899 -57.772  1.00  0.00     0.018 A 
HETATM   36  C24 UNL     1      15.860 -23.940 -57.076  1.00  0.00     0.002 A 
HETATM   37  C25 UNL     1      16.431 -24.361 -55.902  1.00  0.00     0.016 A 
BRANCH  33  38
HETATM   38  C22 UNL     1      18.024 -21.080 -58.140  1.00  0.00     0.419 C 
HETATM   39  F1  UNL     1      17.158 -20.908 -59.235  1.00  0.00    -0.166 F 
HETATM   40  F2  UNL     1      19.254 -21.319 -58.730  1.00  0.00    -0.166 F 
HETATM   41  F3  UNL     1      17.972 -19.854 -57.488  1.00  0.00    -0.166 F 
ENDBRANCH  33  38
ENDBRANCH  21  23
ENDBRANCH  19  20
ENDBRANCH   1  19
BRANCH   1  42
HETATM   42  C27 UNL     1      19.471 -28.862 -54.182  1.00  0.00     0.083 C 
HETATM   43  C28 UNL     1      20.786 -28.182 -53.775  1.00  0.00     0.033 C 
BRANCH  42  44
HETATM   44  C29 UNL     1      19.184 -30.011 -53.240  1.00  0.00    -0.000 C 
HETATM   45  C30 UNL     1      19.983 -30.031 -51.977  1.00  0.00     0.011 C 
HETATM   46  C31 UNL     1      19.280 -31.346 -53.977  1.00  0.00     0.011 C 
ENDBRANCH  42  44
ENDBRANCH   1  42
TORSDOF 11
ENDMDL
MODEL 5
REMARK VINA RESULT: -7.591573378      1.722      2.931
REMARK  11 active torsions:
REMARK  status: ('A' for Active; 'I' for Inactive)
REMARK    1  A    between atoms: O1_2  and  C2_3 
REMARK    2  A    between atoms: C8_11  and  N2_12 
REMARK    3  A    between atoms: N2_12  and  C9_14 
REMARK    4  A    between atoms: C9_14  and  C10_15 
REMARK    5  A    between atoms: C10_15  and  N3_16 
REMARK    6  A    between atoms: N3_16  and  C11_17 
REMARK    7  A    between atoms: N3_16  and  C27_40 
REMARK    8  A    between atoms: C11_17  and  C12_18 
REMARK    9  A    between atoms: N4_19  and  C13_21 
REMARK   10  A    between atoms: C21_31  and  C22_32 
REMARK   11  A    between atoms: C27_40  and  C29_42 
ROOT
HETATM    1  N3  UNL     1      18.323 -28.047 -53.459  1.00  0.00    -0.382 N 
ENDROOT
BRANCH   1   2
HETATM    2  C10 UNL     1      17.939 -28.192 -54.803  1.00  0.00     0.142 C 
BRANCH   2   3
HETATM    3  C9  UNL     1      17.036 -29.412 -55.016  1.00  0.00     0.139 C 
BRANCH   3   4
HETATM    4  N2  UNL     1      15.961 -29.107 -55.902  1.00  0.00    -0.388 N 
ATOM      5  H2  UNL     1      15.032 -29.175 -55.487  1.00  0.00     0.159 HD
BRANCH   4   6
HETATM    6  C8  UNL     1      15.974 -28.766 -57.121  1.00  0.00     0.042 A 
HETATM    7  C7  UNL     1      16.927 -29.206 -58.015  1.00  0.00     0.047 A 
HETATM    8  C6  UNL     1      16.832 -28.773 -59.321  1.00  0.00     0.090 A 
HETATM    9  N1  UNL     1      15.839 -27.945 -59.705  1.00  0.00    -0.365 N 
HETATM   10  C5  UNL     1      14.908 -27.511 -58.837  1.00  0.00     0.044 A 
ATOM     11  H1  UNL     1      15.793 -27.640 -60.677  1.00  0.00     0.165 HD
HETATM   12  C4  UNL     1      13.886 -26.654 -59.251  1.00  0.00     0.033 A 
HETATM   13  C32 UNL     1      14.940 -27.902 -57.522  1.00  0.00     0.020 A 
HETATM   14  C3  UNL     1      12.931 -26.220 -58.328  1.00  0.00     0.039 A 
HETATM   15  C2  UNL     1      12.962 -26.611 -57.007  1.00  0.00     0.069 A 
HETATM   16  C33 UNL     1      13.982 -27.455 -56.637  1.00  0.00     0.052 A 
BRANCH  15  17
HETATM   17  O1  UNL     1      11.979 -26.134 -56.162  1.00  0.00    -0.356 OA
HETATM   18  C1  UNL     1      11.211 -26.948 -55.296  1.00  0.00     0.210 C 
ENDBRANCH  15  17
ENDBRANCH   4   6
ENDBRANCH   3   4
ENDBRANCH   2   3
ENDBRANCH   1   2
BRANCH   1  19
HETATM   19  C11 UNL     1      17.225 -27.718 -52.646  1.00  0.00     0.103 C 
BRANCH  19  20
HETATM   20  C12 UNL     1      17.009 -26.304 -52.230  1.00  0.00     0.105 C 
HETATM   21  N4  UNL     1      17.131 -25.270 -53.092  1.00  0.00    -0.363 N 
ATOM     22  H4  UNL     1      16.150 -25.033 -53.244  1.00  0.00     0.165 HD
BRANCH  21  23
HETATM   23  C13 UNL     1      17.672 -24.449 -53.796  1.00  0.00     0.057 A 
HETATM   24  C14 UNL     1      18.822 -23.808 -53.285  1.00  0.00     0.018 A 
HETATM   25  C15 UNL     1      19.319 -24.154 -52.056  1.00  0.00     0.016 A 
HETATM   26  C19 UNL     1      19.462 -22.851 -53.995  1.00  0.00     0.045 A 
HETATM   27  C16 UNL     1      20.438 -23.539 -51.566  1.00  0.00     0.001 A 
HETATM   28  C17 UNL     1      21.094 -22.562 -52.288  1.00  0.00     0.002 A 
HETATM   29  C18 UNL     1      20.610 -22.203 -53.523  1.00  0.00     0.030 A 
HETATM   30  N5  UNL     1      19.019 -22.482 -55.221  1.00  0.00    -0.354 N 
HETATM   31  C20 UNL     1      17.937 -23.052 -55.766  1.00  0.00     0.060 A 
ATOM     32  H5  UNL     1      19.517 -21.757 -55.738  1.00  0.00     0.166 HD
HETATM   33  C21 UNL     1      17.547 -22.623 -57.039  1.00  0.00     0.075 A 
HETATM   34  C26 UNL     1      17.263 -24.029 -55.065  1.00  0.00     0.019 A 
HETATM   35  C23 UNL     1      16.420 -23.261 -57.557  1.00  0.00     0.018 A 
HETATM   36  C24 UNL     1      15.752 -24.224 -56.880  1.00  0.00     0.002 A 
HETATM   37  C25 UNL     1      16.156 -24.624 -55.631  1.00  0.00     0.016 A 
BRANCH  33  38
HETATM   38  C22 UNL     1      18.235 -21.587 -57.815  1.00  0.00     0.419 C 
HETATM   39  F1  UNL     1      17.358 -21.182 -58.837  1.00  0.00    -0.166 F 
HETATM   40  F2  UNL     1      19.353 -22.033 -58.500  1.00  0.00    -0.166 F 
HETATM   41  F3  UNL     1      18.473 -20.416 -57.107  1.00  0.00    -0.166 F 
ENDBRANCH  33  38
ENDBRANCH  21  23
ENDBRANCH  19  20
ENDBRANCH   1  19
BRANCH   1  42
HETATM   42  C27 UNL     1      19.550 -28.433 -52.973  1.00  0.00     0.083 C 
HETATM   43  C28 UNL     1      20.611 -28.644 -54.062  1.00  0.00     0.033 C 
BRANCH  42  44
HETATM   44  C29 UNL     1      20.157 -27.662 -51.820  1.00  0.00    -0.000 C 
HETATM   45  C30 UNL     1      21.513 -27.084 -52.067  1.00  0.00     0.011 C 
HETATM   46  C31 UNL     1      20.138 -28.503 -50.544  1.00  0.00     0.011 C 
ENDBRANCH  42  44
ENDBRANCH   1  42
TORSDOF 11
ENDMDL
