MODEL 1
REMARK VINA RESULT: -8.047974927      0.000      0.000
REMARK  11 active torsions:
REMARK  status: ('A' for Active; 'I' for Inactive)
REMARK    1  A    between atoms: C2_2  and  O1_3 
REMARK    2  A    between atoms: O1_3  and  C3_4 
REMARK    3  A    between atoms: C6_7  and  C7_8 
REMARK    4  A    between atoms: C11_12  and  C12_13 
REMARK    5  A    between atoms: C13_14  and  C14_15 
REMARK    6  A    between atoms: C17_18  and  C18_19 
REMARK    7  A    between atoms: N1_20  and  N2_22 
REMARK    8  A    between atoms: N2_22  and  C19_24 
REMARK    9  A    between atoms: C19_24  and  N3_26 
REMARK   10  A    between atoms: N3_26  and  C20_28 
REMARK   11  A    between atoms: C23_31  and  C24_32 
ROOT
HETATM    1  C14 UNL     1      15.792 -26.805 -54.467  1.00  0.00     0.032 A 
HETATM    2  C15 UNL     1      14.691 -26.485 -53.735  1.00  0.00     0.030 A 
HETATM    3  C16 UNL     1      13.720 -27.430 -53.364  1.00  0.00     0.016 A 
HETATM    4  C17 UNL     1      13.869 -28.741 -53.744  1.00  0.00    -0.004 A 
HETATM    5  C27 UNL     1      14.999 -29.030 -54.486  1.00  0.00     0.101 A 
HETATM    6  N4  UNL     1      15.919 -28.111 -54.834  1.00  0.00    -0.365 N 
ATOM      7  H4  UNL     1      16.728 -28.399 -55.385  1.00  0.00     0.165 HD
ENDROOT
BRANCH   1   8
HETATM    8  C13 UNL     1      16.834 -25.867 -54.851  1.00  0.00     0.032 C 
HETATM    9  C12 UNL     1      16.757 -24.578 -54.659  1.00  0.00     0.034 C 
BRANCH   9  10
HETATM   10  C11 UNL     1      17.755 -23.599 -55.014  1.00  0.00     0.060 A 
HETATM   11  C10 UNL     1      18.963 -23.264 -54.429  1.00  0.00     0.020 A 
HETATM   12  C9  UNL     1      19.586 -23.682 -53.280  1.00  0.00     0.017 A 
HETATM   13  C28 UNL     1      19.625 -22.311 -55.186  1.00  0.00     0.061 A 
HETATM   14  C8  UNL     1      20.815 -23.158 -52.928  1.00  0.00     0.013 A 
HETATM   15  C7  UNL     1      21.480 -22.196 -53.699  1.00  0.00    -0.024 A 
HETATM   16  C29 UNL     1      20.849 -21.781 -54.844  1.00  0.00     0.044 A 
HETATM   17  N6  UNL     1      18.812 -22.074 -56.218  1.00  0.00    -0.299 N 
HETATM   18  N5  UNL     1      17.720 -22.807 -56.143  1.00  0.00    -0.299 N 
ATOM     19  H6  UNL     1      19.011 -21.411 -56.968  1.00  0.00     0.187 HD
ATOM     20  H5  UNL     1      16.958 -22.792 -56.821  1.00  0.00     0.187 HD
BRANCH  15  21
HETATM   21  C6  UNL     1      22.755 -21.729 -53.241  1.00  0.00    -0.026 A 
HETATM   22  C5  UNL     1      23.196 -21.825 -51.959  1.00  0.00     0.015 A 
HETATM   23  C4  UNL     1      24.440 -21.311 -51.569  1.00  0.00     0.037 A 
HETATM   24  C3  UNL     1      25.275 -20.686 -52.447  1.00  0.00     0.068 A 
HETATM   25  C31 UNL     1      24.820 -20.587 -53.769  1.00  0.00     0.037 A 
HETATM   26  C30 UNL     1      23.618 -21.089 -54.129  1.00  0.00     0.015 A 
BRANCH  24  27
HETATM   27  O1  UNL     1      26.508 -20.152 -52.163  1.00  0.00    -0.352 OA
BRANCH  27  28
HETATM   28  C2  UNL     1      27.697 -20.597 -52.719  1.00  0.00     0.171 C 
HETATM   29  C1  UNL     1      27.873 -22.075 -52.459  1.00  0.00     0.034 C 
ENDBRANCH  27  28
ENDBRANCH  24  27
ENDBRANCH  15  21
ENDBRANCH   9  10
ENDBRANCH   1   8
BRANCH   4  30
HETATM   30  C18 UNL     1      12.960 -29.807 -53.372  1.00  0.00     0.120 C 
HETATM   31  N1  UNL     1      11.794 -29.920 -53.628  1.00  0.00    -0.309 N 
ATOM     32  H1  UNL     1      11.525 -30.801 -53.190  1.00  0.00     0.186 HD
BRANCH  31  33
HETATM   33  N2  UNL     1      10.686 -29.486 -54.185  1.00  0.00    -0.276 N 
ATOM     34  H2  UNL     1       9.982 -30.183 -54.427  1.00  0.00     0.189 HD
BRANCH  33  35
HETATM   35  C19 UNL     1      10.383 -28.117 -54.484  1.00  0.00     0.191 C 
HETATM   36  S1  UNL     1      10.097 -27.092 -53.281  1.00  0.00    -0.039 SA
BRANCH  35  37
HETATM   37  N3  UNL     1      10.323 -27.696 -55.822  1.00  0.00    -0.332 N 
ATOM     38  H3  UNL     1       9.447 -27.689 -56.344  1.00  0.00     0.168 HD
BRANCH  37  39
HETATM   39  C20 UNL     1      11.559 -27.276 -56.416  1.00  0.00     0.034 A 
HETATM   40  C21 UNL     1      11.927 -25.922 -56.344  1.00  0.00     0.030 A 
HETATM   41  C22 UNL     1      13.082 -25.444 -56.913  1.00  0.00     0.018 A 
HETATM   42  C23 UNL     1      13.934 -26.299 -57.583  1.00  0.00     0.048 A 
HETATM   43  C25 UNL     1      13.585 -27.625 -57.659  1.00  0.00     0.018 A 
HETATM   44  C26 UNL     1      12.405 -28.113 -57.079  1.00  0.00     0.030 A 
BRANCH  42  45
HETATM   45  C24 UNL     1      15.201 -25.799 -58.210  1.00  0.00     0.417 C 
HETATM   46  F1  UNL     1      15.108 -25.726 -59.578  1.00  0.00    -0.166 F 
HETATM   47  F2  UNL     1      15.526 -24.543 -57.735  1.00  0.00    -0.166 F 
HETATM   48  F3  UNL     1      16.262 -26.638 -57.895  1.00  0.00    -0.166 F 
ENDBRANCH  42  45
ENDBRANCH  37  39
ENDBRANCH  35  37
ENDBRANCH  33  35
ENDBRANCH  31  33
ENDBRANCH   4  30
TORSDOF 11
ENDMDL
MODEL 2
REMARK VINA RESULT: -7.884947319      0.800      1.235
REMARK  11 active torsions:
REMARK  status: ('A' for Active; 'I' for Inactive)
REMARK    1  A    between atoms: C2_2  and  O1_3 
REMARK    2  A    between atoms: O1_3  and  C3_4 
REMARK    3  A    between atoms: C6_7  and  C7_8 
REMARK    4  A    between atoms: C11_12  and  C12_13 
REMARK    5  A    between atoms: C13_14  and  C14_15 
REMARK    6  A    between atoms: C17_18  and  C18_19 
REMARK    7  A    between atoms: N1_20  and  N2_22 
REMARK    8  A    between atoms: N2_22  and  C19_24 
REMARK    9  A    between atoms: C19_24  and  N3_26 
REMARK   10  A    between atoms: N3_26  and  C20_28 
REMARK   11  A    between atoms: C23_31  and  C24_32 
ROOT
HETATM    1  C14 UNL     1      16.130 -26.634 -54.458  1.00  0.00     0.032 A 
HETATM    2  C15 UNL     1      15.188 -26.408 -53.502  1.00  0.00     0.030 A 
HETATM    3  C16 UNL     1      14.230 -27.367 -53.133  1.00  0.00     0.016 A 
HETATM    4  C17 UNL     1      14.226 -28.595 -53.749  1.00  0.00    -0.004 A 
HETATM    5  C27 UNL     1      15.197 -28.788 -54.715  1.00  0.00     0.101 A 
HETATM    6  N4  UNL     1      16.106 -27.858 -55.057  1.00  0.00    -0.365 N 
ATOM      7  H4  UNL     1      16.793 -28.073 -55.780  1.00  0.00     0.165 HD
ENDROOT
BRANCH   1   8
HETATM    8  C13 UNL     1      17.156 -25.682 -54.853  1.00  0.00     0.032 C 
HETATM    9  C12 UNL     1      17.236 -24.466 -54.385  1.00  0.00     0.034 C 
BRANCH   9  10
HETATM   10  C11 UNL     1      18.228 -23.479 -54.735  1.00  0.00     0.060 A 
HETATM   11  C10 UNL     1      19.443 -23.153 -54.158  1.00  0.00     0.020 A 
HETATM   12  C9  UNL     1      20.079 -23.590 -53.024  1.00  0.00     0.017 A 
HETATM   13  C28 UNL     1      20.094 -22.185 -54.906  1.00  0.00     0.061 A 
HETATM   14  C8  UNL     1      21.312 -23.070 -52.678  1.00  0.00     0.013 A 
HETATM   15  C7  UNL     1      21.966 -22.092 -53.440  1.00  0.00    -0.024 A 
HETATM   16  C29 UNL     1      21.320 -21.659 -54.569  1.00  0.00     0.044 A 
HETATM   17  N6  UNL     1      19.268 -21.931 -55.923  1.00  0.00    -0.299 N 
HETATM   18  N5  UNL     1      18.177 -22.668 -55.848  1.00  0.00    -0.299 N 
ATOM     19  H6  UNL     1      19.456 -21.254 -56.663  1.00  0.00     0.187 HD
ATOM     20  H5  UNL     1      17.408 -22.641 -56.517  1.00  0.00     0.187 HD
BRANCH  15  21
HETATM   21  C6  UNL     1      23.246 -21.631 -52.988  1.00  0.00    -0.026 A 
HETATM   22  C5  UNL     1      24.059 -20.803 -53.694  1.00  0.00     0.015 A 
HETATM   23  C4  UNL     1      25.318 -20.422 -53.210  1.00  0.00     0.037 A 
HETATM   24  C3  UNL     1      25.798 -20.858 -52.011  1.00  0.00     0.068 A 
HETATM   25  C31 UNL     1      24.958 -21.711 -51.283  1.00  0.00     0.037 A 
HETATM   26  C30 UNL     1      23.746 -22.068 -51.763  1.00  0.00     0.015 A 
BRANCH  24  27
HETATM   27  O1  UNL     1      27.012 -20.542 -51.453  1.00  0.00    -0.352 OA
BRANCH  27  28
HETATM   28  C2  UNL     1      27.647 -21.304 -50.484  1.00  0.00     0.171 C 
HETATM   29  C1  UNL     1      27.873 -20.481 -49.238  1.00  0.00     0.034 C 
ENDBRANCH  27  28
ENDBRANCH  24  27
ENDBRANCH  15  21
ENDBRANCH   9  10
ENDBRANCH   1   8
BRANCH   4  30
HETATM   30  C18 UNL     1      13.321 -29.675 -53.411  1.00  0.00     0.120 C 
HETATM   31  N1  UNL     1      12.179 -29.827 -53.744  1.00  0.00    -0.309 N 
ATOM     32  H1  UNL     1      11.903 -30.703 -53.301  1.00  0.00     0.186 HD
BRANCH  31  33
HETATM   33  N2  UNL     1      11.102 -29.439 -54.390  1.00  0.00    -0.276 N 
ATOM     34  H2  UNL     1      10.554 -30.160 -54.858  1.00  0.00     0.189 HD
BRANCH  33  35
HETATM   35  C19 UNL     1      10.632 -28.089 -54.492  1.00  0.00     0.191 C 
HETATM   36  S1  UNL     1      10.219 -27.293 -53.159  1.00  0.00    -0.039 SA
BRANCH  35  37
HETATM   37  N3  UNL     1      10.523 -27.486 -55.756  1.00  0.00    -0.332 N 
ATOM     38  H3  UNL     1       9.621 -27.366 -56.217  1.00  0.00     0.168 HD
BRANCH  37  39
HETATM   39  C20 UNL     1      11.746 -27.050 -56.365  1.00  0.00     0.034 A 
HETATM   40  C21 UNL     1      12.212 -25.750 -56.108  1.00  0.00     0.030 A 
HETATM   41  C22 UNL     1      13.360 -25.256 -56.677  1.00  0.00     0.018 A 
HETATM   42  C23 UNL     1      14.107 -26.040 -57.533  1.00  0.00     0.048 A 
HETATM   43  C25 UNL     1      13.661 -27.313 -57.791  1.00  0.00     0.018 A 
HETATM   44  C26 UNL     1      12.488 -27.818 -57.211  1.00  0.00     0.030 A 
BRANCH  42  45
HETATM   45  C24 UNL     1      15.365 -25.521 -58.164  1.00  0.00     0.417 C 
HETATM   46  F1  UNL     1      16.430 -26.364 -57.964  1.00  0.00    -0.166 F 
HETATM   47  F2  UNL     1      15.201 -25.352 -59.525  1.00  0.00    -0.166 F 
HETATM   48  F3  UNL     1      15.693 -24.279 -57.638  1.00  0.00    -0.166 F 
ENDBRANCH  42  45
ENDBRANCH  37  39
ENDBRANCH  35  37
ENDBRANCH  33  35
ENDBRANCH  31  33
ENDBRANCH   4  30
TORSDOF 11
ENDMDL
MODEL 3
REMARK VINA RESULT: -7.818138908      1.919      3.383
REMARK  11 active torsions:
REMARK  status: ('A' for Active; 'I' for Inactive)
REMARK    1  A    between atoms: C2_2  and  O1_3 
REMARK    2  A    between atoms: O1_3  and  C3_4 
REMARK    3  A    between atoms: C6_7  and  C7_8 
REMARK    4  A    between atoms: C11_12  and  C12_13 
REMARK    5  A    between atoms: C13_14  and  C14_15 
REMARK    6  A    between atoms: C17_18  and  C18_19 
REMARK    7  A    between atoms: N1_20  and  N2_22 
REMARK    8  A    between atoms: N2_22  and  C19_24 
REMARK    9  A    between atoms: C19_24  and  N3_26 
REMARK   10  A    between atoms: N3_26  and  C20_28 
REMARK   11  A    between atoms: C23_31  and  C24_32 
ROOT
HETATM    1  C14 UNL     1      13.683 -26.330 -56.765  1.00  0.00     0.032 A 
HETATM    2  C15 UNL     1      13.612 -27.664 -57.025  1.00  0.00     0.030 A 
HETATM    3  C16 UNL     1      12.461 -28.430 -56.774  1.00  0.00     0.016 A 
HETATM    4  C17 UNL     1      11.346 -27.827 -56.246  1.00  0.00    -0.004 A 
HETATM    5  C27 UNL     1      11.455 -26.471 -55.995  1.00  0.00     0.101 A 
HETATM    6  N4  UNL     1      12.566 -25.753 -56.240  1.00  0.00    -0.365 N 
ATOM      7  H4  UNL     1      12.573 -24.755 -56.028  1.00  0.00     0.165 HD
ENDROOT
BRANCH   1   8
HETATM    8  C13 UNL     1      14.842 -25.494 -57.033  1.00  0.00     0.032 C 
HETATM    9  C12 UNL     1      15.244 -24.536 -56.243  1.00  0.00     0.034 C 
BRANCH   9  10
HETATM   10  C11 UNL     1      16.383 -23.676 -56.452  1.00  0.00     0.060 A 
HETATM   11  C10 UNL     1      17.468 -23.377 -55.647  1.00  0.00     0.020 A 
HETATM   12  C9  UNL     1      17.793 -23.723 -54.360  1.00  0.00     0.017 A 
HETATM   13  C28 UNL     1      18.363 -22.558 -56.318  1.00  0.00     0.061 A 
HETATM   14  C8  UNL     1      18.966 -23.260 -53.793  1.00  0.00     0.013 A 
HETATM   15  C7  UNL     1      19.867 -22.434 -54.478  1.00  0.00    -0.024 A 
HETATM   16  C29 UNL     1      19.532 -22.090 -55.762  1.00  0.00     0.044 A 
HETATM   17  N6  UNL     1      17.810 -22.365 -57.518  1.00  0.00    -0.299 N 
HETATM   18  N5  UNL     1      16.661 -23.002 -57.622  1.00  0.00    -0.299 N 
ATOM     19  H6  UNL     1      18.224 -21.798 -58.258  1.00  0.00     0.187 HD
ATOM     20  H5  UNL     1      16.064 -22.997 -58.449  1.00  0.00     0.187 HD
BRANCH  15  21
HETATM   21  C6  UNL     1      21.056 -22.021 -53.793  1.00  0.00    -0.026 A 
HETATM   22  C5  UNL     1      22.238 -21.741 -54.401  1.00  0.00     0.015 A 
HETATM   23  C4  UNL     1      23.376 -21.380 -53.667  1.00  0.00     0.037 A 
HETATM   24  C3  UNL     1      23.363 -21.291 -52.306  1.00  0.00     0.068 A 
HETATM   25  C31 UNL     1      22.144 -21.578 -51.679  1.00  0.00     0.037 A 
HETATM   26  C30 UNL     1      21.056 -21.924 -52.403  1.00  0.00     0.015 A 
BRANCH  24  27
HETATM   27  O1  UNL     1      24.421 -20.946 -51.500  1.00  0.00    -0.352 OA
BRANCH  27  28
HETATM   28  C2  UNL     1      25.669 -21.547 -51.554  1.00  0.00     0.171 C 
HETATM   29  C1  UNL     1      26.678 -20.601 -52.161  1.00  0.00     0.034 C 
ENDBRANCH  27  28
ENDBRANCH  24  27
ENDBRANCH  15  21
ENDBRANCH   9  10
ENDBRANCH   1   8
BRANCH   4  30
HETATM   30  C18 UNL     1      10.090 -28.506 -55.998  1.00  0.00     0.120 C 
HETATM   31  N1  UNL     1       9.353 -28.396 -55.058  1.00  0.00    -0.309 N 
ATOM     32  H1  UNL     1       8.586 -29.037 -55.265  1.00  0.00     0.186 HD
BRANCH  31  33
HETATM   33  N2  UNL     1       9.029 -27.871 -53.899  1.00  0.00    -0.276 N 
ATOM     34  H2  UNL     1       8.504 -26.997 -53.913  1.00  0.00     0.189 HD
BRANCH  33  35
HETATM   35  C19 UNL     1       9.352 -28.420 -52.614  1.00  0.00     0.191 C 
HETATM   36  S1  UNL     1       8.497 -29.656 -52.047  1.00  0.00    -0.039 SA
BRANCH  35  37
HETATM   37  N3  UNL     1      10.397 -27.860 -51.863  1.00  0.00    -0.332 N 
ATOM     38  H3  UNL     1      10.224 -27.358 -50.993  1.00  0.00     0.168 HD
BRANCH  37  39
HETATM   39  C20 UNL     1      11.723 -28.031 -52.384  1.00  0.00     0.034 A 
HETATM   40  C21 UNL     1      12.541 -26.902 -52.557  1.00  0.00     0.030 A 
HETATM   41  C22 UNL     1      13.809 -26.988 -53.075  1.00  0.00     0.018 A 
HETATM   42  C23 UNL     1      14.330 -28.211 -53.446  1.00  0.00     0.048 A 
HETATM   43  C25 UNL     1      13.539 -29.322 -53.280  1.00  0.00     0.018 A 
HETATM   44  C26 UNL     1      12.244 -29.236 -52.752  1.00  0.00     0.030 A 
BRANCH  42  45
HETATM   45  C24 UNL     1      15.714 -28.328 -54.012  1.00  0.00     0.417 C 
HETATM   46  F1  UNL     1      16.208 -27.115 -54.425  1.00  0.00    -0.166 F 
HETATM   47  F2  UNL     1      16.587 -28.852 -53.080  1.00  0.00    -0.166 F 
HETATM   48  F3  UNL     1      15.720 -29.189 -55.102  1.00  0.00    -0.166 F 
ENDBRANCH  42  45
ENDBRANCH  37  39
ENDBRANCH  35  37
ENDBRANCH  33  35
ENDBRANCH  31  33
ENDBRANCH   4  30
TORSDOF 11
ENDMDL
MODEL 4
REMARK VINA RESULT: -7.781655674      0.833      1.430
REMARK  11 active torsions:
REMARK  status: ('A' for Active; 'I' for Inactive)
REMARK    1  A    between atoms: C2_2  and  O1_3 
REMARK    2  A    between atoms: O1_3  and  C3_4 
REMARK    3  A    between atoms: C6_7  and  C7_8 
REMARK    4  A    between atoms: C11_12  and  C12_13 
REMARK    5  A    between atoms: C13_14  and  C14_15 
REMARK    6  A    between atoms: C17_18  and  C18_19 
REMARK    7  A    between atoms: N1_20  and  N2_22 
REMARK    8  A    between atoms: N2_22  and  C19_24 
REMARK    9  A    between atoms: C19_24  and  N3_26 
REMARK   10  A    between atoms: N3_26  and  C20_28 
REMARK   11  A    between atoms: C23_31  and  C24_32 
ROOT
HETATM    1  C14 UNL     1      15.800 -26.719 -54.434  1.00  0.00     0.032 A 
HETATM    2  C15 UNL     1      15.631 -27.969 -54.947  1.00  0.00     0.030 A 
HETATM    3  C16 UNL     1      14.592 -28.824 -54.545  1.00  0.00     0.016 A 
HETATM    4  C17 UNL     1      13.694 -28.403 -53.595  1.00  0.00    -0.004 A 
HETATM    5  C27 UNL     1      13.898 -27.128 -53.097  1.00  0.00     0.101 A 
HETATM    6  N4  UNL     1      14.899 -26.323 -53.493  1.00  0.00    -0.365 N 
ATOM      7  H4  UNL     1      14.986 -25.394 -53.079  1.00  0.00     0.165 HD
ENDROOT
BRANCH   1   8
HETATM    8  C13 UNL     1      16.844 -25.791 -54.839  1.00  0.00     0.032 C 
HETATM    9  C12 UNL     1      16.765 -24.497 -54.682  1.00  0.00     0.034 C 
BRANCH   9  10
HETATM   10  C11 UNL     1      17.764 -23.528 -55.061  1.00  0.00     0.060 A 
HETATM   11  C10 UNL     1      18.971 -23.179 -54.482  1.00  0.00     0.020 A 
HETATM   12  C9  UNL     1      19.592 -23.570 -53.322  1.00  0.00     0.017 A 
HETATM   13  C28 UNL     1      19.635 -22.246 -55.262  1.00  0.00     0.061 A 
HETATM   14  C8  UNL     1      20.822 -23.037 -52.982  1.00  0.00     0.013 A 
HETATM   15  C7  UNL     1      21.488 -22.095 -53.776  1.00  0.00    -0.024 A 
HETATM   16  C29 UNL     1      20.858 -21.708 -54.931  1.00  0.00     0.044 A 
HETATM   17  N6  UNL     1      18.823 -22.033 -56.300  1.00  0.00    -0.299 N 
HETATM   18  N5  UNL     1      17.730 -22.764 -56.208  1.00  0.00    -0.299 N 
ATOM     19  H6  UNL     1      19.023 -21.389 -57.065  1.00  0.00     0.187 HD
ATOM     20  H5  UNL     1      16.969 -22.765 -56.887  1.00  0.00     0.187 HD
BRANCH  15  21
HETATM   21  C6  UNL     1      22.763 -21.617 -53.328  1.00  0.00    -0.026 A 
HETATM   22  C5  UNL     1      23.650 -20.943 -54.105  1.00  0.00     0.015 A 
HETATM   23  C4  UNL     1      24.898 -20.538 -53.613  1.00  0.00     0.037 A 
HETATM   24  C3  UNL     1      25.294 -20.797 -52.335  1.00  0.00     0.068 A 
HETATM   25  C31 UNL     1      24.378 -21.491 -51.533  1.00  0.00     0.037 A 
HETATM   26  C30 UNL     1      23.178 -21.873 -52.022  1.00  0.00     0.015 A 
BRANCH  24  27
HETATM   27  O1  UNL     1      26.491 -20.443 -51.762  1.00  0.00    -0.352 OA
BRANCH  27  28
HETATM   28  C2  UNL     1      27.732 -20.760 -52.292  1.00  0.00     0.171 C 
HETATM   29  C1  UNL     1      27.873 -22.258 -52.431  1.00  0.00     0.034 C 
ENDBRANCH  27  28
ENDBRANCH  24  27
ENDBRANCH  15  21
ENDBRANCH   9  10
ENDBRANCH   1   8
BRANCH   4  30
HETATM   30  C18 UNL     1      12.556 -29.178 -53.146  1.00  0.00     0.120 C 
HETATM   31  N1  UNL     1      11.630 -29.590 -53.788  1.00  0.00    -0.309 N 
ATOM     32  H1  UNL     1      11.053 -30.084 -53.108  1.00  0.00     0.186 HD
BRANCH  31  33
HETATM   33  N2  UNL     1      10.982 -29.728 -54.922  1.00  0.00    -0.276 N 
ATOM     34  H2  UNL     1      11.086 -30.615 -55.414  1.00  0.00     0.189 HD
BRANCH  33  35
HETATM   35  C19 UNL     1      10.140 -28.738 -55.528  1.00  0.00     0.191 C 
HETATM   36  S1  UNL     1       8.847 -29.204 -56.359  1.00  0.00    -0.039 SA
BRANCH  35  37
HETATM   37  N3  UNL     1      10.466 -27.379 -55.402  1.00  0.00    -0.332 N 
ATOM     38  H3  UNL     1       9.923 -26.748 -54.812  1.00  0.00     0.168 HD
BRANCH  37  39
HETATM   39  C20 UNL     1      11.604 -26.922 -56.147  1.00  0.00     0.034 A 
HETATM   40  C21 UNL     1      12.193 -27.781 -57.089  1.00  0.00     0.030 A 
HETATM   41  C22 UNL     1      13.299 -27.422 -57.819  1.00  0.00     0.018 A 
HETATM   42  C23 UNL     1      13.874 -26.179 -57.648  1.00  0.00     0.048 A 
HETATM   43  C25 UNL     1      13.305 -25.330 -56.730  1.00  0.00     0.018 A 
HETATM   44  C26 UNL     1      12.177 -25.697 -55.983  1.00  0.00     0.030 A 
BRANCH  42  45
HETATM   45  C24 UNL     1      15.081 -25.765 -58.436  1.00  0.00     0.417 C 
HETATM   46  F1  UNL     1      14.788 -25.557 -59.761  1.00  0.00    -0.166 F 
HETATM   47  F2  UNL     1      15.626 -24.601 -57.930  1.00  0.00    -0.166 F 
HETATM   48  F3  UNL     1      16.066 -26.740 -58.359  1.00  0.00    -0.166 F 
ENDBRANCH  42  45
ENDBRANCH  37  39
ENDBRANCH  35  37
ENDBRANCH  33  35
ENDBRANCH  31  33
ENDBRANCH   4  30
TORSDOF 11
ENDMDL
MODEL 5
REMARK VINA RESULT: -7.778549535      1.743      2.815
REMARK  11 active torsions:
REMARK  status: ('A' for Active; 'I' for Inactive)
REMARK    1  A    between atoms: C2_2  and  O1_3 
REMARK    2  A    between atoms: O1_3  and  C3_4 
REMARK    3  A    between atoms: C6_7  and  C7_8 
REMARK    4  A    between atoms: C11_12  and  C12_13 
REMARK    5  A    between atoms: C13_14  and  C14_15 
REMARK    6  A    between atoms: C17_18  and  C18_19 
REMARK    7  A    between atoms: N1_20  and  N2_22 
REMARK    8  A    between atoms: N2_22  and  C19_24 
REMARK    9  A    between atoms: C19_24  and  N3_26 
REMARK   10  A    between atoms: N3_26  and  C20_28 
REMARK   11  A    between atoms: C23_31  and  C24_32 
ROOT
HETATM    1  C14 UNL     1      14.139 -25.533 -55.939  1.00  0.00     0.032 A 
HETATM    2  C15 UNL     1      13.409 -25.753 -57.066  1.00  0.00     0.030 A 
HETATM    3  C16 UNL     1      12.286 -26.598 -57.095  1.00  0.00     0.016 A 
HETATM    4  C17 UNL     1      11.889 -27.238 -55.947  1.00  0.00    -0.004 A 
HETATM    5  C27 UNL     1      12.654 -26.990 -54.822  1.00  0.00     0.101 A 
HETATM    6  N4  UNL     1      13.727 -26.179 -54.813  1.00  0.00    -0.365 N 
ATOM      7  H4  UNL     1      14.244 -26.045 -53.943  1.00  0.00     0.165 HD
ENDROOT
BRANCH   1   8
HETATM    8  C13 UNL     1      15.290 -24.648 -55.857  1.00  0.00     0.032 C 
HETATM    9  C12 UNL     1      15.777 -23.994 -56.877  1.00  0.00     0.034 C 
BRANCH   9  10
HETATM   10  C11 UNL     1      16.911 -23.103 -56.859  1.00  0.00     0.060 A 
HETATM   11  C10 UNL     1      17.944 -22.950 -55.950  1.00  0.00     0.020 A 
HETATM   12  C9  UNL     1      18.202 -23.524 -54.731  1.00  0.00     0.017 A 
HETATM   13  C28 UNL     1      18.860 -22.016 -56.407  1.00  0.00     0.061 A 
HETATM   14  C8  UNL     1      19.333 -23.166 -54.022  1.00  0.00     0.013 A 
HETATM   15  C7  UNL     1      20.256 -22.222 -54.490  1.00  0.00    -0.024 A 
HETATM   16  C29 UNL     1      19.988 -21.650 -55.707  1.00  0.00     0.044 A 
HETATM   17  N6  UNL     1      18.373 -21.609 -57.581  1.00  0.00    -0.299 N 
HETATM   18  N5  UNL     1      17.243 -22.224 -57.867  1.00  0.00    -0.299 N 
ATOM     19  H6  UNL     1      18.818 -20.913 -58.180  1.00  0.00     0.187 HD
ATOM     20  H5  UNL     1      16.693 -22.072 -58.712  1.00  0.00     0.187 HD
BRANCH  15  21
HETATM   21  C6  UNL     1      21.398 -21.934 -53.673  1.00  0.00    -0.026 A 
HETATM   22  C5  UNL     1      21.371 -21.839 -52.318  1.00  0.00     0.015 A 
HETATM   23  C4  UNL     1      22.518 -21.514 -51.581  1.00  0.00     0.037 A 
HETATM   24  C3  UNL     1      23.720 -21.274 -52.177  1.00  0.00     0.068 A 
HETATM   25  C31 UNL     1      23.748 -21.373 -53.575  1.00  0.00     0.037 A 
HETATM   26  C30 UNL     1      22.633 -21.688 -54.270  1.00  0.00     0.015 A 
BRANCH  24  27
HETATM   27  O1  UNL     1      24.896 -20.951 -51.545  1.00  0.00    -0.352 OA
BRANCH  27  28
HETATM   28  C2  UNL     1      25.505 -21.740 -50.581  1.00  0.00     0.171 C 
HETATM   29  C1  UNL     1      26.072 -22.990 -51.212  1.00  0.00     0.034 C 
ENDBRANCH  27  28
ENDBRANCH  24  27
ENDBRANCH  15  21
ENDBRANCH   9  10
ENDBRANCH   1   8
BRANCH   4  30
HETATM   30  C18 UNL     1      10.718 -28.086 -55.848  1.00  0.00     0.120 C 
HETATM   31  N1  UNL     1      10.663 -29.265 -55.633  1.00  0.00    -0.309 N 
ATOM     32  H1  UNL     1       9.665 -29.475 -55.642  1.00  0.00     0.186 HD
BRANCH  31  33
HETATM   33  N2  UNL     1      11.235 -30.422 -55.391  1.00  0.00    -0.276 N 
ATOM     34  H2  UNL     1      10.842 -31.242 -55.853  1.00  0.00     0.189 HD
BRANCH  33  35
HETATM   35  C19 UNL     1      12.364 -30.632 -54.532  1.00  0.00     0.191 C 
HETATM   36  S1  UNL     1      12.251 -30.259 -52.974  1.00  0.00    -0.039 SA
BRANCH  35  37
HETATM   37  N3  UNL     1      13.557 -31.144 -55.068  1.00  0.00    -0.332 N 
ATOM     38  H3  UNL     1      13.792 -32.134 -55.007  1.00  0.00     0.168 HD
BRANCH  37  39
HETATM   39  C20 UNL     1      14.429 -30.199 -55.704  1.00  0.00     0.034 A 
HETATM   40  C21 UNL     1      14.287 -29.957 -57.081  1.00  0.00     0.030 A 
HETATM   41  C22 UNL     1      15.103 -29.087 -57.761  1.00  0.00     0.018 A 
HETATM   42  C23 UNL     1      16.105 -28.408 -57.097  1.00  0.00     0.048 A 
HETATM   43  C25 UNL     1      16.252 -28.636 -55.750  1.00  0.00     0.018 A 
HETATM   44  C26 UNL     1      15.420 -29.525 -55.056  1.00  0.00     0.030 A 
BRANCH  42  45
HETATM   45  C24 UNL     1      17.006 -27.451 -57.820  1.00  0.00     0.417 C 
HETATM   46  F1  UNL     1      17.924 -28.100 -58.607  1.00  0.00    -0.166 F 
HETATM   47  F2  UNL     1      16.277 -26.598 -58.625  1.00  0.00    -0.166 F 
HETATM   48  F3  UNL     1      17.699 -26.660 -56.913  1.00  0.00    -0.166 F 
ENDBRANCH  42  45
ENDBRANCH  37  39
ENDBRANCH  35  37
ENDBRANCH  33  35
ENDBRANCH  31  33
ENDBRANCH   4  30
TORSDOF 11
ENDMDL
