MODEL 1
REMARK VINA RESULT: -7.257633859      0.000      0.000
REMARK  7 active torsions:
REMARK  status: ('A' for Active; 'I' for Inactive)
REMARK    1  A    between atoms: N1_2  and  C2_3 
REMARK    2  A    between atoms: N1_2  and  C10_12 
REMARK    3  A    between atoms: C2_3  and  C3_4 
REMARK    4  A    between atoms: C3_4  and  C4_5 
REMARK    5  A    between atoms: C10_12  and  O1_13 
REMARK    6  A    between atoms: C10_12  and  N2_15 
REMARK    7  A    between atoms: C13_18  and  C14_19 
ROOT
HETATM    1  C10 UNL     1     -46.788  13.200  -8.326  1.00  0.00     0.216 C 
ENDROOT
BRANCH   1   2
HETATM    2  N1  UNL     1     -47.518  12.346  -7.510  1.00  0.00    -0.352 N 
HETATM    3  C1  UNL     1     -48.412  11.387  -8.237  1.00  0.00     0.153 C 
BRANCH   2   4
HETATM    4  C2  UNL     1     -47.480  12.260  -6.080  1.00  0.00     0.126 C 
BRANCH   4   5
HETATM    5  C3  UNL     1     -47.797  10.819  -5.705  1.00  0.00     0.027 C 
BRANCH   5   6
HETATM    6  C4  UNL     1     -48.879  10.727  -4.659  1.00  0.00     0.021 C 
HETATM    7  C5  UNL     1     -48.364  10.354  -3.300  1.00  0.00     0.007 C 
HETATM    8  C6  UNL     1     -49.455  10.007  -2.358  1.00  0.00     0.001 C 
HETATM    9  C7  UNL     1     -50.836  10.154  -2.889  1.00  0.00     0.003 C 
HETATM   10  C8  UNL     1     -51.042   9.682  -4.281  1.00  0.00     0.037 C 
HETATM   11  C9  UNL     1     -49.789   9.574  -5.100  1.00  0.00     0.174 C 
HETATM   12  F1  UNL     1     -49.136   8.414  -4.693  1.00  0.00    -0.249 F 
ENDBRANCH   5   6
ENDBRANCH   4   5
ENDBRANCH   2   4
ENDBRANCH   1   2
BRANCH   1  13
HETATM   13  O1  UNL     1     -46.959  12.964  -9.619  1.00  0.00    -0.333 OA
ATOM     14  H1  UNL     1     -46.596  12.133  -9.901  1.00  0.00     0.220 HD
ENDBRANCH   1  13
BRANCH   1  15
HETATM   15  N2  UNL     1     -45.933  14.233  -7.989  1.00  0.00    -0.347 N 
HETATM   16  C11 UNL     1     -46.224  15.484  -7.402  1.00  0.00     0.127 C 
HETATM   17  C12 UNL     1     -44.928  16.229  -7.020  1.00  0.00     0.034 C 
HETATM   18  C13 UNL     1     -44.041  16.408  -8.213  1.00  0.00     0.078 C 
HETATM   19  C15 UNL     1     -44.089  15.215  -9.146  1.00  0.00     0.034 C 
HETATM   20  C16 UNL     1     -44.483  14.022  -8.276  1.00  0.00     0.127 C 
BRANCH  18  21
HETATM   21  C14 UNL     1     -44.367  17.624  -8.992  1.00  0.00     0.235 C 
HETATM   22  N3  UNL     1     -43.767  18.862  -8.657  1.00  0.00    -0.062 NA
HETATM   23  O2  UNL     1     -45.171  17.596  -9.955  1.00  0.00    -0.277 OA
ENDBRANCH  18  21
ENDBRANCH   1  15
TORSDOF 7
ENDMDL
MODEL 2
REMARK VINA RESULT: -7.088573935      1.441      1.578
REMARK  7 active torsions:
REMARK  status: ('A' for Active; 'I' for Inactive)
REMARK    1  A    between atoms: N1_2  and  C2_3 
REMARK    2  A    between atoms: N1_2  and  C10_12 
REMARK    3  A    between atoms: C2_3  and  C3_4 
REMARK    4  A    between atoms: C3_4  and  C4_5 
REMARK    5  A    between atoms: C10_12  and  O1_13 
REMARK    6  A    between atoms: C10_12  and  N2_15 
REMARK    7  A    between atoms: C13_18  and  C14_19 
ROOT
HETATM    1  C10 UNL     1     -47.147  13.903  -6.739  1.00  0.00     0.216 C 
ENDROOT
BRANCH   1   2
HETATM    2  N1  UNL     1     -47.384  12.563  -6.461  1.00  0.00    -0.352 N 
HETATM    3  C1  UNL     1     -48.103  11.811  -7.541  1.00  0.00     0.153 C 
BRANCH   2   4
HETATM    4  C2  UNL     1     -46.990  11.830  -5.295  1.00  0.00     0.126 C 
BRANCH   4   5
HETATM    5  C3  UNL     1     -47.959  12.198  -4.180  1.00  0.00     0.027 C 
BRANCH   5   6
HETATM    6  C4  UNL     1     -49.131  11.251  -4.107  1.00  0.00     0.021 C 
HETATM    7  C5  UNL     1     -49.749  11.172  -2.743  1.00  0.00     0.007 C 
HETATM    8  C6  UNL     1     -50.713  10.051  -2.624  1.00  0.00     0.001 C 
HETATM    9  C7  UNL     1     -50.946   9.267  -3.865  1.00  0.00     0.003 C 
HETATM   10  C8  UNL     1     -49.736   8.964  -4.670  1.00  0.00     0.037 C 
HETATM   11  C9  UNL     1     -48.561   9.857  -4.399  1.00  0.00     0.174 C 
HETATM   12  F1  UNL     1     -47.997   9.434  -3.199  1.00  0.00    -0.249 F 
ENDBRANCH   5   6
ENDBRANCH   4   5
ENDBRANCH   2   4
ENDBRANCH   1   2
BRANCH   1  13
HETATM   13  O1  UNL     1     -48.249  14.640  -6.749  1.00  0.00    -0.333 OA
ATOM     14  H1  UNL     1     -48.102  15.532  -7.040  1.00  0.00     0.220 HD
ENDBRANCH   1  13
BRANCH   1  15
HETATM   15  N2  UNL     1     -45.958  14.558  -6.998  1.00  0.00    -0.347 N 
HETATM   16  C11 UNL     1     -45.407  15.700  -6.376  1.00  0.00     0.127 C 
HETATM   17  C12 UNL     1     -43.963  15.948  -6.857  1.00  0.00     0.034 C 
HETATM   18  C13 UNL     1     -43.911  16.091  -8.347  1.00  0.00     0.078 C 
HETATM   19  C15 UNL     1     -44.890  15.169  -9.045  1.00  0.00     0.034 C 
HETATM   20  C16 UNL     1     -45.109  13.996  -8.090  1.00  0.00     0.127 C 
BRANCH  18  21
HETATM   21  C14 UNL     1     -44.171  17.477  -8.799  1.00  0.00     0.235 C 
HETATM   22  N3  UNL     1     -45.074  17.718  -9.863  1.00  0.00    -0.062 NA
HETATM   23  O2  UNL     1     -43.609  18.463  -8.264  1.00  0.00    -0.277 OA
ENDBRANCH  18  21
ENDBRANCH   1  15
TORSDOF 7
ENDMDL
MODEL 3
REMARK VINA RESULT: -6.934855501      1.406      1.750
REMARK  7 active torsions:
REMARK  status: ('A' for Active; 'I' for Inactive)
REMARK    1  A    between atoms: N1_2  and  C2_3 
REMARK    2  A    between atoms: N1_2  and  C10_12 
REMARK    3  A    between atoms: C2_3  and  C3_4 
REMARK    4  A    between atoms: C3_4  and  C4_5 
REMARK    5  A    between atoms: C10_12  and  O1_13 
REMARK    6  A    between atoms: C10_12  and  N2_15 
REMARK    7  A    between atoms: C13_18  and  C14_19 
ROOT
HETATM    1  C10 UNL     1     -47.231  13.913  -7.374  1.00  0.00     0.216 C 
ENDROOT
BRANCH   1   2
HETATM    2  N1  UNL     1     -47.470  12.571  -7.108  1.00  0.00    -0.352 N 
HETATM    3  C1  UNL     1     -47.883  11.754  -8.296  1.00  0.00     0.153 C 
BRANCH   2   4
HETATM    4  C2  UNL     1     -47.330  11.892  -5.854  1.00  0.00     0.126 C 
BRANCH   4   5
HETATM    5  C3  UNL     1     -48.164  10.620  -5.933  1.00  0.00     0.027 C 
BRANCH   5   6
HETATM    6  C4  UNL     1     -49.119  10.490  -4.774  1.00  0.00     0.021 C 
HETATM    7  C5  UNL     1     -48.432  10.302  -3.453  1.00  0.00     0.007 C 
HETATM    8  C6  UNL     1     -49.374   9.911  -2.377  1.00  0.00     0.001 C 
HETATM    9  C7  UNL     1     -50.807   9.844  -2.768  1.00  0.00     0.003 C 
HETATM   10  C8  UNL     1     -51.085   9.231  -4.091  1.00  0.00     0.037 C 
HETATM   11  C9  UNL     1     -49.913   9.203  -5.028  1.00  0.00     0.174 C 
HETATM   12  F1  UNL     1     -49.081   8.170  -4.607  1.00  0.00    -0.249 F 
ENDBRANCH   5   6
ENDBRANCH   4   5
ENDBRANCH   2   4
ENDBRANCH   1   2
BRANCH   1  13
HETATM   13  O1  UNL     1     -48.088  14.728  -6.777  1.00  0.00    -0.333 OA
ATOM     14  H1  UNL     1     -47.673  15.332  -6.173  1.00  0.00     0.220 HD
ENDBRANCH   1  13
BRANCH   1  15
HETATM   15  N2  UNL     1     -46.250  14.500  -8.152  1.00  0.00    -0.347 N 
HETATM   16  C11 UNL     1     -44.984  14.000  -8.531  1.00  0.00     0.127 C 
HETATM   17  C12 UNL     1     -44.318  14.921  -9.574  1.00  0.00     0.034 C 
HETATM   18  C13 UNL     1     -44.190  16.319  -9.052  1.00  0.00     0.078 C 
HETATM   19  C15 UNL     1     -45.377  16.723  -8.202  1.00  0.00     0.034 C 
HETATM   20  C16 UNL     1     -46.545  15.864  -8.684  1.00  0.00     0.127 C 
BRANCH  18  21
HETATM   21  C14 UNL     1     -42.956  16.524  -8.260  1.00  0.00     0.235 C 
HETATM   22  N3  UNL     1     -42.961  17.413  -7.157  1.00  0.00    -0.062 NA
HETATM   23  O2  UNL     1     -41.887  15.930  -8.537  1.00  0.00    -0.277 OA
ENDBRANCH  18  21
ENDBRANCH   1  15
TORSDOF 7
ENDMDL
MODEL 4
REMARK VINA RESULT: -6.927122024      1.558      1.952
REMARK  7 active torsions:
REMARK  status: ('A' for Active; 'I' for Inactive)
REMARK    1  A    between atoms: N1_2  and  C2_3 
REMARK    2  A    between atoms: N1_2  and  C10_12 
REMARK    3  A    between atoms: C2_3  and  C3_4 
REMARK    4  A    between atoms: C3_4  and  C4_5 
REMARK    5  A    between atoms: C10_12  and  O1_13 
REMARK    6  A    between atoms: C10_12  and  N2_15 
REMARK    7  A    between atoms: C13_18  and  C14_19 
ROOT
HETATM    1  C10 UNL     1     -46.314  14.009  -6.213  1.00  0.00     0.216 C 
ENDROOT
BRANCH   1   2
HETATM    2  N1  UNL     1     -46.262  13.041  -5.218  1.00  0.00    -0.352 N 
HETATM    3  C1  UNL     1     -45.275  13.313  -4.122  1.00  0.00     0.153 C 
BRANCH   2   4
HETATM    4  C2  UNL     1     -47.061  11.857  -5.110  1.00  0.00     0.126 C 
BRANCH   4   5
HETATM    5  C3  UNL     1     -47.902  11.991  -3.848  1.00  0.00     0.027 C 
BRANCH   5   6
HETATM    6  C4  UNL     1     -49.122  11.106  -3.877  1.00  0.00     0.021 C 
HETATM    7  C5  UNL     1     -49.676  10.809  -2.515  1.00  0.00     0.007 C 
HETATM    8  C6  UNL     1     -50.697   9.734  -2.544  1.00  0.00     0.001 C 
HETATM    9  C7  UNL     1     -51.036   9.202  -3.890  1.00  0.00     0.003 C 
HETATM   10  C8  UNL     1     -49.887   8.992  -4.805  1.00  0.00     0.037 C 
HETATM   11  C9  UNL     1     -48.650   9.762  -4.448  1.00  0.00     0.174 C 
HETATM   12  F1  UNL     1     -48.054   9.100  -3.379  1.00  0.00    -0.249 F 
ENDBRANCH   5   6
ENDBRANCH   4   5
ENDBRANCH   2   4
ENDBRANCH   1   2
BRANCH   1  13
HETATM   13  O1  UNL     1     -47.547  14.290  -6.608  1.00  0.00    -0.333 OA
ATOM     14  H1  UNL     1     -48.042  14.790  -5.970  1.00  0.00     0.220 HD
ENDBRANCH   1  13
BRANCH   1  15
HETATM   15  N2  UNL     1     -45.289  14.702  -6.830  1.00  0.00    -0.347 N 
HETATM   16  C11 UNL     1     -44.646  15.896  -6.434  1.00  0.00     0.127 C 
HETATM   17  C12 UNL     1     -43.420  16.183  -7.325  1.00  0.00     0.034 C 
HETATM   18  C13 UNL     1     -43.811  16.256  -8.769  1.00  0.00     0.078 C 
HETATM   19  C15 UNL     1     -44.897  15.260  -9.119  1.00  0.00     0.034 C 
HETATM   20  C16 UNL     1     -44.764  14.126  -8.103  1.00  0.00     0.127 C 
BRANCH  18  21
HETATM   21  C14 UNL     1     -44.268  17.606  -9.171  1.00  0.00     0.235 C 
HETATM   22  N3  UNL     1     -43.687  18.756  -8.583  1.00  0.00    -0.062 NA
HETATM   23  O2  UNL     1     -45.167  17.770 -10.030  1.00  0.00    -0.277 OA
ENDBRANCH  18  21
ENDBRANCH   1  15
TORSDOF 7
ENDMDL
MODEL 5
REMARK VINA RESULT: -6.855936982      1.324      1.866
REMARK  7 active torsions:
REMARK  status: ('A' for Active; 'I' for Inactive)
REMARK    1  A    between atoms: N1_2  and  C2_3 
REMARK    2  A    between atoms: N1_2  and  C10_12 
REMARK    3  A    between atoms: C2_3  and  C3_4 
REMARK    4  A    between atoms: C3_4  and  C4_5 
REMARK    5  A    between atoms: C10_12  and  O1_13 
REMARK    6  A    between atoms: C10_12  and  N2_15 
REMARK    7  A    between atoms: C13_18  and  C14_19 
ROOT
HETATM    1  C10 UNL     1     -46.846  12.913  -8.466  1.00  0.00     0.216 C 
ENDROOT
BRANCH   1   2
HETATM    2  N1  UNL     1     -47.394  12.396  -7.300  1.00  0.00    -0.352 N 
HETATM    3  C1  UNL     1     -46.723  12.841  -6.035  1.00  0.00     0.153 C 
BRANCH   2   4
HETATM    4  C2  UNL     1     -48.532  11.534  -7.177  1.00  0.00     0.126 C 
BRANCH   4   5
HETATM    5  C3  UNL     1     -48.154  10.420  -6.211  1.00  0.00     0.027 C 
BRANCH   5   6
HETATM    6  C4  UNL     1     -49.044  10.392  -4.994  1.00  0.00     0.021 C 
HETATM    7  C5  UNL     1     -48.286  10.322  -3.702  1.00  0.00     0.007 C 
HETATM    8  C6  UNL     1     -49.167  10.026  -2.546  1.00  0.00     0.001 C 
HETATM    9  C7  UNL     1     -50.618   9.924  -2.851  1.00  0.00     0.003 C 
HETATM   10  C8  UNL     1     -50.963   9.196  -4.098  1.00  0.00     0.037 C 
HETATM   11  C9  UNL     1     -49.843   9.086  -5.091  1.00  0.00     0.174 C 
HETATM   12  F1  UNL     1     -48.984   8.095  -4.626  1.00  0.00    -0.249 F 
ENDBRANCH   5   6
ENDBRANCH   4   5
ENDBRANCH   2   4
ENDBRANCH   1   2
BRANCH   1  13
HETATM   13  O1  UNL     1     -47.119  12.186  -9.540  1.00  0.00    -0.333 OA
ATOM     14  H1  UNL     1     -48.050  12.071  -9.690  1.00  0.00     0.220 HD
ENDBRANCH   1  13
BRANCH   1  15
HETATM   15  N2  UNL     1     -46.079  14.046  -8.659  1.00  0.00    -0.347 N 
HETATM   16  C11 UNL     1     -44.730  14.160  -9.063  1.00  0.00     0.127 C 
HETATM   17  C12 UNL     1     -44.361  15.632  -9.342  1.00  0.00     0.034 C 
HETATM   18  C13 UNL     1     -44.617  16.486  -8.139  1.00  0.00     0.078 C 
HETATM   19  C15 UNL     1     -45.856  16.053  -7.383  1.00  0.00     0.034 C 
HETATM   20  C16 UNL     1     -46.748  15.357  -8.410  1.00  0.00     0.127 C 
BRANCH  18  21
HETATM   21  C14 UNL     1     -43.476  16.505  -7.196  1.00  0.00     0.235 C 
HETATM   22  N3  UNL     1     -43.709  16.608  -5.803  1.00  0.00    -0.062 NA
HETATM   23  O2  UNL     1     -42.288  16.432  -7.594  1.00  0.00    -0.277 OA
ENDBRANCH  18  21
ENDBRANCH   1  15
TORSDOF 7
ENDMDL
