MODEL 1
REMARK VINA RESULT: -6.246787627      0.000      0.000
REMARK  4 active torsions:
REMARK  status: ('A' for Active; 'I' for Inactive)
REMARK    1  A    between atoms: C2_2  and  C3_3 
REMARK    2  A    between atoms: C3_3  and  C4_4 
REMARK       I    between atoms: C4_4  and  N1_6 
REMARK    3  A    between atoms: C7_9  and  C8_11 
REMARK       I    between atoms: C8_11  and  N2_13 
REMARK    4  A    between atoms: N2_13  and  C9_15 
ROOT
HETATM    1  C4  UNL     1     -47.370  11.775  -5.702  1.00  0.00     0.219 C 
HETATM    2  O1  UNL     1     -47.048  11.659  -4.487  1.00  0.00    -0.273 OA
HETATM    3  N1  UNL     1     -46.977  12.898  -6.479  1.00  0.00    -0.352 N 
HETATM    4  C5  UNL     1     -46.181  13.929  -5.828  1.00  0.00     0.129 C 
HETATM    5  C6  UNL     1     -44.941  14.169  -6.636  1.00  0.00     0.074 C 
HETATM    6  C7  UNL     1     -45.160  14.147  -8.109  1.00  0.00     0.189 C 
HETATM    7  F1  UNL     1     -44.636  12.942  -8.587  1.00  0.00    -0.232 F 
HETATM    8  C15 UNL     1     -46.617  14.162  -8.497  1.00  0.00     0.049 C 
HETATM    9  C16 UNL     1     -47.311  15.443  -8.221  1.00  0.00     0.015 C 
HETATM   10  C17 UNL     1     -47.352  13.009  -7.855  1.00  0.00     0.133 C 
ENDROOT
BRANCH   6  11
HETATM   11  C8  UNL     1     -44.435  15.223  -8.823  1.00  0.00     0.258 C 
HETATM   12  O2  UNL     1     -44.331  15.244 -10.072  1.00  0.00    -0.270 OA
HETATM   13  N2  UNL     1     -43.840  16.264  -8.076  1.00  0.00    -0.354 N 
ATOM     14  H2  UNL     1     -43.911  16.270  -7.059  1.00  0.00     0.163 HD
BRANCH  13  15
HETATM   15  C9  UNL     1     -43.135  17.312  -8.754  1.00  0.00     0.084 C 
HETATM   16  C10 UNL     1     -44.017  18.538  -8.914  1.00  0.00     0.025 C 
HETATM   17  C11 UNL     1     -43.182  19.695  -9.399  1.00  0.00     0.002 C 
HETATM   18  C12 UNL     1     -42.134  20.095  -8.385  1.00  0.00     0.000 C 
HETATM   19  C13 UNL     1     -42.102  19.007  -7.330  1.00  0.00     0.002 C 
HETATM   20  C14 UNL     1     -41.855  17.695  -8.050  1.00  0.00     0.025 C 
ENDBRANCH  13  15
ENDBRANCH   6  11
BRANCH   1  21
HETATM   21  C3  UNL     1     -48.172  10.716  -6.321  1.00  0.00     0.103 C 
BRANCH  21  22
HETATM   22  C2  UNL     1     -49.245  10.216  -5.388  1.00  0.00     0.005 C 
HETATM   23  C1  UNL     1     -49.243   8.701  -5.297  1.00  0.00     0.005 C 
ENDBRANCH  21  22
ENDBRANCH   1  21
TORSDOF 4
ENDMDL
MODEL 2
REMARK VINA RESULT: -6.171194725      1.874      7.697
REMARK  4 active torsions:
REMARK  status: ('A' for Active; 'I' for Inactive)
REMARK    1  A    between atoms: C2_2  and  C3_3 
REMARK    2  A    between atoms: C3_3  and  C4_4 
REMARK       I    between atoms: C4_4  and  N1_6 
REMARK    3  A    between atoms: C7_9  and  C8_11 
REMARK       I    between atoms: C8_11  and  N2_13 
REMARK    4  A    between atoms: N2_13  and  C9_15 
ROOT
HETATM    1  C4  UNL     1     -41.868  15.772  -8.049  1.00  0.00     0.219 C 
HETATM    2  O1  UNL     1     -40.853  15.381  -7.409  1.00  0.00    -0.273 OA
HETATM    3  N1  UNL     1     -43.105  15.077  -7.991  1.00  0.00    -0.352 N 
HETATM    4  C5  UNL     1     -43.176  13.883  -7.160  1.00  0.00     0.129 C 
HETATM    5  C6  UNL     1     -44.326  14.020  -6.207  1.00  0.00     0.074 C 
HETATM    6  C7  UNL     1     -45.539  14.645  -6.804  1.00  0.00     0.189 C 
HETATM    7  F1  UNL     1     -45.621  15.949  -6.305  1.00  0.00    -0.232 F 
HETATM    8  C15 UNL     1     -45.473  14.766  -8.306  1.00  0.00     0.049 C 
HETATM    9  C16 UNL     1     -45.550  13.473  -9.028  1.00  0.00     0.015 C 
HETATM   10  C17 UNL     1     -44.244  15.538  -8.725  1.00  0.00     0.133 C 
ENDROOT
BRANCH   6  11
HETATM   11  C8  UNL     1     -46.798  13.973  -6.406  1.00  0.00     0.258 C 
HETATM   12  O2  UNL     1     -47.925  14.440  -6.693  1.00  0.00    -0.270 OA
HETATM   13  N2  UNL     1     -46.730  12.763  -5.678  1.00  0.00    -0.354 N 
ATOM     14  H2  UNL     1     -45.825  12.363  -5.433  1.00  0.00     0.163 HD
BRANCH  13  15
HETATM   15  C9  UNL     1     -47.940  12.101  -5.286  1.00  0.00     0.084 C 
HETATM   16  C10 UNL     1     -48.072  10.761  -5.986  1.00  0.00     0.025 C 
HETATM   17  C11 UNL     1     -49.211   9.987  -5.375  1.00  0.00     0.002 C 
HETATM   18  C12 UNL     1     -48.945   9.648  -3.926  1.00  0.00     0.000 C 
HETATM   19  C13 UNL     1     -47.730  10.449  -3.500  1.00  0.00     0.002 C 
HETATM   20  C14 UNL     1     -48.031  11.907  -3.792  1.00  0.00     0.025 C 
ENDBRANCH  13  15
ENDBRANCH   6  11
BRANCH   1  21
HETATM   21  C3  UNL     1     -41.756  16.978  -8.875  1.00  0.00     0.103 C 
BRANCH  21  22
HETATM   22  C2  UNL     1     -42.025  18.225  -8.072  1.00  0.00     0.005 C 
HETATM   23  C1  UNL     1     -43.007  19.142  -8.780  1.00  0.00     0.005 C 
ENDBRANCH  21  22
ENDBRANCH   1  21
TORSDOF 4
ENDMDL
MODEL 3
REMARK VINA RESULT: -6.167658344      1.825      8.009
REMARK  4 active torsions:
REMARK  status: ('A' for Active; 'I' for Inactive)
REMARK    1  A    between atoms: C2_2  and  C3_3 
REMARK    2  A    between atoms: C3_3  and  C4_4 
REMARK       I    between atoms: C4_4  and  N1_6 
REMARK    3  A    between atoms: C7_9  and  C8_11 
REMARK       I    between atoms: C8_11  and  N2_13 
REMARK    4  A    between atoms: N2_13  and  C9_15 
ROOT
HETATM    1  C4  UNL     1     -44.366  16.268  -8.895  1.00  0.00     0.219 C 
HETATM    2  O1  UNL     1     -43.124  16.258  -9.121  1.00  0.00    -0.273 OA
HETATM    3  N1  UNL     1     -45.020  15.184  -8.252  1.00  0.00    -0.352 N 
HETATM    4  C5  UNL     1     -44.210  14.042  -7.852  1.00  0.00     0.129 C 
HETATM    5  C6  UNL     1     -44.439  13.768  -6.396  1.00  0.00     0.074 C 
HETATM    6  C7  UNL     1     -45.855  13.928  -5.962  1.00  0.00     0.189 C 
HETATM    7  F1  UNL     1     -45.934  15.121  -5.237  1.00  0.00    -0.232 F 
HETATM    8  C15 UNL     1     -46.822  14.063  -7.112  1.00  0.00     0.049 C 
HETATM    9  C16 UNL     1     -47.005  12.824  -7.906  1.00  0.00     0.015 C 
HETATM   10  C17 UNL     1     -46.430  15.216  -8.006  1.00  0.00     0.133 C 
ENDROOT
BRANCH   6  11
HETATM   11  C8  UNL     1     -46.309  12.858  -5.043  1.00  0.00     0.258 C 
HETATM   12  O2  UNL     1     -45.511  12.212  -4.323  1.00  0.00    -0.270 OA
HETATM   13  N2  UNL     1     -47.687  12.551  -4.973  1.00  0.00    -0.354 N 
ATOM     14  H2  UNL     1     -48.355  13.063  -5.548  1.00  0.00     0.163 HD
BRANCH  13  15
HETATM   15  C9  UNL     1     -48.140  11.518  -4.089  1.00  0.00     0.084 C 
HETATM   16  C10 UNL     1     -49.355  11.977  -3.302  1.00  0.00     0.025 C 
HETATM   17  C11 UNL     1     -49.953  10.801  -2.574  1.00  0.00     0.002 C 
HETATM   18  C12 UNL     1     -50.478   9.756  -3.533  1.00  0.00     0.000 C 
HETATM   19  C13 UNL     1     -49.971  10.127  -4.912  1.00  0.00     0.002 C 
HETATM   20  C14 UNL     1     -48.460  10.235  -4.818  1.00  0.00     0.025 C 
ENDBRANCH  13  15
ENDBRANCH   6  11
BRANCH   1  21
HETATM   21  C3  UNL     1     -45.147  17.436  -9.313  1.00  0.00     0.103 C 
BRANCH  21  22
HETATM   22  C2  UNL     1     -44.317  18.695  -9.290  1.00  0.00     0.005 C 
HETATM   23  C1  UNL     1     -45.001  19.826 -10.036  1.00  0.00     0.005 C 
ENDBRANCH  21  22
ENDBRANCH   1  21
TORSDOF 4
ENDMDL
MODEL 4
REMARK VINA RESULT: -6.124983876      1.937      7.929
REMARK  4 active torsions:
REMARK  status: ('A' for Active; 'I' for Inactive)
REMARK    1  A    between atoms: C2_2  and  C3_3 
REMARK    2  A    between atoms: C3_3  and  C4_4 
REMARK       I    between atoms: C4_4  and  N1_6 
REMARK    3  A    between atoms: C7_9  and  C8_11 
REMARK       I    between atoms: C8_11  and  N2_13 
REMARK    4  A    between atoms: N2_13  and  C9_15 
ROOT
HETATM    1  C4  UNL     1     -43.912  18.066  -8.543  1.00  0.00     0.219 C 
HETATM    2  O1  UNL     1     -42.950  18.724  -8.062  1.00  0.00    -0.273 OA
HETATM    3  N1  UNL     1     -44.177  16.726  -8.150  1.00  0.00    -0.352 N 
HETATM    4  C5  UNL     1     -43.296  16.122  -7.161  1.00  0.00     0.129 C 
HETATM    5  C6  UNL     1     -44.126  15.583  -6.035  1.00  0.00     0.074 C 
HETATM    6  C7  UNL     1     -45.395  14.936  -6.469  1.00  0.00     0.189 C 
HETATM    7  F1  UNL     1     -46.436  15.813  -6.153  1.00  0.00    -0.232 F 
HETATM    8  C15 UNL     1     -45.469  14.703  -7.957  1.00  0.00     0.049 C 
HETATM    9  C16 UNL     1     -44.542  13.661  -8.461  1.00  0.00     0.015 C 
HETATM   10  C17 UNL     1     -45.275  15.998  -8.710  1.00  0.00     0.133 C 
ENDROOT
BRANCH   6  11
HETATM   11  C8  UNL     1     -45.685  13.675  -5.745  1.00  0.00     0.258 C 
HETATM   12  O2  UNL     1     -44.832  13.109  -5.022  1.00  0.00    -0.270 OA
HETATM   13  N2  UNL     1     -46.964  13.089  -5.872  1.00  0.00    -0.354 N 
ATOM     14  H2  UNL     1     -47.675  13.531  -6.455  1.00  0.00     0.163 HD
BRANCH  13  15
HETATM   15  C9  UNL     1     -47.259  11.870  -5.178  1.00  0.00     0.084 C 
HETATM   16  C10 UNL     1     -48.233  12.119  -4.041  1.00  0.00     0.025 C 
HETATM   17  C11 UNL     1     -48.712  10.800  -3.494  1.00  0.00     0.002 C 
HETATM   18  C12 UNL     1     -49.500  10.019  -4.521  1.00  0.00     0.000 C 
HETATM   19  C13 UNL     1     -49.304  10.717  -5.852  1.00  0.00     0.002 C 
HETATM   20  C14 UNL     1     -47.809  10.804  -6.095  1.00  0.00     0.025 C 
ENDBRANCH  13  15
ENDBRANCH   6  11
BRANCH   1  21
HETATM   21  C3  UNL     1     -44.777  18.710  -9.537  1.00  0.00     0.103 C 
BRANCH  21  22
HETATM   22  C2  UNL     1     -44.354  20.133  -9.800  1.00  0.00     0.005 C 
HETATM   23  C1  UNL     1     -45.477  20.941 -10.424  1.00  0.00     0.005 C 
ENDBRANCH  21  22
ENDBRANCH   1  21
TORSDOF 4
ENDMDL
MODEL 5
REMARK VINA RESULT: -6.008734937      1.878      2.440
REMARK  4 active torsions:
REMARK  status: ('A' for Active; 'I' for Inactive)
REMARK    1  A    between atoms: C2_2  and  C3_3 
REMARK    2  A    between atoms: C3_3  and  C4_4 
REMARK       I    between atoms: C4_4  and  N1_6 
REMARK    3  A    between atoms: C7_9  and  C8_11 
REMARK       I    between atoms: C8_11  and  N2_13 
REMARK    4  A    between atoms: N2_13  and  C9_15 
ROOT
HETATM    1  C4  UNL     1     -47.117  13.467  -7.175  1.00  0.00     0.219 C 
HETATM    2  O1  UNL     1     -47.746  13.665  -6.099  1.00  0.00    -0.273 OA
HETATM    3  N1  UNL     1     -46.090  14.345  -7.617  1.00  0.00    -0.352 N 
HETATM    4  C5  UNL     1     -45.776  15.497  -6.784  1.00  0.00     0.129 C 
HETATM    5  C6  UNL     1     -44.306  15.501  -6.492  1.00  0.00     0.074 C 
HETATM    6  C7  UNL     1     -43.455  15.101  -7.648  1.00  0.00     0.189 C 
HETATM    7  F1  UNL     1     -42.994  13.806  -7.394  1.00  0.00    -0.232 F 
HETATM    8  C15 UNL     1     -44.210  15.037  -8.952  1.00  0.00     0.049 C 
HETATM    9  C16 UNL     1     -44.637  16.357  -9.477  1.00  0.00     0.015 C 
HETATM   10  C17 UNL     1     -45.390  14.101  -8.841  1.00  0.00     0.133 C 
ENDROOT
BRANCH   6  11
HETATM   11  C8  UNL     1     -42.247  15.945  -7.803  1.00  0.00     0.258 C 
HETATM   12  O2  UNL     1     -41.164  15.487  -8.237  1.00  0.00    -0.270 OA
HETATM   13  N2  UNL     1     -42.314  17.311  -7.451  1.00  0.00    -0.354 N 
ATOM     14  H2  UNL     1     -43.184  17.707  -7.096  1.00  0.00     0.163 HD
BRANCH  13  15
HETATM   15  C9  UNL     1     -41.153  18.140  -7.596  1.00  0.00     0.084 C 
HETATM   16  C10 UNL     1     -41.113  18.774  -8.975  1.00  0.00     0.025 C 
HETATM   17  C11 UNL     1     -40.030  19.821  -9.013  1.00  0.00     0.002 C 
HETATM   18  C12 UNL     1     -40.321  20.963  -8.065  1.00  0.00     0.000 C 
HETATM   19  C13 UNL     1     -41.479  20.526  -7.189  1.00  0.00     0.002 C 
HETATM   20  C14 UNL     1     -41.078  19.215  -6.539  1.00  0.00     0.025 C 
ENDBRANCH  13  15
ENDBRANCH   6  11
BRANCH   1  21
HETATM   21  C3  UNL     1     -47.462  12.296  -7.986  1.00  0.00     0.103 C 
BRANCH  21  22
HETATM   22  C2  UNL     1     -48.567  11.489  -7.352  1.00  0.00     0.005 C 
HETATM   23  C1  UNL     1     -48.024  10.258  -6.649  1.00  0.00     0.005 C 
ENDBRANCH  21  22
ENDBRANCH   1  21
TORSDOF 4
ENDMDL
