MODEL 1
REMARK VINA RESULT: -7.217771096      0.000      0.000
REMARK  4 active torsions:
REMARK  status: ('A' for Active; 'I' for Inactive)
REMARK    1  A    between atoms: C10_11  and  C11_12 
REMARK    2  A    between atoms: C11_12  and  N1_13 
REMARK       I    between atoms: N1_13  and  C12_15 
REMARK    3  A    between atoms: C12_15  and  C13_17 
REMARK    4  A    between atoms: C13_17  and  N2_18 
ROOT
HETATM    1  C1  UNL     1     -46.421  13.618  -5.814  1.00  0.00     0.052 C 
HETATM    2  C2  UNL     1     -46.313  14.810  -6.701  1.00  0.00     0.107 C 
HETATM    3  F1  UNL     1     -46.858  15.893  -5.992  1.00  0.00    -0.243 F 
HETATM    4  C3  UNL     1     -47.055  14.701  -7.977  1.00  0.00     0.026 C 
HETATM    5  C4  UNL     1     -46.980  13.398  -8.689  1.00  0.00     0.008 C 
HETATM    6  C5  UNL     1     -45.691  12.975  -9.220  1.00  0.00     0.005 C 
HETATM    7  C6  UNL     1     -44.530  13.902  -9.028  1.00  0.00    -0.013 C 
HETATM    8  C7  UNL     1     -44.120  14.031  -7.566  1.00  0.00     0.012 C 
HETATM    9  C8  UNL     1     -44.850  15.132  -6.879  1.00  0.00     0.027 C 
HETATM   10  C9  UNL     1     -44.728  16.433  -7.574  1.00  0.00     0.023 C 
HETATM   11  C10 UNL     1     -45.366  16.297  -8.971  1.00  0.00    -0.007 C 
HETATM   12  C17 UNL     1     -44.633  15.200  -9.734  1.00  0.00     0.019 C 
HETATM   13  C18 UNL     1     -46.773  15.901  -8.879  1.00  0.00     0.022 C 
ENDROOT
BRANCH  11  14
HETATM   14  C11 UNL     1     -45.087  17.570  -9.663  1.00  0.00     0.073 C 
BRANCH  14  15
HETATM   15  N1  UNL     1     -44.056  18.455  -9.296  1.00  0.00    -0.338 N 
HETATM   16  C12 UNL     1     -43.994  19.843  -9.323  1.00  0.00     0.255 C 
HETATM   17  O1  UNL     1     -44.987  20.555  -9.699  1.00  0.00    -0.271 OA
ATOM     18  H1  UNL     1     -43.209  18.000  -8.952  1.00  0.00     0.167 HD
BRANCH  16  19
HETATM   19  C13 UNL     1     -42.818  20.645  -8.936  1.00  0.00     0.414 C 
BRANCH  19  20
HETATM   20  N2  UNL     1     -41.906  19.993  -8.071  1.00  0.00     0.022 N 
HETATM   21  O2  UNL     1     -42.497  19.247  -7.105  1.00  0.00    -0.064 OA
HETATM   22  C14 UNL     1     -40.987  20.950  -7.405  1.00  0.00     0.315 C 
HETATM   23  C15 UNL     1     -40.037  20.782  -8.543  1.00  0.00     0.073 C 
HETATM   24  C16 UNL     1     -40.712  19.434  -8.675  1.00  0.00     0.315 C 
ENDBRANCH  19  20
ENDBRANCH  16  19
ENDBRANCH  14  15
ENDBRANCH  11  14
TORSDOF 4
ENDMDL
MODEL 2
REMARK VINA RESULT: -7.168667497      1.102      2.107
REMARK  4 active torsions:
REMARK  status: ('A' for Active; 'I' for Inactive)
REMARK    1  A    between atoms: C10_11  and  C11_12 
REMARK    2  A    between atoms: C11_12  and  N1_13 
REMARK       I    between atoms: N1_13  and  C12_15 
REMARK    3  A    between atoms: C12_15  and  C13_17 
REMARK    4  A    between atoms: C13_17  and  N2_18 
ROOT
HETATM    1  C1  UNL     1     -46.994  12.505  -7.963  1.00  0.00     0.052 C 
HETATM    2  C2  UNL     1     -46.497  13.699  -8.702  1.00  0.00     0.107 C 
HETATM    3  F1  UNL     1     -47.016  13.614 -10.004  1.00  0.00    -0.243 F 
HETATM    4  C3  UNL     1     -45.024  13.784  -8.821  1.00  0.00     0.026 C 
HETATM    5  C4  UNL     1     -44.231  13.438  -7.610  1.00  0.00     0.008 C 
HETATM    6  C5  UNL     1     -44.345  14.298  -6.441  1.00  0.00     0.005 C 
HETATM    7  C6  UNL     1     -45.243  15.492  -6.551  1.00  0.00    -0.013 C 
HETATM    8  C7  UNL     1     -46.713  15.110  -6.671  1.00  0.00     0.012 C 
HETATM    9  C8  UNL     1     -47.125  14.926  -8.089  1.00  0.00     0.027 C 
HETATM   10  C9  UNL     1     -46.817  16.096  -8.941  1.00  0.00     0.023 C 
HETATM   11  C10 UNL     1     -45.288  16.294  -8.958  1.00  0.00    -0.007 C 
HETATM   12  C17 UNL     1     -44.814  16.520  -7.526  1.00  0.00     0.019 C 
HETATM   13  C18 UNL     1     -44.601  15.104  -9.463  1.00  0.00     0.022 C 
ENDROOT
BRANCH  11  14
HETATM   14  C11 UNL     1     -45.055  17.550  -9.697  1.00  0.00     0.073 C 
BRANCH  14  15
HETATM   15  N1  UNL     1     -44.070  18.494  -9.353  1.00  0.00    -0.338 N 
HETATM   16  C12 UNL     1     -44.091  19.884  -9.383  1.00  0.00     0.255 C 
HETATM   17  O1  UNL     1     -45.133  20.534  -9.740  1.00  0.00    -0.271 OA
ATOM     18  H1  UNL     1     -43.192  18.091  -9.026  1.00  0.00     0.167 HD
BRANCH  16  19
HETATM   19  C13 UNL     1     -42.957  20.755  -9.021  1.00  0.00     0.414 C 
BRANCH  19  20
HETATM   20  N2  UNL     1     -42.008  20.171  -8.148  1.00  0.00     0.022 N 
HETATM   21  O2  UNL     1     -42.553  19.402  -7.173  1.00  0.00    -0.064 OA
HETATM   22  C14 UNL     1     -41.151  21.191  -7.493  1.00  0.00     0.315 C 
HETATM   23  C15 UNL     1     -40.191  21.068  -8.629  1.00  0.00     0.073 C 
HETATM   24  C16 UNL     1     -40.781  19.679  -8.744  1.00  0.00     0.315 C 
ENDBRANCH  19  20
ENDBRANCH  16  19
ENDBRANCH  14  15
ENDBRANCH  11  14
TORSDOF 4
ENDMDL
MODEL 3
REMARK VINA RESULT: -6.768550351      4.901      8.167
REMARK  4 active torsions:
REMARK  status: ('A' for Active; 'I' for Inactive)
REMARK    1  A    between atoms: C10_11  and  C11_12 
REMARK    2  A    between atoms: C11_12  and  N1_13 
REMARK       I    between atoms: N1_13  and  C12_15 
REMARK    3  A    between atoms: C12_15  and  C13_17 
REMARK    4  A    between atoms: C13_17  and  N2_18 
ROOT
HETATM    1  C1  UNL     1     -42.861  15.535  -6.881  1.00  0.00     0.052 C 
HETATM    2  C2  UNL     1     -43.833  14.455  -7.209  1.00  0.00     0.107 C 
HETATM    3  F1  UNL     1     -43.235  13.243  -6.827  1.00  0.00    -0.243 F 
HETATM    4  C3  UNL     1     -44.173  14.344  -8.646  1.00  0.00     0.026 C 
HETATM    5  C4  UNL     1     -44.397  15.616  -9.384  1.00  0.00     0.008 C 
HETATM    6  C5  UNL     1     -45.542  16.436  -9.014  1.00  0.00     0.005 C 
HETATM    7  C6  UNL     1     -46.431  15.923  -7.923  1.00  0.00    -0.013 C 
HETATM    8  C7  UNL     1     -45.740  15.906  -6.565  1.00  0.00     0.012 C 
HETATM    9  C8  UNL     1     -45.036  14.619  -6.315  1.00  0.00     0.027 C 
HETATM   10  C9  UNL     1     -45.913  13.437  -6.472  1.00  0.00     0.023 C 
HETATM   11  C10 UNL     1     -46.400  13.386  -7.934  1.00  0.00    -0.007 C 
HETATM   12  C17 UNL     1     -47.160  14.673  -8.235  1.00  0.00     0.019 C 
HETATM   13  C18 UNL     1     -45.277  13.312  -8.870  1.00  0.00     0.022 C 
ENDROOT
BRANCH  11  14
HETATM   14  C11 UNL     1     -47.376  12.280  -7.991  1.00  0.00     0.073 C 
BRANCH  14  15
HETATM   15  N1  UNL     1     -48.182  11.886  -6.907  1.00  0.00    -0.338 N 
HETATM   16  C12 UNL     1     -48.418  10.631  -6.357  1.00  0.00     0.255 C 
HETATM   17  O1  UNL     1     -47.843   9.580  -6.804  1.00  0.00    -0.271 OA
ATOM     18  H1  UNL     1     -48.678  12.650  -6.448  1.00  0.00     0.167 HD
BRANCH  16  19
HETATM   19  C13 UNL     1     -49.327  10.361  -5.227  1.00  0.00     0.414 C 
BRANCH  19  20
HETATM   20  N2  UNL     1     -48.888  10.852  -3.974  1.00  0.00     0.022 N 
HETATM   21  O2  UNL     1     -47.778  11.628  -4.042  1.00  0.00    -0.064 OA
HETATM   22  C14 UNL     1     -48.616   9.755  -3.010  1.00  0.00     0.315 C 
HETATM   23  C15 UNL     1     -50.033   9.844  -2.555  1.00  0.00     0.073 C 
HETATM   24  C16 UNL     1     -49.912  11.274  -3.038  1.00  0.00     0.315 C 
ENDBRANCH  19  20
ENDBRANCH  16  19
ENDBRANCH  14  15
ENDBRANCH  11  14
TORSDOF 4
ENDMDL
MODEL 4
REMARK VINA RESULT: -6.760527971      5.078      8.464
REMARK  4 active torsions:
REMARK  status: ('A' for Active; 'I' for Inactive)
REMARK    1  A    between atoms: C10_11  and  C11_12 
REMARK    2  A    between atoms: C11_12  and  N1_13 
REMARK       I    between atoms: N1_13  and  C12_15 
REMARK    3  A    between atoms: C12_15  and  C13_17 
REMARK    4  A    between atoms: C13_17  and  N2_18 
ROOT
HETATM    1  C1  UNL     1     -44.755  16.605  -9.058  1.00  0.00     0.052 C 
HETATM    2  C2  UNL     1     -44.846  15.755  -7.838  1.00  0.00     0.107 C 
HETATM    3  F1  UNL     1     -44.054  16.370  -6.856  1.00  0.00    -0.243 F 
HETATM    4  C3  UNL     1     -44.342  14.373  -8.007  1.00  0.00     0.026 C 
HETATM    5  C4  UNL     1     -44.706  13.675  -9.270  1.00  0.00     0.008 C 
HETATM    6  C5  UNL     1     -46.108  13.362  -9.507  1.00  0.00     0.005 C 
HETATM    7  C6  UNL     1     -47.088  13.748  -8.441  1.00  0.00    -0.013 C 
HETATM    8  C7  UNL     1     -47.234  15.258  -8.301  1.00  0.00     0.012 C 
HETATM    9  C8  UNL     1     -46.263  15.822  -7.324  1.00  0.00     0.027 C 
HETATM   10  C9  UNL     1     -46.322  15.165  -6.000  1.00  0.00     0.023 C 
HETATM   11  C10 UNL     1     -45.943  13.680  -6.179  1.00  0.00    -0.007 C 
HETATM   12  C17 UNL     1     -46.931  13.043  -7.150  1.00  0.00     0.019 C 
HETATM   13  C18 UNL     1     -44.606  13.536  -6.756  1.00  0.00     0.022 C 
ENDROOT
BRANCH  11  14
HETATM   14  C11 UNL     1     -46.160  13.051  -4.861  1.00  0.00     0.073 C 
BRANCH  14  15
HETATM   15  N1  UNL     1     -47.379  12.478  -4.454  1.00  0.00    -0.338 N 
HETATM   16  C12 UNL     1     -47.904  12.260  -3.186  1.00  0.00     0.255 C 
HETATM   17  O1  UNL     1     -47.284  12.622  -2.128  1.00  0.00    -0.271 OA
ATOM     18  H1  UNL     1     -47.979  12.169  -5.220  1.00  0.00     0.167 HD
BRANCH  16  19
HETATM   19  C13 UNL     1     -49.198  11.607  -2.907  1.00  0.00     0.414 C 
BRANCH  19  20
HETATM   20  N2  UNL     1     -49.243  10.222  -3.191  1.00  0.00     0.022 N 
HETATM   21  O2  UNL     1     -48.032   9.611  -3.166  1.00  0.00    -0.064 OA
HETATM   22  C14 UNL     1     -49.862   9.943  -4.513  1.00  0.00     0.315 C 
HETATM   23  C15 UNL     1     -51.190   9.854  -3.838  1.00  0.00     0.073 C 
HETATM   24  C16 UNL     1     -50.353   9.472  -2.635  1.00  0.00     0.315 C 
ENDBRANCH  19  20
ENDBRANCH  16  19
ENDBRANCH  14  15
ENDBRANCH  11  14
TORSDOF 4
ENDMDL
MODEL 5
REMARK VINA RESULT: -6.594249929      4.524      6.794
REMARK  4 active torsions:
REMARK  status: ('A' for Active; 'I' for Inactive)
REMARK    1  A    between atoms: C10_11  and  C11_12 
REMARK    2  A    between atoms: C11_12  and  N1_13 
REMARK       I    between atoms: N1_13  and  C12_15 
REMARK    3  A    between atoms: C12_15  and  C13_17 
REMARK    4  A    between atoms: C13_17  and  N2_18 
ROOT
HETATM    1  C1  UNL     1     -50.749   8.769  -3.685  1.00  0.00     0.052 C 
HETATM    2  C2  UNL     1     -49.997   9.929  -4.239  1.00  0.00     0.107 C 
HETATM    3  F1  UNL     1     -50.933  10.741  -4.900  1.00  0.00    -0.243 F 
HETATM    4  C3  UNL     1     -48.949   9.575  -5.224  1.00  0.00     0.026 C 
HETATM    5  C4  UNL     1     -48.106   8.390  -4.911  1.00  0.00     0.008 C 
HETATM    6  C5  UNL     1     -47.221   8.459  -3.756  1.00  0.00     0.005 C 
HETATM    7  C6  UNL     1     -47.207   9.737  -2.975  1.00  0.00    -0.013 C 
HETATM    8  C7  UNL     1     -48.520   9.990  -2.245  1.00  0.00     0.012 C 
HETATM    9  C8  UNL     1     -49.485  10.752  -3.083  1.00  0.00     0.027 C 
HETATM   10  C9  UNL     1     -48.925  12.018  -3.608  1.00  0.00     0.023 C 
HETATM   11  C10 UNL     1     -47.732  11.676  -4.524  1.00  0.00    -0.007 C 
HETATM   12  C17 UNL     1     -46.694  10.919  -3.704  1.00  0.00     0.019 C 
HETATM   13  C18 UNL     1     -48.138  10.805  -5.628  1.00  0.00     0.022 C 
ENDROOT
BRANCH  11  14
HETATM   14  C11 UNL     1     -47.132  12.972  -4.897  1.00  0.00     0.073 C 
BRANCH  14  15
HETATM   15  N1  UNL     1     -46.536  13.232  -6.146  1.00  0.00    -0.338 N 
HETATM   16  C12 UNL     1     -46.935  14.056  -7.191  1.00  0.00     0.255 C 
HETATM   17  O1  UNL     1     -47.991  14.773  -7.119  1.00  0.00    -0.271 OA
ATOM     18  H1  UNL     1     -45.663  12.730  -6.311  1.00  0.00     0.167 HD
BRANCH  16  19
HETATM   19  C13 UNL     1     -46.218  14.204  -8.472  1.00  0.00     0.414 C 
BRANCH  19  20
HETATM   20  N2  UNL     1     -44.918  14.756  -8.370  1.00  0.00     0.022 N 
HETATM   21  O2  UNL     1     -44.055  14.008  -7.637  1.00  0.00    -0.064 OA
HETATM   22  C14 UNL     1     -44.936  16.123  -7.791  1.00  0.00     0.315 C 
HETATM   23  C15 UNL     1     -45.068  16.673  -9.172  1.00  0.00     0.073 C 
HETATM   24  C16 UNL     1     -44.375  15.384  -9.559  1.00  0.00     0.315 C 
ENDBRANCH  19  20
ENDBRANCH  16  19
ENDBRANCH  14  15
ENDBRANCH  11  14
TORSDOF 4
ENDMDL
