MODEL 1
REMARK VINA RESULT: -5.657133576      0.000      0.000
REMARK  4 active torsions:
REMARK  status: ('A' for Active; 'I' for Inactive)
REMARK    1  A    between atoms: C3_3  and  C4_5 
REMARK    2  A    between atoms: C4_5  and  C5_6 
REMARK    3  A    between atoms: C5_6  and  C6_7 
REMARK    4  A    between atoms: C6_7  and  C8_9 
ROOT
HETATM    1  C4  UNL     1     -48.402  11.075  -4.200  1.00  0.00     0.177 C 
HETATM    2  C11 UNL     1     -48.835  10.462  -5.509  1.00  0.00     0.050 C 
HETATM    3  C12 UNL     1     -48.126   9.131  -5.642  1.00  0.00     0.031 C 
HETATM    4  C13 UNL     1     -47.719   8.834  -4.239  1.00  0.00     0.234 C 
HETATM    5  N1  UNL     1     -47.590  10.070  -3.537  1.00  0.00    -0.058 N 
ATOM      6  H11 UNL     1     -47.813   9.980  -2.546  1.00  0.00     0.278 HD
ATOM      7  H12 UNL     1     -46.617  10.360  -3.437  1.00  0.00     0.278 HD
ENDROOT
BRANCH   1   8
HETATM    8  C3  UNL     1     -49.662  11.165  -3.387  1.00  0.00     0.024 C 
HETATM    9  C2  UNL     1     -49.836  12.126  -2.525  1.00  0.00    -0.013 C 
HETATM   10  C1  UNL     1     -51.100  12.233  -1.697  1.00  0.00     0.037 C 
HETATM   11 BR1  UNL     1     -51.001   9.848  -3.639  1.00  0.00    -0.053 Br
ENDBRANCH   1   8
BRANCH   1  12
HETATM   12  C5  UNL     1     -47.796  12.389  -4.314  1.00  0.00     0.020 C 
BRANCH  12  13
HETATM   13  C6  UNL     1     -46.542  12.673  -5.020  1.00  0.00    -0.079 C 
HETATM   14  C7  UNL     1     -45.256  12.542  -4.290  1.00  0.00     0.043 C 
BRANCH  13  15
HETATM   15  C8  UNL     1     -46.595  13.930  -5.875  1.00  0.00     0.037 C 
HETATM   16  C9  UNL     1     -45.680  13.899  -7.053  1.00  0.00     0.118 C 
HETATM   17  S1  UNL     1     -46.799  12.862  -7.968  1.00  0.00     0.016 S 
HETATM   18  O1  UNL     1     -46.985  13.334  -9.584  1.00  0.00    -0.258 OA
HETATM   19  C10 UNL     1     -47.779  13.869  -6.859  1.00  0.00     0.118 C 
ENDBRANCH  13  15
ENDBRANCH  12  13
ENDBRANCH   1  12
TORSDOF 4
ENDMDL
MODEL 2
REMARK VINA RESULT: -5.342035483      1.154      1.380
REMARK  4 active torsions:
REMARK  status: ('A' for Active; 'I' for Inactive)
REMARK    1  A    between atoms: C3_3  and  C4_5 
REMARK    2  A    between atoms: C4_5  and  C5_6 
REMARK    3  A    between atoms: C5_6  and  C6_7 
REMARK    4  A    between atoms: C6_7  and  C8_9 
ROOT
HETATM    1  C4  UNL     1     -47.985  11.565  -3.266  1.00  0.00     0.177 C 
HETATM    2  C11 UNL     1     -47.766  10.156  -3.757  1.00  0.00     0.050 C 
HETATM    3  C12 UNL     1     -46.685   9.539  -2.895  1.00  0.00     0.031 C 
HETATM    4  C13 UNL     1     -46.684  10.418  -1.691  1.00  0.00     0.234 C 
HETATM    5  N1  UNL     1     -47.167  11.706  -2.074  1.00  0.00    -0.058 N 
ATOM      6  H11 UNL     1     -47.661  12.177  -1.316  1.00  0.00     0.278 HD
ATOM      7  H12 UNL     1     -46.415  12.383  -2.196  1.00  0.00     0.278 HD
ENDROOT
BRANCH   1   8
HETATM    8  C3  UNL     1     -49.405  11.581  -2.776  1.00  0.00     0.024 C 
HETATM    9  C2  UNL     1     -49.885  12.615  -2.146  1.00  0.00    -0.013 C 
HETATM   10  C1  UNL     1     -51.314  12.648  -1.645  1.00  0.00     0.037 C 
HETATM   11 BR1  UNL     1     -50.491  10.062  -3.095  1.00  0.00    -0.053 Br
ENDBRANCH   1   8
BRANCH   1  12
HETATM   12  C5  UNL     1     -47.801  12.597  -4.271  1.00  0.00     0.020 C 
BRANCH  12  13
HETATM   13  C6  UNL     1     -46.559  12.823  -5.019  1.00  0.00    -0.079 C 
HETATM   14  C7  UNL     1     -45.259  12.699  -4.314  1.00  0.00     0.043 C 
BRANCH  13  15
HETATM   15  C8  UNL     1     -46.609  14.041  -5.929  1.00  0.00     0.037 C 
HETATM   16  C9  UNL     1     -45.691  13.957  -7.102  1.00  0.00     0.118 C 
HETATM   17  S1  UNL     1     -46.809  12.881  -7.973  1.00  0.00     0.016 S 
HETATM   18  O1  UNL     1     -46.990  13.281  -9.609  1.00  0.00    -0.258 OA
HETATM   19  C10 UNL     1     -47.791  13.937  -6.912  1.00  0.00     0.118 C 
ENDBRANCH  13  15
ENDBRANCH  12  13
ENDBRANCH   1  12
TORSDOF 4
ENDMDL
MODEL 3
REMARK VINA RESULT: -5.254762440      2.932      3.664
REMARK  4 active torsions:
REMARK  status: ('A' for Active; 'I' for Inactive)
REMARK    1  A    between atoms: C3_3  and  C4_5 
REMARK    2  A    between atoms: C4_5  and  C5_6 
REMARK    3  A    between atoms: C5_6  and  C6_7 
REMARK    4  A    between atoms: C6_7  and  C8_9 
ROOT
HETATM    1  C4  UNL     1     -48.109  11.077  -3.092  1.00  0.00     0.177 C 
HETATM    2  C11 UNL     1     -47.916  12.173  -4.112  1.00  0.00     0.050 C 
HETATM    3  C12 UNL     1     -47.688  11.507  -5.452  1.00  0.00     0.031 C 
HETATM    4  C13 UNL     1     -48.226  10.134  -5.234  1.00  0.00     0.234 C 
HETATM    5  N1  UNL     1     -48.137   9.833  -3.841  1.00  0.00    -0.058 N 
ATOM      6  H11 UNL     1     -48.881   9.208  -3.531  1.00  0.00     0.278 HD
ATOM      7  H12 UNL     1     -47.345   9.230  -3.623  1.00  0.00     0.278 HD
ENDROOT
BRANCH   1   8
HETATM    8  C3  UNL     1     -49.511  11.268  -2.589  1.00  0.00     0.024 C 
HETATM    9  C2  UNL     1     -49.913  12.427  -2.150  1.00  0.00    -0.013 C 
HETATM   10  C1  UNL     1     -51.324  12.638  -1.639  1.00  0.00     0.037 C 
HETATM   11 BR1  UNL     1     -50.690   9.785  -2.604  1.00  0.00    -0.053 Br
ENDBRANCH   1   8
BRANCH   1  12
HETATM   12  C5  UNL     1     -47.178  11.111  -1.978  1.00  0.00     0.020 C 
BRANCH  12  13
HETATM   13  C6  UNL     1     -45.723  11.248  -2.107  1.00  0.00    -0.079 C 
HETATM   14  C7  UNL     1     -44.882  10.025  -2.123  1.00  0.00     0.043 C 
BRANCH  13  15
HETATM   15  C8  UNL     1     -45.133  12.344  -1.233  1.00  0.00     0.037 C 
HETATM   16  C9  UNL     1     -43.769  12.780  -1.649  1.00  0.00     0.118 C 
HETATM   17  S1  UNL     1     -44.425  13.770  -2.974  1.00  0.00     0.016 S 
HETATM   18  O1  UNL     1     -43.692  15.290  -3.105  1.00  0.00    -0.258 OA
HETATM   19  C10 UNL     1     -45.653  13.727  -1.671  1.00  0.00     0.118 C 
ENDBRANCH  13  15
ENDBRANCH  12  13
ENDBRANCH   1  12
TORSDOF 4
ENDMDL
MODEL 4
REMARK VINA RESULT: -5.160294703      1.511      1.929
REMARK  4 active torsions:
REMARK  status: ('A' for Active; 'I' for Inactive)
REMARK    1  A    between atoms: C3_3  and  C4_5 
REMARK    2  A    between atoms: C4_5  and  C5_6 
REMARK    3  A    between atoms: C5_6  and  C6_7 
REMARK    4  A    between atoms: C6_7  and  C8_9 
ROOT
HETATM    1  C4  UNL     1     -47.869  11.444  -3.396  1.00  0.00     0.177 C 
HETATM    2  C11 UNL     1     -47.147  10.167  -3.749  1.00  0.00     0.050 C 
HETATM    3  C12 UNL     1     -46.237   9.826  -2.588  1.00  0.00     0.031 C 
HETATM    4  C13 UNL     1     -46.819  10.622  -1.470  1.00  0.00     0.234 C 
HETATM    5  N1  UNL     1     -47.499  11.748  -2.025  1.00  0.00    -0.058 N 
ATOM      6  H11 UNL     1     -48.297  12.037  -1.460  1.00  0.00     0.278 HD
ATOM      7  H12 UNL     1     -46.954  12.606  -1.950  1.00  0.00     0.278 HD
ENDROOT
BRANCH   1   8
HETATM    8  C3  UNL     1     -49.320  11.058  -3.338  1.00  0.00     0.024 C 
HETATM    9  C2  UNL     1     -49.784  10.087  -4.072  1.00  0.00    -0.013 C 
HETATM   10  C1  UNL     1     -51.244   9.685  -4.026  1.00  0.00     0.037 C 
HETATM   11 BR1  UNL     1     -50.466  12.015  -2.172  1.00  0.00    -0.053 Br
ENDBRANCH   1   8
BRANCH   1  12
HETATM   12  C5  UNL     1     -47.686  12.528  -4.344  1.00  0.00     0.020 C 
BRANCH  12  13
HETATM   13  C6  UNL     1     -46.420  12.852  -5.011  1.00  0.00    -0.079 C 
HETATM   14  C7  UNL     1     -45.164  12.839  -4.221  1.00  0.00     0.043 C 
BRANCH  13  15
HETATM   15  C8  UNL     1     -46.509  14.057  -5.936  1.00  0.00     0.037 C 
HETATM   16  C9  UNL     1     -45.630  13.963  -7.137  1.00  0.00     0.118 C 
HETATM   17  S1  UNL     1     -46.768  12.868  -7.956  1.00  0.00     0.016 S 
HETATM   18  O1  UNL     1     -47.006  13.244  -9.590  1.00  0.00    -0.258 OA
HETATM   19  C10 UNL     1     -47.722  13.932  -6.878  1.00  0.00     0.118 C 
ENDBRANCH  13  15
ENDBRANCH  12  13
ENDBRANCH   1  12
TORSDOF 4
ENDMDL
MODEL 5
REMARK VINA RESULT: -5.147603959      3.360      4.580
REMARK  4 active torsions:
REMARK  status: ('A' for Active; 'I' for Inactive)
REMARK    1  A    between atoms: C3_3  and  C4_5 
REMARK    2  A    between atoms: C4_5  and  C5_6 
REMARK    3  A    between atoms: C5_6  and  C6_7 
REMARK    4  A    between atoms: C6_7  and  C8_9 
ROOT
HETATM    1  C4  UNL     1     -47.999  10.853  -3.392  1.00  0.00     0.177 C 
HETATM    2  C11 UNL     1     -47.301  12.184  -3.535  1.00  0.00     0.050 C 
HETATM    3  C12 UNL     1     -46.942  12.351  -4.996  1.00  0.00     0.031 C 
HETATM    4  C13 UNL     1     -47.845  11.376  -5.671  1.00  0.00     0.234 C 
HETATM    5  N1  UNL     1     -48.165  10.341  -4.741  1.00  0.00    -0.058 N 
ATOM      6  H11 UNL     1     -49.094   9.951  -4.898  1.00  0.00     0.278 HD
ATOM      7  H12 UNL     1     -47.624   9.492  -4.904  1.00  0.00     0.278 HD
ENDROOT
BRANCH   1   8
HETATM    8  C3  UNL     1     -49.384  11.197  -2.926  1.00  0.00     0.024 C 
HETATM    9  C2  UNL     1     -49.618  12.304  -2.279  1.00  0.00    -0.013 C 
HETATM   10  C1  UNL     1     -51.009  12.667  -1.802  1.00  0.00     0.037 C 
HETATM   11 BR1  UNL     1     -50.793   9.986  -3.297  1.00  0.00    -0.053 Br
ENDBRANCH   1   8
BRANCH   1  12
HETATM   12  C5  UNL     1     -47.377   9.938  -2.452  1.00  0.00     0.020 C 
BRANCH  12  13
HETATM   13  C6  UNL     1     -46.156   9.168  -2.716  1.00  0.00    -0.079 C 
HETATM   14  C7  UNL     1     -46.271   7.819  -3.323  1.00  0.00     0.043 C 
BRANCH  13  15
HETATM   15  C8  UNL     1     -45.153   9.205  -1.574  1.00  0.00     0.037 C 
HETATM   16  C9  UNL     1     -43.729   9.205  -2.019  1.00  0.00     0.118 C 
HETATM   17  S1  UNL     1     -43.795  10.937  -2.420  1.00  0.00     0.016 S 
HETATM   18  O1  UNL     1     -42.428  11.798  -1.911  1.00  0.00    -0.258 OA
HETATM   19  C10 UNL     1     -44.944  10.649  -1.078  1.00  0.00     0.118 C 
ENDBRANCH  13  15
ENDBRANCH  12  13
ENDBRANCH   1  12
TORSDOF 4
ENDMDL
