MODEL 1
REMARK VINA RESULT: -7.087980175      0.000      0.000
REMARK  4 active torsions:
REMARK  status: ('A' for Active; 'I' for Inactive)
REMARK    1  A    between atoms: C2_2  and  C4_4 
REMARK    2  A    between atoms: N1_7  and  C7_8 
REMARK    3  A    between atoms: C7_8  and  C8_9 
REMARK       I    between atoms: N2_15  and  C13_16 
REMARK       I    between atoms: C13_16  and  N3_18 
REMARK    4  A    between atoms: N3_18  and  C14_20 
ROOT
HETATM    1  C8  UNL     1     -47.871  10.582  -5.084  1.00  0.00     0.161 C 
HETATM    2  C9  UNL     1     -48.101   9.115  -5.215  1.00  0.00     0.198 C 
HETATM    3  F1  UNL     1     -47.536   8.556  -4.028  1.00  0.00    -0.247 F 
HETATM    4  C10 UNL     1     -49.555   8.704  -5.184  1.00  0.00     0.041 C 
HETATM    5  C11 UNL     1     -50.383   9.549  -4.274  1.00  0.00     0.023 C 
HETATM    6  C12 UNL     1     -49.626  10.369  -3.297  1.00  0.00     0.129 C 
HETATM    7  N2  UNL     1     -48.396  10.935  -3.750  1.00  0.00    -0.322 N 
HETATM    8  C13 UNL     1     -47.690  11.826  -2.926  1.00  0.00     0.319 C 
HETATM    9  O1  UNL     1     -48.167  12.107  -1.772  1.00  0.00    -0.247 OA
HETATM   10  N3  UNL     1     -46.473  12.461  -3.250  1.00  0.00    -0.338 N 
ATOM     11  H3  UNL     1     -46.046  12.274  -4.158  1.00  0.00     0.164 HD
ENDROOT
BRANCH   1  12
HETATM   12  C7  UNL     1     -48.399  11.489  -6.119  1.00  0.00     0.086 C 
BRANCH  12  13
HETATM   13  N1  UNL     1     -47.584  12.294  -6.906  1.00  0.00    -0.391 N 
HETATM   14  C6  UNL     1     -47.530  12.257  -8.293  1.00  0.00     0.122 C 
HETATM   15  C5  UNL     1     -46.204  12.943  -8.705  1.00  0.00     0.029 C 
HETATM   16  C4  UNL     1     -46.487  14.429  -8.544  1.00  0.00     0.016 C 
HETATM   17  C18 UNL     1     -47.160  14.712  -7.220  1.00  0.00     0.029 C 
HETATM   18  C17 UNL     1     -47.179  13.537  -6.300  1.00  0.00     0.122 C 
BRANCH  16  19
HETATM   19  C2  UNL     1     -45.286  15.266  -8.774  1.00  0.00    -0.089 C 
HETATM   20  C1  UNL     1     -44.086  14.748  -8.633  1.00  0.00     0.014 C 
HETATM   21  C3  UNL     1     -45.440  16.686  -9.158  1.00  0.00     0.043 C 
ENDBRANCH  16  19
ENDBRANCH  12  13
ENDBRANCH   1  12
BRANCH  10  22
HETATM   22  C14 UNL     1     -45.811  13.364  -2.340  1.00  0.00     0.086 A 
HETATM   23  C15 UNL     1     -44.351  13.162  -2.062  1.00  0.00     0.027 A 
HETATM   24  C16 UNL     1     -44.833  14.318  -2.877  1.00  0.00     0.027 A 
ENDBRANCH  10  22
TORSDOF 4
ENDMDL
MODEL 2
REMARK VINA RESULT: -6.916647461      2.572      6.038
REMARK  4 active torsions:
REMARK  status: ('A' for Active; 'I' for Inactive)
REMARK    1  A    between atoms: C2_2  and  C4_4 
REMARK    2  A    between atoms: N1_7  and  C7_8 
REMARK    3  A    between atoms: C7_8  and  C8_9 
REMARK       I    between atoms: N2_15  and  C13_16 
REMARK       I    between atoms: C13_16  and  N3_18 
REMARK    4  A    between atoms: N3_18  and  C14_20 
ROOT
HETATM    1  C8  UNL     1     -46.611  13.729  -6.562  1.00  0.00     0.161 C 
HETATM    2  C9  UNL     1     -47.129  14.599  -7.656  1.00  0.00     0.198 C 
HETATM    3  F1  UNL     1     -46.630  15.901  -7.344  1.00  0.00    -0.247 F 
HETATM    4  C10 UNL     1     -46.568  14.285  -9.024  1.00  0.00     0.041 C 
HETATM    5  C11 UNL     1     -45.145  13.838  -8.984  1.00  0.00     0.023 C 
HETATM    6  C12 UNL     1     -44.418  14.126  -7.723  1.00  0.00     0.129 C 
HETATM    7  N2  UNL     1     -45.161  13.999  -6.511  1.00  0.00    -0.322 N 
HETATM    8  C13 UNL     1     -44.509  14.129  -5.274  1.00  0.00     0.319 C 
HETATM    9  O1  UNL     1     -43.252  14.368  -5.264  1.00  0.00    -0.247 OA
HETATM   10  N3  UNL     1     -45.117  14.019  -4.006  1.00  0.00    -0.338 N 
ATOM     11  H3  UNL     1     -46.117  13.827  -3.954  1.00  0.00     0.164 HD
ENDROOT
BRANCH   1  12
HETATM   12  C7  UNL     1     -46.882  12.280  -6.604  1.00  0.00     0.086 C 
BRANCH  12  13
HETATM   13  N1  UNL     1     -47.840  11.666  -5.808  1.00  0.00    -0.391 N 
HETATM   14  C6  UNL     1     -48.193  10.326  -5.878  1.00  0.00     0.122 C 
HETATM   15  C5  UNL     1     -49.571  10.191  -5.183  1.00  0.00     0.029 C 
HETATM   16  C4  UNL     1     -49.247  10.247  -3.698  1.00  0.00     0.016 C 
HETATM   17  C18 UNL     1     -48.302  11.386  -3.393  1.00  0.00     0.029 C 
HETATM   18  C17 UNL     1     -48.095  12.312  -4.545  1.00  0.00     0.122 C 
BRANCH  16  19
HETATM   19  C2  UNL     1     -50.462  10.259  -2.850  1.00  0.00    -0.089 C 
HETATM   20  C1  UNL     1     -51.122   9.144  -2.629  1.00  0.00     0.014 C 
HETATM   21  C3  UNL     1     -50.933  11.529  -2.256  1.00  0.00     0.043 C 
ENDBRANCH  16  19
ENDBRANCH  12  13
ENDBRANCH   1  12
BRANCH  10  22
HETATM   22  C14 UNL     1     -44.370  14.169  -2.781  1.00  0.00     0.086 A 
HETATM   23  C15 UNL     1     -45.123  14.405  -1.505  1.00  0.00     0.027 A 
HETATM   24  C16 UNL     1     -44.442  13.102  -1.774  1.00  0.00     0.027 A 
ENDBRANCH  10  22
TORSDOF 4
ENDMDL
MODEL 3
REMARK VINA RESULT: -6.594824129      2.662      6.798
REMARK  4 active torsions:
REMARK  status: ('A' for Active; 'I' for Inactive)
REMARK    1  A    between atoms: C2_2  and  C4_4 
REMARK    2  A    between atoms: N1_7  and  C7_8 
REMARK    3  A    between atoms: C7_8  and  C8_9 
REMARK       I    between atoms: N2_15  and  C13_16 
REMARK       I    between atoms: C13_16  and  N3_18 
REMARK    4  A    between atoms: N3_18  and  C14_20 
ROOT
HETATM    1  C8  UNL     1     -44.464  12.815  -4.472  1.00  0.00     0.161 C 
HETATM    2  C9  UNL     1     -42.985  12.909  -4.310  1.00  0.00     0.198 C 
HETATM    3  F1  UNL     1     -42.500  13.211  -5.620  1.00  0.00    -0.247 F 
HETATM    4  C10 UNL     1     -42.522  14.062  -3.450  1.00  0.00     0.041 C 
HETATM    5  C11 UNL     1     -43.375  15.278  -3.592  1.00  0.00     0.023 C 
HETATM    6  C12 UNL     1     -44.264  15.301  -4.780  1.00  0.00     0.129 C 
HETATM    7  N2  UNL     1     -44.855  14.059  -5.163  1.00  0.00    -0.322 N 
HETATM    8  C13 UNL     1     -45.807  14.026  -6.195  1.00  0.00     0.319 C 
HETATM    9  O1  UNL     1     -46.120  15.121  -6.778  1.00  0.00    -0.247 OA
HETATM   10  N3  UNL     1     -46.472  12.875  -6.667  1.00  0.00    -0.338 N 
ATOM     11  H3  UNL     1     -46.262  11.974  -6.237  1.00  0.00     0.164 HD
ENDROOT
BRANCH   1  12
HETATM   12  C7  UNL     1     -45.305  12.579  -3.284  1.00  0.00     0.086 C 
BRANCH  12  13
HETATM   13  N1  UNL     1     -46.386  11.707  -3.284  1.00  0.00    -0.391 N 
HETATM   14  C6  UNL     1     -46.395  10.450  -2.694  1.00  0.00     0.122 C 
HETATM   15  C5  UNL     1     -47.576   9.671  -3.324  1.00  0.00     0.029 C 
HETATM   16  C4  UNL     1     -48.808  10.237  -2.634  1.00  0.00     0.016 C 
HETATM   17  C18 UNL     1     -48.766  11.748  -2.607  1.00  0.00     0.029 C 
HETATM   18  C17 UNL     1     -47.677  12.328  -3.445  1.00  0.00     0.122 C 
BRANCH  16  19
HETATM   19  C2  UNL     1     -50.071   9.702  -3.194  1.00  0.00    -0.089 C 
HETATM   20  C1  UNL     1     -51.112   9.520  -2.413  1.00  0.00     0.014 C 
HETATM   21  C3  UNL     1     -50.156   9.370  -4.633  1.00  0.00     0.043 C 
ENDBRANCH  16  19
ENDBRANCH  12  13
ENDBRANCH   1  12
BRANCH  10  22
HETATM   22  C14 UNL     1     -47.438  12.931  -7.737  1.00  0.00     0.086 A 
HETATM   23  C15 UNL     1     -47.098  12.282  -9.045  1.00  0.00     0.027 A 
HETATM   24  C16 UNL     1     -48.126  11.695  -8.133  1.00  0.00     0.027 A 
ENDBRANCH  10  22
TORSDOF 4
ENDMDL
MODEL 4
REMARK VINA RESULT: -6.582791440      3.123      6.269
REMARK  4 active torsions:
REMARK  status: ('A' for Active; 'I' for Inactive)
REMARK    1  A    between atoms: C2_2  and  C4_4 
REMARK    2  A    between atoms: N1_7  and  C7_8 
REMARK    3  A    between atoms: C7_8  and  C8_9 
REMARK       I    between atoms: N2_15  and  C13_16 
REMARK       I    between atoms: C13_16  and  N3_18 
REMARK    4  A    between atoms: N3_18  and  C14_20 
ROOT
HETATM    1  C8  UNL     1     -46.168  14.188  -6.478  1.00  0.00     0.161 C 
HETATM    2  C9  UNL     1     -47.229  14.397  -7.505  1.00  0.00     0.198 C 
HETATM    3  F1  UNL     1     -46.977  15.706  -8.019  1.00  0.00    -0.247 F 
HETATM    4  C10 UNL     1     -47.128  13.482  -8.703  1.00  0.00     0.041 C 
HETATM    5  C11 UNL     1     -45.720  13.168  -9.083  1.00  0.00     0.023 C 
HETATM    6  C12 UNL     1     -44.686  14.061  -8.504  1.00  0.00     0.129 C 
HETATM    7  N2  UNL     1     -44.901  14.508  -7.165  1.00  0.00    -0.322 N 
HETATM    8  C13 UNL     1     -43.906  15.247  -6.506  1.00  0.00     0.319 C 
HETATM    9  O1  UNL     1     -42.821  15.513  -7.131  1.00  0.00    -0.247 OA
HETATM   10  N3  UNL     1     -43.984  15.742  -5.187  1.00  0.00    -0.338 N 
ATOM     11  H3  UNL     1     -44.826  15.559  -4.641  1.00  0.00     0.164 HD
ENDROOT
BRANCH   1  12
HETATM   12  C7  UNL     1     -46.083  12.891  -5.783  1.00  0.00     0.086 C 
BRANCH  12  13
HETATM   13  N1  UNL     1     -47.203  12.159  -5.409  1.00  0.00    -0.391 N 
HETATM   14  C6  UNL     1     -47.593  10.954  -5.977  1.00  0.00     0.122 C 
HETATM   15  C5  UNL     1     -49.084  10.749  -5.611  1.00  0.00     0.029 C 
HETATM   16  C4  UNL     1     -49.052  10.297  -4.158  1.00  0.00     0.016 C 
HETATM   17  C18 UNL     1     -48.137  11.177  -3.338  1.00  0.00     0.029 C 
HETATM   18  C17 UNL     1     -47.671  12.393  -4.066  1.00  0.00     0.122 C 
BRANCH  16  19
HETATM   19  C2  UNL     1     -50.407  10.166  -3.573  1.00  0.00    -0.089 C 
HETATM   20  C1  UNL     1     -51.276   9.337  -4.107  1.00  0.00     0.014 C 
HETATM   21  C3  UNL     1     -50.780  10.971  -2.391  1.00  0.00     0.043 C 
ENDBRANCH  16  19
ENDBRANCH  12  13
ENDBRANCH   1  12
BRANCH  10  22
HETATM   22  C14 UNL     1     -42.912  16.497  -4.586  1.00  0.00     0.086 A 
HETATM   23  C15 UNL     1     -42.916  16.689  -3.098  1.00  0.00     0.027 A 
HETATM   24  C16 UNL     1     -41.923  15.789  -3.761  1.00  0.00     0.027 A 
ENDBRANCH  10  22
TORSDOF 4
ENDMDL
MODEL 5
REMARK VINA RESULT: -6.384475789      2.633      6.811
REMARK  4 active torsions:
REMARK  status: ('A' for Active; 'I' for Inactive)
REMARK    1  A    between atoms: C2_2  and  C4_4 
REMARK    2  A    between atoms: N1_7  and  C7_8 
REMARK    3  A    between atoms: C7_8  and  C8_9 
REMARK       I    between atoms: N2_15  and  C13_16 
REMARK       I    between atoms: C13_16  and  N3_18 
REMARK    4  A    between atoms: N3_18  and  C14_20 
ROOT
HETATM    1  C8  UNL     1     -44.544  13.121  -4.498  1.00  0.00     0.161 C 
HETATM    2  C9  UNL     1     -43.151  12.937  -4.000  1.00  0.00     0.198 C 
HETATM    3  F1  UNL     1     -42.338  13.024  -5.172  1.00  0.00    -0.247 F 
HETATM    4  C10 UNL     1     -42.657  14.046  -3.101  1.00  0.00     0.041 C 
HETATM    5  C11 UNL     1     -43.181  15.389  -3.484  1.00  0.00     0.023 C 
HETATM    6  C12 UNL     1     -43.763  15.484  -4.846  1.00  0.00     0.129 C 
HETATM    7  N2  UNL     1     -44.502  14.354  -5.308  1.00  0.00    -0.322 N 
HETATM    8  C13 UNL     1     -45.190  14.420  -6.531  1.00  0.00     0.319 C 
HETATM    9  O1  UNL     1     -45.129  15.501  -7.213  1.00  0.00    -0.247 OA
HETATM   10  N3  UNL     1     -45.961  13.385  -7.100  1.00  0.00    -0.338 N 
ATOM     11  H3  UNL     1     -46.046  12.500  -6.599  1.00  0.00     0.164 HD
ENDROOT
BRANCH   1  12
HETATM   12  C7  UNL     1     -45.656  13.157  -3.530  1.00  0.00     0.086 C 
BRANCH  12  13
HETATM   13  N1  UNL     1     -46.799  12.379  -3.662  1.00  0.00    -0.391 N 
HETATM   14  C6  UNL     1     -46.943  11.320  -4.548  1.00  0.00     0.122 C 
HETATM   15  C5  UNL     1     -48.464  11.064  -4.693  1.00  0.00     0.029 C 
HETATM   16  C4  UNL     1     -48.841  10.326  -3.417  1.00  0.00     0.016 C 
HETATM   17  C18 UNL     1     -48.254  11.009  -2.203  1.00  0.00     0.029 C 
HETATM   18  C17 UNL     1     -47.654  12.342  -2.503  1.00  0.00     0.122 C 
BRANCH  16  19
HETATM   19  C2  UNL     1     -50.301  10.096  -3.303  1.00  0.00    -0.089 C 
HETATM   20  C1  UNL     1     -50.889   9.206  -4.071  1.00  0.00     0.014 C 
HETATM   21  C3  UNL     1     -51.095  10.872  -2.327  1.00  0.00     0.043 C 
ENDBRANCH  16  19
ENDBRANCH  12  13
ENDBRANCH   1  12
BRANCH  10  22
HETATM   22  C14 UNL     1     -46.635  13.537  -8.367  1.00  0.00     0.086 A 
HETATM   23  C15 UNL     1     -45.971  13.002  -9.602  1.00  0.00     0.027 A 
HETATM   24  C16 UNL     1     -47.182  12.343  -9.025  1.00  0.00     0.027 A 
ENDBRANCH  10  22
TORSDOF 4
ENDMDL
