MODEL 1
REMARK VINA RESULT: -8.255407691      0.000      0.000
REMARK  9 active torsions:
REMARK  status: ('A' for Active; 'I' for Inactive)
REMARK    1  A    between atoms: N1_2  and  C2_3 
REMARK    2  A    between atoms: N1_2  and  C4_7 
REMARK    3  A    between atoms: C2_3  and  C3_4 
REMARK    4  A    between atoms: C3_4  and  O1_5 
REMARK    5  A    between atoms: C4_7  and  C5_8 
REMARK    6  A    between atoms: C5_8  and  O2_9 
REMARK    7  A    between atoms: O2_9  and  C6_10 
REMARK    8  A    between atoms: N2_15  and  C11_17 
REMARK    9  A    between atoms: C15_22  and  C16_23 
ROOT
HETATM    1  C6  UNL     1       8.717 -29.018 -60.557  1.00  0.00     0.071 A 
HETATM    2  C7  UNL     1       9.995 -28.702 -60.926  1.00  0.00     0.038 A 
HETATM    3  C8  UNL     1      10.935 -28.168 -60.063  1.00  0.00     0.020 A 
HETATM    4  C9  UNL     1      10.577 -27.934 -58.748  1.00  0.00     0.035 A 
HETATM    5  C10 UNL     1      11.504 -27.403 -57.887  1.00  0.00     0.119 A 
HETATM    6  N2  UNL     1      12.727 -27.099 -58.261  1.00  0.00    -0.340 N 
ATOM      7  H2  UNL     1      13.050 -27.246 -59.218  1.00  0.00     0.167 HD
HETATM    8  N3  UNL     1      11.103 -27.193 -56.605  1.00  0.00    -0.338 N 
ATOM      9  H3  UNL     1      11.759 -26.800 -55.930  1.00  0.00     0.168 HD
HETATM   10  C23 UNL     1       9.848 -27.497 -56.216  1.00  0.00     0.182 A 
HETATM   11  N4  UNL     1       8.958 -28.012 -57.060  1.00  0.00    -0.351 N 
ATOM     12  H4  UNL     1       8.017 -28.232 -56.732  1.00  0.00     0.166 HD
HETATM   13  C24 UNL     1       9.292 -28.247 -58.355  1.00  0.00     0.049 A 
HETATM   14  C25 UNL     1       8.376 -28.778 -59.234  1.00  0.00     0.067 A 
ENDROOT
BRANCH   6  15
HETATM   15  C11 UNL     1      13.584 -26.547 -57.245  1.00  0.00     0.056 A 
HETATM   16  C12 UNL     1      13.366 -25.256 -56.833  1.00  0.00     0.033 A 
HETATM   17  C13 UNL     1      14.199 -24.712 -55.875  1.00  0.00     0.027 A 
HETATM   18  C14 UNL     1      15.248 -25.446 -55.325  1.00  0.00     0.046 A 
HETATM   19 CL1  UNL     1      16.282 -24.717 -54.113  1.00  0.00    -0.083 Cl
HETATM   20  C15 UNL     1      15.468 -26.738 -55.736  1.00  0.00     0.020 A 
HETATM   21  C22 UNL     1      14.626 -27.244 -56.683  1.00  0.00     0.073 A 
HETATM   22 CL3  UNL     1      14.894 -28.893 -57.205  1.00  0.00    -0.081 Cl
BRANCH  20  23
HETATM   23  C16 UNL     1      16.581 -27.554 -55.204  1.00  0.00    -0.022 A 
HETATM   24  C17 UNL     1      17.825 -27.429 -55.836  1.00  0.00     0.014 A 
HETATM   25  C18 UNL     1      18.929 -28.123 -55.438  1.00  0.00     0.024 A 
HETATM   26  C19 UNL     1      18.783 -28.990 -54.349  1.00  0.00     0.034 A 
HETATM   27 CL2  UNL     1      20.187 -29.879 -53.833  1.00  0.00    -0.084 Cl
HETATM   28  C20 UNL     1      17.544 -29.121 -53.712  1.00  0.00     0.024 A 
HETATM   29  C21 UNL     1      16.452 -28.393 -54.153  1.00  0.00     0.014 A 
ENDBRANCH  20  23
ENDBRANCH   6  15
BRANCH   1  30
HETATM   30  O2  UNL     1       7.792 -29.542 -61.409  1.00  0.00    -0.346 OA
BRANCH  30  31
HETATM   31  C5  UNL     1       6.780 -30.427 -61.001  1.00  0.00     0.220 C 
BRANCH  31  32
HETATM   32  C4  UNL     1       7.408 -31.831 -60.985  1.00  0.00     0.089 C 
BRANCH  32  33
HETATM   33  N1  UNL     1       6.512 -32.880 -60.884  1.00  0.00    -0.374 N 
HETATM   34  C1  UNL     1       6.823 -34.050 -61.570  1.00  0.00     0.154 C 
BRANCH  33  35
HETATM   35  C2  UNL     1       5.231 -32.738 -60.346  1.00  0.00     0.088 C 
BRANCH  35  36
HETATM   36  C3  UNL     1       5.173 -32.876 -58.831  1.00  0.00     0.208 C 
BRANCH  36  37
HETATM   37  O1  UNL     1       4.914 -31.658 -58.234  1.00  0.00    -0.396 OA
ATOM     38  H1  UNL     1       5.625 -31.047 -58.383  1.00  0.00     0.209 HD
ENDBRANCH  36  37
ENDBRANCH  35  36
ENDBRANCH  33  35
ENDBRANCH  32  33
ENDBRANCH  31  32
ENDBRANCH  30  31
ENDBRANCH   1  30
TORSDOF 9
ENDMDL
MODEL 2
REMARK VINA RESULT: -7.944375520      1.184      1.761
REMARK  9 active torsions:
REMARK  status: ('A' for Active; 'I' for Inactive)
REMARK    1  A    between atoms: N1_2  and  C2_3 
REMARK    2  A    between atoms: N1_2  and  C4_7 
REMARK    3  A    between atoms: C2_3  and  C3_4 
REMARK    4  A    between atoms: C3_4  and  O1_5 
REMARK    5  A    between atoms: C4_7  and  C5_8 
REMARK    6  A    between atoms: C5_8  and  O2_9 
REMARK    7  A    between atoms: O2_9  and  C6_10 
REMARK    8  A    between atoms: N2_15  and  C11_17 
REMARK    9  A    between atoms: C15_22  and  C16_23 
ROOT
HETATM    1  C6  UNL     1       8.564 -29.224 -60.514  1.00  0.00     0.071 A 
HETATM    2  C7  UNL     1       9.837 -28.919 -60.911  1.00  0.00     0.038 A 
HETATM    3  C8  UNL     1      10.786 -28.352 -60.081  1.00  0.00     0.020 A 
HETATM    4  C9  UNL     1      10.445 -28.068 -58.772  1.00  0.00     0.035 A 
HETATM    5  C10 UNL     1      11.381 -27.503 -57.944  1.00  0.00     0.119 A 
HETATM    6  N2  UNL     1      12.599 -27.212 -58.345  1.00  0.00    -0.340 N 
ATOM      7  H2  UNL     1      12.910 -27.394 -59.299  1.00  0.00     0.167 HD
HETATM    8  N3  UNL     1      10.996 -27.245 -56.665  1.00  0.00    -0.338 N 
ATOM      9  H3  UNL     1      11.660 -26.825 -56.014  1.00  0.00     0.168 HD
HETATM   10  C23 UNL     1       9.747 -27.537 -56.249  1.00  0.00     0.182 A 
HETATM   11  N4  UNL     1       8.847 -28.084 -57.061  1.00  0.00    -0.351 N 
ATOM     12  H4  UNL     1       7.911 -28.293 -56.713  1.00  0.00     0.166 HD
HETATM   13  C24 UNL     1       9.165 -28.368 -58.350  1.00  0.00     0.049 A 
HETATM   14  C25 UNL     1       8.239 -28.933 -59.196  1.00  0.00     0.067 A 
ENDROOT
BRANCH   6  15
HETATM   15  C11 UNL     1      13.468 -26.620 -57.362  1.00  0.00     0.056 A 
HETATM   16  C12 UNL     1      13.259 -25.311 -57.004  1.00  0.00     0.033 A 
HETATM   17  C13 UNL     1      14.103 -24.730 -56.079  1.00  0.00     0.027 A 
HETATM   18  C14 UNL     1      15.154 -25.444 -55.507  1.00  0.00     0.046 A 
HETATM   19 CL1  UNL     1      16.203 -24.667 -54.338  1.00  0.00    -0.083 Cl
HETATM   20  C15 UNL     1      15.364 -26.754 -55.863  1.00  0.00     0.020 A 
HETATM   21  C22 UNL     1      14.511 -27.296 -56.779  1.00  0.00     0.073 A 
HETATM   22 CL3  UNL     1      14.768 -28.968 -57.231  1.00  0.00    -0.081 Cl
BRANCH  20  23
HETATM   23  C16 UNL     1      16.479 -27.551 -55.306  1.00  0.00    -0.022 A 
HETATM   24  C17 UNL     1      17.724 -27.441 -55.938  1.00  0.00     0.014 A 
HETATM   25  C18 UNL     1      18.829 -28.120 -55.519  1.00  0.00     0.024 A 
HETATM   26  C19 UNL     1      18.683 -28.955 -54.406  1.00  0.00     0.034 A 
HETATM   27 CL2  UNL     1      20.089 -29.826 -53.862  1.00  0.00    -0.084 Cl
HETATM   28  C20 UNL     1      17.444 -29.071 -53.768  1.00  0.00     0.024 A 
HETATM   29  C21 UNL     1      16.351 -28.360 -54.231  1.00  0.00     0.014 A 
ENDBRANCH  20  23
ENDBRANCH   6  15
BRANCH   1  30
HETATM   30  O2  UNL     1       7.629 -29.781 -61.333  1.00  0.00    -0.346 OA
BRANCH  30  31
HETATM   31  C5  UNL     1       6.737 -30.784 -60.918  1.00  0.00     0.220 C 
BRANCH  31  32
HETATM   32  C4  UNL     1       7.167 -32.075 -61.634  1.00  0.00     0.089 C 
BRANCH  32  33
HETATM   33  N1  UNL     1       6.150 -32.976 -61.894  1.00  0.00    -0.374 N 
HETATM   34  C1  UNL     1       5.135 -33.080 -60.948  1.00  0.00     0.154 C 
BRANCH  33  35
HETATM   35  C2  UNL     1       6.223 -33.934 -62.908  1.00  0.00     0.088 C 
BRANCH  35  36
HETATM   36  C3  UNL     1       6.385 -33.351 -64.305  1.00  0.00     0.208 C 
BRANCH  36  37
HETATM   37  O1  UNL     1       7.293 -34.082 -65.043  1.00  0.00    -0.396 OA
ATOM     38  H1  UNL     1       7.197 -33.907 -65.972  1.00  0.00     0.209 HD
ENDBRANCH  36  37
ENDBRANCH  35  36
ENDBRANCH  33  35
ENDBRANCH  32  33
ENDBRANCH  31  32
ENDBRANCH  30  31
ENDBRANCH   1  30
TORSDOF 9
ENDMDL
MODEL 3
REMARK VINA RESULT: -7.916357581      1.362      2.093
REMARK  9 active torsions:
REMARK  status: ('A' for Active; 'I' for Inactive)
REMARK    1  A    between atoms: N1_2  and  C2_3 
REMARK    2  A    between atoms: N1_2  and  C4_7 
REMARK    3  A    between atoms: C2_3  and  C3_4 
REMARK    4  A    between atoms: C3_4  and  O1_5 
REMARK    5  A    between atoms: C4_7  and  C5_8 
REMARK    6  A    between atoms: C5_8  and  O2_9 
REMARK    7  A    between atoms: O2_9  and  C6_10 
REMARK    8  A    between atoms: N2_15  and  C11_17 
REMARK    9  A    between atoms: C15_22  and  C16_23 
ROOT
HETATM    1  C6  UNL     1       8.772 -29.304 -60.406  1.00  0.00     0.071 A 
HETATM    2  C7  UNL     1       8.707 -28.784 -59.143  1.00  0.00     0.038 A 
HETATM    3  C8  UNL     1       9.774 -28.179 -58.505  1.00  0.00     0.020 A 
HETATM    4  C9  UNL     1      10.984 -28.087 -59.167  1.00  0.00     0.035 A 
HETATM    5  C10 UNL     1      12.047 -27.490 -58.540  1.00  0.00     0.119 A 
HETATM    6  N2  UNL     1      11.968 -27.001 -57.322  1.00  0.00    -0.340 N 
ATOM      7  H2  UNL     1      11.104 -27.041 -56.781  1.00  0.00     0.167 HD
HETATM    8  N3  UNL     1      13.214 -27.423 -59.235  1.00  0.00    -0.338 N 
ATOM      9  H3  UNL     1      14.031 -26.987 -58.807  1.00  0.00     0.168 HD
HETATM   10  C23 UNL     1      13.303 -27.928 -60.482  1.00  0.00     0.182 A 
HETATM   11  N4  UNL     1      12.265 -28.505 -61.081  1.00  0.00    -0.351 N 
ATOM     12  H4  UNL     1      12.368 -28.875 -62.026  1.00  0.00     0.166 HD
HETATM   13  C24 UNL     1      11.071 -28.605 -60.444  1.00  0.00     0.049 A 
HETATM   14  C25 UNL     1       9.993 -29.202 -61.057  1.00  0.00     0.067 A 
ENDROOT
BRANCH   6  15
HETATM   15  C11 UNL     1      13.169 -26.406 -56.796  1.00  0.00     0.056 A 
HETATM   16  C12 UNL     1      13.296 -25.040 -56.836  1.00  0.00     0.033 A 
HETATM   17  C13 UNL     1      14.455 -24.464 -56.354  1.00  0.00     0.027 A 
HETATM   18  C14 UNL     1      15.488 -25.240 -55.832  1.00  0.00     0.046 A 
HETATM   19 CL1  UNL     1      16.942 -24.469 -55.233  1.00  0.00    -0.083 Cl
HETATM   20  C15 UNL     1      15.362 -26.608 -55.791  1.00  0.00     0.020 A 
HETATM   21  C22 UNL     1      14.204 -27.143 -56.275  1.00  0.00     0.073 A 
HETATM   22 CL3  UNL     1      14.033 -28.884 -56.218  1.00  0.00    -0.081 Cl
BRANCH  20  23
HETATM   23  C16 UNL     1      16.437 -27.481 -55.271  1.00  0.00    -0.022 A 
HETATM   24  C17 UNL     1      17.529 -27.724 -56.114  1.00  0.00     0.014 A 
HETATM   25  C18 UNL     1      18.583 -28.508 -55.750  1.00  0.00     0.024 A 
HETATM   26  C19 UNL     1      18.546 -29.080 -54.474  1.00  0.00     0.034 A 
HETATM   27 CL2  UNL     1      19.889 -30.081 -54.000  1.00  0.00    -0.084 Cl
HETATM   28  C20 UNL     1      17.460 -28.843 -53.626  1.00  0.00     0.024 A 
HETATM   29  C21 UNL     1      16.412 -28.039 -54.040  1.00  0.00     0.014 A 
ENDBRANCH  20  23
ENDBRANCH   6  15
BRANCH   1  30
HETATM   30  O2  UNL     1       7.720 -29.902 -61.033  1.00  0.00    -0.346 OA
BRANCH  30  31
HETATM   31  C5  UNL     1       6.807 -30.745 -60.378  1.00  0.00     0.220 C 
BRANCH  31  32
HETATM   32  C4  UNL     1       6.380 -31.808 -61.403  1.00  0.00     0.089 C 
BRANCH  32  33
HETATM   33  N1  UNL     1       5.386 -32.672 -60.982  1.00  0.00    -0.374 N 
HETATM   34  C1  UNL     1       5.025 -32.622 -59.640  1.00  0.00     0.154 C 
BRANCH  33  35
HETATM   35  C2  UNL     1       4.918 -33.732 -61.762  1.00  0.00     0.088 C 
BRANCH  35  36
HETATM   36  C3  UNL     1       3.796 -34.533 -61.116  1.00  0.00     0.208 C 
BRANCH  36  37
HETATM   37  O1  UNL     1       2.568 -34.166 -61.629  1.00  0.00    -0.396 OA
ATOM     38  H1  UNL     1       2.205 -33.430 -61.150  1.00  0.00     0.209 HD
ENDBRANCH  36  37
ENDBRANCH  35  36
ENDBRANCH  33  35
ENDBRANCH  32  33
ENDBRANCH  31  32
ENDBRANCH  30  31
ENDBRANCH   1  30
TORSDOF 9
ENDMDL
MODEL 4
REMARK VINA RESULT: -7.859534436      2.036      2.620
REMARK  9 active torsions:
REMARK  status: ('A' for Active; 'I' for Inactive)
REMARK    1  A    between atoms: N1_2  and  C2_3 
REMARK    2  A    between atoms: N1_2  and  C4_7 
REMARK    3  A    between atoms: C2_3  and  C3_4 
REMARK    4  A    between atoms: C3_4  and  O1_5 
REMARK    5  A    between atoms: C4_7  and  C5_8 
REMARK    6  A    between atoms: C5_8  and  O2_9 
REMARK    7  A    between atoms: O2_9  and  C6_10 
REMARK    8  A    between atoms: N2_15  and  C11_17 
REMARK    9  A    between atoms: C15_22  and  C16_23 
ROOT
HETATM    1  C6  UNL     1       9.236 -29.001 -60.443  1.00  0.00     0.071 A 
HETATM    2  C7  UNL     1      10.554 -28.753 -60.706  1.00  0.00     0.038 A 
HETATM    3  C8  UNL     1      11.422 -28.166 -59.803  1.00  0.00     0.020 A 
HETATM    4  C9  UNL     1      10.944 -27.801 -58.558  1.00  0.00     0.035 A 
HETATM    5  C10 UNL     1      11.798 -27.216 -57.658  1.00  0.00     0.119 A 
HETATM    6  N2  UNL     1      13.062 -26.980 -57.932  1.00  0.00    -0.340 N 
ATOM      7  H2  UNL     1      13.473 -27.223 -58.833  1.00  0.00     0.167 HD
HETATM    8  N3  UNL     1      11.279 -26.877 -56.448  1.00  0.00    -0.338 N 
ATOM      9  H3  UNL     1      11.879 -26.440 -55.748  1.00  0.00     0.168 HD
HETATM   10  C23 UNL     1       9.982 -27.112 -56.163  1.00  0.00     0.182 A 
HETATM   11  N4  UNL     1       9.163 -27.680 -57.044  1.00  0.00    -0.351 N 
ATOM     12  H4  UNL     1       8.187 -27.844 -56.795  1.00  0.00     0.166 HD
HETATM   13  C24 UNL     1       9.615 -28.043 -58.271  1.00  0.00     0.049 A 
HETATM   14  C25 UNL     1       8.773 -28.630 -59.187  1.00  0.00     0.067 A 
ENDROOT
BRANCH   6  15
HETATM   15  C11 UNL     1      13.833 -26.357 -56.888  1.00  0.00     0.056 A 
HETATM   16  C12 UNL     1      13.267 -26.226 -55.643  1.00  0.00     0.033 A 
HETATM   17  C13 UNL     1      13.992 -25.610 -54.643  1.00  0.00     0.027 A 
HETATM   18  C14 UNL     1      15.277 -25.123 -54.873  1.00  0.00     0.046 A 
HETATM   19 CL1  UNL     1      16.162 -24.346 -53.576  1.00  0.00    -0.083 Cl
HETATM   20  C15 UNL     1      15.846 -25.254 -56.117  1.00  0.00     0.020 A 
HETATM   21  C22 UNL     1      15.101 -25.868 -57.082  1.00  0.00     0.073 A 
HETATM   22 CL3  UNL     1      15.822 -26.046 -58.667  1.00  0.00    -0.081 Cl
BRANCH  20  23
HETATM   23  C16 UNL     1      17.195 -24.733 -56.424  1.00  0.00    -0.022 A 
HETATM   24  C17 UNL     1      17.285 -23.411 -56.879  1.00  0.00     0.014 A 
HETATM   25  C18 UNL     1      18.470 -22.815 -57.191  1.00  0.00     0.024 A 
HETATM   26  C19 UNL     1      19.632 -23.581 -57.040  1.00  0.00     0.034 A 
HETATM   27 CL2  UNL     1      21.151 -22.828 -57.434  1.00  0.00    -0.084 Cl
HETATM   28  C20 UNL     1      19.552 -24.902 -56.586  1.00  0.00     0.024 A 
HETATM   29  C21 UNL     1      18.324 -25.463 -56.281  1.00  0.00     0.014 A 
ENDBRANCH  20  23
ENDBRANCH   6  15
BRANCH   1  30
HETATM   30  O2  UNL     1       8.381 -29.579 -61.334  1.00  0.00    -0.346 OA
BRANCH  30  31
HETATM   31  C5  UNL     1       7.158 -30.161 -60.964  1.00  0.00     0.220 C 
BRANCH  31  32
HETATM   32  C4  UNL     1       7.422 -31.668 -60.806  1.00  0.00     0.089 C 
BRANCH  32  33
HETATM   33  N1  UNL     1       6.384 -32.496 -61.194  1.00  0.00    -0.374 N 
HETATM   34  C1  UNL     1       6.426 -33.004 -62.489  1.00  0.00     0.154 C 
BRANCH  33  35
HETATM   35  C2  UNL     1       5.208 -32.639 -60.455  1.00  0.00     0.088 C 
BRANCH  35  36
HETATM   36  C3  UNL     1       5.420 -32.681 -58.948  1.00  0.00     0.208 C 
BRANCH  36  37
HETATM   37  O1  UNL     1       4.942 -31.532 -58.350  1.00  0.00    -0.396 OA
ATOM     38  H1  UNL     1       4.026 -31.394 -58.561  1.00  0.00     0.209 HD
ENDBRANCH  36  37
ENDBRANCH  35  36
ENDBRANCH  33  35
ENDBRANCH  32  33
ENDBRANCH  31  32
ENDBRANCH  30  31
ENDBRANCH   1  30
TORSDOF 9
ENDMDL
MODEL 5
REMARK VINA RESULT: -7.724323649      0.976      1.736
REMARK  9 active torsions:
REMARK  status: ('A' for Active; 'I' for Inactive)
REMARK    1  A    between atoms: N1_2  and  C2_3 
REMARK    2  A    between atoms: N1_2  and  C4_7 
REMARK    3  A    between atoms: C2_3  and  C3_4 
REMARK    4  A    between atoms: C3_4  and  O1_5 
REMARK    5  A    between atoms: C4_7  and  C5_8 
REMARK    6  A    between atoms: C5_8  and  O2_9 
REMARK    7  A    between atoms: O2_9  and  C6_10 
REMARK    8  A    between atoms: N2_15  and  C11_17 
REMARK    9  A    between atoms: C15_22  and  C16_23 
ROOT
HETATM    1  C6  UNL     1       8.519 -29.383 -60.078  1.00  0.00     0.071 A 
HETATM    2  C7  UNL     1       8.525 -28.871 -58.810  1.00  0.00     0.038 A 
HETATM    3  C8  UNL     1       9.618 -28.246 -58.238  1.00  0.00     0.020 A 
HETATM    4  C9  UNL     1      10.780 -28.124 -58.977  1.00  0.00     0.035 A 
HETATM    5  C10 UNL     1      11.869 -27.507 -58.415  1.00  0.00     0.119 A 
HETATM    6  N2  UNL     1      11.858 -27.026 -57.192  1.00  0.00    -0.340 N 
ATOM      7  H2  UNL     1      11.032 -27.088 -56.596  1.00  0.00     0.167 HD
HETATM    8  N3  UNL     1      12.987 -27.411 -59.183  1.00  0.00    -0.338 N 
ATOM      9  H3  UNL     1      13.820 -26.959 -58.807  1.00  0.00     0.168 HD
HETATM   10  C23 UNL     1      13.006 -27.907 -60.438  1.00  0.00     0.182 A 
HETATM   11  N4  UNL     1      11.944 -28.503 -60.972  1.00  0.00    -0.351 N 
ATOM     12  H4  UNL     1      11.993 -28.866 -61.924  1.00  0.00     0.166 HD
HETATM   13  C24 UNL     1      10.796 -28.633 -60.260  1.00  0.00     0.049 A 
HETATM   14  C25 UNL     1       9.694 -29.250 -60.806  1.00  0.00     0.067 A 
ENDROOT
BRANCH   6  15
HETATM   15  C11 UNL     1      13.077 -26.408 -56.740  1.00  0.00     0.056 A 
HETATM   16  C12 UNL     1      13.199 -25.044 -56.844  1.00  0.00     0.033 A 
HETATM   17  C13 UNL     1      14.375 -24.447 -56.435  1.00  0.00     0.027 A 
HETATM   18  C14 UNL     1      15.430 -25.199 -55.922  1.00  0.00     0.046 A 
HETATM   19 CL1  UNL     1      16.905 -24.401 -55.415  1.00  0.00    -0.083 Cl
HETATM   20  C15 UNL     1      15.310 -26.563 -55.816  1.00  0.00     0.020 A 
HETATM   21  C22 UNL     1      14.135 -27.120 -56.230  1.00  0.00     0.073 A 
HETATM   22 CL3  UNL     1      13.971 -28.858 -56.091  1.00  0.00    -0.081 Cl
BRANCH  20  23
HETATM   23  C16 UNL     1      16.407 -27.412 -55.303  1.00  0.00    -0.022 A 
HETATM   24  C17 UNL     1      17.546 -27.543 -56.107  1.00  0.00     0.014 A 
HETATM   25  C18 UNL     1      18.625 -28.293 -55.745  1.00  0.00     0.024 A 
HETATM   26  C19 UNL     1      18.563 -28.949 -54.510  1.00  0.00     0.034 A 
HETATM   27 CL2  UNL     1      19.937 -29.908 -54.038  1.00  0.00    -0.084 Cl
HETATM   28  C20 UNL     1      17.430 -28.824 -53.700  1.00  0.00     0.024 A 
HETATM   29  C21 UNL     1      16.359 -28.050 -54.112  1.00  0.00     0.014 A 
ENDBRANCH  20  23
ENDBRANCH   6  15
BRANCH   1  30
HETATM   30  O2  UNL     1       7.442 -30.000 -60.640  1.00  0.00    -0.346 OA
BRANCH  30  31
HETATM   31  C5  UNL     1       7.522 -31.229 -61.316  1.00  0.00     0.220 C 
BRANCH  31  32
HETATM   32  C4  UNL     1       7.718 -32.308 -60.238  1.00  0.00     0.089 C 
BRANCH  32  33
HETATM   33  N1  UNL     1       6.713 -33.254 -60.156  1.00  0.00    -0.374 N 
HETATM   34  C1  UNL     1       7.028 -34.553 -60.543  1.00  0.00     0.154 C 
BRANCH  33  35
HETATM   35  C2  UNL     1       5.372 -32.924 -59.947  1.00  0.00     0.088 C 
BRANCH  35  36
HETATM   36  C3  UNL     1       5.129 -32.048 -58.726  1.00  0.00     0.208 C 
BRANCH  36  37
HETATM   37  O1  UNL     1       4.766 -30.769 -59.100  1.00  0.00    -0.396 OA
ATOM     38  H1  UNL     1       4.746 -30.684 -60.046  1.00  0.00     0.209 HD
ENDBRANCH  36  37
ENDBRANCH  35  36
ENDBRANCH  33  35
ENDBRANCH  32  33
ENDBRANCH  31  32
ENDBRANCH  30  31
ENDBRANCH   1  30
TORSDOF 9
ENDMDL
