MODEL 1
REMARK VINA RESULT: -7.800796854      0.000      0.000
REMARK  11 active torsions:
REMARK  status: ('A' for Active; 'I' for Inactive)
REMARK    1  A    between atoms: C2_2  and  C3_3 
REMARK    2  A    between atoms: C2_2  and  N3_15 
REMARK    3  A    between atoms: C3_3  and  C4_4 
REMARK    4  A    between atoms: C4_4  and  C5_5 
REMARK    5  A    between atoms: C5_5  and  N1_6 
REMARK    6  A    between atoms: N1_6  and  C6_8 
REMARK    7  A    between atoms: N3_15  and  C11_17 
REMARK    8  A    between atoms: C12_20  and  S1_21 
REMARK    9  A    between atoms: S1_21  and  C13_22 
REMARK   10  A    between atoms: C17_30  and  C18_31 
REMARK   11  A    between atoms: C23_36  and  C24_37 
ROOT
HETATM    1  C11 UNL     1      13.220 -28.588 -59.890  1.00  0.00     0.134 A 
HETATM    2  N4  UNL     1      13.757 -29.190 -60.984  1.00  0.00    -0.321 N 
ATOM      3  H4  UNL     1      13.144 -29.603 -61.687  1.00  0.00     0.169 HD
HETATM    4  C12 UNL     1      15.073 -29.243 -61.142  1.00  0.00     0.147 A 
HETATM    5  N5  UNL     1      15.875 -28.698 -60.214  1.00  0.00    -0.321 N 
ATOM      6  H5  UNL     1      16.886 -28.746 -60.349  1.00  0.00     0.169 HD
HETATM    7  C16 UNL     1      15.391 -28.081 -59.097  1.00  0.00     0.140 A 
HETATM    8  N6  UNL     1      15.914 -27.479 -58.055  1.00  0.00    -0.326 N 
ATOM      9  H6  UNL     1      16.917 -27.367 -57.906  1.00  0.00     0.169 HD
HETATM   10  C17 UNL     1      14.942 -27.011 -57.175  1.00  0.00     0.118 A 
HETATM   11  N7  UNL     1      13.824 -27.364 -57.749  1.00  0.00    -0.336 N 
ATOM     12  H7  UNL     1      12.899 -27.171 -57.363  1.00  0.00     0.168 HD
HETATM   13  C25 UNL     1      14.038 -28.029 -58.939  1.00  0.00     0.122 A 
ENDROOT
BRANCH   1  14
HETATM   14  N3  UNL     1      11.957 -28.537 -59.737  1.00  0.00    -0.370 N 
ATOM     15  H3  UNL     1      11.501 -29.392 -59.420  1.00  0.00     0.161 HD
BRANCH  14  16
HETATM   16  C2  UNL     1      11.110 -27.406 -59.965  1.00  0.00     0.079 C 
HETATM   17  C1  UNL     1      11.457 -26.569 -61.151  1.00  0.00     0.032 C 
BRANCH  16  18
HETATM   18  C3  UNL     1       9.673 -27.897 -60.174  1.00  0.00     0.026 C 
BRANCH  18  19
HETATM   19  C4  UNL     1       9.408 -28.952 -59.120  1.00  0.00     0.022 C 
BRANCH  19  20
HETATM   20  C5  UNL     1       8.438 -28.331 -58.128  1.00  0.00     0.121 C 
BRANCH  20  21
HETATM   21  N1  UNL     1       9.011 -28.443 -56.821  1.00  0.00    -0.376 N 
ATOM     22  H1  UNL     1       9.109 -29.372 -56.412  1.00  0.00     0.161 HD
BRANCH  21  23
HETATM   23  C6  UNL     1       9.408 -27.429 -56.140  1.00  0.00     0.100 A 
HETATM   24  C7  UNL     1      10.725 -27.045 -56.196  1.00  0.00     0.048 A 
HETATM   25  C8  UNL     1      11.129 -25.955 -55.461  1.00  0.00     0.005 A 
HETATM   26  C9  UNL     1      10.227 -25.265 -54.683  1.00  0.00     0.017 A 
HETATM   27  C10 UNL     1       8.924 -25.686 -54.658  1.00  0.00     0.089 A 
HETATM   28  N2  UNL     1       8.538 -26.749 -55.379  1.00  0.00    -0.353 N 
ATOM     29  H2  UNL     1       7.563 -27.047 -55.348  1.00  0.00     0.166 HD
ENDBRANCH  21  23
ENDBRANCH  20  21
ENDBRANCH  19  20
ENDBRANCH  18  19
ENDBRANCH  16  18
ENDBRANCH  14  16
ENDBRANCH   1  14
BRANCH   4  30
HETATM   30  S1  UNL     1      15.711 -30.051 -62.603  1.00  0.00    -0.090 SA
BRANCH  30  31
HETATM   31  C13 UNL     1      15.130 -31.765 -62.571  1.00  0.00     0.047 C 
HETATM   32  C14 UNL     1      15.587 -32.380 -61.260  1.00  0.00     0.021 C 
HETATM   33  C15 UNL     1      15.636 -32.543 -63.765  1.00  0.00     0.021 C 
ENDBRANCH  30  31
ENDBRANCH   4  30
BRANCH  10  34
HETATM   34  C18 UNL     1      15.310 -26.374 -55.914  1.00  0.00     0.023 A 
HETATM   35  C19 UNL     1      15.532 -27.248 -54.820  1.00  0.00     0.016 A 
HETATM   36  C20 UNL     1      15.791 -26.865 -53.545  1.00  0.00     0.001 A 
HETATM   37  C21 UNL     1      15.840 -25.510 -53.292  1.00  0.00     0.001 A 
HETATM   38  C22 UNL     1      15.634 -24.614 -54.309  1.00  0.00     0.017 A 
HETATM   39  C23 UNL     1      15.368 -25.056 -55.631  1.00  0.00     0.061 A 
BRANCH  39  40
HETATM   40  C24 UNL     1      15.202 -24.012 -56.668  1.00  0.00     0.418 C 
HETATM   41  F1  UNL     1      15.492 -22.741 -56.245  1.00  0.00    -0.166 F 
HETATM   42  F2  UNL     1      15.804 -24.346 -57.873  1.00  0.00    -0.166 F 
HETATM   43  F3  UNL     1      13.820 -23.960 -56.969  1.00  0.00    -0.166 F 
ENDBRANCH  39  40
ENDBRANCH  10  34
TORSDOF 11
ENDMDL
MODEL 2
REMARK VINA RESULT: -7.798194347      2.745      6.235
REMARK  11 active torsions:
REMARK  status: ('A' for Active; 'I' for Inactive)
REMARK    1  A    between atoms: C2_2  and  C3_3 
REMARK    2  A    between atoms: C2_2  and  N3_15 
REMARK    3  A    between atoms: C3_3  and  C4_4 
REMARK    4  A    between atoms: C4_4  and  C5_5 
REMARK    5  A    between atoms: C5_5  and  N1_6 
REMARK    6  A    between atoms: N1_6  and  C6_8 
REMARK    7  A    between atoms: N3_15  and  C11_17 
REMARK    8  A    between atoms: C12_20  and  S1_21 
REMARK    9  A    between atoms: S1_21  and  C13_22 
REMARK   10  A    between atoms: C17_30  and  C18_31 
REMARK   11  A    between atoms: C23_36  and  C24_37 
ROOT
HETATM    1  C11 UNL     1      10.000 -29.293 -60.393  1.00  0.00     0.134 A 
HETATM    2  N4  UNL     1       9.113 -30.158 -60.952  1.00  0.00    -0.321 N 
ATOM      3  H4  UNL     1       9.306 -30.560 -61.869  1.00  0.00     0.169 HD
HETATM    4  C12 UNL     1       7.998 -30.482 -60.310  1.00  0.00     0.147 A 
HETATM    5  N5  UNL     1       7.749 -29.951 -59.102  1.00  0.00    -0.321 N 
ATOM      6  H5  UNL     1       6.887 -30.209 -58.620  1.00  0.00     0.169 HD
HETATM    7  C16 UNL     1       8.604 -29.078 -58.494  1.00  0.00     0.140 A 
HETATM    8  N6  UNL     1       8.626 -28.421 -57.359  1.00  0.00    -0.326 N 
ATOM      9  H6  UNL     1       7.890 -28.476 -56.655  1.00  0.00     0.169 HD
HETATM   10  C17 UNL     1       9.769 -27.638 -57.226  1.00  0.00     0.118 A 
HETATM   11  N7  UNL     1      10.420 -27.867 -58.335  1.00  0.00    -0.336 N 
ATOM     12  H7  UNL     1      11.319 -27.444 -58.566  1.00  0.00     0.168 HD
HETATM   13  C25 UNL     1       9.748 -28.748 -59.158  1.00  0.00     0.122 A 
ENDROOT
BRANCH   1  14
HETATM   14  N3  UNL     1      11.070 -28.982 -61.008  1.00  0.00    -0.370 N 
ATOM     15  H3  UNL     1      10.973 -28.347 -61.801  1.00  0.00     0.161 HD
BRANCH  14  16
HETATM   16  C2  UNL     1      12.396 -29.429 -60.705  1.00  0.00     0.079 C 
HETATM   17  C1  UNL     1      13.002 -30.367 -61.694  1.00  0.00     0.032 C 
BRANCH  16  18
HETATM   18  C3  UNL     1      13.323 -28.211 -60.623  1.00  0.00     0.026 C 
BRANCH  18  19
HETATM   19  C4  UNL     1      14.044 -28.290 -59.293  1.00  0.00     0.022 C 
BRANCH  19  20
HETATM   20  C5  UNL     1      15.030 -27.134 -59.272  1.00  0.00     0.121 C 
BRANCH  20  21
HETATM   21  N1  UNL     1      15.812 -27.243 -58.077  1.00  0.00    -0.376 N 
ATOM     22  H1  UNL     1      16.225 -28.146 -57.849  1.00  0.00     0.161 HD
BRANCH  21  23
HETATM   23  C6  UNL     1      16.018 -26.256 -57.281  1.00  0.00     0.100 A 
HETATM   24  C7  UNL     1      15.746 -24.977 -57.699  1.00  0.00     0.048 A 
HETATM   25  C8  UNL     1      15.971 -23.935 -56.831  1.00  0.00     0.005 A 
HETATM   26  C9  UNL     1      16.462 -24.173 -55.567  1.00  0.00     0.017 A 
HETATM   27  C10 UNL     1      16.718 -25.466 -55.195  1.00  0.00     0.089 A 
HETATM   28  N2  UNL     1      16.495 -26.476 -56.048  1.00  0.00    -0.353 N 
ATOM     29  H2  UNL     1      16.692 -27.432 -55.753  1.00  0.00     0.166 HD
ENDBRANCH  21  23
ENDBRANCH  20  21
ENDBRANCH  19  20
ENDBRANCH  18  19
ENDBRANCH  16  18
ENDBRANCH  14  16
ENDBRANCH   1  14
BRANCH   4  30
HETATM   30  S1  UNL     1       6.874 -31.623 -61.103  1.00  0.00    -0.090 SA
BRANCH  30  31
HETATM   31  C13 UNL     1       5.984 -32.505 -59.797  1.00  0.00     0.047 C 
HETATM   32  C14 UNL     1       6.952 -33.493 -59.169  1.00  0.00     0.021 C 
HETATM   33  C15 UNL     1       4.749 -33.191 -60.334  1.00  0.00     0.021 C 
ENDBRANCH  30  31
ENDBRANCH   4  30
BRANCH  10  34
HETATM   34  C18 UNL     1       9.957 -26.769 -56.068  1.00  0.00     0.023 A 
HETATM   35  C19 UNL     1       8.786 -26.446 -55.337  1.00  0.00     0.016 A 
HETATM   36  C20 UNL     1       8.722 -25.586 -54.291  1.00  0.00     0.001 A 
HETATM   37  C21 UNL     1       9.896 -24.972 -53.906  1.00  0.00     0.001 A 
HETATM   38  C22 UNL     1      11.062 -25.244 -54.574  1.00  0.00     0.017 A 
HETATM   39  C23 UNL     1      11.088 -26.152 -55.663  1.00  0.00     0.061 A 
BRANCH  39  40
HETATM   40  C24 UNL     1      12.403 -26.411 -56.292  1.00  0.00     0.418 C 
HETATM   41  F1  UNL     1      12.797 -27.723 -56.260  1.00  0.00    -0.166 F 
HETATM   42  F2  UNL     1      12.531 -25.824 -57.543  1.00  0.00    -0.166 F 
HETATM   43  F3  UNL     1      13.368 -25.751 -55.494  1.00  0.00    -0.166 F 
ENDBRANCH  39  40
ENDBRANCH  10  34
TORSDOF 11
ENDMDL
MODEL 3
REMARK VINA RESULT: -7.695188892      3.183      6.403
REMARK  11 active torsions:
REMARK  status: ('A' for Active; 'I' for Inactive)
REMARK    1  A    between atoms: C2_2  and  C3_3 
REMARK    2  A    between atoms: C2_2  and  N3_15 
REMARK    3  A    between atoms: C3_3  and  C4_4 
REMARK    4  A    between atoms: C4_4  and  C5_5 
REMARK    5  A    between atoms: C5_5  and  N1_6 
REMARK    6  A    between atoms: N1_6  and  C6_8 
REMARK    7  A    between atoms: N3_15  and  C11_17 
REMARK    8  A    between atoms: C12_20  and  S1_21 
REMARK    9  A    between atoms: S1_21  and  C13_22 
REMARK   10  A    between atoms: C17_30  and  C18_31 
REMARK   11  A    between atoms: C23_36  and  C24_37 
ROOT
HETATM    1  C11 UNL     1       9.238 -29.441 -60.443  1.00  0.00     0.134 A 
HETATM    2  N4  UNL     1       8.352 -30.404 -60.811  1.00  0.00    -0.321 N 
ATOM      3  H4  UNL     1       8.384 -30.789 -61.755  1.00  0.00     0.169 HD
HETATM    4  C12 UNL     1       7.445 -30.844 -59.948  1.00  0.00     0.147 A 
HETATM    5  N5  UNL     1       7.407 -30.335 -58.707  1.00  0.00    -0.321 N 
ATOM      6  H5  UNL     1       6.704 -30.684 -58.054  1.00  0.00     0.169 HD
HETATM    7  C16 UNL     1       8.272 -29.367 -58.285  1.00  0.00     0.140 A 
HETATM    8  N6  UNL     1       8.467 -28.702 -57.170  1.00  0.00    -0.326 N 
ATOM      9  H6  UNL     1       7.912 -28.834 -56.324  1.00  0.00     0.169 HD
HETATM   10  C17 UNL     1       9.519 -27.797 -57.275  1.00  0.00     0.118 A 
HETATM   11  N7  UNL     1       9.934 -27.960 -58.502  1.00  0.00    -0.336 N 
ATOM     12  H7  UNL     1      10.709 -27.442 -58.915  1.00  0.00     0.168 HD
HETATM   13  C25 UNL     1       9.202 -28.917 -59.174  1.00  0.00     0.122 A 
ENDROOT
BRANCH   1  14
HETATM   14  N3  UNL     1      10.108 -29.017 -61.271  1.00  0.00    -0.370 N 
ATOM     15  H3  UNL     1       9.787 -28.342 -61.965  1.00  0.00     0.161 HD
BRANCH  14  16
HETATM   16  C2  UNL     1      11.489 -29.389 -61.330  1.00  0.00     0.079 C 
HETATM   17  C1  UNL     1      12.444 -28.422 -60.716  1.00  0.00     0.032 C 
BRANCH  16  18
HETATM   18  C3  UNL     1      11.674 -30.722 -60.595  1.00  0.00     0.026 C 
BRANCH  18  19
HETATM   19  C4  UNL     1      13.072 -31.213 -60.911  1.00  0.00     0.022 C 
BRANCH  19  20
HETATM   20  C5  UNL     1      13.677 -31.660 -59.591  1.00  0.00     0.121 C 
BRANCH  20  21
HETATM   21  N1  UNL     1      14.889 -30.925 -59.389  1.00  0.00    -0.376 N 
ATOM     22  H1  UNL     1      15.595 -30.942 -60.125  1.00  0.00     0.161 HD
BRANCH  21  23
HETATM   23  C6  UNL     1      15.129 -30.246 -58.325  1.00  0.00     0.100 A 
HETATM   24  C7  UNL     1      15.487 -28.925 -58.429  1.00  0.00     0.048 A 
HETATM   25  C8  UNL     1      15.738 -28.215 -57.278  1.00  0.00     0.005 A 
HETATM   26  C9  UNL     1      15.631 -28.821 -56.047  1.00  0.00     0.017 A 
HETATM   27  C10 UNL     1      15.270 -30.142 -55.993  1.00  0.00     0.089 A 
HETATM   28  N2  UNL     1      15.027 -30.826 -57.121  1.00  0.00    -0.353 N 
ATOM     29  H2  UNL     1      14.760 -31.809 -57.061  1.00  0.00     0.166 HD
ENDBRANCH  21  23
ENDBRANCH  20  21
ENDBRANCH  19  20
ENDBRANCH  18  19
ENDBRANCH  16  18
ENDBRANCH  14  16
ENDBRANCH   1  14
BRANCH   4  30
HETATM   30  S1  UNL     1       6.309 -32.110 -60.498  1.00  0.00    -0.090 SA
BRANCH  30  31
HETATM   31  C13 UNL     1       5.896 -33.129 -59.061  1.00  0.00     0.047 C 
HETATM   32  C14 UNL     1       7.104 -33.998 -58.753  1.00  0.00     0.021 C 
HETATM   33  C15 UNL     1       4.655 -33.957 -59.308  1.00  0.00     0.021 C 
ENDBRANCH  30  31
ENDBRANCH   4  30
BRANCH  10  34
HETATM   34  C18 UNL     1       9.856 -26.902 -56.172  1.00  0.00     0.023 A 
HETATM   35  C19 UNL     1       8.771 -26.468 -55.369  1.00  0.00     0.016 A 
HETATM   36  C20 UNL     1       8.849 -25.569 -54.357  1.00  0.00     0.001 A 
HETATM   37  C21 UNL     1      10.088 -25.030 -54.087  1.00  0.00     0.001 A 
HETATM   38  C22 UNL     1      11.177 -25.409 -54.829  1.00  0.00     0.017 A 
HETATM   39  C23 UNL     1      11.055 -26.355 -55.878  1.00  0.00     0.061 A 
BRANCH  39  40
HETATM   40  C24 UNL     1      12.297 -26.733 -56.592  1.00  0.00     0.418 C 
HETATM   41  F1  UNL     1      12.563 -28.077 -56.594  1.00  0.00    -0.166 F 
HETATM   42  F2  UNL     1      12.401 -26.145 -57.845  1.00  0.00    -0.166 F 
HETATM   43  F3  UNL     1      13.370 -26.178 -55.854  1.00  0.00    -0.166 F 
ENDBRANCH  39  40
ENDBRANCH  10  34
TORSDOF 11
ENDMDL
MODEL 4
REMARK VINA RESULT: -7.674954750      2.868      4.442
REMARK  11 active torsions:
REMARK  status: ('A' for Active; 'I' for Inactive)
REMARK    1  A    between atoms: C2_2  and  C3_3 
REMARK    2  A    between atoms: C2_2  and  N3_15 
REMARK    3  A    between atoms: C3_3  and  C4_4 
REMARK    4  A    between atoms: C4_4  and  C5_5 
REMARK    5  A    between atoms: C5_5  and  N1_6 
REMARK    6  A    between atoms: N1_6  and  C6_8 
REMARK    7  A    between atoms: N3_15  and  C11_17 
REMARK    8  A    between atoms: C12_20  and  S1_21 
REMARK    9  A    between atoms: S1_21  and  C13_22 
REMARK   10  A    between atoms: C17_30  and  C18_31 
REMARK   11  A    between atoms: C23_36  and  C24_37 
ROOT
HETATM    1  C11 UNL     1      12.296 -28.051 -59.468  1.00  0.00     0.134 A 
HETATM    2  N4  UNL     1      12.569 -28.929 -60.469  1.00  0.00    -0.321 N 
ATOM      3  H4  UNL     1      11.829 -29.213 -61.110  1.00  0.00     0.169 HD
HETATM    4  C12 UNL     1      13.794 -29.417 -60.616  1.00  0.00     0.147 A 
HETATM    5  N5  UNL     1      14.766 -29.040 -59.770  1.00  0.00    -0.321 N 
ATOM      6  H5  UNL     1      15.703 -29.424 -59.896  1.00  0.00     0.169 HD
HETATM    7  C16 UNL     1      14.548 -28.162 -58.748  1.00  0.00     0.140 A 
HETATM    8  N6  UNL     1      15.277 -27.627 -57.797  1.00  0.00    -0.326 N 
ATOM      9  H6  UNL     1      16.269 -27.821 -57.663  1.00  0.00     0.169 HD
HETATM   10  C17 UNL     1      14.540 -26.764 -56.991  1.00  0.00     0.118 A 
HETATM   11  N7  UNL     1      13.344 -26.815 -57.513  1.00  0.00    -0.336 N 
ATOM     12  H7  UNL     1      12.544 -26.290 -57.158  1.00  0.00     0.168 HD
HETATM   13  C25 UNL     1      13.288 -27.662 -58.600  1.00  0.00     0.122 A 
ENDROOT
BRANCH   1  14
HETATM   14  N3  UNL     1      11.121 -27.582 -59.325  1.00  0.00    -0.370 N 
ATOM     15  H3  UNL     1      11.017 -26.572 -59.425  1.00  0.00     0.161 HD
BRANCH  14  16
HETATM   16  C2  UNL     1       9.930 -28.323 -59.040  1.00  0.00     0.079 C 
HETATM   17  C1  UNL     1       9.192 -27.909 -57.812  1.00  0.00     0.032 C 
BRANCH  16  18
HETATM   18  C3  UNL     1       8.958 -28.168 -60.216  1.00  0.00     0.026 C 
BRANCH  18  19
HETATM   19  C4  UNL     1       9.071 -29.424 -61.054  1.00  0.00     0.022 C 
BRANCH  19  20
HETATM   20  C5  UNL     1       8.114 -30.434 -60.443  1.00  0.00     0.121 C 
BRANCH  20  21
HETATM   21  N1  UNL     1       7.093 -30.714 -61.406  1.00  0.00    -0.376 N 
ATOM     22  H1  UNL     1       6.948 -30.050 -62.166  1.00  0.00     0.161 HD
BRANCH  21  23
HETATM   23  C6  UNL     1       6.351 -31.762 -61.358  1.00  0.00     0.100 A 
HETATM   24  C7  UNL     1       6.422 -32.692 -62.365  1.00  0.00     0.048 A 
HETATM   25  C8  UNL     1       5.621 -33.808 -62.294  1.00  0.00     0.005 A 
HETATM   26  C9  UNL     1       4.766 -33.986 -61.231  1.00  0.00     0.017 A 
HETATM   27  C10 UNL     1       4.730 -33.031 -60.249  1.00  0.00     0.089 A 
HETATM   28  N2  UNL     1       5.515 -31.945 -60.327  1.00  0.00    -0.353 N 
ATOM     29  H2  UNL     1       5.474 -31.246 -59.586  1.00  0.00     0.166 HD
ENDBRANCH  21  23
ENDBRANCH  20  21
ENDBRANCH  19  20
ENDBRANCH  18  19
ENDBRANCH  16  18
ENDBRANCH  14  16
ENDBRANCH   1  14
BRANCH   4  30
HETATM   30  S1  UNL     1      14.083 -30.569 -61.952  1.00  0.00    -0.090 SA
BRANCH  30  31
HETATM   31  C13 UNL     1      15.864 -30.593 -62.271  1.00  0.00     0.047 C 
HETATM   32  C14 UNL     1      16.234 -29.265 -62.907  1.00  0.00     0.021 C 
HETATM   33  C15 UNL     1      16.254 -31.764 -63.144  1.00  0.00     0.021 C 
ENDBRANCH  30  31
ENDBRANCH   4  30
BRANCH  10  34
HETATM   34  C18 UNL     1      15.142 -26.119 -55.828  1.00  0.00     0.023 A 
HETATM   35  C19 UNL     1      15.241 -26.916 -54.659  1.00  0.00     0.016 A 
HETATM   36  C20 UNL     1      15.680 -26.489 -53.449  1.00  0.00     0.001 A 
HETATM   37  C21 UNL     1      16.060 -25.167 -53.347  1.00  0.00     0.001 A 
HETATM   38  C22 UNL     1      15.987 -24.346 -54.442  1.00  0.00     0.017 A 
HETATM   39  C23 UNL     1      15.525 -24.832 -55.692  1.00  0.00     0.061 A 
BRANCH  39  40
HETATM   40  C24 UNL     1      15.524 -23.879 -56.826  1.00  0.00     0.418 C 
HETATM   41  F1  UNL     1      16.099 -24.362 -57.972  1.00  0.00    -0.166 F 
HETATM   42  F2  UNL     1      14.286 -23.286 -57.033  1.00  0.00    -0.166 F 
HETATM   43  F3  UNL     1      16.368 -22.807 -56.451  1.00  0.00    -0.166 F 
ENDBRANCH  39  40
ENDBRANCH  10  34
TORSDOF 11
ENDMDL
MODEL 5
REMARK VINA RESULT: -7.652877319      3.107      6.342
REMARK  11 active torsions:
REMARK  status: ('A' for Active; 'I' for Inactive)
REMARK    1  A    between atoms: C2_2  and  C3_3 
REMARK    2  A    between atoms: C2_2  and  N3_15 
REMARK    3  A    between atoms: C3_3  and  C4_4 
REMARK    4  A    between atoms: C4_4  and  C5_5 
REMARK    5  A    between atoms: C5_5  and  N1_6 
REMARK    6  A    between atoms: N1_6  and  C6_8 
REMARK    7  A    between atoms: N3_15  and  C11_17 
REMARK    8  A    between atoms: C12_20  and  S1_21 
REMARK    9  A    between atoms: S1_21  and  C13_22 
REMARK   10  A    between atoms: C17_30  and  C18_31 
REMARK   11  A    between atoms: C23_36  and  C24_37 
ROOT
HETATM    1  C11 UNL     1      16.640 -25.594 -58.207  1.00  0.00     0.134 A 
HETATM    2  N4  UNL     1      17.605 -24.855 -58.815  1.00  0.00    -0.321 N 
ATOM      3  H4  UNL     1      18.206 -24.248 -58.258  1.00  0.00     0.169 HD
HETATM    4  C12 UNL     1      17.769 -24.920 -60.131  1.00  0.00     0.147 A 
HETATM    5  N5  UNL     1      16.975 -25.721 -60.860  1.00  0.00    -0.321 N 
ATOM      6  H5  UNL     1      17.113 -25.761 -61.870  1.00  0.00     0.169 HD
HETATM    7  C16 UNL     1      15.992 -26.484 -60.301  1.00  0.00     0.140 A 
HETATM    8  N6  UNL     1      15.093 -27.331 -60.744  1.00  0.00    -0.326 N 
ATOM      9  H6  UNL     1      14.983 -27.582 -61.727  1.00  0.00     0.169 HD
HETATM   10  C17 UNL     1      14.307 -27.849 -59.720  1.00  0.00     0.118 A 
HETATM   11  N7  UNL     1      14.785 -27.269 -58.652  1.00  0.00    -0.336 N 
ATOM     12  H7  UNL     1      14.430 -27.428 -57.709  1.00  0.00     0.168 HD
HETATM   13  C25 UNL     1      15.827 -26.414 -58.949  1.00  0.00     0.122 A 
ENDROOT
BRANCH   1  14
HETATM   14  N3  UNL     1      16.482 -25.531 -56.945  1.00  0.00    -0.370 N 
ATOM     15  H3  UNL     1      16.392 -26.420 -56.451  1.00  0.00     0.161 HD
BRANCH  14  16
HETATM   16  C2  UNL     1      16.418 -24.345 -56.145  1.00  0.00     0.079 C 
HETATM   17  C1  UNL     1      15.534 -23.263 -56.668  1.00  0.00     0.032 C 
BRANCH  16  18
HETATM   18  C3  UNL     1      15.892 -24.715 -54.754  1.00  0.00     0.026 C 
BRANCH  18  19
HETATM   19  C4  UNL     1      15.014 -25.939 -54.922  1.00  0.00     0.022 C 
BRANCH  19  20
HETATM   20  C5  UNL     1      13.620 -25.529 -54.479  1.00  0.00     0.121 C 
BRANCH  20  21
HETATM   21  N1  UNL     1      12.725 -25.755 -55.573  1.00  0.00    -0.376 N 
ATOM     22  H1  UNL     1      13.085 -25.662 -56.523  1.00  0.00     0.161 HD
BRANCH  21  23
HETATM   23  C6  UNL     1      11.489 -26.071 -55.416  1.00  0.00     0.100 A 
HETATM   24  C7  UNL     1      11.055 -27.320 -55.781  1.00  0.00     0.048 A 
HETATM   25  C8  UNL     1       9.729 -27.639 -55.602  1.00  0.00     0.005 A 
HETATM   26  C9  UNL     1       8.856 -26.719 -55.067  1.00  0.00     0.017 A 
HETATM   27  C10 UNL     1       9.336 -25.484 -54.717  1.00  0.00     0.089 A 
HETATM   28  N2  UNL     1      10.631 -25.182 -54.895  1.00  0.00    -0.353 N 
ATOM     29  H2  UNL     1      10.970 -24.258 -54.628  1.00  0.00     0.166 HD
ENDBRANCH  21  23
ENDBRANCH  20  21
ENDBRANCH  19  20
ENDBRANCH  18  19
ENDBRANCH  16  18
ENDBRANCH  14  16
ENDBRANCH   1  14
BRANCH   4  30
HETATM   30  S1  UNL     1      19.055 -23.921 -60.866  1.00  0.00    -0.090 SA
BRANCH  30  31
HETATM   31  C13 UNL     1      19.684 -22.814 -59.580  1.00  0.00     0.047 C 
HETATM   32  C14 UNL     1      18.828 -21.559 -59.597  1.00  0.00     0.021 C 
HETATM   33  C15 UNL     1      21.148 -22.499 -59.787  1.00  0.00     0.021 C 
ENDBRANCH  30  31
ENDBRANCH   4  30
BRANCH  10  34
HETATM   34  C18 UNL     1      13.198 -28.755 -60.004  1.00  0.00     0.023 A 
HETATM   35  C19 UNL     1      13.534 -30.126 -60.136  1.00  0.00     0.016 A 
HETATM   36  C20 UNL     1      12.678 -31.117 -60.488  1.00  0.00     0.001 A 
HETATM   37  C21 UNL     1      11.370 -30.760 -60.741  1.00  0.00     0.001 A 
HETATM   38  C22 UNL     1      10.983 -29.450 -60.630  1.00  0.00     0.017 A 
HETATM   39  C23 UNL     1      11.909 -28.442 -60.257  1.00  0.00     0.061 A 
BRANCH  39  40
HETATM   40  C24 UNL     1      11.385 -27.064 -60.123  1.00  0.00     0.418 C 
HETATM   41  F1  UNL     1      11.634 -26.479 -58.909  1.00  0.00    -0.166 F 
HETATM   42  F2  UNL     1      11.706 -26.255 -61.204  1.00  0.00    -0.166 F 
HETATM   43  F3  UNL     1       9.974 -27.163 -60.165  1.00  0.00    -0.166 F 
ENDBRANCH  39  40
ENDBRANCH  10  34
TORSDOF 11
ENDMDL
