MODEL 1
REMARK VINA RESULT: -7.309717404      0.000      0.000
REMARK  11 active torsions:
REMARK  status: ('A' for Active; 'I' for Inactive)
REMARK    1  A    between atoms: C5_5  and  O1_6 
REMARK    2  A    between atoms: O1_6  and  C6_7 
REMARK    3  A    between atoms: C8_12  and  C9_13 
REMARK    4  A    between atoms: C13_19  and  N2_20 
REMARK    5  A    between atoms: N2_20  and  C14_21 
REMARK    6  A    between atoms: C14_21  and  C16_23 
REMARK    7  A    between atoms: C20_29  and  C21_30 
REMARK    8  A    between atoms: C21_30  and  C22_31 
REMARK    9  A    between atoms: C21_30  and  C23_34 
REMARK   10  A    between atoms: C22_31  and  O2_32 
REMARK   11  A    between atoms: C23_34  and  N4_35 
ROOT
HETATM    1  C9  UNL     1      15.140 -25.205 -57.236  1.00  0.00     0.004 A 
HETATM    2  C10 UNL     1      15.705 -24.048 -56.657  1.00  0.00     0.101 A 
HETATM    3  N1  UNL     1      16.678 -23.590 -57.436  1.00  0.00    -0.364 N 
ATOM      4  H1  UNL     1      17.248 -22.765 -57.249  1.00  0.00     0.165 HD
HETATM    5  C11 UNL     1      16.793 -24.403 -58.529  1.00  0.00     0.049 A 
HETATM    6  C12 UNL     1      17.634 -24.385 -59.596  1.00  0.00     0.094 A 
HETATM    7  C13 UNL     1      17.589 -25.350 -60.605  1.00  0.00     0.175 A 
HETATM    8  N5  UNL     1      16.649 -26.301 -60.448  1.00  0.00    -0.335 N 
ATOM      9  H5  UNL     1      16.575 -27.028 -61.159  1.00  0.00     0.168 HD
HETATM   10  C26 UNL     1      15.794 -26.346 -59.394  1.00  0.00     0.021 A 
HETATM   11  C27 UNL     1      14.784 -27.433 -59.317  1.00  0.00     0.069 C 
HETATM   12  C28 UNL     1      15.840 -25.398 -58.399  1.00  0.00     0.025 A 
ENDROOT
BRANCH   7  13
HETATM   13  N2  UNL     1      18.379 -25.279 -61.487  1.00  0.00    -0.421 NA
BRANCH  13  14
HETATM   14  C14 UNL     1      19.316 -25.425 -62.455  1.00  0.00     0.196 C 
HETATM   15  C15 UNL     1      20.299 -26.592 -62.119  1.00  0.00     0.053 C 
BRANCH  14  16
HETATM   16  C16 UNL     1      20.180 -24.197 -62.637  1.00  0.00     0.000 A 
HETATM   17  C17 UNL     1      20.664 -23.542 -61.544  1.00  0.00     0.013 A 
HETATM   18  C18 UNL     1      21.349 -22.343 -61.754  1.00  0.00     0.018 A 
HETATM   19  C19 UNL     1      21.517 -21.855 -63.037  1.00  0.00     0.088 A 
HETATM   20  N3  UNL     1      21.022 -22.543 -64.070  1.00  0.00    -0.368 N 
HETATM   21  C20 UNL     1      20.346 -23.722 -63.913  1.00  0.00     0.029 A 
ATOM     22  H3  UNL     1      21.154 -22.174 -65.012  1.00  0.00     0.165 HD
BRANCH  21  23
HETATM   23  C21 UNL     1      19.934 -24.425 -65.107  1.00  0.00     0.098 C 
BRANCH  23  24
HETATM   24  C22 UNL     1      19.571 -23.276 -66.135  1.00  0.00     0.180 C 
BRANCH  24  25
HETATM   25  O2  UNL     1      18.359 -22.724 -65.757  1.00  0.00    -0.400 OA
ATOM     26  H2  UNL     1      18.270 -22.818 -64.815  1.00  0.00     0.209 HD
ENDBRANCH  24  25
ENDBRANCH  23  24
BRANCH  23  27
HETATM   27  C23 UNL     1      21.062 -25.107 -65.855  1.00  0.00     0.070 C 
BRANCH  27  28
HETATM   28  N4  UNL     1      20.927 -26.342 -66.444  1.00  0.00    -0.401 N 
HETATM   29  C24 UNL     1      20.683 -27.473 -65.637  1.00  0.00     0.148 C 
HETATM   30  C25 UNL     1      21.764 -26.613 -67.585  1.00  0.00     0.148 C 
ENDBRANCH  27  28
ENDBRANCH  23  27
ENDBRANCH  21  23
ENDBRANCH  14  16
ENDBRANCH  13  14
ENDBRANCH   7  13
BRANCH   1  31
HETATM   31  C8  UNL     1      14.059 -25.963 -56.662  1.00  0.00    -0.015 A 
HETATM   32  C2  UNL     1      14.354 -27.133 -55.969  1.00  0.00    -0.051 A 
HETATM   33  C1  UNL     1      15.745 -27.666 -55.845  1.00  0.00     0.049 C 
HETATM   34  C3  UNL     1      13.349 -27.847 -55.344  1.00  0.00     0.010 A 
HETATM   35  C4  UNL     1      12.019 -27.422 -55.389  1.00  0.00     0.037 A 
HETATM   36  C5  UNL     1      11.735 -26.279 -56.067  1.00  0.00     0.079 A 
HETATM   37  C7  UNL     1      12.737 -25.577 -56.685  1.00  0.00     0.050 A 
BRANCH  36  38
HETATM   38  O1  UNL     1      10.387 -25.861 -56.101  1.00  0.00    -0.255 OA
BRANCH  38  39
HETATM   39  C6  UNL     1       9.810 -25.432 -54.849  1.00  0.00     0.530 C 
HETATM   40  F1  UNL     1      10.768 -24.834 -54.076  1.00  0.00    -0.144 F 
HETATM   41  F2  UNL     1       9.251 -26.514 -54.195  1.00  0.00    -0.144 F 
HETATM   42  F3  UNL     1       8.779 -24.535 -55.069  1.00  0.00    -0.144 F 
ENDBRANCH  38  39
ENDBRANCH  36  38
ENDBRANCH   1  31
TORSDOF 11
ENDMDL
MODEL 2
REMARK VINA RESULT: -7.218504089      3.496      4.770
REMARK  11 active torsions:
REMARK  status: ('A' for Active; 'I' for Inactive)
REMARK    1  A    between atoms: C5_5  and  O1_6 
REMARK    2  A    between atoms: O1_6  and  C6_7 
REMARK    3  A    between atoms: C8_12  and  C9_13 
REMARK    4  A    between atoms: C13_19  and  N2_20 
REMARK    5  A    between atoms: N2_20  and  C14_21 
REMARK    6  A    between atoms: C14_21  and  C16_23 
REMARK    7  A    between atoms: C20_29  and  C21_30 
REMARK    8  A    between atoms: C21_30  and  C22_31 
REMARK    9  A    between atoms: C21_30  and  C23_34 
REMARK   10  A    between atoms: C22_31  and  O2_32 
REMARK   11  A    between atoms: C23_34  and  N4_35 
ROOT
HETATM    1  C9  UNL     1      16.330 -26.289 -56.179  1.00  0.00     0.004 A 
HETATM    2  C10 UNL     1      17.006 -27.518 -56.026  1.00  0.00     0.101 A 
HETATM    3  N1  UNL     1      18.316 -27.320 -56.108  1.00  0.00    -0.364 N 
ATOM      4  H1  UNL     1      19.031 -28.043 -56.031  1.00  0.00     0.165 HD
HETATM    5  C11 UNL     1      18.552 -25.989 -56.314  1.00  0.00     0.049 A 
HETATM    6  C12 UNL     1      19.699 -25.281 -56.485  1.00  0.00     0.094 A 
HETATM    7  C13 UNL     1      19.705 -23.902 -56.711  1.00  0.00     0.175 A 
HETATM    8  N5  UNL     1      18.491 -23.322 -56.743  1.00  0.00    -0.335 N 
ATOM      9  H5  UNL     1      18.443 -22.315 -56.904  1.00  0.00     0.168 HD
HETATM   10  C26 UNL     1      17.328 -24.001 -56.576  1.00  0.00     0.021 A 
HETATM   11  C27 UNL     1      16.038 -23.265 -56.620  1.00  0.00     0.069 C 
HETATM   12  C28 UNL     1      17.322 -25.358 -56.357  1.00  0.00     0.025 A 
ENDROOT
BRANCH   7  13
HETATM   13  N2  UNL     1      20.749 -23.365 -56.880  1.00  0.00    -0.421 NA
BRANCH  13  14
HETATM   14  C14 UNL     1      21.866 -22.718 -57.293  1.00  0.00     0.196 C 
HETATM   15  C15 UNL     1      22.927 -22.635 -56.148  1.00  0.00     0.053 C 
BRANCH  14  16
HETATM   16  C16 UNL     1      21.604 -21.290 -57.716  1.00  0.00     0.000 A 
HETATM   17  C17 UNL     1      22.022 -20.262 -56.925  1.00  0.00     0.013 A 
HETATM   18  C18 UNL     1      21.647 -18.967 -57.290  1.00  0.00     0.018 A 
HETATM   19  C19 UNL     1      20.876 -18.758 -58.418  1.00  0.00     0.088 A 
HETATM   20  N3  UNL     1      20.497 -19.806 -59.156  1.00  0.00    -0.368 N 
HETATM   21  C20 UNL     1      20.841 -21.092 -58.839  1.00  0.00     0.029 A 
ATOM     22  H3  UNL     1      19.929 -19.640 -59.988  1.00  0.00     0.165 HD
BRANCH  21  23
HETATM   23  C21 UNL     1      20.453 -22.138 -59.758  1.00  0.00     0.098 C 
BRANCH  23  24
HETATM   24  C22 UNL     1      18.955 -21.792 -60.137  1.00  0.00     0.180 C 
BRANCH  24  25
HETATM   25  O2  UNL     1      18.268 -21.502 -58.971  1.00  0.00    -0.400 OA
ATOM     26  H2  UNL     1      17.503 -22.064 -58.929  1.00  0.00     0.209 HD
ENDBRANCH  24  25
ENDBRANCH  23  24
BRANCH  23  27
HETATM   27  C23 UNL     1      21.103 -22.047 -61.125  1.00  0.00     0.070 C 
BRANCH  27  28
HETATM   28  N4  UNL     1      20.871 -22.963 -62.123  1.00  0.00    -0.401 N 
HETATM   29  C24 UNL     1      21.046 -24.338 -61.859  1.00  0.00     0.148 C 
HETATM   30  C25 UNL     1      21.246 -22.577 -63.459  1.00  0.00     0.148 C 
ENDBRANCH  27  28
ENDBRANCH  23  27
ENDBRANCH  21  23
ENDBRANCH  14  16
ENDBRANCH  13  14
ENDBRANCH   7  13
BRANCH   1  31
HETATM   31  C8  UNL     1      14.899 -26.130 -56.144  1.00  0.00    -0.015 A 
HETATM   32  C2  UNL     1      14.283 -25.871 -54.924  1.00  0.00    -0.051 A 
HETATM   33  C1  UNL     1      15.040 -25.808 -53.637  1.00  0.00     0.049 C 
HETATM   34  C3  UNL     1      12.921 -25.642 -54.865  1.00  0.00     0.010 A 
HETATM   35  C4  UNL     1      12.129 -25.663 -56.015  1.00  0.00     0.037 A 
HETATM   36  C5  UNL     1      12.735 -25.916 -57.205  1.00  0.00     0.079 A 
HETATM   37  C7  UNL     1      14.086 -26.143 -57.255  1.00  0.00     0.050 A 
BRANCH  36  38
HETATM   38  O1  UNL     1      11.921 -25.931 -58.359  1.00  0.00    -0.255 OA
BRANCH  38  39
HETATM   39  C6  UNL     1      11.300 -27.190 -58.697  1.00  0.00     0.530 C 
HETATM   40  F1  UNL     1      10.286 -27.460 -57.819  1.00  0.00    -0.144 F 
HETATM   41  F2  UNL     1      12.246 -28.198 -58.687  1.00  0.00    -0.144 F 
HETATM   42  F3  UNL     1      10.788 -27.150 -59.983  1.00  0.00    -0.144 F 
ENDBRANCH  38  39
ENDBRANCH  36  38
ENDBRANCH   1  31
TORSDOF 11
ENDMDL
MODEL 3
REMARK VINA RESULT: -7.069614934      7.134     11.573
REMARK  11 active torsions:
REMARK  status: ('A' for Active; 'I' for Inactive)
REMARK    1  A    between atoms: C5_5  and  O1_6 
REMARK    2  A    between atoms: O1_6  and  C6_7 
REMARK    3  A    between atoms: C8_12  and  C9_13 
REMARK    4  A    between atoms: C13_19  and  N2_20 
REMARK    5  A    between atoms: N2_20  and  C14_21 
REMARK    6  A    between atoms: C14_21  and  C16_23 
REMARK    7  A    between atoms: C20_29  and  C21_30 
REMARK    8  A    between atoms: C21_30  and  C22_31 
REMARK    9  A    between atoms: C21_30  and  C23_34 
REMARK   10  A    between atoms: C22_31  and  O2_32 
REMARK   11  A    between atoms: C23_34  and  N4_35 
ROOT
HETATM    1  C9  UNL     1      11.513 -26.995 -56.641  1.00  0.00     0.004 A 
HETATM    2  C10 UNL     1      10.473 -26.694 -55.734  1.00  0.00     0.101 A 
HETATM    3  N1  UNL     1       9.335 -27.220 -56.170  1.00  0.00    -0.364 N 
ATOM      4  H1  UNL     1       8.432 -27.150 -55.701  1.00  0.00     0.165 HD
HETATM    5  C11 UNL     1       9.569 -27.872 -57.348  1.00  0.00     0.049 A 
HETATM    6  C12 UNL     1       8.751 -28.548 -58.197  1.00  0.00     0.094 A 
HETATM    7  C13 UNL     1       9.209 -29.126 -59.383  1.00  0.00     0.175 A 
HETATM    8  N5  UNL     1      10.523 -28.970 -59.627  1.00  0.00    -0.335 N 
ATOM      9  H5  UNL     1      10.907 -29.375 -60.481  1.00  0.00     0.168 HD
HETATM   10  C26 UNL     1      11.367 -28.301 -58.799  1.00  0.00     0.021 A 
HETATM   11  C27 UNL     1      12.806 -28.192 -59.154  1.00  0.00     0.069 C 
HETATM   12  C28 UNL     1      10.916 -27.729 -57.633  1.00  0.00     0.025 A 
ENDROOT
BRANCH   7  13
HETATM   13  N2  UNL     1       8.422 -29.673 -60.083  1.00  0.00    -0.421 NA
BRANCH  13  14
HETATM   14  C14 UNL     1       7.672 -30.477 -60.875  1.00  0.00     0.196 C 
HETATM   15  C15 UNL     1       6.740 -29.641 -61.809  1.00  0.00     0.053 C 
BRANCH  14  16
HETATM   16  C16 UNL     1       6.758 -31.395 -60.094  1.00  0.00     0.000 A 
HETATM   17  C17 UNL     1       5.912 -30.873 -59.162  1.00  0.00     0.013 A 
HETATM   18  C18 UNL     1       5.179 -31.767 -58.376  1.00  0.00     0.018 A 
HETATM   19  C19 UNL     1       5.325 -33.130 -58.555  1.00  0.00     0.088 A 
HETATM   20  N3  UNL     1       6.169 -33.582 -59.488  1.00  0.00    -0.368 N 
HETATM   21  C20 UNL     1       6.905 -32.746 -60.281  1.00  0.00     0.029 A 
ATOM     22  H3  UNL     1       6.267 -34.590 -59.612  1.00  0.00     0.165 HD
BRANCH  21  23
HETATM   23  C21 UNL     1       7.717 -33.343 -61.317  1.00  0.00     0.098 C 
BRANCH  23  24
HETATM   24  C22 UNL     1       8.612 -34.404 -60.553  1.00  0.00     0.180 C 
BRANCH  24  25
HETATM   25  O2  UNL     1       9.925 -33.965 -60.582  1.00  0.00    -0.400 OA
ATOM     26  H2  UNL     1      10.215 -33.958 -61.486  1.00  0.00     0.209 HD
ENDBRANCH  24  25
ENDBRANCH  23  24
BRANCH  23  27
HETATM   27  C23 UNL     1       6.961 -34.259 -62.258  1.00  0.00     0.070 C 
BRANCH  27  28
HETATM   28  N4  UNL     1       5.942 -33.818 -63.069  1.00  0.00    -0.401 N 
HETATM   29  C24 UNL     1       4.668 -34.417 -62.972  1.00  0.00     0.148 C 
HETATM   30  C25 UNL     1       6.300 -33.430 -64.409  1.00  0.00     0.148 C 
ENDBRANCH  27  28
ENDBRANCH  23  27
ENDBRANCH  21  23
ENDBRANCH  14  16
ENDBRANCH  13  14
ENDBRANCH   7  13
BRANCH   1  31
HETATM   31  C8  UNL     1      12.883 -26.582 -56.483  1.00  0.00    -0.015 A 
HETATM   32  C2  UNL     1      13.778 -27.448 -55.863  1.00  0.00    -0.051 A 
HETATM   33  C1  UNL     1      13.361 -28.768 -55.299  1.00  0.00     0.049 C 
HETATM   34  C3  UNL     1      15.115 -27.114 -55.759  1.00  0.00     0.010 A 
HETATM   35  C4  UNL     1      15.605 -25.910 -56.269  1.00  0.00     0.037 A 
HETATM   36  C5  UNL     1      14.728 -25.066 -56.875  1.00  0.00     0.079 A 
HETATM   37  C7  UNL     1      13.403 -25.405 -56.972  1.00  0.00     0.050 A 
BRANCH  36  38
HETATM   38  O1  UNL     1      15.239 -23.855 -57.387  1.00  0.00    -0.255 OA
BRANCH  38  39
HETATM   39  C6  UNL     1      15.931 -22.997 -56.454  1.00  0.00     0.530 C 
HETATM   40  F1  UNL     1      17.256 -22.918 -56.789  1.00  0.00    -0.144 F 
HETATM   41  F2  UNL     1      15.773 -23.478 -55.168  1.00  0.00    -0.144 F 
HETATM   42  F3  UNL     1      15.384 -21.725 -56.464  1.00  0.00    -0.144 F 
ENDBRANCH  38  39
ENDBRANCH  36  38
ENDBRANCH   1  31
TORSDOF 11
ENDMDL
MODEL 4
REMARK VINA RESULT: -6.964737761      3.242      4.591
REMARK  11 active torsions:
REMARK  status: ('A' for Active; 'I' for Inactive)
REMARK    1  A    between atoms: C5_5  and  O1_6 
REMARK    2  A    between atoms: O1_6  and  C6_7 
REMARK    3  A    between atoms: C8_12  and  C9_13 
REMARK    4  A    between atoms: C13_19  and  N2_20 
REMARK    5  A    between atoms: N2_20  and  C14_21 
REMARK    6  A    between atoms: C14_21  and  C16_23 
REMARK    7  A    between atoms: C20_29  and  C21_30 
REMARK    8  A    between atoms: C21_30  and  C22_31 
REMARK    9  A    between atoms: C21_30  and  C23_34 
REMARK   10  A    between atoms: C22_31  and  O2_32 
REMARK   11  A    between atoms: C23_34  and  N4_35 
ROOT
HETATM    1  C9  UNL     1      14.843 -25.443 -55.222  1.00  0.00     0.004 A 
HETATM    2  C10 UNL     1      15.278 -24.950 -53.972  1.00  0.00     0.101 A 
HETATM    3  N1  UNL     1      16.423 -24.296 -54.124  1.00  0.00    -0.364 N 
ATOM      4  H1  UNL     1      16.950 -23.842 -53.379  1.00  0.00     0.165 HD
HETATM    5  C11 UNL     1      16.782 -24.329 -55.443  1.00  0.00     0.049 A 
HETATM    6  C12 UNL     1      17.859 -23.837 -56.110  1.00  0.00     0.094 A 
HETATM    7  C13 UNL     1      18.038 -24.013 -57.484  1.00  0.00     0.175 A 
HETATM    8  N5  UNL     1      17.065 -24.705 -58.105  1.00  0.00    -0.335 N 
ATOM      9  H5  UNL     1      17.149 -24.859 -59.110  1.00  0.00     0.168 HD
HETATM   10  C26 UNL     1      15.977 -25.209 -57.468  1.00  0.00     0.021 A 
HETATM   11  C27 UNL     1      14.952 -25.952 -58.247  1.00  0.00     0.069 C 
HETATM   12  C28 UNL     1      15.802 -25.039 -56.115  1.00  0.00     0.025 A 
ENDROOT
BRANCH   7  13
HETATM   13  N2  UNL     1      19.022 -23.576 -57.983  1.00  0.00    -0.421 NA
BRANCH  13  14
HETATM   14  C14 UNL     1      20.222 -23.298 -58.547  1.00  0.00     0.196 C 
HETATM   15  C15 UNL     1      20.997 -24.608 -58.901  1.00  0.00     0.053 C 
BRANCH  14  16
HETATM   16  C16 UNL     1      21.138 -22.509 -57.638  1.00  0.00     0.000 A 
HETATM   17  C17 UNL     1      21.404 -22.968 -56.383  1.00  0.00     0.013 A 
HETATM   18  C18 UNL     1      22.150 -22.146 -55.534  1.00  0.00     0.018 A 
HETATM   19  C19 UNL     1      22.591 -20.912 -55.974  1.00  0.00     0.088 A 
HETATM   20  N3  UNL     1      22.301 -20.517 -57.217  1.00  0.00    -0.368 N 
HETATM   21  C20 UNL     1      21.575 -21.288 -58.084  1.00  0.00     0.029 A 
ATOM     22  H3  UNL     1      22.633 -19.605 -57.531  1.00  0.00     0.165 HD
BRANCH  21  23
HETATM   23  C21 UNL     1      21.398 -20.799 -59.433  1.00  0.00     0.098 C 
BRANCH  23  24
HETATM   24  C22 UNL     1      21.218 -19.234 -59.263  1.00  0.00     0.180 C 
BRANCH  24  25
HETATM   25  O2  UNL     1      20.160 -19.011 -58.399  1.00  0.00    -0.400 OA
ATOM     26  H2  UNL     1      20.404 -18.310 -57.805  1.00  0.00     0.209 HD
ENDBRANCH  24  25
ENDBRANCH  23  24
BRANCH  23  27
HETATM   27  C23 UNL     1      22.653 -20.834 -60.283  1.00  0.00     0.070 C 
BRANCH  27  28
HETATM   28  N4  UNL     1      22.670 -21.330 -61.565  1.00  0.00    -0.401 N 
HETATM   29  C24 UNL     1      23.027 -20.481 -62.633  1.00  0.00     0.148 C 
HETATM   30  C25 UNL     1      21.652 -22.292 -61.903  1.00  0.00     0.148 C 
ENDBRANCH  27  28
ENDBRANCH  23  27
ENDBRANCH  21  23
ENDBRANCH  14  16
ENDBRANCH  13  14
ENDBRANCH   7  13
BRANCH   1  31
HETATM   31  C8  UNL     1      13.636 -26.200 -55.429  1.00  0.00    -0.015 A 
HETATM   32  C2  UNL     1      13.700 -27.589 -55.393  1.00  0.00    -0.051 A 
HETATM   33  C1  UNL     1      14.985 -28.330 -55.205  1.00  0.00     0.049 C 
HETATM   34  C3  UNL     1      12.550 -28.345 -55.516  1.00  0.00     0.010 A 
HETATM   35  C4  UNL     1      11.300 -27.745 -55.679  1.00  0.00     0.037 A 
HETATM   36  C5  UNL     1      11.240 -26.387 -55.714  1.00  0.00     0.079 A 
HETATM   37  C7  UNL     1      12.386 -25.645 -55.592  1.00  0.00     0.050 A 
BRANCH  36  38
HETATM   38  O1  UNL     1       9.969 -25.796 -55.877  1.00  0.00    -0.255 OA
BRANCH  38  39
HETATM   39  C6  UNL     1       9.273 -25.413 -54.671  1.00  0.00     0.530 C 
HETATM   40  F1  UNL     1       8.572 -26.480 -54.179  1.00  0.00    -0.144 F 
HETATM   41  F2  UNL     1       8.434 -24.347 -54.933  1.00  0.00    -0.144 F 
HETATM   42  F3  UNL     1      10.168 -24.977 -53.710  1.00  0.00    -0.144 F 
ENDBRANCH  38  39
ENDBRANCH  36  38
ENDBRANCH   1  31
TORSDOF 11
ENDMDL
MODEL 5
REMARK VINA RESULT: -6.942442871      5.152      6.730
REMARK  11 active torsions:
REMARK  status: ('A' for Active; 'I' for Inactive)
REMARK    1  A    between atoms: C5_5  and  O1_6 
REMARK    2  A    between atoms: O1_6  and  C6_7 
REMARK    3  A    between atoms: C8_12  and  C9_13 
REMARK    4  A    between atoms: C13_19  and  N2_20 
REMARK    5  A    between atoms: N2_20  and  C14_21 
REMARK    6  A    between atoms: C14_21  and  C16_23 
REMARK    7  A    between atoms: C20_29  and  C21_30 
REMARK    8  A    between atoms: C21_30  and  C22_31 
REMARK    9  A    between atoms: C21_30  and  C23_34 
REMARK   10  A    between atoms: C22_31  and  O2_32 
REMARK   11  A    between atoms: C23_34  and  N4_35 
ROOT
HETATM    1  C9  UNL     1      14.477 -27.788 -56.510  1.00  0.00     0.004 A 
HETATM    2  C10 UNL     1      15.053 -29.064 -56.333  1.00  0.00     0.101 A 
HETATM    3  N1  UNL     1      16.366 -28.943 -56.181  1.00  0.00    -0.364 N 
ATOM      4  H1  UNL     1      17.020 -29.713 -56.035  1.00  0.00     0.165 HD
HETATM    5  C11 UNL     1      16.702 -27.620 -56.250  1.00  0.00     0.049 A 
HETATM    6  C12 UNL     1      17.896 -26.975 -56.177  1.00  0.00     0.094 A 
HETATM    7  C13 UNL     1      18.011 -25.589 -56.301  1.00  0.00     0.175 A 
HETATM    8  N5  UNL     1      16.852 -24.932 -56.496  1.00  0.00    -0.335 N 
ATOM      9  H5  UNL     1      16.883 -23.917 -56.591  1.00  0.00     0.168 HD
HETATM   10  C26 UNL     1      15.644 -25.547 -56.573  1.00  0.00     0.021 A 
HETATM   11  C27 UNL     1      14.419 -24.730 -56.781  1.00  0.00     0.069 C 
HETATM   12  C28 UNL     1      15.531 -26.912 -56.454  1.00  0.00     0.025 A 
ENDROOT
BRANCH   7  13
HETATM   13  N2  UNL     1      19.095 -25.108 -56.256  1.00  0.00    -0.421 NA
BRANCH  13  14
HETATM   14  C14 UNL     1      20.253 -24.414 -56.370  1.00  0.00     0.196 C 
HETATM   15  C15 UNL     1      20.116 -23.252 -57.405  1.00  0.00     0.053 C 
BRANCH  14  16
HETATM   16  C16 UNL     1      21.409 -25.263 -56.853  1.00  0.00     0.000 A 
HETATM   17  C17 UNL     1      21.270 -26.014 -57.982  1.00  0.00     0.013 A 
HETATM   18  C18 UNL     1      22.315 -26.879 -58.319  1.00  0.00     0.018 A 
HETATM   19  C19 UNL     1      23.440 -26.954 -57.520  1.00  0.00     0.088 A 
HETATM   20  N3  UNL     1      23.520 -26.190 -56.427  1.00  0.00    -0.368 N 
HETATM   21  C20 UNL     1      22.524 -25.329 -56.057  1.00  0.00     0.029 A 
ATOM     22  H3  UNL     1      24.356 -26.253 -55.845  1.00  0.00     0.165 HD
BRANCH  21  23
HETATM   23  C21 UNL     1      22.756 -24.486 -54.905  1.00  0.00     0.098 C 
BRANCH  23  24
HETATM   24  C22 UNL     1      23.930 -25.205 -54.122  1.00  0.00     0.180 C 
BRANCH  24  25
HETATM   25  O2  UNL     1      23.374 -26.170 -53.299  1.00  0.00    -0.400 OA
ATOM     26  H2  UNL     1      24.040 -26.456 -52.685  1.00  0.00     0.209 HD
ENDBRANCH  24  25
ENDBRANCH  23  24
BRANCH  23  27
HETATM   27  C23 UNL     1      23.418 -23.159 -55.221  1.00  0.00     0.070 C 
BRANCH  27  28
HETATM   28  N4  UNL     1      22.753 -21.959 -55.148  1.00  0.00    -0.401 N 
HETATM   29  C24 UNL     1      22.788 -21.076 -56.248  1.00  0.00     0.148 C 
HETATM   30  C25 UNL     1      22.753 -21.292 -53.870  1.00  0.00     0.148 C 
ENDBRANCH  27  28
ENDBRANCH  23  27
ENDBRANCH  21  23
ENDBRANCH  14  16
ENDBRANCH  13  14
ENDBRANCH   7  13
BRANCH   1  31
HETATM   31  C8  UNL     1      13.072 -27.543 -56.704  1.00  0.00    -0.015 A 
HETATM   32  C2  UNL     1      12.566 -27.522 -58.000  1.00  0.00    -0.051 A 
HETATM   33  C1  UNL     1      13.435 -27.686 -59.205  1.00  0.00     0.049 C 
HETATM   34  C3  UNL     1      11.211 -27.362 -58.219  1.00  0.00     0.010 A 
HETATM   35  C4  UNL     1      10.315 -27.217 -57.157  1.00  0.00     0.037 A 
HETATM   36  C5  UNL     1      10.812 -27.238 -55.891  1.00  0.00     0.079 A 
HETATM   37  C7  UNL     1      12.158 -27.397 -55.684  1.00  0.00     0.050 A 
BRANCH  36  38
HETATM   38  O1  UNL     1       9.894 -27.094 -54.830  1.00  0.00    -0.255 OA
BRANCH  38  39
HETATM   39  C6  UNL     1       9.572 -25.744 -54.430  1.00  0.00     0.530 C 
HETATM   40  F1  UNL     1       9.269 -25.714 -53.096  1.00  0.00    -0.144 F 
HETATM   41  F2  UNL     1       8.519 -25.269 -55.188  1.00  0.00    -0.144 F 
HETATM   42  F3  UNL     1      10.639 -24.897 -54.671  1.00  0.00    -0.144 F 
ENDBRANCH  38  39
ENDBRANCH  36  38
ENDBRANCH   1  31
TORSDOF 11
ENDMDL
