MODEL 1
REMARK VINA RESULT: -7.738187731      0.000      0.000
REMARK  10 active torsions:
REMARK  status: ('A' for Active; 'I' for Inactive)
REMARK    1  A    between atoms: O1_2  and  C2_3 
REMARK    2  A    between atoms: C6_7  and  C7_8 
REMARK    3  A    between atoms: C7_8  and  C8_9 
REMARK    4  A    between atoms: C7_8  and  N3_19 
REMARK    5  A    between atoms: C8_9  and  N1_10 
REMARK    6  A    between atoms: N1_10  and  C9_13 
REMARK    7  A    between atoms: C9_13  and  C10_14 
REMARK    8  A    between atoms: C10_14  and  N2_15 
REMARK    9  A    between atoms: N3_19  and  C11_21 
REMARK   10  A    between atoms: C12_24  and  C13_25 
ROOT
HETATM    1  C11 UNL     1      10.279 -28.658 -59.739  1.00  0.00     0.116 A 
HETATM    2  N4  UNL     1       9.366 -29.534 -60.170  1.00  0.00    -0.327 N 
ATOM      3  H4  UNL     1       9.456 -29.947 -61.098  1.00  0.00     0.169 HD
HETATM    4  C12 UNL     1       8.331 -29.873 -59.382  1.00  0.00     0.117 A 
HETATM    5  N5  UNL     1       8.187 -29.345 -58.155  1.00  0.00    -0.341 N 
ATOM      6  H5  UNL     1       7.390 -29.621 -57.581  1.00  0.00     0.167 HD
HETATM    7  C19 UNL     1       9.071 -28.462 -57.670  1.00  0.00     0.047 A 
HETATM    8  C20 UNL     1       8.925 -27.914 -56.390  1.00  0.00     0.032 A 
HETATM    9  C21 UNL     1       9.882 -27.016 -55.968  1.00  0.00     0.026 A 
HETATM   10  C22 UNL     1      10.956 -26.646 -56.749  1.00  0.00     0.035 A 
HETATM   11 CL3  UNL     1      12.170 -25.510 -56.214  1.00  0.00    -0.084 Cl
HETATM   12  C23 UNL     1      11.063 -27.207 -58.002  1.00  0.00     0.041 A 
HETATM   13  C24 UNL     1      10.137 -28.115 -58.485  1.00  0.00     0.036 A 
ENDROOT
BRANCH   1  14
HETATM   14  N3  UNL     1      11.259 -28.344 -60.458  1.00  0.00    -0.365 N 
ATOM     15  H3  UNL     1      11.107 -27.514 -61.032  1.00  0.00     0.162 HD
BRANCH  14  16
HETATM   16  C7  UNL     1      12.536 -28.931 -60.617  1.00  0.00     0.142 C 
BRANCH  16  17
HETATM   17  C6  UNL     1      13.654 -28.372 -59.871  1.00  0.00    -0.031 A 
HETATM   18  C5  UNL     1      14.024 -28.950 -58.650  1.00  0.00     0.009 A 
HETATM   19  C4  UNL     1      15.071 -28.381 -57.974  1.00  0.00     0.003 A 
HETATM   20  C3  UNL     1      15.779 -27.279 -58.418  1.00  0.00     0.037 A 
HETATM   21  C2  UNL     1      15.420 -26.709 -59.614  1.00  0.00     0.068 A 
HETATM   22  C25 UNL     1      14.342 -27.285 -60.323  1.00  0.00     0.046 A 
BRANCH  21  23
HETATM   23  O1  UNL     1      16.067 -25.610 -60.133  1.00  0.00    -0.356 OA
HETATM   24  C1  UNL     1      16.845 -24.687 -59.468  1.00  0.00     0.210 C 
ENDBRANCH  21  23
ENDBRANCH  16  17
BRANCH  16  25
HETATM   25  C8  UNL     1      12.338 -30.401 -60.204  1.00  0.00     0.262 C 
BRANCH  25  26
HETATM   26  N1  UNL     1      13.129 -31.228 -61.140  1.00  0.00    -0.071 N 
ATOM     27  H12 UNL     1      12.737 -31.236 -62.082  1.00  0.00     0.277 HD
ATOM     28  H11 UNL     1      14.030 -30.809 -61.368  1.00  0.00     0.277 HD
BRANCH  26  29
HETATM   29  C9  UNL     1      13.255 -32.534 -60.586  1.00  0.00     0.259 C 
BRANCH  29  30
HETATM   30  C10 UNL     1      13.923 -32.581 -59.233  1.00  0.00     0.257 C 
BRANCH  30  31
HETATM   31  N2  UNL     1      13.410 -33.736 -58.510  1.00  0.00    -0.078 N 
ATOM     32  H23 UNL     1      12.470 -34.000 -58.808  1.00  0.00     0.274 HD
ATOM     33  H22 UNL     1      13.884 -34.602 -58.766  1.00  0.00     0.274 HD
ATOM     34  H21 UNL     1      13.464 -33.538 -57.511  1.00  0.00     0.274 HD
ENDBRANCH  30  31
ENDBRANCH  29  30
ENDBRANCH  26  29
ENDBRANCH  25  26
ENDBRANCH  16  25
ENDBRANCH  14  16
ENDBRANCH   1  14
BRANCH   4  35
HETATM   35  C13 UNL     1       7.305 -30.829 -59.827  1.00  0.00     0.010 A 
HETATM   36  C14 UNL     1       6.260 -31.125 -58.969  1.00  0.00     0.017 A 
HETATM   37  C15 UNL     1       5.267 -32.004 -59.319  1.00  0.00     0.026 A 
HETATM   38  C16 UNL     1       5.295 -32.620 -60.558  1.00  0.00     0.055 A 
HETATM   39 CL1  UNL     1       4.065 -33.751 -61.079  1.00  0.00    -0.083 Cl
HETATM   40  C17 UNL     1       6.316 -32.340 -61.414  1.00  0.00     0.056 A 
HETATM   41 CL2  UNL     1       6.424 -33.086 -63.016  1.00  0.00    -0.083 Cl
HETATM   42  C18 UNL     1       7.324 -31.441 -61.043  1.00  0.00     0.041 A 
ENDBRANCH   4  35
TORSDOF 10
ENDMDL
MODEL 2
REMARK VINA RESULT: -7.675735323      4.091      9.826
REMARK  10 active torsions:
REMARK  status: ('A' for Active; 'I' for Inactive)
REMARK    1  A    between atoms: O1_2  and  C2_3 
REMARK    2  A    between atoms: C6_7  and  C7_8 
REMARK    3  A    between atoms: C7_8  and  C8_9 
REMARK    4  A    between atoms: C7_8  and  N3_19 
REMARK    5  A    between atoms: C8_9  and  N1_10 
REMARK    6  A    between atoms: N1_10  and  C9_13 
REMARK    7  A    between atoms: C9_13  and  C10_14 
REMARK    8  A    between atoms: C10_14  and  N2_15 
REMARK    9  A    between atoms: N3_19  and  C11_21 
REMARK   10  A    between atoms: C12_24  and  C13_25 
ROOT
HETATM    1  C11 UNL     1      14.270 -27.159 -58.464  1.00  0.00     0.116 A 
HETATM    2  N4  UNL     1      15.089 -26.104 -58.413  1.00  0.00    -0.327 N 
ATOM      3  H4  UNL     1      15.018 -25.442 -57.640  1.00  0.00     0.169 HD
HETATM    4  C12 UNL     1      16.006 -25.913 -59.377  1.00  0.00     0.117 A 
HETATM    5  N5  UNL     1      16.121 -26.769 -60.407  1.00  0.00    -0.341 N 
ATOM      6  H5  UNL     1      16.826 -26.597 -61.124  1.00  0.00     0.167 HD
HETATM    7  C19 UNL     1      15.328 -27.844 -60.511  1.00  0.00     0.047 A 
HETATM    8  C20 UNL     1      15.450 -28.738 -61.581  1.00  0.00     0.032 A 
HETATM    9  C21 UNL     1      14.596 -29.820 -61.608  1.00  0.00     0.026 A 
HETATM   10  C22 UNL     1      13.645 -30.046 -60.636  1.00  0.00     0.035 A 
HETATM   11 CL3  UNL     1      12.564 -31.419 -60.668  1.00  0.00    -0.084 Cl
HETATM   12  C23 UNL     1      13.556 -29.143 -59.600  1.00  0.00     0.041 A 
HETATM   13  C24 UNL     1      14.384 -28.036 -59.514  1.00  0.00     0.036 A 
ENDROOT
BRANCH   1  14
HETATM   14  N3  UNL     1      13.419 -27.358 -57.562  1.00  0.00    -0.365 N 
ATOM     15  H3  UNL     1      12.838 -28.183 -57.711  1.00  0.00     0.162 HD
BRANCH  14  16
HETATM   16  C7  UNL     1      13.120 -26.646 -56.377  1.00  0.00     0.142 C 
BRANCH  16  17
HETATM   17  C6  UNL     1      11.724 -26.479 -56.002  1.00  0.00    -0.031 A 
HETATM   18  C5  UNL     1      11.385 -25.557 -55.003  1.00  0.00     0.009 A 
HETATM   19  C4  UNL     1      10.061 -25.445 -54.670  1.00  0.00     0.003 A 
HETATM   20  C3  UNL     1       9.046 -26.181 -55.253  1.00  0.00     0.037 A 
HETATM   21  C2  UNL     1       9.373 -27.086 -56.233  1.00  0.00     0.068 A 
HETATM   22  C25 UNL     1      10.734 -27.212 -56.588  1.00  0.00     0.046 A 
BRANCH  21  23
HETATM   23  O1  UNL     1       8.428 -27.862 -56.867  1.00  0.00    -0.356 OA
HETATM   24  C1  UNL     1       8.577 -28.627 -58.003  1.00  0.00     0.210 C 
ENDBRANCH  21  23
ENDBRANCH  16  17
BRANCH  16  25
HETATM   25  C8  UNL     1      13.852 -27.421 -55.266  1.00  0.00     0.262 C 
BRANCH  25  26
HETATM   26  N1  UNL     1      15.105 -26.693 -54.978  1.00  0.00    -0.071 N 
ATOM     27  H12 UNL     1      15.910 -27.314 -54.892  1.00  0.00     0.277 HD
ATOM     28  H11 UNL     1      15.435 -26.148 -55.775  1.00  0.00     0.277 HD
BRANCH  26  29
HETATM   29  C9  UNL     1      14.902 -25.896 -53.815  1.00  0.00     0.259 C 
BRANCH  29  30
HETATM   30  C10 UNL     1      15.882 -24.759 -53.651  1.00  0.00     0.257 C 
BRANCH  30  31
HETATM   31  N2  UNL     1      16.364 -24.378 -54.971  1.00  0.00    -0.078 N 
ATOM     32  H23 UNL     1      17.324 -24.681 -55.141  1.00  0.00     0.274 HD
ATOM     33  H22 UNL     1      15.917 -24.908 -55.720  1.00  0.00     0.274 HD
ATOM     34  H21 UNL     1      16.246 -23.370 -55.076  1.00  0.00     0.274 HD
ENDBRANCH  30  31
ENDBRANCH  29  30
ENDBRANCH  26  29
ENDBRANCH  25  26
ENDBRANCH  16  25
ENDBRANCH  14  16
ENDBRANCH   1  14
BRANCH   4  35
HETATM   35  C13 UNL     1      16.918 -24.760 -59.356  1.00  0.00     0.010 A 
HETATM   36  C14 UNL     1      17.131 -24.063 -60.532  1.00  0.00     0.017 A 
HETATM   37  C15 UNL     1      17.966 -22.976 -60.585  1.00  0.00     0.026 A 
HETATM   38  C16 UNL     1      18.620 -22.551 -59.442  1.00  0.00     0.055 A 
HETATM   39 CL1  UNL     1      19.699 -21.173 -59.427  1.00  0.00    -0.083 Cl
HETATM   40  C17 UNL     1      18.422 -23.226 -58.276  1.00  0.00     0.056 A 
HETATM   41 CL2  UNL     1      19.222 -22.747 -56.771  1.00  0.00    -0.083 Cl
HETATM   42  C18 UNL     1      17.567 -24.335 -58.237  1.00  0.00     0.041 A 
ENDBRANCH   4  35
TORSDOF 10
ENDMDL
MODEL 3
REMARK VINA RESULT: -7.540222318      3.785      8.210
REMARK  10 active torsions:
REMARK  status: ('A' for Active; 'I' for Inactive)
REMARK    1  A    between atoms: O1_2  and  C2_3 
REMARK    2  A    between atoms: C6_7  and  C7_8 
REMARK    3  A    between atoms: C7_8  and  C8_9 
REMARK    4  A    between atoms: C7_8  and  N3_19 
REMARK    5  A    between atoms: C8_9  and  N1_10 
REMARK    6  A    between atoms: N1_10  and  C9_13 
REMARK    7  A    between atoms: C9_13  and  C10_14 
REMARK    8  A    between atoms: C10_14  and  N2_15 
REMARK    9  A    between atoms: N3_19  and  C11_21 
REMARK   10  A    between atoms: C12_24  and  C13_25 
ROOT
HETATM    1  C11 UNL     1      12.033 -26.763 -57.347  1.00  0.00     0.116 A 
HETATM    2  N4  UNL     1      13.307 -26.368 -57.436  1.00  0.00    -0.327 N 
ATOM      3  H4  UNL     1      13.883 -26.681 -58.217  1.00  0.00     0.169 HD
HETATM    4  C12 UNL     1      13.830 -25.557 -56.499  1.00  0.00     0.117 A 
HETATM    5  N5  UNL     1      13.094 -25.128 -55.460  1.00  0.00    -0.341 N 
ATOM      6  H5  UNL     1      13.520 -24.514 -54.765  1.00  0.00     0.167 HD
HETATM    7  C19 UNL     1      11.812 -25.492 -55.319  1.00  0.00     0.047 A 
HETATM    8  C20 UNL     1      11.043 -25.043 -54.239  1.00  0.00     0.032 A 
HETATM    9  C21 UNL     1       9.731 -25.462 -54.172  1.00  0.00     0.026 A 
HETATM   10  C22 UNL     1       9.163 -26.292 -55.114  1.00  0.00     0.035 A 
HETATM   11 CL3  UNL     1       7.500 -26.821 -55.032  1.00  0.00    -0.084 Cl
HETATM   12  C23 UNL     1       9.953 -26.712 -56.161  1.00  0.00     0.041 A 
HETATM   13  C24 UNL     1      11.277 -26.327 -56.286  1.00  0.00     0.036 A 
ENDROOT
BRANCH   1  14
HETATM   14  N3  UNL     1      11.528 -27.507 -58.222  1.00  0.00    -0.365 N 
ATOM     15  H3  UNL     1      10.831 -28.160 -57.863  1.00  0.00     0.162 HD
BRANCH  14  16
HETATM   16  C7  UNL     1      11.749 -27.606 -59.616  1.00  0.00     0.142 C 
BRANCH  16  17
HETATM   17  C6  UNL     1      12.628 -28.657 -60.106  1.00  0.00    -0.031 A 
HETATM   18  C5  UNL     1      13.878 -28.316 -60.637  1.00  0.00     0.009 A 
HETATM   19  C4  UNL     1      14.666 -29.336 -61.103  1.00  0.00     0.003 A 
HETATM   20  C3  UNL     1      14.306 -30.671 -61.081  1.00  0.00     0.037 A 
HETATM   21  C2  UNL     1      13.081 -31.010 -60.561  1.00  0.00     0.068 A 
HETATM   22  C25 UNL     1      12.258 -29.969 -60.077  1.00  0.00     0.046 A 
BRANCH  21  23
HETATM   23  O1  UNL     1      12.639 -32.313 -60.501  1.00  0.00    -0.356 OA
HETATM   24  C1  UNL     1      13.391 -33.467 -60.465  1.00  0.00     0.210 C 
ENDBRANCH  21  23
ENDBRANCH  16  17
BRANCH  16  25
HETATM   25  C8  UNL     1      10.344 -27.802 -60.216  1.00  0.00     0.262 C 
BRANCH  25  26
HETATM   26  N1  UNL     1       9.456 -28.235 -59.117  1.00  0.00    -0.071 N 
ATOM     27  H12 UNL     1       9.965 -28.432 -58.255  1.00  0.00     0.277 HD
ATOM     28  H11 UNL     1       8.872 -27.478 -58.763  1.00  0.00     0.277 HD
BRANCH  26  29
HETATM   29  C9  UNL     1       8.694 -29.349 -59.571  1.00  0.00     0.259 C 
BRANCH  29  30
HETATM   30  C10 UNL     1       8.613 -29.486 -61.072  1.00  0.00     0.257 C 
BRANCH  30  31
HETATM   31  N2  UNL     1       7.264 -29.909 -61.420  1.00  0.00    -0.078 N 
ATOM     32  H23 UNL     1       6.903 -30.628 -60.792  1.00  0.00     0.274 HD
ATOM     33  H22 UNL     1       6.565 -29.192 -61.225  1.00  0.00     0.274 HD
ATOM     34  H21 UNL     1       7.263 -30.204 -62.397  1.00  0.00     0.274 HD
ENDBRANCH  30  31
ENDBRANCH  29  30
ENDBRANCH  26  29
ENDBRANCH  25  26
ENDBRANCH  16  25
ENDBRANCH  14  16
ENDBRANCH   1  14
BRANCH   4  35
HETATM   35  C13 UNL     1      15.229 -25.108 -56.563  1.00  0.00     0.010 A 
HETATM   36  C14 UNL     1      15.487 -23.796 -56.920  1.00  0.00     0.017 A 
HETATM   37  C15 UNL     1      16.766 -23.308 -56.996  1.00  0.00     0.026 A 
HETATM   38  C16 UNL     1      17.839 -24.135 -56.714  1.00  0.00     0.055 A 
HETATM   39 CL1  UNL     1      19.500 -23.588 -56.786  1.00  0.00    -0.083 Cl
HETATM   40  C17 UNL     1      17.603 -25.430 -56.363  1.00  0.00     0.056 A 
HETATM   41 CL2  UNL     1      18.920 -26.551 -55.986  1.00  0.00    -0.083 Cl
HETATM   42  C18 UNL     1      16.291 -25.915 -56.289  1.00  0.00     0.041 A 
ENDBRANCH   4  35
TORSDOF 10
ENDMDL
MODEL 4
REMARK VINA RESULT: -7.524755840      3.607      7.964
REMARK  10 active torsions:
REMARK  status: ('A' for Active; 'I' for Inactive)
REMARK    1  A    between atoms: O1_2  and  C2_3 
REMARK    2  A    between atoms: C6_7  and  C7_8 
REMARK    3  A    between atoms: C7_8  and  C8_9 
REMARK    4  A    between atoms: C7_8  and  N3_19 
REMARK    5  A    between atoms: C8_9  and  N1_10 
REMARK    6  A    between atoms: N1_10  and  C9_13 
REMARK    7  A    between atoms: C9_13  and  C10_14 
REMARK    8  A    between atoms: C10_14  and  N2_15 
REMARK    9  A    between atoms: N3_19  and  C11_21 
REMARK   10  A    between atoms: C12_24  and  C13_25 
ROOT
HETATM    1  C11 UNL     1      12.019 -26.761 -57.380  1.00  0.00     0.116 A 
HETATM    2  N4  UNL     1      13.291 -26.357 -57.456  1.00  0.00    -0.327 N 
ATOM      3  H4  UNL     1      13.876 -26.663 -58.233  1.00  0.00     0.169 HD
HETATM    4  C12 UNL     1      13.801 -25.549 -56.510  1.00  0.00     0.117 A 
HETATM    5  N5  UNL     1      13.054 -25.132 -55.474  1.00  0.00    -0.341 N 
ATOM      6  H5  UNL     1      13.470 -24.519 -54.772  1.00  0.00     0.167 HD
HETATM    7  C19 UNL     1      11.773 -25.503 -55.346  1.00  0.00     0.047 A 
HETATM    8  C20 UNL     1      10.992 -25.065 -54.270  1.00  0.00     0.032 A 
HETATM    9  C21 UNL     1       9.683 -25.493 -54.216  1.00  0.00     0.026 A 
HETATM   10  C22 UNL     1       9.127 -26.321 -55.169  1.00  0.00     0.035 A 
HETATM   11 CL3  UNL     1       7.467 -26.860 -55.103  1.00  0.00    -0.084 Cl
HETATM   12  C23 UNL     1       9.929 -26.730 -56.211  1.00  0.00     0.041 A 
HETATM   13  C24 UNL     1      11.251 -26.336 -56.323  1.00  0.00     0.036 A 
ENDROOT
BRANCH   1  14
HETATM   14  N3  UNL     1      11.526 -27.503 -58.264  1.00  0.00    -0.365 N 
ATOM     15  H3  UNL     1      10.972 -28.278 -57.897  1.00  0.00     0.162 HD
BRANCH  14  16
HETATM   16  C7  UNL     1      11.597 -27.460 -59.676  1.00  0.00     0.142 C 
BRANCH  16  17
HETATM   17  C6  UNL     1      12.555 -28.325 -60.348  1.00  0.00    -0.031 A 
HETATM   18  C5  UNL     1      12.145 -29.584 -60.803  1.00  0.00     0.009 A 
HETATM   19  C4  UNL     1      13.085 -30.372 -61.415  1.00  0.00     0.003 A 
HETATM   20  C3  UNL     1      14.403 -30.003 -61.610  1.00  0.00     0.037 A 
HETATM   21  C2  UNL     1      14.810 -28.769 -61.165  1.00  0.00     0.068 A 
HETATM   22  C25 UNL     1      13.852 -27.946 -60.533  1.00  0.00     0.046 A 
BRANCH  21  23
HETATM   23  O1  UNL     1      16.103 -28.320 -61.315  1.00  0.00    -0.356 OA
HETATM   24  C1  UNL     1      16.933 -28.459 -62.406  1.00  0.00     0.210 C 
ENDBRANCH  21  23
ENDBRANCH  16  17
BRANCH  16  25
HETATM   25  C8  UNL     1      10.175 -27.821 -60.145  1.00  0.00     0.262 C 
BRANCH  25  26
HETATM   26  N1  UNL     1       9.510 -28.521 -59.025  1.00  0.00    -0.071 N 
ATOM     27  H12 UNL     1      10.174 -28.901 -58.351  1.00  0.00     0.277 HD
ATOM     28  H11 UNL     1       9.025 -27.881 -58.396  1.00  0.00     0.277 HD
BRANCH  26  29
HETATM   29  C9  UNL     1       8.649 -29.516 -59.569  1.00  0.00     0.259 C 
BRANCH  29  30
HETATM   30  C10 UNL     1       8.486 -29.457 -61.069  1.00  0.00     0.257 C 
BRANCH  30  31
HETATM   31  N2  UNL     1       7.167 -29.972 -61.406  1.00  0.00    -0.078 N 
ATOM     32  H23 UNL     1       6.983 -30.884 -60.988  1.00  0.00     0.274 HD
ATOM     33  H22 UNL     1       6.415 -29.456 -60.949  1.00  0.00     0.274 HD
ATOM     34  H21 UNL     1       7.078 -29.981 -62.423  1.00  0.00     0.274 HD
ENDBRANCH  30  31
ENDBRANCH  29  30
ENDBRANCH  26  29
ENDBRANCH  25  26
ENDBRANCH  16  25
ENDBRANCH  14  16
ENDBRANCH   1  14
BRANCH   4  35
HETATM   35  C13 UNL     1      15.199 -25.092 -56.559  1.00  0.00     0.010 A 
HETATM   36  C14 UNL     1      15.451 -23.772 -56.889  1.00  0.00     0.017 A 
HETATM   37  C15 UNL     1      16.728 -23.276 -56.951  1.00  0.00     0.026 A 
HETATM   38  C16 UNL     1      17.804 -24.102 -56.680  1.00  0.00     0.055 A 
HETATM   39 CL1  UNL     1      19.462 -23.545 -56.735  1.00  0.00    -0.083 Cl
HETATM   40  C17 UNL     1      17.573 -25.404 -56.355  1.00  0.00     0.056 A 
HETATM   41 CL2  UNL     1      18.895 -26.526 -55.995  1.00  0.00    -0.083 Cl
HETATM   42  C18 UNL     1      16.264 -25.898 -56.296  1.00  0.00     0.041 A 
ENDBRANCH   4  35
TORSDOF 10
ENDMDL
MODEL 5
REMARK VINA RESULT: -7.496145589      2.580      4.895
REMARK  10 active torsions:
REMARK  status: ('A' for Active; 'I' for Inactive)
REMARK    1  A    between atoms: O1_2  and  C2_3 
REMARK    2  A    between atoms: C6_7  and  C7_8 
REMARK    3  A    between atoms: C7_8  and  C8_9 
REMARK    4  A    between atoms: C7_8  and  N3_19 
REMARK    5  A    between atoms: C8_9  and  N1_10 
REMARK    6  A    between atoms: N1_10  and  C9_13 
REMARK    7  A    between atoms: C9_13  and  C10_14 
REMARK    8  A    between atoms: C10_14  and  N2_15 
REMARK    9  A    between atoms: N3_19  and  C11_21 
REMARK   10  A    between atoms: C12_24  and  C13_25 
ROOT
HETATM    1  C11 UNL     1      11.307 -28.379 -59.252  1.00  0.00     0.116 A 
HETATM    2  N4  UNL     1      10.169 -29.051 -59.452  1.00  0.00    -0.327 N 
ATOM      3  H4  UNL     1       9.332 -28.801 -58.927  1.00  0.00     0.169 HD
HETATM    4  C12 UNL     1      10.126 -30.056 -60.344  1.00  0.00     0.117 A 
HETATM    5  N5  UNL     1      11.214 -30.408 -61.050  1.00  0.00    -0.341 N 
ATOM      6  H5  UNL     1      11.149 -31.175 -61.720  1.00  0.00     0.167 HD
HETATM    7  C19 UNL     1      12.382 -29.770 -60.892  1.00  0.00     0.047 A 
HETATM    8  C20 UNL     1      13.515 -30.132 -61.631  1.00  0.00     0.032 A 
HETATM    9  C21 UNL     1      14.674 -29.421 -61.408  1.00  0.00     0.026 A 
HETATM   10  C22 UNL     1      14.754 -28.385 -60.502  1.00  0.00     0.035 A 
HETATM   11 CL3  UNL     1      16.223 -27.482 -60.222  1.00  0.00    -0.084 Cl
HETATM   12  C23 UNL     1      13.618 -28.060 -59.795  1.00  0.00     0.041 A 
HETATM   13  C24 UNL     1      12.422 -28.735 -59.972  1.00  0.00     0.036 A 
ENDROOT
BRANCH   1  14
HETATM   14  N3  UNL     1      11.358 -27.429 -58.433  1.00  0.00    -0.365 N 
ATOM     15  H3  UNL     1      11.301 -26.505 -58.862  1.00  0.00     0.162 HD
BRANCH  14  16
HETATM   16  C7  UNL     1      11.479 -27.406 -57.024  1.00  0.00     0.142 C 
BRANCH  16  17
HETATM   17  C6  UNL     1      12.633 -26.740 -56.438  1.00  0.00    -0.031 A 
HETATM   18  C5  UNL     1      13.279 -27.321 -55.340  1.00  0.00     0.009 A 
HETATM   19  C4  UNL     1      14.350 -26.651 -54.809  1.00  0.00     0.003 A 
HETATM   20  C3  UNL     1      14.829 -25.445 -55.288  1.00  0.00     0.037 A 
HETATM   21  C2  UNL     1      14.199 -24.871 -56.365  1.00  0.00     0.068 A 
HETATM   22  C25 UNL     1      13.094 -25.551 -56.923  1.00  0.00     0.046 A 
BRANCH  21  23
HETATM   23  O1  UNL     1      14.607 -23.672 -56.906  1.00  0.00    -0.356 OA
HETATM   24  C1  UNL     1      15.727 -22.934 -56.595  1.00  0.00     0.210 C 
ENDBRANCH  21  23
ENDBRANCH  16  17
BRANCH  16  25
HETATM   25  C8  UNL     1      10.194 -26.711 -56.537  1.00  0.00     0.262 C 
BRANCH  25  26
HETATM   26  N1  UNL     1       9.628 -27.547 -55.458  1.00  0.00    -0.071 N 
ATOM     27  H12 UNL     1       8.891 -28.170 -55.790  1.00  0.00     0.277 HD
ATOM     28  H11 UNL     1      10.278 -28.263 -55.134  1.00  0.00     0.277 HD
BRANCH  26  29
HETATM   29  C9  UNL     1       9.191 -26.688 -54.410  1.00  0.00     0.259 C 
BRANCH  29  30
HETATM   30  C10 UNL     1       9.741 -25.284 -54.477  1.00  0.00     0.257 C 
BRANCH  30  31
HETATM   31  N2  UNL     1       8.658 -24.387 -54.856  1.00  0.00    -0.078 N 
ATOM     32  H23 UNL     1       8.565 -23.593 -54.222  1.00  0.00     0.274 HD
ATOM     33  H22 UNL     1       8.864 -23.861 -55.706  1.00  0.00     0.274 HD
ATOM     34  H21 UNL     1       7.800 -24.934 -54.930  1.00  0.00     0.274 HD
ENDBRANCH  30  31
ENDBRANCH  29  30
ENDBRANCH  26  29
ENDBRANCH  25  26
ENDBRANCH  16  25
ENDBRANCH  14  16
ENDBRANCH   1  14
BRANCH   4  35
HETATM   35  C13 UNL     1       8.892 -30.821 -60.584  1.00  0.00     0.010 A 
HETATM   36  C14 UNL     1       7.725 -30.126 -60.849  1.00  0.00     0.017 A 
HETATM   37  C15 UNL     1       6.539 -30.773 -61.086  1.00  0.00     0.026 A 
HETATM   38  C16 UNL     1       6.490 -32.156 -61.062  1.00  0.00     0.055 A 
HETATM   39 CL1  UNL     1       5.018 -33.056 -61.356  1.00  0.00    -0.083 Cl
HETATM   40  C17 UNL     1       7.630 -32.855 -60.801  1.00  0.00     0.056 A 
HETATM   41 CL2  UNL     1       7.651 -34.624 -60.753  1.00  0.00    -0.083 Cl
HETATM   42  C18 UNL     1       8.834 -32.181 -60.562  1.00  0.00     0.041 A 
ENDBRANCH   4  35
TORSDOF 10
ENDMDL
