MODEL 1
REMARK VINA RESULT: -7.640386401      0.000      0.000
REMARK  8 active torsions:
REMARK  status: ('A' for Active; 'I' for Inactive)
REMARK    1  A    between atoms: C3_5  and  S1_6 
REMARK    2  A    between atoms: S1_6  and  N2_9 
REMARK    3  A    between atoms: N2_9  and  C5_11 
REMARK    4  A    between atoms: C5_11  and  C6_12 
REMARK    5  A    between atoms: C6_12  and  C7_13 
REMARK    6  A    between atoms: C7_13  and  N3_14 
REMARK    7  A    between atoms: N3_14  and  C8_17 
REMARK    8  A    between atoms: C8_17  and  C9_18 
ROOT
HETATM    1  N2  UNL     1      14.322 -28.627 -60.859  1.00  0.00    -0.347 N 
ATOM      2  H2  UNL     1      14.346 -28.116 -61.741  1.00  0.00     0.169 HD
ENDROOT
BRANCH   1   3
HETATM    3  S1  UNL     1      14.424 -27.806 -59.110  1.00  0.00     0.065 S 
HETATM    4  C4  UNL     1      15.585 -29.121 -58.537  1.00  0.00     0.143 C 
HETATM    5  O1  UNL     1      13.510 -26.667 -59.724  1.00  0.00    -0.244 OA
BRANCH   3   6
HETATM    6  C3  UNL     1      15.900 -26.469 -59.043  1.00  0.00     0.121 A 
HETATM    7  N1  UNL     1      16.624 -26.306 -60.132  1.00  0.00    -0.338 N 
HETATM    8  C2  UNL     1      17.644 -25.407 -60.076  1.00  0.00     0.078 A 
ATOM      9  H1  UNL     1      16.427 -26.832 -60.984  1.00  0.00     0.168 HD
HETATM   10  C1  UNL     1      18.508 -25.167 -61.269  1.00  0.00     0.089 C 
HETATM   11  N5  UNL     1      17.862 -24.742 -58.932  1.00  0.00    -0.344 N 
HETATM   12  C22 UNL     1      17.128 -24.903 -57.813  1.00  0.00     0.068 A 
ATOM     13  H5  UNL     1      18.632 -24.073 -58.908  1.00  0.00     0.167 HD
HETATM   14  C17 UNL     1      16.094 -25.816 -57.882  1.00  0.00     0.031 A 
HETATM   15  C21 UNL     1      17.393 -24.195 -56.669  1.00  0.00     0.063 A 
HETATM   16  C18 UNL     1      15.332 -25.995 -56.750  1.00  0.00     0.040 A 
HETATM   17  C19 UNL     1      15.569 -25.295 -55.568  1.00  0.00     0.036 A 
HETATM   18 CL2  UNL     1      14.558 -25.574 -54.164  1.00  0.00    -0.084 Cl
HETATM   19  C20 UNL     1      16.614 -24.394 -55.552  1.00  0.00     0.050 A 
HETATM   20 CL3  UNL     1      18.718 -23.041 -56.628  1.00  0.00    -0.082 Cl
ENDBRANCH   3   6
ENDBRANCH   1   3
BRANCH   1  21
HETATM   21  C5  UNL     1      14.212 -30.014 -60.750  1.00  0.00     0.131 C 
BRANCH  21  22
HETATM   22  C6  UNL     1      12.990 -30.607 -61.392  1.00  0.00     0.048 C 
BRANCH  22  23
HETATM   23  C7  UNL     1      11.783 -29.736 -61.327  1.00  0.00     0.234 C 
BRANCH  23  24
HETATM   24  N3  UNL     1      10.757 -30.193 -60.445  1.00  0.00    -0.070 N 
ATOM     25  H32 UNL     1      10.385 -31.098 -60.734  1.00  0.00     0.277 HD
ATOM     26  H31 UNL     1      11.132 -30.465 -59.536  1.00  0.00     0.277 HD
BRANCH  24  27
HETATM   27  C8  UNL     1       9.728 -29.212 -60.321  1.00  0.00     0.289 C 
BRANCH  27  28
HETATM   28  C9  UNL     1       9.896 -28.446 -59.053  1.00  0.00     0.036 A 
HETATM   29  C10 UNL     1       8.987 -28.321 -58.016  1.00  0.00     0.040 A 
HETATM   30  C11 UNL     1       9.550 -27.525 -57.041  1.00  0.00    -0.006 A 
HETATM   31  C12 UNL     1       9.115 -27.070 -55.814  1.00  0.00     0.037 A 
HETATM   32  C16 UNL     1      10.805 -27.175 -57.503  1.00  0.00     0.042 A 
HETATM   33  C13 UNL     1       9.919 -26.265 -55.037  1.00  0.00     0.035 A 
HETATM   34 CL1  UNL     1       9.391 -25.675 -53.474  1.00  0.00    -0.084 Cl
HETATM   35  C14 UNL     1      11.164 -25.908 -55.477  1.00  0.00     0.026 A 
HETATM   36  C15 UNL     1      11.581 -26.367 -56.697  1.00  0.00     0.032 A 
HETATM   37  N4  UNL     1      10.989 -27.739 -58.710  1.00  0.00    -0.357 N 
ATOM     38  H4  UNL     1      11.829 -27.644 -59.280  1.00  0.00     0.166 HD
ENDBRANCH  27  28
ENDBRANCH  24  27
ENDBRANCH  23  24
ENDBRANCH  22  23
ENDBRANCH  21  22
ENDBRANCH   1  21
TORSDOF 8
ENDMDL
MODEL 2
REMARK VINA RESULT: -7.594694279      2.340      5.564
REMARK  8 active torsions:
REMARK  status: ('A' for Active; 'I' for Inactive)
REMARK    1  A    between atoms: C3_5  and  S1_6 
REMARK    2  A    between atoms: S1_6  and  N2_9 
REMARK    3  A    between atoms: N2_9  and  C5_11 
REMARK    4  A    between atoms: C5_11  and  C6_12 
REMARK    5  A    between atoms: C6_12  and  C7_13 
REMARK    6  A    between atoms: C7_13  and  N3_14 
REMARK    7  A    between atoms: N3_14  and  C8_17 
REMARK    8  A    between atoms: C8_17  and  C9_18 
ROOT
HETATM    1  N2  UNL     1      10.661 -27.655 -58.024  1.00  0.00    -0.347 N 
ATOM      2  H2  UNL     1      10.118 -28.206 -57.360  1.00  0.00     0.169 HD
ENDROOT
BRANCH   1   3
HETATM    3  S1  UNL     1      11.993 -26.341 -57.531  1.00  0.00     0.065 S 
HETATM    4  C4  UNL     1      11.556 -26.536 -55.749  1.00  0.00     0.143 C 
HETATM    5  O1  UNL     1      12.368 -26.321 -59.069  1.00  0.00    -0.244 OA
BRANCH   3   6
HETATM    6  C3  UNL     1      13.753 -27.212 -57.198  1.00  0.00     0.121 A 
HETATM    7  N1  UNL     1      13.805 -28.528 -57.267  1.00  0.00    -0.338 N 
HETATM    8  C2  UNL     1      15.005 -29.120 -57.018  1.00  0.00     0.078 A 
ATOM      9  H1  UNL     1      12.979 -29.080 -57.497  1.00  0.00     0.168 HD
HETATM   10  C1  UNL     1      15.142 -30.605 -57.077  1.00  0.00     0.089 C 
HETATM   11  N5  UNL     1      16.060 -28.350 -56.719  1.00  0.00    -0.344 N 
HETATM   12  C22 UNL     1      16.017 -27.004 -56.646  1.00  0.00     0.068 A 
ATOM     13  H5  UNL     1      16.952 -28.810 -56.534  1.00  0.00     0.167 HD
HETATM   14  C17 UNL     1      14.795 -26.413 -56.901  1.00  0.00     0.031 A 
HETATM   15  C21 UNL     1      17.128 -26.263 -56.335  1.00  0.00     0.063 A 
HETATM   16  C18 UNL     1      14.730 -25.040 -56.831  1.00  0.00     0.040 A 
HETATM   17  C19 UNL     1      15.836 -24.252 -56.520  1.00  0.00     0.036 A 
HETATM   18 CL2  UNL     1      15.680 -22.508 -56.449  1.00  0.00    -0.084 Cl
HETATM   19  C20 UNL     1      17.034 -24.891 -56.273  1.00  0.00     0.050 A 
HETATM   20 CL3  UNL     1      18.664 -27.058 -56.019  1.00  0.00    -0.082 Cl
ENDBRANCH   3   6
ENDBRANCH   1   3
BRANCH   1  21
HETATM   21  C5  UNL     1      10.545 -27.747 -59.413  1.00  0.00     0.131 C 
BRANCH  21  22
HETATM   22  C6  UNL     1      10.546 -29.147 -59.959  1.00  0.00     0.048 C 
BRANCH  22  23
HETATM   23  C7  UNL     1      11.897 -29.663 -60.313  1.00  0.00     0.234 C 
BRANCH  23  24
HETATM   24  N3  UNL     1      12.842 -28.663 -60.699  1.00  0.00    -0.070 N 
ATOM     25  H32 UNL     1      12.536 -28.154 -61.528  1.00  0.00     0.277 HD
ATOM     26  H31 UNL     1      12.861 -27.885 -60.039  1.00  0.00     0.277 HD
BRANCH  24  27
HETATM   27  C8  UNL     1      14.136 -29.238 -60.877  1.00  0.00     0.289 C 
BRANCH  27  28
HETATM   28  C9  UNL     1      15.193 -28.228 -60.583  1.00  0.00     0.036 A 
HETATM   29  C10 UNL     1      16.521 -28.464 -60.273  1.00  0.00     0.040 A 
HETATM   30  C11 UNL     1      17.143 -27.248 -60.076  1.00  0.00    -0.006 A 
HETATM   31  C12 UNL     1      18.430 -26.877 -59.752  1.00  0.00     0.037 A 
HETATM   32  C16 UNL     1      16.173 -26.282 -60.272  1.00  0.00     0.042 A 
HETATM   33  C13 UNL     1      18.767 -25.548 -59.618  1.00  0.00     0.035 A 
HETATM   34 CL1  UNL     1      20.396 -25.050 -59.208  1.00  0.00    -0.084 Cl
HETATM   35  C14 UNL     1      17.822 -24.577 -59.808  1.00  0.00     0.026 A 
HETATM   36  C15 UNL     1      16.548 -24.962 -60.129  1.00  0.00     0.032 A 
HETATM   37  N4  UNL     1      15.014 -26.894 -60.574  1.00  0.00    -0.357 N 
ATOM     38  H4  UNL     1      14.132 -26.419 -60.767  1.00  0.00     0.166 HD
ENDBRANCH  27  28
ENDBRANCH  24  27
ENDBRANCH  23  24
ENDBRANCH  22  23
ENDBRANCH  21  22
ENDBRANCH   1  21
TORSDOF 8
ENDMDL
MODEL 3
REMARK VINA RESULT: -7.490693851      3.812      6.158
REMARK  8 active torsions:
REMARK  status: ('A' for Active; 'I' for Inactive)
REMARK    1  A    between atoms: C3_5  and  S1_6 
REMARK    2  A    between atoms: S1_6  and  N2_9 
REMARK    3  A    between atoms: N2_9  and  C5_11 
REMARK    4  A    between atoms: C5_11  and  C6_12 
REMARK    5  A    between atoms: C6_12  and  C7_13 
REMARK    6  A    between atoms: C7_13  and  N3_14 
REMARK    7  A    between atoms: N3_14  and  C8_17 
REMARK    8  A    between atoms: C8_17  and  C9_18 
ROOT
HETATM    1  N2  UNL     1      18.702 -24.686 -61.134  1.00  0.00    -0.347 N 
ATOM      2  H2  UNL     1      19.604 -25.033 -61.459  1.00  0.00     0.169 HD
ENDROOT
BRANCH   1   3
HETATM    3  S1  UNL     1      17.201 -25.809 -60.654  1.00  0.00     0.065 S 
HETATM    4  C4  UNL     1      18.061 -27.289 -61.344  1.00  0.00     0.143 C 
HETATM    5  O1  UNL     1      16.590 -24.505 -59.996  1.00  0.00    -0.244 OA
BRANCH   3   6
HETATM    6  C3  UNL     1      17.424 -26.534 -58.812  1.00  0.00     0.121 A 
HETATM    7  N1  UNL     1      18.572 -26.311 -58.204  1.00  0.00    -0.338 N 
HETATM    8  C2  UNL     1      18.728 -26.826 -56.954  1.00  0.00     0.078 A 
ATOM      9  H1  UNL     1      19.315 -25.775 -58.653  1.00  0.00     0.168 HD
HETATM   10  C1  UNL     1      20.001 -26.616 -56.202  1.00  0.00     0.089 C 
HETATM   11  N5  UNL     1      17.723 -27.525 -56.409  1.00  0.00    -0.344 N 
HETATM   12  C22 UNL     1      16.545 -27.759 -57.023  1.00  0.00     0.068 A 
ATOM     13  H5  UNL     1      17.857 -27.904 -55.472  1.00  0.00     0.167 HD
HETATM   14  C17 UNL     1      16.397 -27.231 -58.291  1.00  0.00     0.031 A 
HETATM   15  C21 UNL     1      15.548 -28.481 -56.419  1.00  0.00     0.063 A 
HETATM   16  C18 UNL     1      15.202 -27.458 -58.934  1.00  0.00     0.040 A 
HETATM   17  C19 UNL     1      14.164 -28.186 -58.354  1.00  0.00     0.036 A 
HETATM   18 CL2  UNL     1      12.669 -28.436 -59.233  1.00  0.00    -0.084 Cl
HETATM   19  C20 UNL     1      14.363 -28.692 -57.086  1.00  0.00     0.050 A 
HETATM   20 CL3  UNL     1      15.780 -29.133 -54.803  1.00  0.00    -0.082 Cl
ENDBRANCH   3   6
ENDBRANCH   1   3
BRANCH   1  21
HETATM   21  C5  UNL     1      18.382 -23.336 -60.976  1.00  0.00     0.131 C 
BRANCH  21  22
HETATM   22  C6  UNL     1      19.495 -22.477 -60.447  1.00  0.00     0.048 C 
BRANCH  22  23
HETATM   23  C7  UNL     1      19.400 -22.184 -58.990  1.00  0.00     0.234 C 
BRANCH  23  24
HETATM   24  N3  UNL     1      18.136 -22.485 -58.396  1.00  0.00    -0.070 N 
ATOM     25  H32 UNL     1      17.475 -21.716 -58.505  1.00  0.00     0.277 HD
ATOM     26  H31 UNL     1      17.630 -23.198 -58.922  1.00  0.00     0.277 HD
BRANCH  24  27
HETATM   27  C8  UNL     1      18.300 -22.854 -57.027  1.00  0.00     0.289 C 
BRANCH  27  28
HETATM   28  C9  UNL     1      17.083 -23.563 -56.535  1.00  0.00     0.036 A 
HETATM   29  C10 UNL     1      15.857 -23.671 -57.169  1.00  0.00     0.040 A 
HETATM   30  C11 UNL     1      15.017 -24.411 -56.362  1.00  0.00    -0.006 A 
HETATM   31  C12 UNL     1      13.708 -24.827 -56.478  1.00  0.00     0.037 A 
HETATM   32  C16 UNL     1      15.753 -24.744 -55.240  1.00  0.00     0.042 A 
HETATM   33  C13 UNL     1      13.118 -25.576 -55.483  1.00  0.00     0.035 A 
HETATM   34 CL1  UNL     1      11.457 -26.118 -55.606  1.00  0.00    -0.084 Cl
HETATM   35  C14 UNL     1      13.829 -25.916 -54.365  1.00  0.00     0.026 A 
HETATM   36  C15 UNL     1      15.127 -25.494 -54.265  1.00  0.00     0.032 A 
HETATM   37  N4  UNL     1      16.987 -24.224 -55.367  1.00  0.00    -0.357 N 
ATOM     38  H4  UNL     1      17.736 -24.317 -54.682  1.00  0.00     0.166 HD
ENDBRANCH  27  28
ENDBRANCH  24  27
ENDBRANCH  23  24
ENDBRANCH  22  23
ENDBRANCH  21  22
ENDBRANCH   1  21
TORSDOF 8
ENDMDL
MODEL 4
REMARK VINA RESULT: -7.404794483      2.326      3.793
REMARK  8 active torsions:
REMARK  status: ('A' for Active; 'I' for Inactive)
REMARK    1  A    between atoms: C3_5  and  S1_6 
REMARK    2  A    between atoms: S1_6  and  N2_9 
REMARK    3  A    between atoms: N2_9  and  C5_11 
REMARK    4  A    between atoms: C5_11  and  C6_12 
REMARK    5  A    between atoms: C6_12  and  C7_13 
REMARK    6  A    between atoms: C7_13  and  N3_14 
REMARK    7  A    between atoms: N3_14  and  C8_17 
REMARK    8  A    between atoms: C8_17  and  C9_18 
ROOT
HETATM    1  N2  UNL     1      12.043 -29.696 -61.493  1.00  0.00    -0.347 N 
ATOM      2  H2  UNL     1      12.345 -30.246 -62.296  1.00  0.00     0.169 HD
ENDROOT
BRANCH   1   3
HETATM    3  S1  UNL     1      13.113 -29.383 -59.911  1.00  0.00     0.065 S 
HETATM    4  C4  UNL     1      13.549 -31.175 -59.825  1.00  0.00     0.143 C 
HETATM    5  O1  UNL     1      12.770 -27.853 -60.129  1.00  0.00    -0.244 OA
BRANCH   3   6
HETATM    6  C3  UNL     1      14.993 -28.946 -60.407  1.00  0.00     0.121 A 
HETATM    7  N1  UNL     1      15.296 -28.928 -61.689  1.00  0.00    -0.338 N 
HETATM    8  C2  UNL     1      16.586 -28.650 -62.022  1.00  0.00     0.078 A 
ATOM      9  H1  UNL     1      14.592 -29.115 -62.404  1.00  0.00     0.168 HD
HETATM   10  C1  UNL     1      17.006 -28.611 -63.454  1.00  0.00     0.089 C 
HETATM   11  N5  UNL     1      17.473 -28.413 -61.046  1.00  0.00    -0.344 N 
HETATM   12  C22 UNL     1      17.172 -28.430 -59.732  1.00  0.00     0.068 A 
ATOM     13  H5  UNL     1      18.436 -28.207 -61.313  1.00  0.00     0.167 HD
HETATM   14  C17 UNL     1      15.860 -28.712 -59.404  1.00  0.00     0.031 A 
HETATM   15  C21 UNL     1      18.119 -28.179 -58.772  1.00  0.00     0.063 A 
HETATM   16  C18 UNL     1      15.533 -28.734 -58.068  1.00  0.00     0.040 A 
HETATM   17  C19 UNL     1      16.466 -28.485 -57.063  1.00  0.00     0.036 A 
HETATM   18 CL2  UNL     1      15.977 -28.530 -55.381  1.00  0.00    -0.084 Cl
HETATM   19  C20 UNL     1      17.763 -28.208 -57.443  1.00  0.00     0.050 A 
HETATM   20 CL3  UNL     1      19.777 -27.823 -59.235  1.00  0.00    -0.082 Cl
ENDBRANCH   3   6
ENDBRANCH   1   3
BRANCH   1  21
HETATM   21  C5  UNL     1      10.801 -29.067 -61.384  1.00  0.00     0.131 C 
BRANCH  21  22
HETATM   22  C6  UNL     1       9.872 -29.667 -60.367  1.00  0.00     0.048 C 
BRANCH  22  23
HETATM   23  C7  UNL     1       9.259 -28.675 -59.441  1.00  0.00     0.234 C 
BRANCH  23  24
HETATM   24  N3  UNL     1      10.155 -27.678 -58.947  1.00  0.00    -0.070 N 
ATOM     25  H32 UNL     1      11.105 -27.820 -59.290  1.00  0.00     0.277 HD
ATOM     26  H31 UNL     1       9.975 -26.766 -59.367  1.00  0.00     0.277 HD
BRANCH  24  27
HETATM   27  C8  UNL     1      10.108 -27.622 -57.522  1.00  0.00     0.289 C 
BRANCH  27  28
HETATM   28  C9  UNL     1      11.346 -26.982 -56.990  1.00  0.00     0.036 A 
HETATM   29  C10 UNL     1      11.726 -26.854 -55.666  1.00  0.00     0.040 A 
HETATM   30  C11 UNL     1      12.939 -26.198 -55.625  1.00  0.00    -0.006 A 
HETATM   31  C12 UNL     1      13.776 -25.805 -54.603  1.00  0.00     0.037 A 
HETATM   32  C16 UNL     1      13.281 -25.936 -56.939  1.00  0.00     0.042 A 
HETATM   33  C13 UNL     1      14.957 -25.148 -54.873  1.00  0.00     0.035 A 
HETATM   34 CL1  UNL     1      16.038 -24.638 -53.593  1.00  0.00    -0.084 Cl
HETATM   35  C14 UNL     1      15.313 -24.879 -56.167  1.00  0.00     0.026 A 
HETATM   36  C15 UNL     1      14.471 -25.276 -57.170  1.00  0.00     0.032 A 
HETATM   37  N4  UNL     1      12.310 -26.415 -57.738  1.00  0.00    -0.357 N 
ATOM     38  H4  UNL     1      12.306 -26.356 -58.756  1.00  0.00     0.166 HD
ENDBRANCH  27  28
ENDBRANCH  24  27
ENDBRANCH  23  24
ENDBRANCH  22  23
ENDBRANCH  21  22
ENDBRANCH   1  21
TORSDOF 8
ENDMDL
MODEL 5
REMARK VINA RESULT: -7.399596588      5.653      8.236
REMARK  8 active torsions:
REMARK  status: ('A' for Active; 'I' for Inactive)
REMARK    1  A    between atoms: C3_5  and  S1_6 
REMARK    2  A    between atoms: S1_6  and  N2_9 
REMARK    3  A    between atoms: N2_9  and  C5_11 
REMARK    4  A    between atoms: C5_11  and  C6_12 
REMARK    5  A    between atoms: C6_12  and  C7_13 
REMARK    6  A    between atoms: C7_13  and  N3_14 
REMARK    7  A    between atoms: N3_14  and  C8_17 
REMARK    8  A    between atoms: C8_17  and  C9_18 
ROOT
HETATM    1  N2  UNL     1       9.475 -28.735 -60.900  1.00  0.00    -0.347 N 
ATOM      2  H2  UNL     1       8.884 -28.072 -61.401  1.00  0.00     0.169 HD
ENDROOT
BRANCH   1   3
HETATM    3  S1  UNL     1      11.326 -28.420 -60.430  1.00  0.00     0.065 S 
HETATM    4  C4  UNL     1      11.214 -26.690 -61.065  1.00  0.00     0.143 C 
HETATM    5  O1  UNL     1      11.294 -29.879 -59.817  1.00  0.00    -0.244 OA
BRANCH   3   6
HETATM    6  C3  UNL     1      11.473 -27.730 -58.567  1.00  0.00     0.121 A 
HETATM    7  N1  UNL     1      10.361 -27.623 -57.867  1.00  0.00    -0.338 N 
HETATM    8  C2  UNL     1      10.463 -27.132 -56.602  1.00  0.00     0.078 A 
ATOM      9  H1  UNL     1       9.460 -27.898 -58.258  1.00  0.00     0.168 HD
HETATM   10  C1  UNL     1       9.248 -26.982 -55.748  1.00  0.00     0.089 C 
HETATM   11  N5  UNL     1      11.671 -26.784 -56.135  1.00  0.00    -0.344 N 
HETATM   12  C22 UNL     1      12.813 -26.889 -56.843  1.00  0.00     0.068 A 
ATOM     13  H5  UNL     1      11.729 -26.418 -55.185  1.00  0.00     0.167 HD
HETATM   14  C17 UNL     1      12.699 -27.390 -58.126  1.00  0.00     0.031 A 
HETATM   15  C21 UNL     1      14.024 -26.520 -56.317  1.00  0.00     0.063 A 
HETATM   16  C18 UNL     1      13.853 -27.505 -58.865  1.00  0.00     0.040 A 
HETATM   17  C19 UNL     1      15.103 -27.141 -58.366  1.00  0.00     0.036 A 
HETATM   18 CL2  UNL     1      16.532 -27.315 -59.365  1.00  0.00    -0.084 Cl
HETATM   19  C20 UNL     1      15.163 -26.646 -57.080  1.00  0.00     0.050 A 
HETATM   20 CL3  UNL     1      14.123 -25.888 -54.680  1.00  0.00    -0.082 Cl
ENDBRANCH   3   6
ENDBRANCH   1   3
BRANCH   1  21
HETATM   21  C5  UNL     1       9.059 -29.993 -60.459  1.00  0.00     0.131 C 
BRANCH  21  22
HETATM   22  C6  UNL     1       7.646 -30.357 -60.819  1.00  0.00     0.048 C 
BRANCH  22  23
HETATM   23  C7  UNL     1       6.886 -31.015 -59.720  1.00  0.00     0.234 C 
BRANCH  23  24
HETATM   24  N3  UNL     1       5.589 -31.490 -60.085  1.00  0.00    -0.070 N 
ATOM     25  H32 UNL     1       4.863 -31.109 -59.479  1.00  0.00     0.277 HD
ATOM     26  H31 UNL     1       5.275 -31.091 -60.970  1.00  0.00     0.277 HD
BRANCH  24  27
HETATM   27  C8  UNL     1       5.566 -32.916 -60.109  1.00  0.00     0.289 C 
BRANCH  27  28
HETATM   28  C9  UNL     1       5.432 -33.406 -61.512  1.00  0.00     0.036 A 
HETATM   29  C10 UNL     1       6.375 -33.338 -62.522  1.00  0.00     0.040 A 
HETATM   30  C11 UNL     1       5.837 -33.909 -63.656  1.00  0.00    -0.006 A 
HETATM   31  C12 UNL     1       6.309 -34.115 -64.935  1.00  0.00     0.037 A 
HETATM   32  C16 UNL     1       4.562 -34.320 -63.315  1.00  0.00     0.042 A 
HETATM   33  C13 UNL     1       5.521 -34.729 -65.885  1.00  0.00     0.035 A 
HETATM   34 CL1  UNL     1       6.097 -35.003 -67.517  1.00  0.00    -0.084 Cl
HETATM   35  C14 UNL     1       4.257 -35.143 -65.566  1.00  0.00     0.026 A 
HETATM   36  C15 UNL     1       3.803 -34.930 -64.292  1.00  0.00     0.032 A 
HETATM   37  N4  UNL     1       4.343 -34.007 -62.025  1.00  0.00    -0.357 N 
ATOM     38  H4  UNL     1       3.481 -34.197 -61.513  1.00  0.00     0.166 HD
ENDBRANCH  27  28
ENDBRANCH  24  27
ENDBRANCH  23  24
ENDBRANCH  22  23
ENDBRANCH  21  22
ENDBRANCH   1  21
TORSDOF 8
ENDMDL
