MODEL 1
REMARK VINA RESULT: -7.532752193      0.000      0.000
REMARK  15 active torsions:
REMARK  status: ('A' for Active; 'I' for Inactive)
REMARK    1  A    between atoms: C2_2  and  C3_3 
REMARK    2  A    between atoms: C3_3  and  C4_4 
REMARK    3  A    between atoms: C3_3  and  S1_13 
REMARK    4  A    between atoms: C4_4  and  C5_5 
REMARK    5  A    between atoms: C6_6  and  C7_7 
REMARK    6  A    between atoms: C7_7  and  C10_10 
REMARK    7  A    between atoms: C10_10  and  O1_11 
REMARK    8  A    between atoms: S1_13  and  C11_14 
REMARK    9  A    between atoms: C13_16  and  C14_17 
REMARK   10  A    between atoms: C17_20  and  C18_21 
REMARK   11  A    between atoms: C21_29  and  N2_30 
REMARK   12  A    between atoms: N2_30  and  C22_32 
REMARK   13  A    between atoms: C22_32  and  C23_33 
REMARK   14  A    between atoms: C23_33  and  O2_34 
REMARK   15  A    between atoms: C23_33  and  C24_36 
ROOT
HETATM    1  C11 UNL     1      10.147 -28.189 -59.648  1.00  0.00     0.088 A 
HETATM    2  C12 UNL     1       9.236 -29.108 -60.086  1.00  0.00     0.068 A 
HETATM    3  C13 UNL     1       8.218 -29.604 -59.238  1.00  0.00     0.062 A 
HETATM    4  N1  UNL     1       8.164 -29.148 -58.001  1.00  0.00    -0.191 N 
ATOM      5  H1  UNL     1       7.439 -29.497 -57.374  1.00  0.00     0.184 HD
HETATM    6  C21 UNL     1       9.059 -28.216 -57.531  1.00  0.00     0.679 A 
HETATM    7  N3  UNL     1       9.994 -27.774 -58.340  1.00  0.00    -0.186 N 
ATOM      8  H3  UNL     1      10.650 -27.081 -57.980  1.00  0.00     0.185 HD
ENDROOT
BRANCH   1   9
HETATM    9  S1  UNL     1      11.531 -27.618 -60.498  1.00  0.00    -0.106 SA
BRANCH   9  10
HETATM   10  C3  UNL     1      12.989 -28.571 -60.718  1.00  0.00     0.064 C 
BRANCH  10  11
HETATM   11  C2  UNL     1      12.802 -29.921 -61.334  1.00  0.00     0.012 C 
HETATM   12  C1  UNL     1      12.657 -31.046 -60.350  1.00  0.00     0.006 C 
ENDBRANCH  10  11
BRANCH  10  13
HETATM   13  C4  UNL     1      13.537 -28.803 -59.302  1.00  0.00     0.109 C 
BRANCH  13  14
HETATM   14  C5  UNL     1      14.565 -27.890 -58.976  1.00  0.00    -0.105 C 
HETATM   15  C6  UNL     1      15.398 -27.073 -58.695  1.00  0.00    -0.095 C 
BRANCH  15  16
HETATM   16  C7  UNL     1      16.372 -26.012 -58.323  1.00  0.00     0.037 C 
HETATM   17  C8  UNL     1      15.797 -24.966 -57.462  1.00  0.00     0.031 C 
HETATM   18  C9  UNL     1      17.524 -26.692 -57.545  1.00  0.00     0.031 C 
BRANCH  16  19
HETATM   19  C10 UNL     1      17.002 -25.418 -59.572  1.00  0.00     0.185 C 
BRANCH  19  20
HETATM   20  O1  UNL     1      16.027 -25.031 -60.505  1.00  0.00    -0.399 OA
ATOM     21  H1  UNL     1      16.422 -24.689 -61.299  1.00  0.00     0.209 HD
ENDBRANCH  19  20
ENDBRANCH  16  19
ENDBRANCH  15  16
ENDBRANCH  13  14
ENDBRANCH  10  13
ENDBRANCH   9  10
ENDBRANCH   1   9
BRANCH   3  22
HETATM   22  C14 UNL     1       7.426 -30.698 -59.773  1.00  0.00    -0.009 A 
HETATM   23  C15 UNL     1       6.281 -31.094 -59.120  1.00  0.00     0.014 A 
HETATM   24  C16 UNL     1       5.435 -32.104 -59.572  1.00  0.00     0.017 A 
HETATM   25  C17 UNL     1       5.779 -32.732 -60.749  1.00  0.00     0.048 A 
HETATM   26  C19 UNL     1       6.907 -32.355 -61.414  1.00  0.00     0.017 A 
HETATM   27  C20 UNL     1       7.736 -31.357 -60.958  1.00  0.00     0.014 A 
BRANCH  25  28
HETATM   28  C18 UNL     1       4.897 -33.818 -61.243  1.00  0.00     0.417 C 
HETATM   29  F1  UNL     1       5.476 -35.034 -60.918  1.00  0.00    -0.166 F 
HETATM   30  F2  UNL     1       3.612 -33.693 -60.749  1.00  0.00    -0.166 F 
HETATM   31  F3  UNL     1       4.801 -33.794 -62.605  1.00  0.00    -0.166 F 
ENDBRANCH  25  28
ENDBRANCH   3  22
BRANCH   6  32
HETATM   32  N2  UNL     1       8.911 -27.818 -56.306  1.00  0.00    -0.224 N 
ATOM     33  H2  UNL     1       7.965 -27.606 -55.988  1.00  0.00     0.177 HD
BRANCH  32  34
HETATM   34  C22 UNL     1       9.975 -27.656 -55.370  1.00  0.00     0.170 C 
BRANCH  34  35
HETATM   35  C23 UNL     1      10.653 -26.331 -55.488  1.00  0.00     0.143 C 
BRANCH  35  36
HETATM   36  O2  UNL     1      10.193 -25.354 -54.643  1.00  0.00    -0.393 OA
ATOM     37  H2  UNL     1       9.669 -24.673 -55.049  1.00  0.00     0.210 HD
ENDBRANCH  35  36
BRANCH  35  38
HETATM   38  C24 UNL     1      12.117 -26.271 -55.717  1.00  0.00    -0.024 C 
HETATM   39  C25 UNL     1      12.930 -25.482 -54.737  1.00  0.00     0.017 C 
HETATM   40  C26 UNL     1      12.706 -27.702 -55.722  1.00  0.00     0.017 C 
HETATM   41  C27 UNL     1      12.306 -25.689 -57.139  1.00  0.00     0.017 C 
ENDBRANCH  35  38
ENDBRANCH  34  35
ENDBRANCH  32  34
ENDBRANCH   6  32
TORSDOF 15
ENDMDL
MODEL 2
REMARK VINA RESULT: -7.416149279      4.790      7.515
REMARK  15 active torsions:
REMARK  status: ('A' for Active; 'I' for Inactive)
REMARK    1  A    between atoms: C2_2  and  C3_3 
REMARK    2  A    between atoms: C3_3  and  C4_4 
REMARK    3  A    between atoms: C3_3  and  S1_13 
REMARK    4  A    between atoms: C4_4  and  C5_5 
REMARK    5  A    between atoms: C6_6  and  C7_7 
REMARK    6  A    between atoms: C7_7  and  C10_10 
REMARK    7  A    between atoms: C10_10  and  O1_11 
REMARK    8  A    between atoms: S1_13  and  C11_14 
REMARK    9  A    between atoms: C13_16  and  C14_17 
REMARK   10  A    between atoms: C17_20  and  C18_21 
REMARK   11  A    between atoms: C21_29  and  N2_30 
REMARK   12  A    between atoms: N2_30  and  C22_32 
REMARK   13  A    between atoms: C22_32  and  C23_33 
REMARK   14  A    between atoms: C23_33  and  O2_34 
REMARK   15  A    between atoms: C23_33  and  C24_36 
ROOT
HETATM    1  C11 UNL     1      15.374 -28.943 -57.943  1.00  0.00     0.088 A 
HETATM    2  C12 UNL     1      14.212 -28.409 -57.462  1.00  0.00     0.068 A 
HETATM    3  C13 UNL     1      14.216 -27.352 -56.521  1.00  0.00     0.062 A 
HETATM    4  N1  UNL     1      15.383 -26.884 -56.119  1.00  0.00    -0.191 N 
ATOM      5  H1  UNL     1      15.404 -26.125 -55.439  1.00  0.00     0.184 HD
HETATM    6  C21 UNL     1      16.570 -27.392 -56.591  1.00  0.00     0.679 A 
HETATM    7  N3  UNL     1      16.536 -28.374 -57.462  1.00  0.00    -0.186 N 
ATOM      8  H3  UNL     1      17.425 -28.739 -57.806  1.00  0.00     0.185 HD
ENDROOT
BRANCH   1   9
HETATM    9  S1  UNL     1      15.537 -30.327 -58.954  1.00  0.00    -0.106 SA
BRANCH   9  10
HETATM   10  C3  UNL     1      15.164 -30.316 -60.670  1.00  0.00     0.064 C 
BRANCH  10  11
HETATM   11  C2  UNL     1      15.237 -28.985 -61.348  1.00  0.00     0.012 C 
HETATM   12  C1  UNL     1      16.143 -28.939 -62.544  1.00  0.00     0.006 C 
ENDBRANCH  10  11
BRANCH  10  13
HETATM   13  C4  UNL     1      13.705 -30.785 -60.769  1.00  0.00     0.109 C 
BRANCH  13  14
HETATM   14  C5  UNL     1      12.794 -29.725 -60.566  1.00  0.00    -0.105 C 
HETATM   15  C6  UNL     1      12.019 -28.815 -60.451  1.00  0.00    -0.095 C 
BRANCH  15  16
HETATM   16  C7  UNL     1      11.045 -27.692 -60.386  1.00  0.00     0.037 C 
HETATM   17  C8  UNL     1       9.642 -28.131 -60.450  1.00  0.00     0.031 C 
HETATM   18  C9  UNL     1      11.259 -26.970 -59.034  1.00  0.00     0.031 C 
BRANCH  16  19
HETATM   19  C10 UNL     1      11.356 -26.667 -61.464  1.00  0.00     0.185 C 
BRANCH  19  20
HETATM   20  O1  UNL     1      12.710 -26.296 -61.445  1.00  0.00    -0.399 OA
ATOM     21  H1  UNL     1      13.181 -26.658 -62.187  1.00  0.00     0.209 HD
ENDBRANCH  19  20
ENDBRANCH  16  19
ENDBRANCH  15  16
ENDBRANCH  13  14
ENDBRANCH  10  13
ENDBRANCH   9  10
ENDBRANCH   1   9
BRANCH   3  22
HETATM   22  C14 UNL     1      12.922 -26.995 -55.965  1.00  0.00    -0.009 A 
HETATM   23  C15 UNL     1      12.632 -25.675 -55.708  1.00  0.00     0.014 A 
HETATM   24  C16 UNL     1      11.409 -25.228 -55.214  1.00  0.00     0.017 A 
HETATM   25  C17 UNL     1      10.441 -26.179 -54.975  1.00  0.00     0.048 A 
HETATM   26  C19 UNL     1      10.706 -27.492 -55.224  1.00  0.00     0.017 A 
HETATM   27  C20 UNL     1      11.917 -27.923 -55.712  1.00  0.00     0.014 A 
BRANCH  25  28
HETATM   28  C18 UNL     1       9.135 -25.725 -54.438  1.00  0.00     0.417 C 
HETATM   29  F1  UNL     1       9.255 -25.574 -53.067  1.00  0.00    -0.166 F 
HETATM   30  F2  UNL     1       8.701 -24.572 -55.064  1.00  0.00    -0.166 F 
HETATM   31  F3  UNL     1       8.167 -26.669 -54.633  1.00  0.00    -0.166 F 
ENDBRANCH  25  28
ENDBRANCH   3  22
BRANCH   6  32
HETATM   32  N2  UNL     1      17.662 -26.851 -56.147  1.00  0.00    -0.224 N 
ATOM     33  H2  UNL     1      18.490 -27.443 -56.078  1.00  0.00     0.177 HD
BRANCH  32  34
HETATM   34  C22 UNL     1      17.790 -25.488 -55.748  1.00  0.00     0.170 C 
BRANCH  34  35
HETATM   35  C23 UNL     1      18.295 -24.609 -56.845  1.00  0.00     0.143 C 
BRANCH  35  36
HETATM   36  O2  UNL     1      19.304 -25.137 -57.610  1.00  0.00    -0.393 OA
ATOM     37  H2  UNL     1      19.505 -24.663 -58.407  1.00  0.00     0.210 HD
ENDBRANCH  35  36
BRANCH  35  38
HETATM   38  C24 UNL     1      17.343 -23.776 -57.619  1.00  0.00    -0.024 C 
HETATM   39  C25 UNL     1      16.732 -24.393 -58.841  1.00  0.00     0.017 C 
HETATM   40  C26 UNL     1      16.166 -23.346 -56.712  1.00  0.00     0.017 C 
HETATM   41  C27 UNL     1      18.115 -22.494 -58.013  1.00  0.00     0.017 C 
ENDBRANCH  35  38
ENDBRANCH  34  35
ENDBRANCH  32  34
ENDBRANCH   6  32
TORSDOF 15
ENDMDL
MODEL 3
REMARK VINA RESULT: -7.271960334      1.076      1.342
REMARK  15 active torsions:
REMARK  status: ('A' for Active; 'I' for Inactive)
REMARK    1  A    between atoms: C2_2  and  C3_3 
REMARK    2  A    between atoms: C3_3  and  C4_4 
REMARK    3  A    between atoms: C3_3  and  S1_13 
REMARK    4  A    between atoms: C4_4  and  C5_5 
REMARK    5  A    between atoms: C6_6  and  C7_7 
REMARK    6  A    between atoms: C7_7  and  C10_10 
REMARK    7  A    between atoms: C10_10  and  O1_11 
REMARK    8  A    between atoms: S1_13  and  C11_14 
REMARK    9  A    between atoms: C13_16  and  C14_17 
REMARK   10  A    between atoms: C17_20  and  C18_21 
REMARK   11  A    between atoms: C21_29  and  N2_30 
REMARK   12  A    between atoms: N2_30  and  C22_32 
REMARK   13  A    between atoms: C22_32  and  C23_33 
REMARK   14  A    between atoms: C23_33  and  O2_34 
REMARK   15  A    between atoms: C23_33  and  C24_36 
ROOT
HETATM    1  C11 UNL     1      10.245 -28.236 -59.661  1.00  0.00     0.088 A 
HETATM    2  C12 UNL     1       9.325 -29.145 -60.101  1.00  0.00     0.068 A 
HETATM    3  C13 UNL     1       8.269 -29.591 -59.271  1.00  0.00     0.062 A 
HETATM    4  N1  UNL     1       8.190 -29.099 -58.049  1.00  0.00    -0.191 N 
ATOM      5  H1  UNL     1       7.438 -29.412 -57.436  1.00  0.00     0.184 HD
HETATM    6  C21 UNL     1       9.094 -28.176 -57.579  1.00  0.00     0.679 A 
HETATM    7  N3  UNL     1      10.064 -27.781 -58.371  1.00  0.00    -0.186 N 
ATOM      8  H3  UNL     1      10.726 -27.093 -58.010  1.00  0.00     0.185 HD
ENDROOT
BRANCH   1   9
HETATM    9  S1  UNL     1      11.668 -27.723 -60.484  1.00  0.00    -0.106 SA
BRANCH   9  10
HETATM   10  C3  UNL     1      13.099 -28.727 -60.651  1.00  0.00     0.064 C 
BRANCH  10  11
HETATM   11  C2  UNL     1      12.934 -29.974 -61.459  1.00  0.00     0.012 C 
HETATM   12  C1  UNL     1      12.434 -31.160 -60.687  1.00  0.00     0.006 C 
ENDBRANCH  10  11
BRANCH  10  13
HETATM   13  C4  UNL     1      13.452 -29.167 -59.223  1.00  0.00     0.109 C 
BRANCH  13  14
HETATM   14  C5  UNL     1      14.512 -28.407 -58.681  1.00  0.00    -0.105 C 
HETATM   15  C6  UNL     1      15.373 -27.719 -58.204  1.00  0.00    -0.095 C 
BRANCH  15  16
HETATM   16  C7  UNL     1      16.384 -26.825 -57.579  1.00  0.00     0.037 C 
HETATM   17  C8  UNL     1      17.755 -27.070 -58.054  1.00  0.00     0.031 C 
HETATM   18  C9  UNL     1      16.004 -25.370 -57.943  1.00  0.00     0.031 C 
BRANCH  16  19
HETATM   19  C10 UNL     1      16.297 -26.915 -56.064  1.00  0.00     0.185 C 
BRANCH  19  20
HETATM   20  O1  UNL     1      16.282 -28.250 -55.629  1.00  0.00    -0.399 OA
ATOM     21  H1  UNL     1      15.605 -28.752 -56.067  1.00  0.00     0.209 HD
ENDBRANCH  19  20
ENDBRANCH  16  19
ENDBRANCH  15  16
ENDBRANCH  13  14
ENDBRANCH  10  13
ENDBRANCH   9  10
ENDBRANCH   1   9
BRANCH   3  22
HETATM   22  C14 UNL     1       7.466 -30.680 -59.800  1.00  0.00    -0.009 A 
HETATM   23  C15 UNL     1       6.340 -31.089 -59.121  1.00  0.00     0.014 A 
HETATM   24  C16 UNL     1       5.485 -32.094 -59.564  1.00  0.00     0.017 A 
HETATM   25  C17 UNL     1       5.798 -32.706 -60.759  1.00  0.00     0.048 A 
HETATM   26  C19 UNL     1       6.907 -32.316 -61.449  1.00  0.00     0.017 A 
HETATM   27  C20 UNL     1       7.745 -31.322 -61.002  1.00  0.00     0.014 A 
BRANCH  25  28
HETATM   28  C18 UNL     1       4.906 -33.788 -61.243  1.00  0.00     0.417 C 
HETATM   29  F1  UNL     1       5.501 -35.005 -60.959  1.00  0.00    -0.166 F 
HETATM   30  F2  UNL     1       3.637 -33.678 -60.707  1.00  0.00    -0.166 F 
HETATM   31  F3  UNL     1       4.767 -33.740 -62.601  1.00  0.00    -0.166 F 
ENDBRANCH  25  28
ENDBRANCH   3  22
BRANCH   6  32
HETATM   32  N2  UNL     1       8.919 -27.740 -56.370  1.00  0.00    -0.224 N 
ATOM     33  H2  UNL     1       7.974 -27.474 -56.094  1.00  0.00     0.177 HD
BRANCH  32  34
HETATM   34  C22 UNL     1       9.954 -27.606 -55.397  1.00  0.00     0.170 C 
BRANCH  34  35
HETATM   35  C23 UNL     1      10.688 -26.310 -55.508  1.00  0.00     0.143 C 
BRANCH  35  36
HETATM   36  O2  UNL     1      10.243 -25.306 -54.685  1.00  0.00    -0.393 OA
ATOM     37  H2  UNL     1       9.300 -25.203 -54.637  1.00  0.00     0.210 HD
ENDBRANCH  35  36
BRANCH  35  38
HETATM   38  C24 UNL     1      12.159 -26.311 -55.695  1.00  0.00    -0.024 C 
HETATM   39  C25 UNL     1      12.971 -25.497 -54.733  1.00  0.00     0.017 C 
HETATM   40  C26 UNL     1      12.698 -27.758 -55.606  1.00  0.00     0.017 C 
HETATM   41  C27 UNL     1      12.409 -25.812 -57.139  1.00  0.00     0.017 C 
ENDBRANCH  35  38
ENDBRANCH  34  35
ENDBRANCH  32  34
ENDBRANCH   6  32
TORSDOF 15
ENDMDL
MODEL 4
REMARK VINA RESULT: -7.249475334      4.435      8.004
REMARK  15 active torsions:
REMARK  status: ('A' for Active; 'I' for Inactive)
REMARK    1  A    between atoms: C2_2  and  C3_3 
REMARK    2  A    between atoms: C3_3  and  C4_4 
REMARK    3  A    between atoms: C3_3  and  S1_13 
REMARK    4  A    between atoms: C4_4  and  C5_5 
REMARK    5  A    between atoms: C6_6  and  C7_7 
REMARK    6  A    between atoms: C7_7  and  C10_10 
REMARK    7  A    between atoms: C10_10  and  O1_11 
REMARK    8  A    between atoms: S1_13  and  C11_14 
REMARK    9  A    between atoms: C13_16  and  C14_17 
REMARK   10  A    between atoms: C17_20  and  C18_21 
REMARK   11  A    between atoms: C21_29  and  N2_30 
REMARK   12  A    between atoms: N2_30  and  C22_32 
REMARK   13  A    between atoms: C22_32  and  C23_33 
REMARK   14  A    between atoms: C23_33  and  O2_34 
REMARK   15  A    between atoms: C23_33  and  C24_36 
ROOT
HETATM    1  C11 UNL     1      14.805 -28.759 -58.893  1.00  0.00     0.088 A 
HETATM    2  C12 UNL     1      13.738 -28.173 -58.273  1.00  0.00     0.068 A 
HETATM    3  C13 UNL     1      13.900 -27.058 -57.417  1.00  0.00     0.062 A 
HETATM    4  N1  UNL     1      15.119 -26.589 -57.232  1.00  0.00    -0.191 N 
ATOM      5  H1  UNL     1      15.255 -25.788 -56.615  1.00  0.00     0.184 HD
HETATM    6  C21 UNL     1      16.213 -27.149 -57.849  1.00  0.00     0.679 A 
HETATM    7  N3  UNL     1      16.033 -28.183 -58.638  1.00  0.00    -0.186 N 
ATOM      8  H3  UNL     1      16.854 -28.587 -59.091  1.00  0.00     0.185 HD
ENDROOT
BRANCH   1   9
HETATM    9  S1  UNL     1      14.794 -30.207 -59.824  1.00  0.00    -0.106 SA
BRANCH   9  10
HETATM   10  C3  UNL     1      13.357 -31.189 -60.061  1.00  0.00     0.064 C 
BRANCH  10  11
HETATM   11  C2  UNL     1      13.586 -32.565 -60.600  1.00  0.00     0.012 C 
HETATM   12  C1  UNL     1      14.888 -32.747 -61.324  1.00  0.00     0.006 C 
ENDBRANCH  10  11
BRANCH  10  13
HETATM   13  C4  UNL     1      12.523 -30.437 -61.108  1.00  0.00     0.109 C 
BRANCH  13  14
HETATM   14  C5  UNL     1      11.170 -30.318 -60.721  1.00  0.00    -0.105 C 
HETATM   15  C6  UNL     1      10.019 -30.164 -60.415  1.00  0.00    -0.095 C 
BRANCH  15  16
HETATM   16  C7  UNL     1       8.591 -29.910 -60.084  1.00  0.00     0.037 C 
HETATM   17  C8  UNL     1       7.838 -31.133 -59.767  1.00  0.00     0.031 C 
HETATM   18  C9  UNL     1       8.560 -28.992 -58.838  1.00  0.00     0.031 C 
BRANCH  16  19
HETATM   19  C10 UNL     1       7.927 -29.122 -61.202  1.00  0.00     0.185 C 
BRANCH  19  20
HETATM   20  O1  UNL     1       6.682 -29.671 -61.547  1.00  0.00    -0.399 OA
ATOM     21  H1  UNL     1       6.540 -29.649 -62.487  1.00  0.00     0.209 HD
ENDBRANCH  19  20
ENDBRANCH  16  19
ENDBRANCH  15  16
ENDBRANCH  13  14
ENDBRANCH  10  13
ENDBRANCH   9  10
ENDBRANCH   1   9
BRANCH   3  22
HETATM   22  C14 UNL     1      12.712 -26.641 -56.691  1.00  0.00    -0.009 A 
HETATM   23  C15 UNL     1      11.507 -27.253 -56.947  1.00  0.00     0.014 A 
HETATM   24  C16 UNL     1      10.322 -26.953 -56.278  1.00  0.00     0.017 A 
HETATM   25  C17 UNL     1      10.380 -25.984 -55.301  1.00  0.00     0.048 A 
HETATM   26  C19 UNL     1      11.564 -25.366 -55.028  1.00  0.00     0.017 A 
HETATM   27  C20 UNL     1      12.727 -25.669 -55.695  1.00  0.00     0.014 A 
BRANCH  25  28
HETATM   28  C18 UNL     1       9.127 -25.641 -54.585  1.00  0.00     0.417 C 
HETATM   29  F1  UNL     1       8.158 -26.568 -54.930  1.00  0.00    -0.166 F 
HETATM   30  F2  UNL     1       9.327 -25.564 -53.220  1.00  0.00    -0.166 F 
HETATM   31  F3  UNL     1       8.648 -24.425 -54.983  1.00  0.00    -0.166 F 
ENDBRANCH  25  28
ENDBRANCH   3  22
BRANCH   6  32
HETATM   32  N2  UNL     1      17.367 -26.603 -57.617  1.00  0.00    -0.224 N 
ATOM     33  H2  UNL     1      17.762 -26.709 -56.683  1.00  0.00     0.177 HD
BRANCH  32  34
HETATM   34  C22 UNL     1      18.123 -25.865 -58.575  1.00  0.00     0.170 C 
BRANCH  34  35
HETATM   35  C23 UNL     1      17.628 -24.467 -58.751  1.00  0.00     0.143 C 
BRANCH  35  36
HETATM   36  O2  UNL     1      16.351 -24.349 -59.236  1.00  0.00    -0.393 OA
ATOM     37  H2  UNL     1      15.681 -24.160 -58.589  1.00  0.00     0.210 HD
ENDBRANCH  35  36
BRANCH  35  38
HETATM   38  C24 UNL     1      17.976 -23.431 -57.748  1.00  0.00    -0.024 C 
HETATM   39  C25 UNL     1      19.117 -23.731 -56.824  1.00  0.00     0.017 C 
HETATM   40  C26 UNL     1      18.330 -22.106 -58.465  1.00  0.00     0.017 C 
HETATM   41  C27 UNL     1      16.690 -23.182 -56.924  1.00  0.00     0.017 C 
ENDBRANCH  35  38
ENDBRANCH  34  35
ENDBRANCH  32  34
ENDBRANCH   6  32
TORSDOF 15
ENDMDL
MODEL 5
REMARK VINA RESULT: -7.243658677      1.871      4.032
REMARK  15 active torsions:
REMARK  status: ('A' for Active; 'I' for Inactive)
REMARK    1  A    between atoms: C2_2  and  C3_3 
REMARK    2  A    between atoms: C3_3  and  C4_4 
REMARK    3  A    between atoms: C3_3  and  S1_13 
REMARK    4  A    between atoms: C4_4  and  C5_5 
REMARK    5  A    between atoms: C6_6  and  C7_7 
REMARK    6  A    between atoms: C7_7  and  C10_10 
REMARK    7  A    between atoms: C10_10  and  O1_11 
REMARK    8  A    between atoms: S1_13  and  C11_14 
REMARK    9  A    between atoms: C13_16  and  C14_17 
REMARK   10  A    between atoms: C17_20  and  C18_21 
REMARK   11  A    between atoms: C21_29  and  N2_30 
REMARK   12  A    between atoms: N2_30  and  C22_32 
REMARK   13  A    between atoms: C22_32  and  C23_33 
REMARK   14  A    between atoms: C23_33  and  O2_34 
REMARK   15  A    between atoms: C23_33  and  C24_36 
ROOT
HETATM    1  C11 UNL     1       8.914 -28.422 -57.785  1.00  0.00     0.088 A 
HETATM    2  C12 UNL     1       8.122 -29.488 -58.110  1.00  0.00     0.068 A 
HETATM    3  C13 UNL     1       8.151 -30.065 -59.401  1.00  0.00     0.062 A 
HETATM    4  N1  UNL     1       8.973 -29.547 -60.294  1.00  0.00    -0.191 N 
ATOM      5  H1  UNL     1       9.003 -29.949 -61.231  1.00  0.00     0.184 HD
HETATM    6  C21 UNL     1       9.790 -28.482 -59.998  1.00  0.00     0.679 A 
HETATM    7  N3  UNL     1       9.742 -27.966 -58.791  1.00  0.00    -0.186 N 
ATOM      8  H3  UNL     1      10.356 -27.178 -58.584  1.00  0.00     0.185 HD
ENDROOT
BRANCH   1   9
HETATM    9  S1  UNL     1       8.876 -27.513 -56.324  1.00  0.00    -0.106 SA
BRANCH   9  10
HETATM   10  C3  UNL     1      10.322 -27.029 -55.452  1.00  0.00     0.064 C 
BRANCH  10  11
HETATM   11  C2  UNL     1      10.328 -25.633 -54.915  1.00  0.00     0.012 C 
HETATM   12  C1  UNL     1       8.974 -24.990 -54.826  1.00  0.00     0.006 C 
ENDBRANCH  10  11
BRANCH  10  13
HETATM   13  C4  UNL     1      11.460 -27.114 -56.479  1.00  0.00     0.109 C 
BRANCH  13  14
HETATM   14  C5  UNL     1      12.682 -26.637 -55.956  1.00  0.00    -0.105 C 
HETATM   15  C6  UNL     1      13.741 -26.227 -55.566  1.00  0.00    -0.095 C 
BRANCH  15  16
HETATM   16  C7  UNL     1      15.070 -25.699 -55.156  1.00  0.00     0.037 C 
HETATM   17  C8  UNL     1      15.116 -25.254 -53.755  1.00  0.00     0.031 C 
HETATM   18  C9  UNL     1      16.098 -26.844 -55.329  1.00  0.00     0.031 C 
BRANCH  16  19
HETATM   19  C10 UNL     1      15.509 -24.595 -56.104  1.00  0.00     0.185 C 
BRANCH  19  20
HETATM   20  O1  UNL     1      14.416 -24.040 -56.788  1.00  0.00    -0.399 OA
ATOM     21  H1  UNL     1      14.522 -24.110 -57.730  1.00  0.00     0.209 HD
ENDBRANCH  19  20
ENDBRANCH  16  19
ENDBRANCH  15  16
ENDBRANCH  13  14
ENDBRANCH  10  13
ENDBRANCH   9  10
ENDBRANCH   1   9
BRANCH   3  22
HETATM   22  C14 UNL     1       7.141 -31.076 -59.664  1.00  0.00    -0.009 A 
HETATM   23  C15 UNL     1       7.360 -32.020 -60.641  1.00  0.00     0.014 A 
HETATM   24  C16 UNL     1       6.474 -33.052 -60.941  1.00  0.00     0.017 A 
HETATM   25  C17 UNL     1       5.312 -33.118 -60.204  1.00  0.00     0.048 A 
HETATM   26  C19 UNL     1       5.075 -32.195 -59.229  1.00  0.00     0.017 A 
HETATM   27  C20 UNL     1       5.957 -31.180 -58.941  1.00  0.00     0.014 A 
BRANCH  25  28
HETATM   28  C18 UNL     1       4.349 -34.202 -60.515  1.00  0.00     0.417 C 
HETATM   29  F1  UNL     1       5.048 -35.263 -61.067  1.00  0.00    -0.166 F 
HETATM   30  F2  UNL     1       3.619 -34.570 -59.401  1.00  0.00    -0.166 F 
HETATM   31  F3  UNL     1       3.450 -33.805 -61.464  1.00  0.00    -0.166 F 
ENDBRANCH  25  28
ENDBRANCH   3  22
BRANCH   6  32
HETATM   32  N2  UNL     1      10.575 -28.059 -60.939  1.00  0.00    -0.224 N 
ATOM     33  H2  UNL     1      10.184 -27.418 -61.629  1.00  0.00     0.177 HD
BRANCH  32  34
HETATM   34  C22 UNL     1      11.946 -28.425 -61.079  1.00  0.00     0.170 C 
BRANCH  34  35
HETATM   35  C23 UNL     1      12.875 -27.444 -60.443  1.00  0.00     0.143 C 
BRANCH  35  36
HETATM   36  O2  UNL     1      12.275 -26.409 -59.772  1.00  0.00    -0.393 OA
ATOM     37  H2  UNL     1      12.305 -25.566 -60.208  1.00  0.00     0.210 HD
ENDBRANCH  35  36
BRANCH  35  38
HETATM   38  C24 UNL     1      14.121 -27.923 -59.794  1.00  0.00    -0.024 C 
HETATM   39  C25 UNL     1      14.962 -26.900 -59.092  1.00  0.00     0.017 C 
HETATM   40  C26 UNL     1      13.781 -29.007 -58.744  1.00  0.00     0.017 C 
HETATM   41  C27 UNL     1      14.951 -28.603 -60.909  1.00  0.00     0.017 C 
ENDBRANCH  35  38
ENDBRANCH  34  35
ENDBRANCH  32  34
ENDBRANCH   6  32
TORSDOF 15
ENDMDL
