MODEL 1
REMARK VINA RESULT: -4.843993218      0.000      0.000
REMARK  0 active torsions:
REMARK  status: ('A' for Active; 'I' for Inactive)
ROOT
HETATM    1 CL1  UNL     1       6.877  52.715  52.503  1.00  0.00    -0.057 Cl
HETATM    2  C1  UNL     1       8.376  52.138  53.201  1.00  0.00     0.142 C 
HETATM    3  C2  UNL     1       9.140  51.354  52.436  1.00  0.00     0.091 C 
HETATM    4  C3  UNL     1      10.426  50.753  52.797  1.00  0.00     0.104 C 
HETATM    5 CL2  UNL     1      10.909  49.422  51.748  1.00  0.00    -0.065 Cl
HETATM    6  N1  UNL     1      11.229  51.066  53.759  1.00  0.00    -0.361 N 
ATOM      7  H1  UNL     1      12.087  50.521  53.844  1.00  0.00     0.162 HD
HETATM    8  C4  UNL     1      11.019  52.122  54.728  1.00  0.00     0.204 C 
HETATM    9 CL3  UNL     1      12.343  52.184  55.890  1.00  0.00    -0.100 Cl
HETATM   10  C5  UNL     1       9.674  51.962  55.362  1.00  0.00     0.217 C 
HETATM   11  O1  UNL     1       8.667  52.541  54.518  1.00  0.00    -0.337 OA
ENDROOT
TORSDOF 0
ENDMDL
MODEL 2
REMARK VINA RESULT: -4.317099119      5.096      7.102
REMARK  0 active torsions:
REMARK  status: ('A' for Active; 'I' for Inactive)
ROOT
HETATM    1 CL1  UNL     1      17.565  48.112  54.986  1.00  0.00    -0.057 Cl
HETATM    2  C1  UNL     1      16.141  48.978  55.521  1.00  0.00     0.142 C 
HETATM    3  C2  UNL     1      16.338  50.137  56.155  1.00  0.00     0.091 C 
HETATM    4  C3  UNL     1      15.311  51.033  56.692  1.00  0.00     0.104 C 
HETATM    5 CL2  UNL     1      15.927  52.203  57.858  1.00  0.00    -0.065 Cl
HETATM    6  N1  UNL     1      14.048  51.075  56.428  1.00  0.00    -0.361 N 
ATOM      7  H1  UNL     1      13.495  51.782  56.913  1.00  0.00     0.162 HD
HETATM    8  C4  UNL     1      13.347  50.206  55.505  1.00  0.00     0.204 C 
HETATM    9 CL3  UNL     1      11.624  50.580  55.472  1.00  0.00    -0.100 Cl
HETATM   10  C5  UNL     1      13.642  48.778  55.837  1.00  0.00     0.217 C 
HETATM   11  O1  UNL     1      14.892  48.391  55.246  1.00  0.00    -0.337 OA
ENDROOT
TORSDOF 0
ENDMDL
MODEL 3
REMARK VINA RESULT: -4.270374613      1.885      3.833
REMARK  0 active torsions:
REMARK  status: ('A' for Active; 'I' for Inactive)
ROOT
HETATM    1 CL1  UNL     1      13.890  50.571  56.454  1.00  0.00    -0.057 Cl
HETATM    2  C1  UNL     1      12.488  50.929  55.468  1.00  0.00     0.142 C 
HETATM    3  C2  UNL     1      12.340  50.225  54.343  1.00  0.00     0.091 C 
HETATM    4  C3  UNL     1      11.257  50.345  53.364  1.00  0.00     0.104 C 
HETATM    5 CL2  UNL     1      11.627  49.616  51.802  1.00  0.00    -0.065 Cl
HETATM    6  N1  UNL     1      10.099  50.900  53.496  1.00  0.00    -0.361 N 
ATOM      7  H1  UNL     1       9.478  50.878  52.686  1.00  0.00     0.162 HD
HETATM    8  C4  UNL     1       9.603  51.551  54.691  1.00  0.00     0.204 C 
HETATM    9 CL3  UNL     1       7.987  52.206  54.428  1.00  0.00    -0.100 Cl
HETATM   10  C5  UNL     1      10.593  52.571  55.155  1.00  0.00     0.217 C 
HETATM   11  O1  UNL     1      11.618  51.934  55.932  1.00  0.00    -0.337 OA
ENDROOT
TORSDOF 0
ENDMDL
MODEL 4
REMARK VINA RESULT: -4.218053466      2.147      3.285
REMARK  0 active torsions:
REMARK  status: ('A' for Active; 'I' for Inactive)
ROOT
HETATM    1 CL1  UNL     1       7.995  52.040  53.412  1.00  0.00    -0.057 Cl
HETATM    2  C1  UNL     1       9.604  51.729  54.029  1.00  0.00     0.142 C 
HETATM    3  C2  UNL     1      10.021  52.485  55.048  1.00  0.00     0.091 C 
HETATM    4  C3  UNL     1      11.317  52.413  55.726  1.00  0.00     0.104 C 
HETATM    5 CL2  UNL     1      11.699  53.842  56.683  1.00  0.00    -0.065 Cl
HETATM    6  N1  UNL     1      12.191  51.462  55.713  1.00  0.00    -0.361 N 
ATOM      7  H1  UNL     1      13.041  51.605  56.258  1.00  0.00     0.162 HD
HETATM    8  C4  UNL     1      12.070  50.211  54.993  1.00  0.00     0.204 C 
HETATM    9 CL3  UNL     1      13.505  49.212  55.219  1.00  0.00    -0.100 Cl
HETATM   10  C5  UNL     1      11.753  50.485  53.558  1.00  0.00     0.217 C 
HETATM   11  O1  UNL     1      10.342  50.705  53.406  1.00  0.00    -0.337 OA
ENDROOT
TORSDOF 0
ENDMDL
MODEL 5
REMARK VINA RESULT: -4.197231486      5.244      6.716
REMARK  0 active torsions:
REMARK  status: ('A' for Active; 'I' for Inactive)
ROOT
HETATM    1 CL1  UNL     1      11.890  50.597  55.340  1.00  0.00    -0.057 Cl
HETATM    2  C1  UNL     1      13.540  50.241  55.804  1.00  0.00     0.142 C 
HETATM    3  C2  UNL     1      14.105  51.048  56.706  1.00  0.00     0.091 C 
HETATM    4  C3  UNL     1      15.464  50.953  57.245  1.00  0.00     0.104 C 
HETATM    5 CL2  UNL     1      16.021  52.428  58.033  1.00  0.00    -0.065 Cl
HETATM    6  N1  UNL     1      16.283  49.955  57.217  1.00  0.00    -0.361 N 
ATOM      7  H1  UNL     1      17.195  50.090  57.654  1.00  0.00     0.162 HD
HETATM    8  C4  UNL     1      16.021  48.661  56.621  1.00  0.00     0.204 C 
HETATM    9 CL3  UNL     1      17.421  47.601  56.774  1.00  0.00    -0.100 Cl
HETATM   10  C5  UNL     1      15.559  48.842  55.210  1.00  0.00     0.217 C 
HETATM   11  O1  UNL     1      14.153  49.131  55.193  1.00  0.00    -0.337 OA
ENDROOT
TORSDOF 0
ENDMDL
