MODEL 1
REMARK VINA RESULT: -5.183851190      0.000      0.000
REMARK  0 active torsions:
REMARK  status: ('A' for Active; 'I' for Inactive)
ROOT
HETATM    1  O1  UNL     1      13.144  49.628  55.179  1.00  0.00    -0.289 OA
HETATM    2  C1  UNL     1      12.481  50.656  55.360  1.00  0.00     0.197 A 
HETATM    3  C2  UNL     1      13.030  51.774  56.100  1.00  0.00     0.097 A 
HETATM    4 CL1  UNL     1      14.657  51.631  56.733  1.00  0.00    -0.079 Cl
HETATM    5  C3  UNL     1      12.323  52.889  56.301  1.00  0.00     0.116 A 
HETATM    6  N1  UNL     1      11.023  52.939  55.767  1.00  0.00    -0.357 N 
ATOM      7  H1  UNL     1      10.484  53.791  55.922  1.00  0.00     0.166 HD
HETATM    8  C4  UNL     1      10.463  52.002  55.104  1.00  0.00     0.106 A 
HETATM    9 CL2  UNL     1       8.800  52.219  54.490  1.00  0.00    -0.067 Cl
HETATM   10  C5  UNL     1      11.120  50.741  54.815  1.00  0.00     0.219 A 
HETATM   11 CL3  UNL     1      11.127  50.373  53.064  1.00  0.00    -0.109 Cl
ENDROOT
TORSDOF 0
ENDMDL
MODEL 2
REMARK VINA RESULT: -5.019150729      2.191      3.723
REMARK  0 active torsions:
REMARK  status: ('A' for Active; 'I' for Inactive)
ROOT
HETATM    1  O1  UNL     1      11.609  49.982  52.639  1.00  0.00    -0.289 OA
HETATM    2  C1  UNL     1      11.014  50.740  53.414  1.00  0.00     0.197 A 
HETATM    3  C2  UNL     1       9.588  50.962  53.289  1.00  0.00     0.097 A 
HETATM    4 CL1  UNL     1       8.728  50.129  52.011  1.00  0.00    -0.079 Cl
HETATM    5  C3  UNL     1       8.936  51.778  54.121  1.00  0.00     0.116 A 
HETATM    6  N1  UNL     1       9.686  52.417  55.125  1.00  0.00    -0.357 N 
ATOM      7  H1  UNL     1       9.186  53.041  55.759  1.00  0.00     0.166 HD
HETATM    8  C4  UNL     1      10.942  52.278  55.306  1.00  0.00     0.106 A 
HETATM    9 CL2  UNL     1      11.752  53.161  56.631  1.00  0.00    -0.067 Cl
HETATM   10  C5  UNL     1      11.768  51.422  54.474  1.00  0.00     0.219 A 
HETATM   11 CL3  UNL     1      12.692  50.235  55.443  1.00  0.00    -0.109 Cl
ENDROOT
TORSDOF 0
ENDMDL
MODEL 3
REMARK VINA RESULT: -4.693832558      2.610      4.391
REMARK  0 active torsions:
REMARK  status: ('A' for Active; 'I' for Inactive)
ROOT
HETATM    1  O1  UNL     1       9.146  52.974  55.576  1.00  0.00    -0.289 OA
HETATM    2  C1  UNL     1       9.860  52.156  54.985  1.00  0.00     0.197 A 
HETATM    3  C2  UNL     1       9.531  51.712  53.646  1.00  0.00     0.097 A 
HETATM    4 CL1  UNL     1       8.094  52.366  52.886  1.00  0.00    -0.079 Cl
HETATM    5  C3  UNL     1      10.295  50.829  52.999  1.00  0.00     0.116 A 
HETATM    6  N1  UNL     1      11.433  50.342  53.666  1.00  0.00    -0.357 N 
ATOM      7  H1  UNL     1      12.015  49.666  53.170  1.00  0.00     0.166 HD
HETATM    8  C4  UNL     1      11.796  50.679  54.844  1.00  0.00     0.106 A 
HETATM    9 CL2  UNL     1      13.273  49.970  55.555  1.00  0.00    -0.067 Cl
HETATM   10  C5  UNL     1      11.057  51.628  55.654  1.00  0.00     0.219 A 
HETATM   11 CL3  UNL     1      12.091  52.971  56.226  1.00  0.00    -0.109 Cl
ENDROOT
TORSDOF 0
ENDMDL
MODEL 4
REMARK VINA RESULT: -4.485775487      1.855      2.553
REMARK  0 active torsions:
REMARK  status: ('A' for Active; 'I' for Inactive)
ROOT
HETATM    1  O1  UNL     1      12.313  53.358  56.336  1.00  0.00    -0.289 OA
HETATM    2  C1  UNL     1      12.193  52.303  55.703  1.00  0.00     0.197 A 
HETATM    3  C2  UNL     1      13.111  51.202  55.910  1.00  0.00     0.097 A 
HETATM    4 CL1  UNL     1      14.397  51.404  57.081  1.00  0.00    -0.079 Cl
HETATM    5  C3  UNL     1      12.989  50.058  55.231  1.00  0.00     0.116 A 
HETATM    6  N1  UNL     1      11.935  49.961  54.305  1.00  0.00    -0.357 N 
ATOM      7  H1  UNL     1      11.844  49.087  53.787  1.00  0.00     0.166 HD
HETATM    8  C4  UNL     1      11.082  50.881  54.061  1.00  0.00     0.106 A 
HETATM    9 CL2  UNL     1       9.798  50.603  52.852  1.00  0.00    -0.067 Cl
HETATM   10  C5  UNL     1      11.102  52.169  54.728  1.00  0.00     0.219 A 
HETATM   11 CL3  UNL     1       9.531  52.550  55.497  1.00  0.00    -0.109 Cl
ENDROOT
TORSDOF 0
ENDMDL
MODEL 5
REMARK VINA RESULT: -4.386054887      1.526      3.528
REMARK  0 active torsions:
REMARK  status: ('A' for Active; 'I' for Inactive)
ROOT
HETATM    1  O1  UNL     1      10.805  50.496  53.218  1.00  0.00    -0.289 OA
HETATM    2  C1  UNL     1      11.075  51.242  54.166  1.00  0.00     0.197 A 
HETATM    3  C2  UNL     1      10.078  52.138  54.715  1.00  0.00     0.097 A 
HETATM    4 CL1  UNL     1       8.479  52.137  53.999  1.00  0.00    -0.079 Cl
HETATM    5  C3  UNL     1      10.359  52.947  55.738  1.00  0.00     0.116 A 
HETATM    6  N1  UNL     1      11.662  52.900  56.267  1.00  0.00    -0.357 N 
ATOM      7  H1  UNL     1      11.875  53.519  57.049  1.00  0.00     0.166 HD
HETATM    8  C4  UNL     1      12.599  52.141  55.845  1.00  0.00     0.106 A 
HETATM    9 CL2  UNL     1      14.205  52.197  56.624  1.00  0.00    -0.067 Cl
HETATM   10  C5  UNL     1      12.427  51.216  54.741  1.00  0.00     0.219 A 
HETATM   11 CL3  UNL     1      12.879  49.544  55.190  1.00  0.00    -0.109 Cl
ENDROOT
TORSDOF 0
ENDMDL
