MODEL 1
REMARK VINA RESULT: -5.667643755      0.000      0.000
REMARK  8 active torsions:
REMARK  status: ('A' for Active; 'I' for Inactive)
REMARK    1  A    between atoms: C3_7  and  N3_8 
REMARK    2  A    between atoms: N3_8  and  N4_10 
REMARK       I    between atoms: N4_10  and  C4_12 
REMARK    3  A    between atoms: C4_12  and  C5_14 
REMARK    4  A    between atoms: N5_15  and  N6_17 
REMARK    5  A    between atoms: N6_17  and  C6_19 
REMARK    6  A    between atoms: C6_19  and  N7_21 
REMARK    7  A    between atoms: N7_21  and  N8_23 
REMARK    8  A    between atoms: N9_26  and  N10_27 
ROOT
HETATM    1  N4  UNL     1      57.418 -53.939  -6.970  1.00  0.00    -0.251 N 
ATOM      2  H4  UNL     1      56.618 -53.550  -6.470  1.00  0.00     0.191 HD
HETATM    3  C4  UNL     1      58.463 -54.581  -6.255  1.00  0.00     0.277 C 
HETATM    4  O1  UNL     1      59.440 -55.052  -6.880  1.00  0.00    -0.265 OA
ENDROOT
BRANCH   1   5
HETATM    5  N3  UNL     1      57.486 -53.841  -8.339  1.00  0.00    -0.126 N 
ATOM      6  H3  UNL     1      57.287 -54.678  -8.885  1.00  0.00     0.206 HD
BRANCH   5   7
HETATM    7  C3  UNL     1      57.785 -52.762  -8.980  1.00  0.00     0.733 A 
HETATM    8  N2  UNL     1      56.964 -51.777  -9.363  1.00  0.00    -0.128 N 
HETATM    9  N1  UNL     1      57.650 -50.841  -9.999  1.00  0.00    -0.273 N 
ATOM     10  H2  UNL     1      55.959 -51.751  -9.189  1.00  0.00     0.205 HD
HETATM   11  C2  UNL     1      58.930 -51.232 -10.025  1.00  0.00     0.132 A 
ATOM     12  H1  UNL     1      57.273 -49.981 -10.396  1.00  0.00     0.189 HD
HETATM   13  C1  UNL     1      60.029 -50.480 -10.640  1.00  0.00     0.093 C 
HETATM   14  N9  UNL     1      59.026 -52.426  -9.394  1.00  0.00    -0.077 N 
BRANCH  14  15
HETATM   15  N10 UNL     1      60.149 -53.208  -9.179  1.00  0.00    -0.323 N 
ATOM     16 2H10 UNL     1      60.994 -52.873  -8.717  1.00  0.00     0.178 HD
ATOM     17 1H10 UNL     1      60.306 -54.185  -9.430  1.00  0.00     0.178 HD
ENDBRANCH  14  15
ENDBRANCH   5   7
ENDBRANCH   1   5
BRANCH   3  18
HETATM   18  C5  UNL     1      58.356 -54.665  -4.798  1.00  0.00     0.182 C 
HETATM   19  N5  UNL     1      57.858 -53.654  -4.179  1.00  0.00    -0.304 N 
ATOM     20  H5  UNL     1      57.551 -52.829  -4.695  1.00  0.00     0.186 HD
BRANCH  19  21
HETATM   21  N6  UNL     1      57.744 -53.704  -2.800  1.00  0.00    -0.275 N 
ATOM     22  H6  UNL     1      57.366 -54.537  -2.349  1.00  0.00     0.189 HD
BRANCH  21  23
HETATM   23  C6  UNL     1      58.153 -52.597  -2.017  1.00  0.00     0.204 C 
HETATM   24  S1  UNL     1      59.525 -51.765  -2.365  1.00  0.00    -0.038 SA
BRANCH  23  25
HETATM   25  N7  UNL     1      57.386 -52.178  -0.910  1.00  0.00    -0.282 N 
ATOM     26  H7  UNL     1      57.329 -52.801  -0.103  1.00  0.00     0.189 HD
BRANCH  25  27
HETATM   27  N8  UNL     1      56.708 -50.976  -0.851  1.00  0.00    -0.343 N 
ATOM     28  H82 UNL     1      57.257 -50.145  -0.629  1.00  0.00     0.176 HD
ATOM     29  H81 UNL     1      55.706 -50.877  -1.015  1.00  0.00     0.176 HD
ENDBRANCH  25  27
ENDBRANCH  23  25
ENDBRANCH  21  23
ENDBRANCH  19  21
ENDBRANCH   3  18
TORSDOF 8
ENDMDL
MODEL 2
REMARK VINA RESULT: -4.782087578      5.861      9.363
REMARK  8 active torsions:
REMARK  status: ('A' for Active; 'I' for Inactive)
REMARK    1  A    between atoms: C3_7  and  N3_8 
REMARK    2  A    between atoms: N3_8  and  N4_10 
REMARK       I    between atoms: N4_10  and  C4_12 
REMARK    3  A    between atoms: C4_12  and  C5_14 
REMARK    4  A    between atoms: N5_15  and  N6_17 
REMARK    5  A    between atoms: N6_17  and  C6_19 
REMARK    6  A    between atoms: C6_19  and  N7_21 
REMARK    7  A    between atoms: N7_21  and  N8_23 
REMARK    8  A    between atoms: N9_26  and  N10_27 
ROOT
HETATM    1  N4  UNL     1      60.305 -49.610 -11.319  1.00  0.00    -0.251 N 
ATOM      2  H4  UNL     1      59.803 -48.788 -11.654  1.00  0.00     0.191 HD
HETATM    3  C4  UNL     1      61.400 -50.127 -12.060  1.00  0.00     0.277 C 
HETATM    4  O1  UNL     1      62.008 -51.138 -11.640  1.00  0.00    -0.265 OA
ENDROOT
BRANCH   1   5
HETATM    5  N3  UNL     1      59.923 -50.220 -10.149  1.00  0.00    -0.126 N 
ATOM      6  H3  UNL     1      60.445 -49.994  -9.303  1.00  0.00     0.206 HD
BRANCH   5   7
HETATM    7  C3  UNL     1      58.948 -51.060 -10.047  1.00  0.00     0.733 A 
HETATM    8  N2  UNL     1      57.638 -50.797  -9.989  1.00  0.00    -0.128 N 
HETATM    9  N1  UNL     1      56.957 -51.928  -9.887  1.00  0.00    -0.273 N 
ATOM     10  H2  UNL     1      57.225 -49.865 -10.019  1.00  0.00     0.205 HD
HETATM   11  C2  UNL     1      57.844 -52.930  -9.879  1.00  0.00     0.132 A 
ATOM     12  H1  UNL     1      55.943 -52.019  -9.825  1.00  0.00     0.189 HD
HETATM   13  C1  UNL     1      57.508 -54.354  -9.778  1.00  0.00     0.093 C 
HETATM   14  N9  UNL     1      59.087 -52.402  -9.978  1.00  0.00    -0.077 N 
BRANCH  14  15
HETATM   15  N10 UNL     1      60.309 -53.053 -10.008  1.00  0.00    -0.323 N 
ATOM     16 2H10 UNL     1      60.822 -53.336  -9.173  1.00  0.00     0.178 HD
ATOM     17 1H10 UNL     1      60.862 -53.340 -10.816  1.00  0.00     0.178 HD
ENDBRANCH  14  15
ENDBRANCH   5   7
ENDBRANCH   1   5
BRANCH   3  18
HETATM   18  C5  UNL     1      61.778 -49.451 -13.302  1.00  0.00     0.182 C 
HETATM   19  N5  UNL     1      61.090 -48.423 -13.652  1.00  0.00    -0.304 N 
ATOM     20  H5  UNL     1      60.311 -48.099 -13.077  1.00  0.00     0.186 HD
BRANCH  19  21
HETATM   21  N6  UNL     1      61.423 -47.762 -14.822  1.00  0.00    -0.275 N 
ATOM     22  H6  UNL     1      62.173 -48.118 -15.414  1.00  0.00     0.189 HD
BRANCH  21  23
HETATM   23  C6  UNL     1      60.721 -46.590 -15.196  1.00  0.00     0.204 C 
HETATM   24  S1  UNL     1      61.117 -45.122 -14.575  1.00  0.00    -0.038 SA
BRANCH  23  25
HETATM   25  N7  UNL     1      59.656 -46.654 -16.120  1.00  0.00    -0.282 N 
ATOM     26  H7  UNL     1      59.790 -47.206 -16.967  1.00  0.00     0.189 HD
BRANCH  25  27
HETATM   27  N8  UNL     1      58.444 -46.014 -15.947  1.00  0.00    -0.343 N 
ATOM     28  H82 UNL     1      57.858 -46.337 -15.177  1.00  0.00     0.176 HD
ATOM     29  H81 UNL     1      58.112 -45.251 -16.536  1.00  0.00     0.176 HD
ENDBRANCH  25  27
ENDBRANCH  23  25
ENDBRANCH  21  23
ENDBRANCH  19  21
ENDBRANCH   3  18
TORSDOF 8
ENDMDL
MODEL 3
REMARK VINA RESULT: -4.550462680      4.824      7.238
REMARK  8 active torsions:
REMARK  status: ('A' for Active; 'I' for Inactive)
REMARK    1  A    between atoms: C3_7  and  N3_8 
REMARK    2  A    between atoms: N3_8  and  N4_10 
REMARK       I    between atoms: N4_10  and  C4_12 
REMARK    3  A    between atoms: C4_12  and  C5_14 
REMARK    4  A    between atoms: N5_15  and  N6_17 
REMARK    5  A    between atoms: N6_17  and  C6_19 
REMARK    6  A    between atoms: C6_19  and  N7_21 
REMARK    7  A    between atoms: N7_21  and  N8_23 
REMARK    8  A    between atoms: N9_26  and  N10_27 
ROOT
HETATM    1  N4  UNL     1      61.052 -49.232 -11.200  1.00  0.00    -0.251 N 
ATOM      2  H4  UNL     1      60.719 -49.482 -12.131  1.00  0.00     0.191 HD
HETATM    3  C4  UNL     1      60.584 -49.940 -10.062  1.00  0.00     0.277 C 
HETATM    4  O1  UNL     1      60.998 -49.623  -8.924  1.00  0.00    -0.265 OA
ENDROOT
BRANCH   1   5
HETATM    5  N3  UNL     1      61.955 -48.208 -11.044  1.00  0.00    -0.126 N 
ATOM      6  H3  UNL     1      62.875 -48.439 -10.671  1.00  0.00     0.206 HD
BRANCH   5   7
HETATM    7  C3  UNL     1      61.718 -46.974 -11.338  1.00  0.00     0.733 A 
HETATM    8  N2  UNL     1      61.965 -46.340 -12.490  1.00  0.00    -0.128 N 
HETATM    9  N1  UNL     1      61.579 -45.077 -12.399  1.00  0.00    -0.273 N 
ATOM     10  H2  UNL     1      62.387 -46.767 -13.315  1.00  0.00     0.205 HD
HETATM   11  C2  UNL     1      61.079 -44.899 -11.171  1.00  0.00     0.132 A 
ATOM     12  H1  UNL     1      61.651 -44.370 -13.130  1.00  0.00     0.189 HD
HETATM   13  C1  UNL     1      60.539 -43.636 -10.655  1.00  0.00     0.093 C 
HETATM   14  N9  UNL     1      61.160 -46.073 -10.501  1.00  0.00    -0.077 N 
BRANCH  14  15
HETATM   15  N10 UNL     1      60.767 -46.364  -9.205  1.00  0.00    -0.323 N 
ATOM     16 2H10 UNL     1      60.743 -45.677  -8.451  1.00  0.00     0.178 HD
ATOM     17 1H10 UNL     1      60.455 -47.254  -8.815  1.00  0.00     0.178 HD
ENDBRANCH  14  15
ENDBRANCH   5   7
ENDBRANCH   1   5
BRANCH   3  18
HETATM   18  C5  UNL     1      59.622 -51.024 -10.268  1.00  0.00     0.182 C 
HETATM   19  N5  UNL     1      58.373 -50.742 -10.141  1.00  0.00    -0.304 N 
ATOM     20  H5  UNL     1      58.076 -49.794  -9.906  1.00  0.00     0.186 HD
BRANCH  19  21
HETATM   21  N6  UNL     1      57.439 -51.747 -10.329  1.00  0.00    -0.275 N 
ATOM     22  H6  UNL     1      56.647 -51.597 -10.953  1.00  0.00     0.189 HD
BRANCH  21  23
HETATM   23  C6  UNL     1      57.585 -52.983  -9.654  1.00  0.00     0.204 C 
HETATM   24  S1  UNL     1      57.830 -54.383 -10.477  1.00  0.00    -0.038 SA
BRANCH  23  25
HETATM   25  N7  UNL     1      57.524 -53.044  -8.246  1.00  0.00    -0.282 N 
ATOM     26  H7  UNL     1      57.469 -52.165  -7.730  1.00  0.00     0.189 HD
BRANCH  25  27
HETATM   27  N8  UNL     1      57.533 -54.221  -7.522  1.00  0.00    -0.343 N 
ATOM     28  H82 UNL     1      57.778 -54.154  -6.534  1.00  0.00     0.176 HD
ATOM     29  H81 UNL     1      57.311 -55.135  -7.917  1.00  0.00     0.176 HD
ENDBRANCH  25  27
ENDBRANCH  23  25
ENDBRANCH  21  23
ENDBRANCH  19  21
ENDBRANCH   3  18
TORSDOF 8
ENDMDL
MODEL 4
REMARK VINA RESULT: -4.546609132      5.461      8.044
REMARK  8 active torsions:
REMARK  status: ('A' for Active; 'I' for Inactive)
REMARK    1  A    between atoms: C3_7  and  N3_8 
REMARK    2  A    between atoms: N3_8  and  N4_10 
REMARK       I    between atoms: N4_10  and  C4_12 
REMARK    3  A    between atoms: C4_12  and  C5_14 
REMARK    4  A    between atoms: N5_15  and  N6_17 
REMARK    5  A    between atoms: N6_17  and  C6_19 
REMARK    6  A    between atoms: C6_19  and  N7_21 
REMARK    7  A    between atoms: N7_21  and  N8_23 
REMARK    8  A    between atoms: N9_26  and  N10_27 
ROOT
HETATM    1  N4  UNL     1      60.439 -49.264 -10.259  1.00  0.00    -0.251 N 
ATOM      2  H4  UNL     1      60.023 -48.599 -10.911  1.00  0.00     0.191 HD
HETATM    3  C4  UNL     1      61.210 -48.799  -9.162  1.00  0.00     0.277 C 
HETATM    4  O1  UNL     1      61.717 -49.625  -8.369  1.00  0.00    -0.265 OA
ENDROOT
BRANCH   1   5
HETATM    5  N3  UNL     1      60.254 -50.613 -10.442  1.00  0.00    -0.126 N 
ATOM      6  H3  UNL     1      61.021 -51.146 -10.852  1.00  0.00     0.206 HD
BRANCH   5   7
HETATM    7  C3  UNL     1      59.177 -51.252 -10.130  1.00  0.00     0.733 A 
HETATM    8  N2  UNL     1      57.925 -50.785 -10.089  1.00  0.00    -0.128 N 
HETATM    9  N1  UNL     1      57.096 -51.750  -9.722  1.00  0.00    -0.273 N 
ATOM     10  H2  UNL     1      57.649 -49.827 -10.308  1.00  0.00     0.205 HD
HETATM   11  C2  UNL     1      57.829 -52.852  -9.525  1.00  0.00     0.132 A 
ATOM     12  H1  UNL     1      56.086 -51.668  -9.610  1.00  0.00     0.189 HD
HETATM   13  C1  UNL     1      57.298 -54.154  -9.106  1.00  0.00     0.093 C 
HETATM   14  N9  UNL     1      59.126 -52.555  -9.775  1.00  0.00    -0.077 N 
BRANCH  14  15
HETATM   15  N10 UNL     1      60.237 -53.379  -9.701  1.00  0.00    -0.323 N 
ATOM     16 2H10 UNL     1      60.207 -54.387  -9.851  1.00  0.00     0.178 HD
ATOM     17 1H10 UNL     1      61.206 -53.130  -9.499  1.00  0.00     0.178 HD
ENDBRANCH  14  15
ENDBRANCH   5   7
ENDBRANCH   1   5
BRANCH   3  18
HETATM   18  C5  UNL     1      61.385 -47.355  -9.000  1.00  0.00     0.182 C 
HETATM   19  N5  UNL     1      60.866 -46.590  -9.893  1.00  0.00    -0.304 N 
ATOM     20  H5  UNL     1      60.352 -46.986 -10.681  1.00  0.00     0.186 HD
BRANCH  19  21
HETATM   21  N6  UNL     1      61.015 -45.219  -9.767  1.00  0.00    -0.275 N 
ATOM     22  H6  UNL     1      61.176 -44.805  -8.849  1.00  0.00     0.189 HD
BRANCH  21  23
HETATM   23  C6  UNL     1      60.943 -44.392 -10.914  1.00  0.00     0.204 C 
HETATM   24  S1  UNL     1      61.686 -44.812 -12.318  1.00  0.00    -0.038 SA
BRANCH  23  25
HETATM   25  N7  UNL     1      60.226 -43.178 -10.882  1.00  0.00    -0.282 N 
ATOM     26  H7  UNL     1      60.681 -42.364 -10.468  1.00  0.00     0.189 HD
BRANCH  25  27
HETATM   27  N8  UNL     1      58.945 -43.024 -11.376  1.00  0.00    -0.343 N 
ATOM     28  H82 UNL     1      58.258 -42.597 -10.754  1.00  0.00     0.176 HD
ATOM     29  H81 UNL     1      58.656 -43.309 -12.311  1.00  0.00     0.176 HD
ENDBRANCH  25  27
ENDBRANCH  23  25
ENDBRANCH  21  23
ENDBRANCH  19  21
ENDBRANCH   3  18
TORSDOF 8
ENDMDL
MODEL 5
REMARK VINA RESULT: -4.522490095      2.643      6.889
REMARK  8 active torsions:
REMARK  status: ('A' for Active; 'I' for Inactive)
REMARK    1  A    between atoms: C3_7  and  N3_8 
REMARK    2  A    between atoms: N3_8  and  N4_10 
REMARK       I    between atoms: N4_10  and  C4_12 
REMARK    3  A    between atoms: C4_12  and  C5_14 
REMARK    4  A    between atoms: N5_15  and  N6_17 
REMARK    5  A    between atoms: N6_17  and  C6_19 
REMARK    6  A    between atoms: C6_19  and  N7_21 
REMARK    7  A    between atoms: N7_21  and  N8_23 
REMARK    8  A    between atoms: N9_26  and  N10_27 
ROOT
HETATM    1  N4  UNL     1      58.119 -54.370  -3.510  1.00  0.00    -0.251 N 
ATOM      2  H4  UNL     1      57.182 -54.766  -3.580  1.00  0.00     0.191 HD
HETATM    3  C4  UNL     1      58.932 -54.256  -4.669  1.00  0.00     0.277 C 
HETATM    4  O1  UNL     1      60.082 -53.770  -4.571  1.00  0.00    -0.265 OA
ENDROOT
BRANCH   1   5
HETATM    5  N3  UNL     1      58.598 -53.946  -2.295  1.00  0.00    -0.126 N 
ATOM      6  H3  UNL     1      59.170 -54.596  -1.756  1.00  0.00     0.206 HD
BRANCH   5   7
HETATM    7  C3  UNL     1      58.374 -52.781  -1.787  1.00  0.00     0.733 A 
HETATM    8  N2  UNL     1      57.333 -52.393  -1.043  1.00  0.00    -0.128 N 
HETATM    9  N1  UNL     1      57.466 -51.118  -0.714  1.00  0.00    -0.273 N 
ATOM     10  H2  UNL     1      56.552 -52.991  -0.771  1.00  0.00     0.205 HD
HETATM   11  C2  UNL     1      58.610 -50.682  -1.255  1.00  0.00     0.132 A 
ATOM     12  H1  UNL     1      56.816 -50.569  -0.151  1.00  0.00     0.189 HD
HETATM   13  C1  UNL     1      59.135 -49.318  -1.131  1.00  0.00     0.093 C 
HETATM   14  N9  UNL     1      59.184 -51.708  -1.926  1.00  0.00    -0.077 N 
BRANCH  14  15
HETATM   15  N10 UNL     1      60.371 -51.725  -2.639  1.00  0.00    -0.323 N 
ATOM     16 2H10 UNL     1      60.987 -50.918  -2.735  1.00  0.00     0.178 HD
ATOM     17 1H10 UNL     1      60.799 -52.496  -3.152  1.00  0.00     0.178 HD
ENDBRANCH  14  15
ENDBRANCH   5   7
ENDBRANCH   1   5
BRANCH   3  18
HETATM   18  C5  UNL     1      58.389 -54.719  -5.946  1.00  0.00     0.182 C 
HETATM   19  N5  UNL     1      57.636 -53.907  -6.601  1.00  0.00    -0.304 N 
ATOM     20  H5  UNL     1      57.433 -52.977  -6.233  1.00  0.00     0.186 HD
BRANCH  19  21
HETATM   21  N6  UNL     1      57.107 -54.316  -7.813  1.00  0.00    -0.275 N 
ATOM     22  H6  UNL     1      56.412 -55.062  -7.841  1.00  0.00     0.189 HD
BRANCH  21  23
HETATM   23  C6  UNL     1      57.531 -53.698  -9.014  1.00  0.00     0.204 C 
HETATM   24  S1  UNL     1      57.966 -54.587 -10.325  1.00  0.00    -0.038 SA
BRANCH  23  25
HETATM   25  N7  UNL     1      57.591 -52.293  -9.117  1.00  0.00    -0.282 N 
ATOM     26  H7  UNL     1      57.882 -51.765  -8.294  1.00  0.00     0.189 HD
BRANCH  25  27
HETATM   27  N8  UNL     1      57.279 -51.588 -10.264  1.00  0.00    -0.343 N 
ATOM     28  H82 UNL     1      56.311 -51.631 -10.584  1.00  0.00     0.176 HD
ATOM     29  H81 UNL     1      57.953 -51.038 -10.796  1.00  0.00     0.176 HD
ENDBRANCH  25  27
ENDBRANCH  23  25
ENDBRANCH  21  23
ENDBRANCH  19  21
ENDBRANCH   3  18
TORSDOF 8
ENDMDL
