MODEL 1
REMARK VINA RESULT: -4.714612640      0.000      0.000
REMARK  6 active torsions:
REMARK  status: ('A' for Active; 'I' for Inactive)
REMARK    1  A    between atoms: C1_2  and  C2_4 
REMARK    2  A    between atoms: C4_10  and  N4_11 
REMARK    3  A    between atoms: N4_11  and  C5_13 
REMARK    4  A    between atoms: C5_13  and  N5_14 
REMARK    5  A    between atoms: C5_13  and  C6_18 
REMARK    6  A    between atoms: C6_18  and  O2_19 
ROOT
HETATM    1  C2  UNL     1      58.175 -52.822 -10.115  1.00  0.00     0.142 A 
HETATM    2  N2  UNL     1      57.388 -51.756 -10.271  1.00  0.00    -0.293 N 
ATOM      3  H2  UNL     1      56.386 -51.784 -10.465  1.00  0.00     0.187 HD
HETATM    4  N3  UNL     1      58.113 -50.657 -10.135  1.00  0.00    -0.294 N 
ATOM      5  H3  UNL     1      57.754 -49.705 -10.208  1.00  0.00     0.187 HD
HETATM    6  C3  UNL     1      59.385 -50.981  -9.888  1.00  0.00     0.121 A 
HETATM    7  C4  UNL     1      60.554 -50.248  -9.665  1.00  0.00     0.134 A 
HETATM    8  N7  UNL     1      61.690 -50.923  -9.442  1.00  0.00    -0.337 N 
ATOM      9  H7  UNL     1      62.553 -50.405  -9.276  1.00  0.00     0.168 HD
HETATM   10  C8  UNL     1      61.720 -52.268  -9.432  1.00  0.00     0.182 A 
HETATM   11  N8  UNL     1      60.606 -52.985  -9.645  1.00  0.00    -0.348 N 
ATOM     12  H8  UNL     1      60.636 -54.004  -9.635  1.00  0.00     0.167 HD
HETATM   13  C9  UNL     1      59.460 -52.344  -9.869  1.00  0.00     0.099 A 
ENDROOT
BRANCH   7  14
HETATM   14  N4  UNL     1      60.454 -49.005  -9.688  1.00  0.00    -0.343 N 
ATOM     15  H4  UNL     1      59.609 -48.702 -10.173  1.00  0.00     0.163 HD
BRANCH  14  16
HETATM   16  C5  UNL     1      61.204 -47.917  -9.222  1.00  0.00     0.348 C 
BRANCH  16  17
HETATM   17  N5  UNL     1      60.475 -47.037  -8.349  1.00  0.00    -0.053 N 
ATOM     18  H53 UNL     1      59.912 -46.381  -8.890  1.00  0.00     0.277 HD
ATOM     19  H52 UNL     1      59.732 -47.545  -7.867  1.00  0.00     0.277 HD
ATOM     20  H51 UNL     1      61.061 -46.540  -7.679  1.00  0.00     0.277 HD
ENDBRANCH  16  17
BRANCH  16  21
HETATM   21  C6  UNL     1      61.897 -47.204 -10.364  1.00  0.00     0.294 A 
HETATM   22  C7  UNL     1      63.401 -47.418 -10.513  1.00  0.00     0.308 A 
HETATM   23  N6  UNL     1      62.827 -46.152 -10.085  1.00  0.00    -0.033 N 
ATOM     24  H62 UNL     1      62.918 -45.197 -10.431  1.00  0.00     0.281 HD
ATOM     25  H61 UNL     1      62.981 -45.562  -9.267  1.00  0.00     0.281 HD
BRANCH  21  26
HETATM   26  O2  UNL     1      61.180 -47.183 -11.562  1.00  0.00    -0.361 OA
ATOM     27  H2  UNL     1      61.301 -46.399 -12.084  1.00  0.00     0.212 HD
ENDBRANCH  21  26
ENDBRANCH  16  21
ENDBRANCH  14  16
ENDBRANCH   7  14
BRANCH   1  28
HETATM   28  C1  UNL     1      57.810 -54.233 -10.180  1.00  0.00     0.285 C 
HETATM   29  N1  UNL     1      57.847 -54.943 -11.399  1.00  0.00    -0.056 NA
HETATM   30  O1  UNL     1      57.452 -54.840  -9.140  1.00  0.00    -0.269 OA
ENDBRANCH   1  28
TORSDOF 6
ENDMDL
MODEL 2
REMARK VINA RESULT: -4.684468017      6.086      8.330
REMARK  6 active torsions:
REMARK  status: ('A' for Active; 'I' for Inactive)
REMARK    1  A    between atoms: C1_2  and  C2_4 
REMARK    2  A    between atoms: C4_10  and  N4_11 
REMARK    3  A    between atoms: N4_11  and  C5_13 
REMARK    4  A    between atoms: C5_13  and  N5_14 
REMARK    5  A    between atoms: C5_13  and  C6_18 
REMARK    6  A    between atoms: C6_18  and  O2_19 
ROOT
HETATM    1  C2  UNL     1      61.421 -45.339 -10.539  1.00  0.00     0.142 A 
HETATM    2  N2  UNL     1      61.959 -46.215 -11.390  1.00  0.00    -0.293 N 
ATOM      3  H2  UNL     1      62.368 -47.114 -11.134  1.00  0.00     0.187 HD
HETATM    4  N3  UNL     1      61.879 -45.731 -12.620  1.00  0.00    -0.294 N 
ATOM      5  H3  UNL     1      62.217 -46.202 -13.459  1.00  0.00     0.187 HD
HETATM    6  C3  UNL     1      61.288 -44.532 -12.597  1.00  0.00     0.121 A 
HETATM    7  C4  UNL     1      60.951 -43.591 -13.573  1.00  0.00     0.134 A 
HETATM    8  N7  UNL     1      60.346 -42.461 -13.180  1.00  0.00    -0.337 N 
ATOM      9  H7  UNL     1      60.092 -41.763 -13.878  1.00  0.00     0.168 HD
HETATM   10  C8  UNL     1      60.067 -42.227 -11.885  1.00  0.00     0.182 A 
HETATM   11  N8  UNL     1      60.384 -43.121 -10.937  1.00  0.00    -0.348 N 
ATOM     12  H8  UNL     1      60.168 -42.936  -9.957  1.00  0.00     0.167 HD
HETATM   13  C9  UNL     1      60.986 -44.254 -11.295  1.00  0.00     0.099 A 
ENDROOT
BRANCH   7  14
HETATM   14  N4  UNL     1      61.240 -43.873 -14.753  1.00  0.00    -0.343 N 
ATOM     15  H4  UNL     1      62.246 -43.986 -14.880  1.00  0.00     0.163 HD
BRANCH  14  16
HETATM   16  C5  UNL     1      60.540 -44.073 -15.951  1.00  0.00     0.348 C 
BRANCH  16  17
HETATM   17  N5  UNL     1      60.218 -42.857 -16.648  1.00  0.00    -0.053 N 
ATOM     18  H53 UNL     1      60.082 -42.091 -15.988  1.00  0.00     0.277 HD
ATOM     19  H52 UNL     1      61.031 -42.507 -17.154  1.00  0.00     0.277 HD
ATOM     20  H51 UNL     1      59.415 -42.939 -17.272  1.00  0.00     0.277 HD
ENDBRANCH  16  17
BRANCH  16  21
HETATM   21  C6  UNL     1      59.353 -44.988 -15.740  1.00  0.00     0.294 A 
HETATM   22  C7  UNL     1      59.607 -46.491 -15.806  1.00  0.00     0.308 A 
HETATM   23  N6  UNL     1      58.862 -45.776 -16.830  1.00  0.00    -0.033 N 
ATOM     24  H62 UNL     1      57.932 -45.905 -17.228  1.00  0.00     0.281 HD
ATOM     25  H61 UNL     1      58.968 -45.703 -17.841  1.00  0.00     0.281 HD
BRANCH  21  26
HETATM   26  O2  UNL     1      58.470 -44.579 -14.739  1.00  0.00    -0.361 OA
ATOM     27  H2  UNL     1      57.871 -43.888 -14.995  1.00  0.00     0.212 HD
ENDBRANCH  21  26
ENDBRANCH  16  21
ENDBRANCH  14  16
ENDBRANCH   7  14
BRANCH   1  28
HETATM   28  C1  UNL     1      61.290 -45.451  -9.090  1.00  0.00     0.285 C 
HETATM   29  N1  UNL     1      61.659 -44.389  -8.238  1.00  0.00    -0.056 NA
HETATM   30  O1  UNL     1      60.844 -46.508  -8.577  1.00  0.00    -0.269 OA
ENDBRANCH   1  28
TORSDOF 6
ENDMDL
MODEL 3
REMARK VINA RESULT: -4.652645645      7.376      9.440
REMARK  6 active torsions:
REMARK  status: ('A' for Active; 'I' for Inactive)
REMARK    1  A    between atoms: C1_2  and  C2_4 
REMARK    2  A    between atoms: C4_10  and  N4_11 
REMARK    3  A    between atoms: N4_11  and  C5_13 
REMARK    4  A    between atoms: C5_13  and  N5_14 
REMARK    5  A    between atoms: C5_13  and  C6_18 
REMARK    6  A    between atoms: C6_18  and  O2_19 
ROOT
HETATM    1  C2  UNL     1      61.901 -43.831 -10.504  1.00  0.00     0.142 A 
HETATM    2  N2  UNL     1      61.163 -44.757 -11.120  1.00  0.00    -0.293 N 
ATOM      3  H2  UNL     1      60.984 -45.699 -10.770  1.00  0.00     0.187 HD
HETATM    4  N3  UNL     1      60.702 -44.259 -12.256  1.00  0.00    -0.294 N 
ATOM      5  H3  UNL     1      60.110 -44.761 -12.919  1.00  0.00     0.187 HD
HETATM    6  C3  UNL     1      61.127 -43.001 -12.405  1.00  0.00     0.121 A 
HETATM    7  C4  UNL     1      60.953 -42.022 -13.386  1.00  0.00     0.134 A 
HETATM    8  N7  UNL     1      61.544 -40.832 -13.204  1.00  0.00    -0.337 N 
ATOM      9  H7  UNL     1      61.427 -40.104 -13.909  1.00  0.00     0.168 HD
HETATM   10  C8  UNL     1      62.288 -40.576 -12.113  1.00  0.00     0.182 A 
HETATM   11  N8  UNL     1      62.464 -41.506 -11.163  1.00  0.00    -0.348 N 
ATOM     12  H8  UNL     1      63.028 -41.304 -10.338  1.00  0.00     0.167 HD
HETATM   13  C9  UNL     1      61.889 -42.699 -11.314  1.00  0.00     0.099 A 
ENDROOT
BRANCH   7  14
HETATM   14  N4  UNL     1      60.252 -42.327 -14.372  1.00  0.00    -0.343 N 
ATOM     15  H4  UNL     1      59.309 -41.946 -14.298  1.00  0.00     0.163 HD
BRANCH  14  16
HETATM   16  C5  UNL     1      60.426 -43.058 -15.555  1.00  0.00     0.348 C 
BRANCH  16  17
HETATM   17  N5  UNL     1      60.370 -42.258 -16.748  1.00  0.00    -0.053 N 
ATOM     18  H53 UNL     1      59.886 -42.759 -17.494  1.00  0.00     0.277 HD
ATOM     19  H52 UNL     1      59.730 -41.473 -16.625  1.00  0.00     0.277 HD
ATOM     20  H51 UNL     1      61.281 -41.930 -17.069  1.00  0.00     0.277 HD
ENDBRANCH  16  17
BRANCH  16  21
HETATM   21  C6  UNL     1      59.512 -44.265 -15.587  1.00  0.00     0.294 A 
HETATM   22  C7  UNL     1      60.148 -45.615 -15.907  1.00  0.00     0.308 A 
HETATM   23  N6  UNL     1      59.257 -44.929 -16.830  1.00  0.00    -0.033 N 
ATOM     24  H62 UNL     1      58.397 -45.209 -17.302  1.00  0.00     0.281 HD
ATOM     25  H61 UNL     1      59.355 -44.640 -17.803  1.00  0.00     0.281 HD
BRANCH  21  26
HETATM   26  O2  UNL     1      58.540 -44.290 -14.586  1.00  0.00    -0.361 OA
ATOM     27  H2  UNL     1      57.685 -43.975 -14.853  1.00  0.00     0.212 HD
ENDBRANCH  21  26
ENDBRANCH  16  21
ENDBRANCH  14  16
ENDBRANCH   7  14
BRANCH   1  28
HETATM   28  C1  UNL     1      62.603 -43.936  -9.229  1.00  0.00     0.285 C 
HETATM   29  N1  UNL     1      61.930 -44.335  -8.054  1.00  0.00    -0.056 NA
HETATM   30  O1  UNL     1      63.828 -43.669  -9.160  1.00  0.00    -0.269 OA
ENDBRANCH   1  28
TORSDOF 6
ENDMDL
MODEL 4
REMARK VINA RESULT: -4.528261803      4.694      6.671
REMARK  6 active torsions:
REMARK  status: ('A' for Active; 'I' for Inactive)
REMARK    1  A    between atoms: C1_2  and  C2_4 
REMARK    2  A    between atoms: C4_10  and  N4_11 
REMARK    3  A    between atoms: N4_11  and  C5_13 
REMARK    4  A    between atoms: C5_13  and  N5_14 
REMARK    5  A    between atoms: C5_13  and  C6_18 
REMARK    6  A    between atoms: C6_18  and  O2_19 
ROOT
HETATM    1  C2  UNL     1      57.985 -53.918  -8.874  1.00  0.00     0.142 A 
HETATM    2  N2  UNL     1      57.025 -54.210  -7.994  1.00  0.00    -0.293 N 
ATOM      3  H2  UNL     1      56.026 -54.241  -8.198  1.00  0.00     0.187 HD
HETATM    4  N3  UNL     1      57.576 -54.452  -6.815  1.00  0.00    -0.294 N 
ATOM      5  H3  UNL     1      57.064 -54.700  -5.968  1.00  0.00     0.187 HD
HETATM    6  C3  UNL     1      58.904 -54.325  -6.901  1.00  0.00     0.121 A 
HETATM    7  C4  UNL     1      59.958 -54.460  -5.995  1.00  0.00     0.134 A 
HETATM    8  N7  UNL     1      61.205 -54.252  -6.439  1.00  0.00    -0.337 N 
ATOM      9  H7  UNL     1      61.988 -54.347  -5.792  1.00  0.00     0.168 HD
HETATM   10  C8  UNL     1      61.449 -53.920  -7.720  1.00  0.00     0.182 A 
HETATM   11  N8  UNL     1      60.447 -53.786  -8.602  1.00  0.00    -0.348 N 
ATOM     12  H8  UNL     1      60.640 -53.535  -9.571  1.00  0.00     0.167 HD
HETATM   13  C9  UNL     1      59.196 -53.987  -8.191  1.00  0.00     0.099 A 
ENDROOT
BRANCH   7  14
HETATM   14  N4  UNL     1      59.660 -54.769  -4.823  1.00  0.00    -0.343 N 
ATOM     15  H4  UNL     1      59.209 -55.683  -4.776  1.00  0.00     0.163 HD
BRANCH  14  16
HETATM   16  C5  UNL     1      59.785 -54.186  -3.555  1.00  0.00     0.348 C 
BRANCH  16  17
HETATM   17  N5  UNL     1      60.442 -55.025  -2.589  1.00  0.00    -0.053 N 
ATOM     18  H53 UNL     1      60.006 -54.925  -1.673  1.00  0.00     0.277 HD
ATOM     19  H52 UNL     1      60.238 -56.008  -2.771  1.00  0.00     0.277 HD
ATOM     20  H51 UNL     1      61.449 -54.873  -2.526  1.00  0.00     0.277 HD
ENDBRANCH  16  17
BRANCH  16  21
HETATM   21  C6  UNL     1      58.460 -53.630  -3.079  1.00  0.00     0.294 A 
HETATM   22  C7  UNL     1      58.447 -52.193  -2.567  1.00  0.00     0.308 A 
HETATM   23  N6  UNL     1      58.269 -53.340  -1.690  1.00  0.00    -0.033 N 
ATOM     24  H62 UNL     1      57.543 -53.597  -1.022  1.00  0.00     0.281 HD
ATOM     25  H61 UNL     1      58.750 -53.649  -0.846  1.00  0.00     0.281 HD
BRANCH  21  26
HETATM   26  O2  UNL     1      57.360 -53.991  -3.860  1.00  0.00    -0.361 OA
ATOM     27  H2  UNL     1      56.943 -54.807  -3.608  1.00  0.00     0.212 HD
ENDBRANCH  21  26
ENDBRANCH  16  21
ENDBRANCH  14  16
ENDBRANCH   7  14
BRANCH   1  28
HETATM   28  C1  UNL     1      57.843 -53.586 -10.288  1.00  0.00     0.285 C 
HETATM   29  N1  UNL     1      57.594 -52.262 -10.707  1.00  0.00    -0.056 NA
HETATM   30  O1  UNL     1      57.942 -54.485 -11.160  1.00  0.00    -0.269 OA
ENDBRANCH   1  28
TORSDOF 6
ENDMDL
MODEL 5
REMARK VINA RESULT: -4.517688638      1.359      1.414
REMARK  6 active torsions:
REMARK  status: ('A' for Active; 'I' for Inactive)
REMARK    1  A    between atoms: C1_2  and  C2_4 
REMARK    2  A    between atoms: C4_10  and  N4_11 
REMARK    3  A    between atoms: N4_11  and  C5_13 
REMARK    4  A    between atoms: C5_13  and  N5_14 
REMARK    5  A    between atoms: C5_13  and  C6_18 
REMARK    6  A    between atoms: C6_18  and  O2_19 
ROOT
HETATM    1  C2  UNL     1      58.268 -52.707 -10.039  1.00  0.00     0.142 A 
HETATM    2  N2  UNL     1      57.589 -51.625 -10.425  1.00  0.00    -0.293 N 
ATOM      3  H2  UNL     1      56.614 -51.615 -10.724  1.00  0.00     0.187 HD
HETATM    4  N3  UNL     1      58.382 -50.567 -10.356  1.00  0.00    -0.294 N 
ATOM      5  H3  UNL     1      58.110 -49.614 -10.596  1.00  0.00     0.187 HD
HETATM    6  C3  UNL     1      59.592 -50.936  -9.926  1.00  0.00     0.121 A 
HETATM    7  C4  UNL     1      60.786 -50.256  -9.672  1.00  0.00     0.134 A 
HETATM    8  N7  UNL     1      61.837 -50.965  -9.235  1.00  0.00    -0.337 N 
ATOM      9  H7  UNL     1      62.717 -50.486  -9.044  1.00  0.00     0.168 HD
HETATM   10  C8  UNL     1      61.757 -52.294  -9.042  1.00  0.00     0.182 A 
HETATM   11  N8  UNL     1      60.617 -52.960  -9.281  1.00  0.00    -0.348 N 
ATOM     12  H8  UNL     1      60.564 -53.968  -9.131  1.00  0.00     0.167 HD
HETATM   13  C9  UNL     1      59.555 -52.284  -9.716  1.00  0.00     0.099 A 
ENDROOT
BRANCH   7  14
HETATM   14  N4  UNL     1      60.790 -49.025  -9.874  1.00  0.00    -0.343 N 
ATOM     15  H4  UNL     1      60.056 -48.553  -9.346  1.00  0.00     0.163 HD
BRANCH  14  16
HETATM   16  C5  UNL     1      61.542 -48.123 -10.637  1.00  0.00     0.348 C 
BRANCH  16  17
HETATM   17  N5  UNL     1      61.212 -46.743 -10.402  1.00  0.00    -0.053 N 
ATOM     18  H53 UNL     1      61.706 -46.390  -9.583  1.00  0.00     0.277 HD
ATOM     19  H52 UNL     1      61.624 -46.148 -11.121  1.00  0.00     0.277 HD
ATOM     20  H51 UNL     1      60.211 -46.566 -10.321  1.00  0.00     0.277 HD
ENDBRANCH  16  17
BRANCH  16  21
HETATM   21  C6  UNL     1      61.535 -48.510 -12.101  1.00  0.00     0.294 A 
HETATM   22  C7  UNL     1      62.765 -49.233 -12.640  1.00  0.00     0.308 A 
HETATM   23  N6  UNL     1      62.433 -47.866 -13.011  1.00  0.00    -0.033 N 
ATOM     24  H62 UNL     1      62.296 -47.405 -13.910  1.00  0.00     0.281 HD
ATOM     25  H61 UNL     1      62.953 -46.990 -12.968  1.00  0.00     0.281 HD
BRANCH  21  26
HETATM   26  O2  UNL     1      60.311 -48.990 -12.572  1.00  0.00    -0.361 OA
ATOM     27  H2  UNL     1      59.571 -48.415 -12.417  1.00  0.00     0.212 HD
ENDBRANCH  21  26
ENDBRANCH  16  21
ENDBRANCH  14  16
ENDBRANCH   7  14
BRANCH   1  28
HETATM   28  C1  UNL     1      57.800 -54.086  -9.956  1.00  0.00     0.285 C 
HETATM   29  N1  UNL     1      57.814 -54.934 -11.084  1.00  0.00    -0.056 NA
HETATM   30  O1  UNL     1      57.371 -54.541  -8.866  1.00  0.00    -0.269 OA
ENDBRANCH   1  28
TORSDOF 6
ENDMDL
