MODEL 1
REMARK VINA RESULT: -5.209903886      0.000      0.000
REMARK  7 active torsions:
REMARK  status: ('A' for Active; 'I' for Inactive)
REMARK    1  A    between atoms: C2_2  and  O1_3 
REMARK    2  A    between atoms: O1_3  and  C3_4 
REMARK    3  A    between atoms: C3_4  and  C4_6 
REMARK    4  A    between atoms: C4_6  and  O3_8 
REMARK    5  A    between atoms: C4_6  and  C6_10 
REMARK    6  A    between atoms: C6_10  and  C7_11 
REMARK    7  A    between atoms: C9_13  and  N1_14 
ROOT
HETATM    1  C6  UNL     1      11.355  -3.541  56.569  1.00  0.00     0.080 C 
ENDROOT
BRANCH   1   2
HETATM    2  C4  UNL     1      10.540  -2.521  55.864  1.00  0.00     0.144 C 
HETATM    3  C5  UNL     1      10.050  -3.103  54.529  1.00  0.00     0.057 C 
BRANCH   2   4
HETATM    4  C3  UNL     1       9.308  -2.212  56.640  1.00  0.00     0.293 C 
HETATM    5  O2  UNL     1       9.458  -1.807  57.821  1.00  0.00    -0.262 OA
BRANCH   4   6
HETATM    6  O1  UNL     1       8.030  -2.341  56.149  1.00  0.00    -0.320 OA
BRANCH   6   7
HETATM    7  C2  UNL     1       6.892  -1.750  56.753  1.00  0.00     0.174 C 
HETATM    8  C1  UNL     1       5.936  -2.867  57.101  1.00  0.00     0.034 C 
ENDBRANCH   6   7
ENDBRANCH   4   6
ENDBRANCH   2   4
BRANCH   2   9
HETATM    9  O3  UNL     1      11.159  -1.345  55.573  1.00  0.00    -0.380 OA
ATOM     10  H3  UNL     1      11.563  -1.430  54.718  1.00  0.00     0.211 HD
ENDBRANCH   2   9
ENDBRANCH   1   2
BRANCH   1  11
HETATM   11  C7  UNL     1      12.488  -4.140  55.860  1.00  0.00     0.126 C 
HETATM   12  C8  UNL     1      13.210  -5.266  56.502  1.00  0.00     0.067 C 
HETATM   13  C9  UNL     1      14.284  -5.452  55.417  1.00  0.00     0.209 C 
HETATM   14  C10 UNL     1      14.619  -3.988  55.198  1.00  0.00     0.201 C 
HETATM   15  O4  UNL     1      13.536  -3.248  55.599  1.00  0.00    -0.384 OA
BRANCH  13  16
HETATM   16  N1  UNL     1      15.419  -6.164  55.915  1.00  0.00    -0.073 N 
ATOM     17  H13 UNL     1      15.174  -6.739  56.721  1.00  0.00     0.274 HD
ATOM     18  H12 UNL     1      15.704  -6.904  55.273  1.00  0.00     0.274 HD
ATOM     19  H11 UNL     1      16.194  -5.536  56.128  1.00  0.00     0.274 HD
ENDBRANCH  13  16
ENDBRANCH   1  11
TORSDOF 7
ENDMDL
MODEL 2
REMARK VINA RESULT: -5.123155712      2.887      6.095
REMARK  7 active torsions:
REMARK  status: ('A' for Active; 'I' for Inactive)
REMARK    1  A    between atoms: C2_2  and  O1_3 
REMARK    2  A    between atoms: O1_3  and  C3_4 
REMARK    3  A    between atoms: C3_4  and  C4_6 
REMARK    4  A    between atoms: C4_6  and  O3_8 
REMARK    5  A    between atoms: C4_6  and  C6_10 
REMARK    6  A    between atoms: C6_10  and  C7_11 
REMARK    7  A    between atoms: C9_13  and  N1_14 
ROOT
HETATM    1  C6  UNL     1      10.778  -3.444  55.437  1.00  0.00     0.080 C 
ENDROOT
BRANCH   1   2
HETATM    2  C4  UNL     1      11.855  -3.725  56.418  1.00  0.00     0.144 C 
HETATM    3  C5  UNL     1      11.726  -5.177  56.904  1.00  0.00     0.057 C 
BRANCH   2   4
HETATM    4  C3  UNL     1      13.189  -3.640  55.765  1.00  0.00     0.293 C 
HETATM    5  O2  UNL     1      13.521  -2.531  55.276  1.00  0.00    -0.262 OA
BRANCH   4   6
HETATM    6  O1  UNL     1      14.073  -4.690  55.666  1.00  0.00    -0.320 OA
BRANCH   6   7
HETATM    7  C2  UNL     1      15.404  -4.556  55.197  1.00  0.00     0.174 C 
HETATM    8  C1  UNL     1      16.078  -5.897  55.369  1.00  0.00     0.034 C 
ENDBRANCH   6   7
ENDBRANCH   4   6
ENDBRANCH   2   4
BRANCH   2   9
HETATM    9  O3  UNL     1      11.881  -2.943  57.531  1.00  0.00    -0.380 OA
ATOM     10  H3  UNL     1      11.346  -3.360  58.196  1.00  0.00     0.211 HD
ENDBRANCH   2   9
ENDBRANCH   1   2
BRANCH   1  11
HETATM   11  C7  UNL     1       9.843  -2.354  55.722  1.00  0.00     0.126 C 
HETATM   12  C8  UNL     1      10.333  -0.956  55.626  1.00  0.00     0.067 C 
HETATM   13  C9  UNL     1       9.034  -0.264  56.068  1.00  0.00     0.209 C 
HETATM   14  C10 UNL     1       8.695  -1.172  57.236  1.00  0.00     0.201 C 
HETATM   15  O4  UNL     1       9.315  -2.376  57.020  1.00  0.00    -0.384 OA
BRANCH  13  16
HETATM   16  N1  UNL     1       9.274   1.073  56.516  1.00  0.00    -0.073 N 
ATOM     17  H13 UNL     1       9.145   1.156  57.524  1.00  0.00     0.274 HD
ATOM     18  H12 UNL     1      10.264   1.311  56.461  1.00  0.00     0.274 HD
ATOM     19  H11 UNL     1       8.700   1.748  56.010  1.00  0.00     0.274 HD
ENDBRANCH  13  16
ENDBRANCH   1  11
TORSDOF 7
ENDMDL
MODEL 3
REMARK VINA RESULT: -5.111460839      3.125      6.170
REMARK  7 active torsions:
REMARK  status: ('A' for Active; 'I' for Inactive)
REMARK    1  A    between atoms: C2_2  and  O1_3 
REMARK    2  A    between atoms: O1_3  and  C3_4 
REMARK    3  A    between atoms: C3_4  and  C4_6 
REMARK    4  A    between atoms: C4_6  and  O3_8 
REMARK    5  A    between atoms: C4_6  and  C6_10 
REMARK    6  A    between atoms: C6_10  and  C7_11 
REMARK    7  A    between atoms: C9_13  and  N1_14 
ROOT
HETATM    1  C6  UNL     1      10.834  -3.344  55.509  1.00  0.00     0.080 C 
ENDROOT
BRANCH   1   2
HETATM    2  C4  UNL     1      11.917  -3.747  56.439  1.00  0.00     0.144 C 
HETATM    3  C5  UNL     1      11.743  -5.230  56.803  1.00  0.00     0.057 C 
BRANCH   2   4
HETATM    4  C3  UNL     1      13.241  -3.656  55.766  1.00  0.00     0.293 C 
HETATM    5  O2  UNL     1      13.547  -2.553  55.245  1.00  0.00    -0.262 OA
BRANCH   4   6
HETATM    6  O1  UNL     1      14.142  -4.692  55.681  1.00  0.00    -0.320 OA
BRANCH   6   7
HETATM    7  C2  UNL     1      15.427  -4.571  55.097  1.00  0.00     0.174 C 
HETATM    8  C1  UNL     1      16.154  -5.874  55.334  1.00  0.00     0.034 C 
ENDBRANCH   6   7
ENDBRANCH   4   6
ENDBRANCH   2   4
BRANCH   2   9
HETATM    9  O3  UNL     1      11.995  -3.064  57.614  1.00  0.00    -0.380 OA
ATOM     10  H3  UNL     1      12.231  -3.681  58.296  1.00  0.00     0.211 HD
ENDBRANCH   2   9
ENDBRANCH   1   2
BRANCH   1  11
HETATM   11  C7  UNL     1       9.993  -2.201  55.872  1.00  0.00     0.126 C 
HETATM   12  C8  UNL     1       8.753  -1.959  55.094  1.00  0.00     0.067 C 
HETATM   13  C9  UNL     1       8.321  -0.670  55.813  1.00  0.00     0.209 C 
HETATM   14  C10 UNL     1       9.676   0.013  55.856  1.00  0.00     0.201 C 
HETATM   15  O4  UNL     1      10.637  -0.961  55.765  1.00  0.00    -0.384 OA
BRANCH  13  16
HETATM   16  N1  UNL     1       7.394   0.086  55.031  1.00  0.00    -0.073 N 
ATOM     17  H13 UNL     1       6.688   0.531  55.617  1.00  0.00     0.274 HD
ATOM     18  H12 UNL     1       7.831   0.923  54.643  1.00  0.00     0.274 HD
ATOM     19  H11 UNL     1       6.966  -0.483  54.300  1.00  0.00     0.274 HD
ENDBRANCH  13  16
ENDBRANCH   1  11
TORSDOF 7
ENDMDL
MODEL 4
REMARK VINA RESULT: -5.073034068      1.564      2.312
REMARK  7 active torsions:
REMARK  status: ('A' for Active; 'I' for Inactive)
REMARK    1  A    between atoms: C2_2  and  O1_3 
REMARK    2  A    between atoms: O1_3  and  C3_4 
REMARK    3  A    between atoms: C3_4  and  C4_6 
REMARK    4  A    between atoms: C4_6  and  O3_8 
REMARK    5  A    between atoms: C4_6  and  C6_10 
REMARK    6  A    between atoms: C6_10  and  C7_11 
REMARK    7  A    between atoms: C9_13  and  N1_14 
ROOT
HETATM    1  C6  UNL     1      13.072  -3.032  55.305  1.00  0.00     0.080 C 
ENDROOT
BRANCH   1   2
HETATM    2  C4  UNL     1      11.727  -3.287  55.876  1.00  0.00     0.144 C 
HETATM    3  C5  UNL     1      11.816  -3.247  57.410  1.00  0.00     0.057 C 
BRANCH   2   4
HETATM    4  C3  UNL     1      10.787  -2.195  55.503  1.00  0.00     0.293 C 
HETATM    5  O2  UNL     1      11.214  -1.016  55.585  1.00  0.00    -0.262 OA
BRANCH   4   6
HETATM    6  O1  UNL     1       9.495  -2.396  55.078  1.00  0.00    -0.320 OA
BRANCH   6   7
HETATM    7  C2  UNL     1       8.399  -1.593  55.485  1.00  0.00     0.174 C 
HETATM    8  C1  UNL     1       7.876  -2.169  56.780  1.00  0.00     0.034 C 
ENDBRANCH   6   7
ENDBRANCH   4   6
ENDBRANCH   2   4
BRANCH   2   9
HETATM    9  O3  UNL     1      11.144  -4.473  55.551  1.00  0.00    -0.380 OA
ATOM     10  H3  UNL     1      11.552  -5.154  56.073  1.00  0.00     0.211 HD
ENDBRANCH   2   9
ENDBRANCH   1   2
BRANCH   1  11
HETATM   11  C7  UNL     1      14.141  -3.993  55.583  1.00  0.00     0.126 C 
HETATM   12  C8  UNL     1      15.240  -4.136  54.595  1.00  0.00     0.067 C 
HETATM   13  C9  UNL     1      16.003  -5.260  55.314  1.00  0.00     0.209 C 
HETATM   14  C10 UNL     1      14.811  -6.125  55.681  1.00  0.00     0.201 C 
HETATM   15  O4  UNL     1      13.703  -5.318  55.706  1.00  0.00    -0.384 OA
BRANCH  13  16
HETATM   16  N1  UNL     1      16.882  -5.954  54.425  1.00  0.00    -0.073 N 
ATOM     17  H13 UNL     1      16.866  -6.959  54.596  1.00  0.00     0.274 HD
ATOM     18  H12 UNL     1      16.524  -5.949  53.470  1.00  0.00     0.274 HD
ATOM     19  H11 UNL     1      17.831  -5.584  54.469  1.00  0.00     0.274 HD
ENDBRANCH  13  16
ENDBRANCH   1  11
TORSDOF 7
ENDMDL
MODEL 5
REMARK VINA RESULT: -5.000860451      3.234      6.323
REMARK  7 active torsions:
REMARK  status: ('A' for Active; 'I' for Inactive)
REMARK    1  A    between atoms: C2_2  and  O1_3 
REMARK    2  A    between atoms: O1_3  and  C3_4 
REMARK    3  A    between atoms: C3_4  and  C4_6 
REMARK    4  A    between atoms: C4_6  and  O3_8 
REMARK    5  A    between atoms: C4_6  and  C6_10 
REMARK    6  A    between atoms: C6_10  and  C7_11 
REMARK    7  A    between atoms: C9_13  and  N1_14 
ROOT
HETATM    1  C6  UNL     1      10.173  -2.648  57.067  1.00  0.00     0.080 C 
ENDROOT
BRANCH   1   2
HETATM    2  C4  UNL     1      10.925  -3.032  55.848  1.00  0.00     0.144 C 
HETATM    3  C5  UNL     1      11.807  -1.853  55.409  1.00  0.00     0.057 C 
BRANCH   2   4
HETATM    4  C3  UNL     1      11.868  -4.144  56.148  1.00  0.00     0.293 C 
HETATM    5  O2  UNL     1      11.502  -4.996  56.997  1.00  0.00    -0.262 OA
BRANCH   4   6
HETATM    6  O1  UNL     1      13.101  -4.296  55.558  1.00  0.00    -0.320 OA
BRANCH   6   7
HETATM    7  C2  UNL     1      13.973  -5.381  55.825  1.00  0.00     0.174 C 
HETATM    8  C1  UNL     1      15.333  -5.010  55.281  1.00  0.00     0.034 C 
ENDBRANCH   6   7
ENDBRANCH   4   6
ENDBRANCH   2   4
BRANCH   2   9
HETATM    9  O3  UNL     1      10.184  -3.390  54.765  1.00  0.00    -0.380 OA
ATOM     10  H3  UNL     1       9.920  -4.295  54.876  1.00  0.00     0.211 HD
ENDBRANCH   2   9
ENDBRANCH   1   2
BRANCH   1  11
HETATM   11  C7  UNL     1       9.029  -1.745  56.925  1.00  0.00     0.126 C 
HETATM   12  C8  UNL     1       8.504  -1.069  58.137  1.00  0.00     0.067 C 
HETATM   13  C9  UNL     1       7.333  -0.338  57.461  1.00  0.00     0.209 C 
HETATM   14  C10 UNL     1       6.829  -1.489  56.607  1.00  0.00     0.201 C 
HETATM   15  O4  UNL     1       7.874  -2.359  56.424  1.00  0.00    -0.384 OA
BRANCH  13  16
HETATM   16  N1  UNL     1       6.341   0.062  58.410  1.00  0.00    -0.073 N 
ATOM     17  H13 UNL     1       5.443  -0.383  58.221  1.00  0.00     0.274 HD
ATOM     18  H12 UNL     1       6.525  -0.338  59.331  1.00  0.00     0.274 HD
ATOM     19  H11 UNL     1       6.252   1.077  58.456  1.00  0.00     0.274 HD
ENDBRANCH  13  16
ENDBRANCH   1  11
TORSDOF 7
ENDMDL
