MODEL 1
REMARK VINA RESULT: -5.053374199      0.000      0.000
REMARK  8 active torsions:
REMARK  status: ('A' for Active; 'I' for Inactive)
REMARK    1  A    between atoms: C2_2  and  O1_3 
REMARK    2  A    between atoms: C2_2  and  C3_5 
REMARK    3  A    between atoms: C3_5  and  C4_6 
REMARK    4  A    between atoms: C3_5  and  O3_10 
REMARK    5  A    between atoms: C4_6  and  C5_7 
REMARK    6  A    between atoms: C5_7  and  O2_8 
REMARK    7  A    between atoms: O3_10  and  C6_11 
REMARK    8  A    between atoms: C9_14  and  N1_15 
ROOT
HETATM    1  C6  UNL     1      15.650  -4.809  54.251  1.00  0.00     0.267 C 
HETATM    2  C7  UNL     1      16.704  -5.399  55.269  1.00  0.00     0.063 C 
HETATM    3  C8  UNL     1      17.619  -6.278  54.505  1.00  0.00     0.040 C 
HETATM    4  C9  UNL     1      18.459  -5.316  53.641  1.00  0.00     0.207 C 
HETATM    5  C10 UNL     1      17.647  -4.119  53.222  1.00  0.00     0.203 C 
HETATM    6  O4  UNL     1      16.310  -4.373  53.132  1.00  0.00    -0.359 OA
ENDROOT
BRANCH   1   7
HETATM    7  O3  UNL     1      14.892  -4.009  54.985  1.00  0.00    -0.310 OA
BRANCH   7   8
HETATM    8  C3  UNL     1      13.670  -3.824  55.508  1.00  0.00     0.147 C 
BRANCH   8   9
HETATM    9  C2  UNL     1      13.112  -5.095  56.100  1.00  0.00     0.097 C 
HETATM   10  C1  UNL     1      12.038  -4.970  56.883  1.00  0.00     0.054 C 
BRANCH   9  11
HETATM   11  O1  UNL     1      13.662  -6.310  55.839  1.00  0.00    -0.358 OA
ATOM     12  H1  UNL     1      14.251  -6.439  55.106  1.00  0.00     0.217 HD
ENDBRANCH   9  11
ENDBRANCH   8   9
BRANCH   8  13
HETATM   13  C4  UNL     1      13.083  -2.740  55.483  1.00  0.00    -0.091 C 
BRANCH  13  14
HETATM   14  C5  UNL     1      12.398  -1.479  55.454  1.00  0.00     0.251 C 
BRANCH  14  15
HETATM   15  O2  UNL     1      10.987  -1.719  55.571  1.00  0.00    -0.390 OA
ATOM     16  H2  UNL     1      10.764  -2.485  55.055  1.00  0.00     0.210 HD
ENDBRANCH  14  15
ENDBRANCH  13  14
ENDBRANCH   8  13
ENDBRANCH   7   8
ENDBRANCH   1   7
BRANCH   4  17
HETATM   17  N1  UNL     1      18.917  -6.026  52.472  1.00  0.00    -0.073 N 
ATOM     18  H13 UNL     1      18.160  -6.503  51.984  1.00  0.00     0.274 HD
ATOM     19  H12 UNL     1      19.197  -5.398  51.719  1.00  0.00     0.274 HD
ATOM     20  H11 UNL     1      19.665  -6.662  52.749  1.00  0.00     0.274 HD
ENDBRANCH   4  17
TORSDOF 8
ENDMDL
MODEL 2
REMARK VINA RESULT: -5.001912192      3.657      6.017
REMARK  8 active torsions:
REMARK  status: ('A' for Active; 'I' for Inactive)
REMARK    1  A    between atoms: C2_2  and  O1_3 
REMARK    2  A    between atoms: C2_2  and  C3_5 
REMARK    3  A    between atoms: C3_5  and  C4_6 
REMARK    4  A    between atoms: C3_5  and  O3_10 
REMARK    5  A    between atoms: C4_6  and  C5_7 
REMARK    6  A    between atoms: C5_7  and  O2_8 
REMARK    7  A    between atoms: O3_10  and  C6_11 
REMARK    8  A    between atoms: C9_14  and  N1_15 
ROOT
HETATM    1  C6  UNL     1      10.882  -2.686  55.521  1.00  0.00     0.267 C 
HETATM    2  C7  UNL     1      11.123  -3.425  56.896  1.00  0.00     0.063 C 
HETATM    3  C8  UNL     1      11.854  -4.680  56.606  1.00  0.00     0.040 C 
HETATM    4  C9  UNL     1      13.269  -4.225  56.193  1.00  0.00     0.207 C 
HETATM    5  C10 UNL     1      13.220  -2.910  55.462  1.00  0.00     0.203 C 
HETATM    6  O4  UNL     1      12.047  -2.698  54.801  1.00  0.00    -0.359 OA
ENDROOT
BRANCH   1   7
HETATM    7  O3  UNL     1      10.263  -1.563  55.852  1.00  0.00    -0.310 OA
BRANCH   7   8
HETATM    8  C3  UNL     1       9.072  -0.981  56.058  1.00  0.00     0.147 C 
BRANCH   8   9
HETATM    9  C2  UNL     1       9.114   0.502  55.779  1.00  0.00     0.097 C 
HETATM   10  C1  UNL     1       7.968   1.073  55.402  1.00  0.00     0.054 C 
BRANCH   9  11
HETATM   11  O1  UNL     1      10.255   1.226  55.920  1.00  0.00    -0.358 OA
ATOM     12  H1  UNL     1      10.824   1.112  56.671  1.00  0.00     0.217 HD
ENDBRANCH   9  11
ENDBRANCH   8   9
BRANCH   8  13
HETATM   13  C4  UNL     1       8.077  -1.597  56.446  1.00  0.00    -0.091 C 
BRANCH  13  14
HETATM   14  C5  UNL     1       6.919  -2.314  56.899  1.00  0.00     0.251 C 
BRANCH  14  15
HETATM   15  O2  UNL     1       5.747  -1.560  56.551  1.00  0.00    -0.390 OA
ATOM     16  H2  UNL     1       5.138  -2.134  56.099  1.00  0.00     0.210 HD
ENDBRANCH  14  15
ENDBRANCH  13  14
ENDBRANCH   8  13
ENDBRANCH   7   8
ENDBRANCH   1   7
BRANCH   4  17
HETATM   17  N1  UNL     1      13.846  -5.235  55.340  1.00  0.00    -0.073 N 
ATOM     18  H13 UNL     1      14.307  -5.975  55.867  1.00  0.00     0.274 HD
ATOM     19  H12 UNL     1      13.139  -5.809  54.880  1.00  0.00     0.274 HD
ATOM     20  H11 UNL     1      14.472  -4.780  54.675  1.00  0.00     0.274 HD
ENDBRANCH   4  17
TORSDOF 8
ENDMDL
MODEL 3
REMARK VINA RESULT: -4.911146687      2.996      5.771
REMARK  8 active torsions:
REMARK  status: ('A' for Active; 'I' for Inactive)
REMARK    1  A    between atoms: C2_2  and  O1_3 
REMARK    2  A    between atoms: C2_2  and  C3_5 
REMARK    3  A    between atoms: C3_5  and  C4_6 
REMARK    4  A    between atoms: C3_5  and  O3_10 
REMARK    5  A    between atoms: C4_6  and  C5_7 
REMARK    6  A    between atoms: C5_7  and  O2_8 
REMARK    7  A    between atoms: O3_10  and  C6_11 
REMARK    8  A    between atoms: C9_14  and  N1_15 
ROOT
HETATM    1  C6  UNL     1      13.553  -3.771  55.193  1.00  0.00     0.267 C 
HETATM    2  C7  UNL     1      13.372  -2.272  55.658  1.00  0.00     0.063 C 
HETATM    3  C8  UNL     1      11.921  -1.976  55.652  1.00  0.00     0.040 C 
HETATM    4  C9  UNL     1      11.348  -2.787  56.832  1.00  0.00     0.207 C 
HETATM    5  C10 UNL     1      12.099  -4.079  57.012  1.00  0.00     0.203 C 
HETATM    6  O4  UNL     1      12.649  -4.555  55.859  1.00  0.00    -0.359 OA
ENDROOT
BRANCH   1   7
HETATM    7  O3  UNL     1      14.859  -3.982  55.256  1.00  0.00    -0.310 OA
BRANCH   7   8
HETATM    8  C3  UNL     1      15.870  -4.762  54.845  1.00  0.00     0.147 C 
BRANCH   8   9
HETATM    9  C2  UNL     1      15.928  -6.060  55.613  1.00  0.00     0.097 C 
HETATM   10  C1  UNL     1      17.110  -6.680  55.655  1.00  0.00     0.054 C 
BRANCH   9  11
HETATM   11  O1  UNL     1      14.838  -6.569  56.245  1.00  0.00    -0.358 OA
ATOM     12  H1  UNL     1      14.724  -7.504  56.360  1.00  0.00     0.217 HD
ENDBRANCH   9  11
ENDBRANCH   8   9
BRANCH   8  13
HETATM   13  C4  UNL     1      16.658  -4.433  53.957  1.00  0.00    -0.091 C 
BRANCH  13  14
HETATM   14  C5  UNL     1      17.577  -4.048  52.923  1.00  0.00     0.251 C 
BRANCH  14  15
HETATM   15  O2  UNL     1      18.457  -5.151  52.655  1.00  0.00    -0.390 OA
ATOM     16  H2  UNL     1      19.219  -5.077  53.219  1.00  0.00     0.210 HD
ENDBRANCH  14  15
ENDBRANCH  13  14
ENDBRANCH   8  13
ENDBRANCH   7   8
ENDBRANCH   1   7
BRANCH   4  17
HETATM   17  N1  UNL     1       9.958  -3.065  56.568  1.00  0.00    -0.073 N 
ATOM     18  H13 UNL     1       9.354  -2.270  56.774  1.00  0.00     0.274 HD
ATOM     19  H12 UNL     1       9.757  -3.140  55.570  1.00  0.00     0.274 HD
ATOM     20  H11 UNL     1       9.689  -3.903  57.084  1.00  0.00     0.274 HD
ENDBRANCH   4  17
TORSDOF 8
ENDMDL
MODEL 4
REMARK VINA RESULT: -4.831407015      3.090      5.712
REMARK  8 active torsions:
REMARK  status: ('A' for Active; 'I' for Inactive)
REMARK    1  A    between atoms: C2_2  and  O1_3 
REMARK    2  A    between atoms: C2_2  and  C3_5 
REMARK    3  A    between atoms: C3_5  and  C4_6 
REMARK    4  A    between atoms: C3_5  and  O3_10 
REMARK    5  A    between atoms: C4_6  and  C5_7 
REMARK    6  A    between atoms: C5_7  and  O2_8 
REMARK    7  A    between atoms: O3_10  and  C6_11 
REMARK    8  A    between atoms: C9_14  and  N1_15 
ROOT
HETATM    1  C6  UNL     1      13.321  -3.660  55.727  1.00  0.00     0.267 C 
HETATM    2  C7  UNL     1      12.329  -4.488  56.635  1.00  0.00     0.063 C 
HETATM    3  C8  UNL     1      11.451  -3.521  57.333  1.00  0.00     0.040 C 
HETATM    4  C9  UNL     1      10.534  -2.955  56.231  1.00  0.00     0.207 C 
HETATM    5  C10 UNL     1      11.262  -2.869  54.916  1.00  0.00     0.203 C 
HETATM    6  O4  UNL     1      12.609  -2.705  55.049  1.00  0.00    -0.359 OA
ENDROOT
BRANCH   1   7
HETATM    7  O3  UNL     1      14.047  -4.577  55.107  1.00  0.00    -0.310 OA
BRANCH   7   8
HETATM    8  C3  UNL     1      15.254  -4.869  54.600  1.00  0.00     0.147 C 
BRANCH   8   9
HETATM    9  C2  UNL     1      15.963  -5.929  55.408  1.00  0.00     0.097 C 
HETATM   10  C1  UNL     1      17.284  -6.025  55.243  1.00  0.00     0.054 C 
BRANCH   9  11
HETATM   11  O1  UNL     1      15.296  -6.737  56.273  1.00  0.00    -0.358 OA
ATOM     12  H1  UNL     1      14.717  -7.423  55.965  1.00  0.00     0.217 HD
ENDBRANCH   9  11
ENDBRANCH   8   9
BRANCH   8  13
HETATM   13  C4  UNL     1      15.720  -4.314  53.603  1.00  0.00    -0.091 C 
BRANCH  13  14
HETATM   14  C5  UNL     1      16.262  -3.667  52.442  1.00  0.00     0.251 C 
BRANCH  14  15
HETATM   15  O2  UNL     1      17.686  -3.850  52.436  1.00  0.00    -0.390 OA
ATOM     16  H2  UNL     1      18.004  -3.737  51.547  1.00  0.00     0.210 HD
ENDBRANCH  14  15
ENDBRANCH  13  14
ENDBRANCH   8  13
ENDBRANCH   7   8
ENDBRANCH   1   7
BRANCH   4  17
HETATM   17  N1  UNL     1      10.092  -1.641  56.629  1.00  0.00    -0.073 N 
ATOM     18  H13 UNL     1       9.165  -1.653  57.054  1.00  0.00     0.274 HD
ATOM     19  H12 UNL     1      10.610  -1.281  57.430  1.00  0.00     0.274 HD
ATOM     20  H11 UNL     1      10.142  -1.021  55.820  1.00  0.00     0.274 HD
ENDBRANCH   4  17
TORSDOF 8
ENDMDL
MODEL 5
REMARK VINA RESULT: -4.804183712      4.535      6.913
REMARK  8 active torsions:
REMARK  status: ('A' for Active; 'I' for Inactive)
REMARK    1  A    between atoms: C2_2  and  O1_3 
REMARK    2  A    between atoms: C2_2  and  C3_5 
REMARK    3  A    between atoms: C3_5  and  C4_6 
REMARK    4  A    between atoms: C3_5  and  O3_10 
REMARK    5  A    between atoms: C4_6  and  C5_7 
REMARK    6  A    between atoms: C5_7  and  O2_8 
REMARK    7  A    between atoms: O3_10  and  C6_11 
REMARK    8  A    between atoms: C9_14  and  N1_15 
ROOT
HETATM    1  C6  UNL     1       9.701  -2.602  55.329  1.00  0.00     0.267 C 
HETATM    2  C7  UNL     1      10.133  -2.488  56.844  1.00  0.00     0.063 C 
HETATM    3  C8  UNL     1      11.083  -3.590  57.120  1.00  0.00     0.040 C 
HETATM    4  C9  UNL     1      12.365  -3.207  56.354  1.00  0.00     0.207 C 
HETATM    5  C10 UNL     1      12.034  -2.474  55.082  1.00  0.00     0.203 C 
HETATM    6  O4  UNL     1      10.818  -2.807  54.563  1.00  0.00    -0.359 OA
ENDROOT
BRANCH   1   7
HETATM    7  O3  UNL     1       8.888  -1.574  55.138  1.00  0.00    -0.310 OA
BRANCH   7   8
HETATM    8  C3  UNL     1       7.984  -0.763  55.709  1.00  0.00     0.147 C 
BRANCH   8   9
HETATM    9  C2  UNL     1       8.393   0.687  55.619  1.00  0.00     0.097 C 
HETATM   10  C1  UNL     1       7.440   1.559  55.284  1.00  0.00     0.054 C 
BRANCH   9  11
HETATM   11  O1  UNL     1       9.663   1.092  55.882  1.00  0.00    -0.358 OA
ATOM     12  H1  UNL     1      10.363   0.967  55.252  1.00  0.00     0.217 HD
ENDBRANCH   9  11
ENDBRANCH   8   9
BRANCH   8  13
HETATM   13  C4  UNL     1       6.957  -1.174  56.253  1.00  0.00    -0.091 C 
BRANCH  13  14
HETATM   14  C5  UNL     1       5.761  -1.653  56.886  1.00  0.00     0.251 C 
BRANCH  14  15
HETATM   15  O2  UNL     1       5.818  -3.086  56.952  1.00  0.00    -0.390 OA
ATOM     16  H2  UNL     1       5.759  -3.435  56.070  1.00  0.00     0.210 HD
ENDBRANCH  14  15
ENDBRANCH  13  14
ENDBRANCH   8  13
ENDBRANCH   7   8
ENDBRANCH   1   7
BRANCH   4  17
HETATM   17  N1  UNL     1      13.095  -4.412  56.046  1.00  0.00    -0.073 N 
ATOM     18  H13 UNL     1      14.105  -4.274  56.072  1.00  0.00     0.274 HD
ATOM     19  H12 UNL     1      13.029  -5.109  56.788  1.00  0.00     0.274 HD
ATOM     20  H11 UNL     1      12.773  -4.768  55.146  1.00  0.00     0.274 HD
ENDBRANCH   4  17
TORSDOF 8
ENDMDL
