MODEL 1
REMARK VINA RESULT: -4.576742566      0.000      0.000
REMARK  6 active torsions:
REMARK  status: ('A' for Active; 'I' for Inactive)
REMARK    1  A    between atoms: C2_2  and  C3_3 
REMARK    2  A    between atoms: C3_3  and  O1_5 
REMARK    3  A    between atoms: C3_3  and  C5_7 
REMARK    4  A    between atoms: C5_7  and  C6_8 
REMARK    5  A    between atoms: C6_8  and  N1_9 
REMARK    6  A    between atoms: C8_15  and  O3_17 
ROOT
HETATM    1  C5  UNL     1       8.368  -1.075  56.760  1.00  0.00     0.222 C 
HETATM    2  O2  UNL     1       8.907  -1.921  57.698  1.00  0.00    -0.346 OA
HETATM    3  C7  UNL     1       9.984  -2.572  57.090  1.00  0.00     0.239 C 
HETATM    4  C8  UNL     1       9.994  -2.152  55.661  1.00  0.00     0.185 C 
HETATM    5  C9  UNL     1      10.020  -3.372  54.765  1.00  0.00     0.081 C 
HETATM    6  O4  UNL     1       8.793  -1.505  55.502  1.00  0.00    -0.312 OA
ENDROOT
BRANCH   1   7
HETATM    7  C3  UNL     1       6.869  -1.199  56.776  1.00  0.00     0.112 C 
HETATM    8  C4  UNL     1       6.382  -0.476  58.023  1.00  0.00     0.051 C 
BRANCH   7   9
HETATM    9  C2  UNL     1       6.393  -2.618  56.869  1.00  0.00     0.039 C 
HETATM   10  C1  UNL     1       4.966  -2.572  57.416  1.00  0.00     0.008 C 
ENDBRANCH   7   9
BRANCH   7  11
HETATM   11  O1  UNL     1       6.266  -0.551  55.694  1.00  0.00    -0.385 OA
ATOM     12  H1  UNL     1       6.921  -0.281  55.061  1.00  0.00     0.210 HD
ENDBRANCH   7  11
ENDBRANCH   1   7
BRANCH   1  13
HETATM   13  C6  UNL     1       8.863   0.324  56.951  1.00  0.00     0.301 C 
BRANCH  13  14
HETATM   14  N1  UNL     1       8.900   1.107  55.749  1.00  0.00    -0.074 N 
ATOM     15  H13 UNL     1       9.067   0.509  54.940  1.00  0.00     0.274 HD
ATOM     16  H12 UNL     1       7.968   1.454  55.521  1.00  0.00     0.274 HD
ATOM     17  H11 UNL     1       9.572   1.875  55.768  1.00  0.00     0.274 HD
ENDBRANCH  13  14
ENDBRANCH   1  13
BRANCH   4  18
HETATM   18  O3  UNL     1      11.012  -1.305  55.308  1.00  0.00    -0.358 OA
HETATM   19  C10 UNL     1      12.272  -1.827  55.475  1.00  0.00     0.205 C 
ENDBRANCH   4  18
TORSDOF 6
ENDMDL
MODEL 2
REMARK VINA RESULT: -4.264802707      1.076      4.233
REMARK  6 active torsions:
REMARK  status: ('A' for Active; 'I' for Inactive)
REMARK    1  A    between atoms: C2_2  and  C3_3 
REMARK    2  A    between atoms: C3_3  and  O1_5 
REMARK    3  A    between atoms: C3_3  and  C5_7 
REMARK    4  A    between atoms: C5_7  and  C6_8 
REMARK    5  A    between atoms: C6_8  and  N1_9 
REMARK    6  A    between atoms: C8_15  and  O3_17 
ROOT
HETATM    1  C5  UNL     1       9.072  -1.152  56.270  1.00  0.00     0.222 C 
HETATM    2  O2  UNL     1       8.309  -0.965  55.144  1.00  0.00    -0.346 OA
HETATM    3  C7  UNL     1       6.973  -1.130  55.523  1.00  0.00     0.239 C 
HETATM    4  C8  UNL     1       6.977  -1.555  56.950  1.00  0.00     0.185 C 
HETATM    5  C9  UNL     1       6.156  -2.817  57.116  1.00  0.00     0.081 C 
HETATM    6  O4  UNL     1       8.296  -1.844  57.202  1.00  0.00    -0.312 OA
ENDROOT
BRANCH   1   7
HETATM    7  C3  UNL     1      10.244  -2.036  55.942  1.00  0.00     0.112 C 
HETATM    8  C4  UNL     1       9.824  -2.902  54.763  1.00  0.00     0.051 C 
BRANCH   7   9
HETATM    9  C2  UNL     1      10.620  -2.959  57.062  1.00  0.00     0.039 C 
HETATM   10  C1  UNL     1      11.601  -3.980  56.483  1.00  0.00     0.008 C 
ENDBRANCH   7   9
BRANCH   7  11
HETATM   11  O1  UNL     1      11.358  -1.311  55.510  1.00  0.00    -0.385 OA
ATOM     12  H1  UNL     1      11.096  -0.450  55.206  1.00  0.00     0.210 HD
ENDBRANCH   7  11
ENDBRANCH   1   7
BRANCH   1  13
HETATM   13  C6  UNL     1       9.454   0.158  56.884  1.00  0.00     0.301 C 
BRANCH  13  14
HETATM   14  N1  UNL     1       9.655   1.218  55.938  1.00  0.00    -0.074 N 
ATOM     15  H13 UNL     1       9.741   0.841  54.994  1.00  0.00     0.274 HD
ATOM     16  H12 UNL     1       8.800   1.765  55.829  1.00  0.00     0.274 HD
ATOM     17  H11 UNL     1      10.444   1.828  56.151  1.00  0.00     0.274 HD
ENDBRANCH  13  14
ENDBRANCH   1  13
BRANCH   4  18
HETATM   18  O3  UNL     1       6.545  -0.610  57.843  1.00  0.00    -0.358 OA
HETATM   19  C10 UNL     1       5.712   0.343  57.307  1.00  0.00     0.205 C 
ENDBRANCH   4  18
TORSDOF 6
ENDMDL
MODEL 3
REMARK VINA RESULT: -4.157300518      1.879      4.757
REMARK  6 active torsions:
REMARK  status: ('A' for Active; 'I' for Inactive)
REMARK    1  A    between atoms: C2_2  and  C3_3 
REMARK    2  A    between atoms: C3_3  and  O1_5 
REMARK    3  A    between atoms: C3_3  and  C5_7 
REMARK    4  A    between atoms: C5_7  and  C6_8 
REMARK    5  A    between atoms: C6_8  and  N1_9 
REMARK    6  A    between atoms: C8_15  and  O3_17 
ROOT
HETATM    1  C5  UNL     1       6.706  -0.322  56.779  1.00  0.00     0.222 C 
HETATM    2  O2  UNL     1       5.796  -0.324  55.751  1.00  0.00    -0.346 OA
HETATM    3  C7  UNL     1       4.675  -1.029  56.199  1.00  0.00     0.239 C 
HETATM    4  C8  UNL     1       5.012  -1.569  57.545  1.00  0.00     0.185 C 
HETATM    5  C9  UNL     1       4.746  -3.059  57.586  1.00  0.00     0.081 C 
HETATM    6  O4  UNL     1       6.364  -1.353  57.655  1.00  0.00    -0.312 OA
ENDROOT
BRANCH   1   7
HETATM    7  C3  UNL     1       8.072  -0.647  56.241  1.00  0.00     0.112 C 
HETATM    8  C4  UNL     1       7.995  -0.500  54.728  1.00  0.00     0.051 C 
BRANCH   7   9
HETATM    9  C2  UNL     1       8.503  -2.054  56.530  1.00  0.00     0.039 C 
HETATM   10  C1  UNL     1       9.298  -2.532  55.315  1.00  0.00     0.008 C 
ENDBRANCH   7   9
BRANCH   7  11
HETATM   11  O1  UNL     1       9.047   0.259  56.667  1.00  0.00    -0.385 OA
ATOM     12  H1  UNL     1       9.634   0.475  55.952  1.00  0.00     0.210 HD
ENDBRANCH   7  11
ENDBRANCH   1   7
BRANCH   1  13
HETATM   13  C6  UNL     1       6.646   0.961  57.547  1.00  0.00     0.301 C 
BRANCH  13  14
HETATM   14  N1  UNL     1       6.590   2.138  56.728  1.00  0.00    -0.074 N 
ATOM     15  H13 UNL     1       6.543   1.883  55.741  1.00  0.00     0.274 HD
ATOM     16  H12 UNL     1       5.686   2.600  56.831  1.00  0.00     0.274 HD
ATOM     17  H11 UNL     1       7.350   2.799  56.889  1.00  0.00     0.274 HD
ENDBRANCH  13  14
ENDBRANCH   1  13
BRANCH   4  18
HETATM   18  O3  UNL     1       4.373  -0.963  58.596  1.00  0.00    -0.358 OA
HETATM   19  C10 UNL     1       3.175  -0.373  58.270  1.00  0.00     0.205 C 
ENDBRANCH   4  18
TORSDOF 6
ENDMDL
MODEL 4
REMARK VINA RESULT: -4.131179546      1.705      2.042
REMARK  6 active torsions:
REMARK  status: ('A' for Active; 'I' for Inactive)
REMARK    1  A    between atoms: C2_2  and  C3_3 
REMARK    2  A    between atoms: C3_3  and  O1_5 
REMARK    3  A    between atoms: C3_3  and  C5_7 
REMARK    4  A    between atoms: C5_7  and  C6_8 
REMARK    5  A    between atoms: C6_8  and  N1_9 
REMARK    6  A    between atoms: C8_15  and  O3_17 
ROOT
HETATM    1  C5  UNL     1       6.651  -0.528  56.921  1.00  0.00     0.222 C 
HETATM    2  O2  UNL     1       7.535  -0.843  57.924  1.00  0.00    -0.346 OA
HETATM    3  C7  UNL     1       8.785  -1.025  57.325  1.00  0.00     0.239 C 
HETATM    4  C8  UNL     1       8.581  -0.916  55.854  1.00  0.00     0.185 C 
HETATM    5  C9  UNL     1       9.166  -2.128  55.160  1.00  0.00     0.081 C 
HETATM    6  O4  UNL     1       7.215  -0.935  55.711  1.00  0.00    -0.312 OA
ENDROOT
BRANCH   1   7
HETATM    7  C3  UNL     1       5.386  -1.321  57.098  1.00  0.00     0.112 C 
HETATM    8  C4  UNL     1       4.821  -0.948  58.461  1.00  0.00     0.051 C 
BRANCH   7   9
HETATM    9  C2  UNL     1       5.613  -2.804  57.101  1.00  0.00     0.039 C 
HETATM   10  C1  UNL     1       4.446  -3.429  57.865  1.00  0.00     0.008 C 
ENDBRANCH   7   9
BRANCH   7  11
HETATM   11  O1  UNL     1       4.403  -0.979  56.166  1.00  0.00    -0.385 OA
ATOM     12  H1  UNL     1       3.937  -0.199  56.446  1.00  0.00     0.210 HD
ENDBRANCH   7  11
ENDBRANCH   1   7
BRANCH   1  13
HETATM   13  C6  UNL     1       6.434   0.951  56.843  1.00  0.00     0.301 C 
BRANCH  13  14
HETATM   14  N1  UNL     1       6.124   1.434  55.528  1.00  0.00    -0.074 N 
ATOM     15  H13 UNL     1       6.269   2.442  55.476  1.00  0.00     0.274 HD
ATOM     16  H12 UNL     1       6.828   1.122  54.859  1.00  0.00     0.274 HD
ATOM     17  H11 UNL     1       5.189   1.192  55.200  1.00  0.00     0.274 HD
ENDBRANCH  13  14
ENDBRANCH   1  13
BRANCH   4  18
HETATM   18  O3  UNL     1       9.077   0.223  55.277  1.00  0.00    -0.358 OA
HETATM   19  C10 UNL     1      10.069   0.842  56.000  1.00  0.00     0.205 C 
ENDBRANCH   4  18
TORSDOF 6
ENDMDL
MODEL 5
REMARK VINA RESULT: -4.113248621      1.214      1.681
REMARK  6 active torsions:
REMARK  status: ('A' for Active; 'I' for Inactive)
REMARK    1  A    between atoms: C2_2  and  C3_3 
REMARK    2  A    between atoms: C3_3  and  O1_5 
REMARK    3  A    between atoms: C3_3  and  C5_7 
REMARK    4  A    between atoms: C5_7  and  C6_8 
REMARK    5  A    between atoms: C6_8  and  N1_9 
REMARK    6  A    between atoms: C8_15  and  O3_17 
ROOT
HETATM    1  C5  UNL     1       8.513  -0.617  56.546  1.00  0.00     0.222 C 
HETATM    2  O2  UNL     1       8.699  -1.585  57.503  1.00  0.00    -0.346 OA
HETATM    3  C7  UNL     1       9.717  -2.425  57.043  1.00  0.00     0.239 C 
HETATM    4  C8  UNL     1      10.064  -1.972  55.667  1.00  0.00     0.185 C 
HETATM    5  C9  UNL     1      10.008  -3.142  54.708  1.00  0.00     0.081 C 
HETATM    6  O4  UNL     1       9.063  -1.087  55.352  1.00  0.00    -0.312 OA
ENDROOT
BRANCH   1   7
HETATM    7  C3  UNL     1       7.041  -0.430  56.301  1.00  0.00     0.112 C 
HETATM    8  C4  UNL     1       6.357  -1.722  56.722  1.00  0.00     0.051 C 
BRANCH   7   9
HETATM    9  C2  UNL     1       6.707  -0.199  54.857  1.00  0.00     0.039 C 
HETATM   10  C1  UNL     1       6.125   1.211  54.757  1.00  0.00     0.008 C 
ENDBRANCH   7   9
BRANCH   7  11
HETATM   11  O1  UNL     1       6.488   0.577  57.097  1.00  0.00    -0.385 OA
ATOM     12  H1  UNL     1       5.649   0.852  56.748  1.00  0.00     0.210 HD
ENDBRANCH   7  11
ENDBRANCH   1   7
BRANCH   1  13
HETATM   13  C6  UNL     1       9.233   0.643  56.910  1.00  0.00     0.301 C 
BRANCH  13  14
HETATM   14  N1  UNL     1       9.773   1.360  55.791  1.00  0.00    -0.074 N 
ATOM     15  H13 UNL     1      10.544   0.838  55.373  1.00  0.00     0.274 HD
ATOM     16  H12 UNL     1       9.115   1.352  55.011  1.00  0.00     0.274 HD
ATOM     17  H11 UNL     1      10.063   2.315  56.002  1.00  0.00     0.274 HD
ENDBRANCH  13  14
ENDBRANCH   1  13
BRANCH   4  18
HETATM   18  O3  UNL     1      11.275  -1.341  55.547  1.00  0.00    -0.358 OA
HETATM   19  C10 UNL     1      12.362  -2.181  55.598  1.00  0.00     0.205 C 
ENDBRANCH   4  18
TORSDOF 6
ENDMDL
