MODEL 1
REMARK VINA RESULT: -6.974028173      0.000      0.000
REMARK  4 active torsions:
REMARK  status: ('A' for Active; 'I' for Inactive)
REMARK    1  A    between atoms: O1_2  and  C2_3 
REMARK    2  A    between atoms: C4_5  and  C5_6 
REMARK    3  A    between atoms: C11_12  and  O2_13 
REMARK    4  A    between atoms: C12_15  and  O3_16 
ROOT
HETATM    1  C2  UNL     1      11.532  -2.698  54.876  1.00  0.00     0.105 A 
HETATM    2  C3  UNL     1      12.823  -3.121  54.639  1.00  0.00     0.052 A 
HETATM    3  C4  UNL     1      13.367  -4.225  55.261  1.00  0.00    -0.021 A 
HETATM    4  C10 UNL     1      12.567  -4.915  56.148  1.00  0.00     0.052 A 
HETATM    5  C11 UNL     1      11.273  -4.527  56.415  1.00  0.00     0.102 A 
HETATM    6  C12 UNL     1      10.747  -3.417  55.781  1.00  0.00     0.135 A 
ENDROOT
BRANCH   3   7
HETATM    7  C5  UNL     1      14.747  -4.645  54.981  1.00  0.00    -0.029 A 
HETATM    8  C6  UNL     1      15.699  -3.963  54.374  1.00  0.00    -0.011 A 
HETATM    9  C7  UNL     1      16.951  -4.770  54.301  1.00  0.00     0.055 A 
HETATM   10  C8  UNL     1      16.565  -6.028  54.964  1.00  0.00    -0.022 A 
HETATM   11  C9  UNL     1      15.324  -5.936  55.337  1.00  0.00     0.008 A 
ENDBRANCH   3   7
BRANCH   1  12
HETATM   12  O1  UNL     1      10.995  -1.586  54.245  1.00  0.00    -0.353 OA
HETATM   13  C1  UNL     1      11.071  -0.348  54.915  1.00  0.00     0.210 C 
ENDBRANCH   1  12
BRANCH   5  14
HETATM   14  O2  UNL     1      10.486  -5.251  57.324  1.00  0.00    -0.358 OA
ATOM     15  H2  UNL     1       9.994  -4.801  58.001  1.00  0.00     0.217 HD
ENDBRANCH   5  14
BRANCH   6  16
HETATM   16  O3  UNL     1       9.442  -2.987  56.019  1.00  0.00    -0.351 OA
HETATM   17  C13 UNL     1       9.118  -2.206  57.153  1.00  0.00     0.210 C 
ENDBRANCH   6  16
TORSDOF 4
ENDMDL
MODEL 2
REMARK VINA RESULT: -6.740034360      1.760      2.897
REMARK  4 active torsions:
REMARK  status: ('A' for Active; 'I' for Inactive)
REMARK    1  A    between atoms: O1_2  and  C2_3 
REMARK    2  A    between atoms: C4_5  and  C5_6 
REMARK    3  A    between atoms: C11_12  and  O2_13 
REMARK    4  A    between atoms: C12_15  and  O3_16 
ROOT
HETATM    1  C2  UNL     1       9.972  -0.626  55.060  1.00  0.00     0.105 A 
HETATM    2  C3  UNL     1      11.087  -1.429  54.945  1.00  0.00     0.052 A 
HETATM    3  C4  UNL     1      11.170  -2.669  55.543  1.00  0.00    -0.021 A 
HETATM    4  C10 UNL     1      10.085  -3.097  56.277  1.00  0.00     0.052 A 
HETATM    5  C11 UNL     1       8.952  -2.326  56.420  1.00  0.00     0.102 A 
HETATM    6  C12 UNL     1       8.889  -1.086  55.813  1.00  0.00     0.135 A 
ENDROOT
BRANCH   3   7
HETATM    7  C5  UNL     1      12.375  -3.497  55.395  1.00  0.00    -0.029 A 
HETATM    8  C6  UNL     1      13.526  -3.170  54.838  1.00  0.00    -0.011 A 
HETATM    9  C7  UNL     1      14.479  -4.316  54.903  1.00  0.00     0.055 A 
HETATM   10  C8  UNL     1      13.690  -5.355  55.587  1.00  0.00    -0.022 A 
HETATM   11  C9  UNL     1      12.513  -4.874  55.853  1.00  0.00     0.008 A 
ENDBRANCH   3   7
BRANCH   1  12
HETATM   12  O1  UNL     1       9.897   0.620  54.456  1.00  0.00    -0.353 OA
HETATM   13  C1  UNL     1      10.406   1.728  55.163  1.00  0.00     0.210 C 
ENDBRANCH   1  12
BRANCH   5  14
HETATM   14  O2  UNL     1       7.865  -2.792  57.176  1.00  0.00    -0.358 OA
ATOM     15  H2  UNL     1       7.461  -2.235  57.832  1.00  0.00     0.217 HD
ENDBRANCH   5  14
BRANCH   6  16
HETATM   16  O3  UNL     1       7.763  -0.271  55.928  1.00  0.00    -0.351 OA
HETATM   17  C13 UNL     1       6.680  -0.377  55.023  1.00  0.00     0.210 C 
ENDBRANCH   6  16
TORSDOF 4
ENDMDL
MODEL 3
REMARK VINA RESULT: -6.554412615      0.858      2.645
REMARK  4 active torsions:
REMARK  status: ('A' for Active; 'I' for Inactive)
REMARK    1  A    between atoms: O1_2  and  C2_3 
REMARK    2  A    between atoms: C4_5  and  C5_6 
REMARK    3  A    between atoms: C11_12  and  O2_13 
REMARK    4  A    between atoms: C12_15  and  O3_16 
ROOT
HETATM    1  C2  UNL     1      11.484  -4.518  56.281  1.00  0.00     0.105 A 
HETATM    2  C3  UNL     1      12.733  -4.969  55.910  1.00  0.00     0.052 A 
HETATM    3  C4  UNL     1      13.621  -4.190  55.200  1.00  0.00    -0.021 A 
HETATM    4  C10 UNL     1      13.220  -2.915  54.860  1.00  0.00     0.052 A 
HETATM    5  C11 UNL     1      11.981  -2.424  55.210  1.00  0.00     0.102 A 
HETATM    6  C12 UNL     1      11.106  -3.222  55.922  1.00  0.00     0.135 A 
ENDROOT
BRANCH   3   7
HETATM    7  C5  UNL     1      14.944  -4.706  54.824  1.00  0.00    -0.029 A 
HETATM    8  C6  UNL     1      15.803  -4.197  53.960  1.00  0.00    -0.011 A 
HETATM    9  C7  UNL     1      17.027  -5.045  53.883  1.00  0.00     0.055 A 
HETATM   10  C8  UNL     1      16.735  -6.125  54.841  1.00  0.00    -0.022 A 
HETATM   11  C9  UNL     1      15.561  -5.915  55.357  1.00  0.00     0.008 A 
ENDBRANCH   3   7
BRANCH   1  12
HETATM   12  O1  UNL     1      10.597  -5.310  56.995  1.00  0.00    -0.353 OA
HETATM   13  C1  UNL     1      10.832  -5.484  58.374  1.00  0.00     0.210 C 
ENDBRANCH   1  12
BRANCH   5  14
HETATM   14  O2  UNL     1      11.604  -1.121  54.848  1.00  0.00    -0.358 OA
ATOM     15  H2  UNL     1      11.767  -0.392  55.435  1.00  0.00     0.217 HD
ENDBRANCH   5  14
BRANCH   6  16
HETATM   16  O3  UNL     1       9.842  -2.768  56.298  1.00  0.00    -0.351 OA
HETATM   17  C13 UNL     1       8.819  -2.559  55.342  1.00  0.00     0.210 C 
ENDBRANCH   6  16
TORSDOF 4
ENDMDL
MODEL 4
REMARK VINA RESULT: -6.552462792      1.944      3.831
REMARK  4 active torsions:
REMARK  status: ('A' for Active; 'I' for Inactive)
REMARK    1  A    between atoms: O1_2  and  C2_3 
REMARK    2  A    between atoms: C4_5  and  C5_6 
REMARK    3  A    between atoms: C11_12  and  O2_13 
REMARK    4  A    between atoms: C12_15  and  O3_16 
ROOT
HETATM    1  C2  UNL     1       8.900  -1.987  55.345  1.00  0.00     0.105 A 
HETATM    2  C3  UNL     1       9.932  -2.901  55.382  1.00  0.00     0.052 A 
HETATM    3  C4  UNL     1      11.252  -2.534  55.234  1.00  0.00    -0.021 A 
HETATM    4  C10 UNL     1      11.524  -1.195  55.044  1.00  0.00     0.052 A 
HETATM    5  C11 UNL     1      10.525  -0.248  55.000  1.00  0.00     0.102 A 
HETATM    6  C12 UNL     1       9.207  -0.638  55.150  1.00  0.00     0.135 A 
ENDROOT
BRANCH   3   7
HETATM    7  C5  UNL     1      12.324  -3.538  55.280  1.00  0.00    -0.029 A 
HETATM    8  C6  UNL     1      12.274  -4.761  55.774  1.00  0.00    -0.011 A 
HETATM    9  C7  UNL     1      13.593  -5.440  55.614  1.00  0.00     0.055 A 
HETATM   10  C8  UNL     1      14.410  -4.409  54.950  1.00  0.00    -0.022 A 
HETATM   11  C9  UNL     1      13.678  -3.351  54.772  1.00  0.00     0.008 A 
ENDBRANCH   3   7
BRANCH   1  12
HETATM   12  O1  UNL     1       7.575  -2.366  55.494  1.00  0.00    -0.353 OA
HETATM   13  C1  UNL     1       7.073  -2.508  56.803  1.00  0.00     0.210 C 
ENDBRANCH   1  12
BRANCH   5  14
HETATM   14  O2  UNL     1      10.836   1.106  54.805  1.00  0.00    -0.358 OA
ATOM     15  H2  UNL     1      10.170   1.716  54.509  1.00  0.00     0.217 HD
ENDBRANCH   5  14
BRANCH   6  16
HETATM   16  O3  UNL     1       8.162   0.285  55.113  1.00  0.00    -0.351 OA
HETATM   17  C13 UNL     1       7.837   1.076  56.241  1.00  0.00     0.210 C 
ENDBRANCH   6  16
TORSDOF 4
ENDMDL
MODEL 5
REMARK VINA RESULT: -6.439610111      2.322      3.833
REMARK  4 active torsions:
REMARK  status: ('A' for Active; 'I' for Inactive)
REMARK    1  A    between atoms: O1_2  and  C2_3 
REMARK    2  A    between atoms: C4_5  and  C5_6 
REMARK    3  A    between atoms: C11_12  and  O2_13 
REMARK    4  A    between atoms: C12_15  and  O3_16 
ROOT
HETATM    1  C2  UNL     1       9.108  -0.192  55.064  1.00  0.00     0.105 A 
HETATM    2  C3  UNL     1      10.246  -0.971  55.050  1.00  0.00     0.052 A 
HETATM    3  C4  UNL     1      10.240  -2.295  55.434  1.00  0.00    -0.021 A 
HETATM    4  C10 UNL     1       9.039  -2.836  55.842  1.00  0.00     0.052 A 
HETATM    5  C11 UNL     1       7.879  -2.093  55.872  1.00  0.00     0.102 A 
HETATM    6  C12 UNL     1       7.906  -0.767  55.483  1.00  0.00     0.135 A 
ENDROOT
BRANCH   3   7
HETATM    7  C5  UNL     1      11.473  -3.094  55.404  1.00  0.00    -0.029 A 
HETATM    8  C6  UNL     1      12.644  -2.766  54.892  1.00  0.00    -0.011 A 
HETATM    9  C7  UNL     1      13.623  -3.877  55.080  1.00  0.00     0.055 A 
HETATM   10  C8  UNL     1      12.825  -4.896  55.782  1.00  0.00    -0.022 A 
HETATM   11  C9  UNL     1      11.622  -4.436  55.954  1.00  0.00     0.008 A 
ENDBRANCH   3   7
BRANCH   1  12
HETATM   12  O1  UNL     1       9.124   1.140  54.677  1.00  0.00    -0.353 OA
HETATM   13  C1  UNL     1      10.241   1.919  55.039  1.00  0.00     0.210 C 
ENDBRANCH   1  12
BRANCH   5  14
HETATM   14  O2  UNL     1       6.673  -2.674  56.293  1.00  0.00    -0.358 OA
ATOM     15  H2  UNL     1       6.634  -3.170  57.103  1.00  0.00     0.217 HD
ENDBRANCH   5  14
BRANCH   6  16
HETATM   16  O3  UNL     1       6.757   0.024  55.496  1.00  0.00    -0.351 OA
HETATM   17  C13 UNL     1       5.876   0.062  54.390  1.00  0.00     0.210 C 
ENDBRANCH   6  16
TORSDOF 4
ENDMDL
