MODEL 1
REMARK VINA RESULT: -7.629484731      0.000      0.000
REMARK  4 active torsions:
REMARK  status: ('A' for Active; 'I' for Inactive)
REMARK    1  A    between atoms: C2_2  and  O1_3 
REMARK    2  A    between atoms: O1_3  and  C3_4 
REMARK    3  A    between atoms: C8_9  and  O2_10 
REMARK    4  A    between atoms: C10_12  and  O3_13 
ROOT
HETATM    1  C3  UNL     1      15.510  -5.229  55.040  1.00  0.00     0.069 A 
HETATM    2  C4  UNL     1      14.706  -6.174  55.618  1.00  0.00     0.037 A 
HETATM    3  C5  UNL     1      13.352  -5.968  55.907  1.00  0.00     0.015 A 
HETATM    4  C6  UNL     1      12.830  -4.728  55.575  1.00  0.00    -0.023 A 
HETATM    5  C7  UNL     1      11.481  -4.476  55.846  1.00  0.00     0.052 A 
HETATM    6  C8  UNL     1      10.903  -3.262  55.541  1.00  0.00     0.102 A 
HETATM    7  C10 UNL     1      11.664  -2.284  54.962  1.00  0.00     0.099 A 
HETATM    8  C11 UNL     1      13.004  -2.528  54.689  1.00  0.00     0.051 A 
HETATM    9  C12 UNL     1      13.600  -3.749  54.993  1.00  0.00    -0.021 A 
HETATM   10  C13 UNL     1      14.933  -3.987  54.721  1.00  0.00     0.049 A 
ENDROOT
BRANCH   1  11
HETATM   11  O1  UNL     1      16.835  -5.369  54.732  1.00  0.00    -0.351 OA
BRANCH  11  12
HETATM   12  C2  UNL     1      17.443  -4.820  53.599  1.00  0.00     0.171 C 
HETATM   13  C1  UNL     1      18.225  -5.869  52.852  1.00  0.00     0.034 C 
ENDBRANCH  11  12
ENDBRANCH   1  11
BRANCH   7  14
HETATM   14  O3  UNL     1      11.073  -1.062  54.656  1.00  0.00    -0.358 OA
ATOM     15  H3  UNL     1      11.162  -0.342  55.270  1.00  0.00     0.217 HD
ENDBRANCH   7  14
BRANCH   6  16
HETATM   16  O2  UNL     1       9.562  -3.025  55.817  1.00  0.00    -0.353 OA
HETATM   17  C9  UNL     1       9.134  -2.415  57.035  1.00  0.00     0.210 C 
ENDBRANCH   6  16
TORSDOF 4
ENDMDL
MODEL 2
REMARK VINA RESULT: -7.001481791      1.433      2.304
REMARK  4 active torsions:
REMARK  status: ('A' for Active; 'I' for Inactive)
REMARK    1  A    between atoms: C2_2  and  O1_3 
REMARK    2  A    between atoms: O1_3  and  C3_4 
REMARK    3  A    between atoms: C8_9  and  O2_10 
REMARK    4  A    between atoms: C10_12  and  O3_13 
ROOT
HETATM    1  C3  UNL     1      13.548  -4.094  55.222  1.00  0.00     0.069 A 
HETATM    2  C4  UNL     1      12.770  -4.918  55.989  1.00  0.00     0.037 A 
HETATM    3  C5  UNL     1      11.463  -4.605  56.380  1.00  0.00     0.015 A 
HETATM    4  C6  UNL     1      10.961  -3.388  55.947  1.00  0.00    -0.023 A 
HETATM    5  C7  UNL     1       9.660  -3.033  56.314  1.00  0.00     0.052 A 
HETATM    6  C8  UNL     1       9.104  -1.834  55.917  1.00  0.00     0.102 A 
HETATM    7  C10 UNL     1       9.842  -0.977  55.148  1.00  0.00     0.099 A 
HETATM    8  C11 UNL     1      11.135  -1.324  54.779  1.00  0.00     0.051 A 
HETATM    9  C12 UNL     1      11.708  -2.530  55.175  1.00  0.00    -0.021 A 
HETATM   10  C13 UNL     1      12.995  -2.870  54.807  1.00  0.00     0.049 A 
ENDROOT
BRANCH   1  11
HETATM   11  O1  UNL     1      14.829  -4.342  54.807  1.00  0.00    -0.351 OA
BRANCH  11  12
HETATM   12  C2  UNL     1      15.510  -5.542  55.028  1.00  0.00     0.171 C 
HETATM   13  C1  UNL     1      16.934  -5.444  54.546  1.00  0.00     0.034 C 
ENDBRANCH  11  12
ENDBRANCH   1  11
BRANCH   7  14
HETATM   14  O3  UNL     1       9.274   0.229  54.750  1.00  0.00    -0.358 OA
ATOM     15  H3  UNL     1       9.653   0.695  54.014  1.00  0.00     0.217 HD
ENDBRANCH   7  14
BRANCH   6  16
HETATM   16  O2  UNL     1       7.809  -1.494  56.289  1.00  0.00    -0.353 OA
HETATM   17  C9  UNL     1       6.845  -2.478  56.664  1.00  0.00     0.210 C 
ENDBRANCH   6  16
TORSDOF 4
ENDMDL
MODEL 3
REMARK VINA RESULT: -6.839680885      1.097      6.405
REMARK  4 active torsions:
REMARK  status: ('A' for Active; 'I' for Inactive)
REMARK    1  A    between atoms: C2_2  and  O1_3 
REMARK    2  A    between atoms: O1_3  and  C3_4 
REMARK    3  A    between atoms: C8_9  and  O2_10 
REMARK    4  A    between atoms: C10_12  and  O3_13 
ROOT
HETATM    1  C3  UNL     1      10.730  -2.996  56.077  1.00  0.00     0.069 A 
HETATM    2  C4  UNL     1      11.373  -2.120  55.246  1.00  0.00     0.037 A 
HETATM    3  C5  UNL     1      12.621  -2.377  54.666  1.00  0.00     0.015 A 
HETATM    4  C6  UNL     1      13.207  -3.594  54.971  1.00  0.00    -0.023 A 
HETATM    5  C7  UNL     1      14.455  -3.894  54.415  1.00  0.00     0.052 A 
HETATM    6  C8  UNL     1      15.091  -5.088  54.682  1.00  0.00     0.102 A 
HETATM    7  C10 UNL     1      14.489  -5.997  55.507  1.00  0.00     0.099 A 
HETATM    8  C11 UNL     1      13.249  -5.707  56.062  1.00  0.00     0.051 A 
HETATM    9  C12 UNL     1      12.597  -4.504  55.801  1.00  0.00    -0.021 A 
HETATM   10  C13 UNL     1      11.365  -4.219  56.357  1.00  0.00     0.049 A 
ENDROOT
BRANCH   1  11
HETATM   11  O1  UNL     1       9.513  -2.805  56.673  1.00  0.00    -0.351 OA
BRANCH  11  12
HETATM   12  C2  UNL     1       8.516  -1.962  56.175  1.00  0.00     0.171 C 
HETATM   13  C1  UNL     1       7.164  -2.360  56.711  1.00  0.00     0.034 C 
ENDBRANCH  11  12
ENDBRANCH   1  11
BRANCH   7  14
HETATM   14  O3  UNL     1      15.136  -7.201  55.770  1.00  0.00    -0.358 OA
ATOM     15  H3  UNL     1      15.184  -7.857  55.084  1.00  0.00     0.217 HD
ENDBRANCH   7  14
BRANCH   6  16
HETATM   16  O2  UNL     1      16.331  -5.372  54.122  1.00  0.00    -0.353 OA
HETATM   17  C9  UNL     1      17.369  -4.396  54.045  1.00  0.00     0.210 C 
ENDBRANCH   6  16
TORSDOF 4
ENDMDL
MODEL 4
REMARK VINA RESULT: -6.619189533      2.265      3.716
REMARK  4 active torsions:
REMARK  status: ('A' for Active; 'I' for Inactive)
REMARK    1  A    between atoms: C2_2  and  O1_3 
REMARK    2  A    between atoms: O1_3  and  C3_4 
REMARK    3  A    between atoms: C8_9  and  O2_10 
REMARK    4  A    between atoms: C10_12  and  O3_13 
ROOT
HETATM    1  C3  UNL     1      12.408  -3.116  55.269  1.00  0.00     0.069 A 
HETATM    2  C4  UNL     1      11.990  -3.718  56.425  1.00  0.00     0.037 A 
HETATM    3  C5  UNL     1      10.701  -3.570  56.952  1.00  0.00     0.015 A 
HETATM    4  C6  UNL     1       9.828  -2.764  56.238  1.00  0.00    -0.023 A 
HETATM    5  C7  UNL     1       8.531  -2.586  56.728  1.00  0.00     0.052 A 
HETATM    6  C8  UNL     1       7.616  -1.795  56.064  1.00  0.00     0.102 A 
HETATM    7  C10 UNL     1       7.986  -1.172  54.904  1.00  0.00     0.099 A 
HETATM    8  C11 UNL     1       9.274  -1.345  54.413  1.00  0.00     0.051 A 
HETATM    9  C12 UNL     1      10.207  -2.140  55.073  1.00  0.00    -0.021 A 
HETATM   10  C13 UNL     1      11.486  -2.308  54.581  1.00  0.00     0.049 A 
ENDROOT
BRANCH   1  11
HETATM   11  O1  UNL     1      13.649  -3.221  54.703  1.00  0.00    -0.351 OA
BRANCH  11  12
HETATM   12  C2  UNL     1      14.550  -4.256  54.967  1.00  0.00     0.171 C 
HETATM   13  C1  UNL     1      15.138  -4.792  53.688  1.00  0.00     0.034 C 
ENDBRANCH  11  12
ENDBRANCH   1  11
BRANCH   7  14
HETATM   14  O3  UNL     1       7.057  -0.377  54.241  1.00  0.00    -0.358 OA
ATOM     15  H3  UNL     1       6.634   0.329  54.715  1.00  0.00     0.217 HD
ENDBRANCH   7  14
BRANCH   6  16
HETATM   16  O2  UNL     1       6.329  -1.627  56.562  1.00  0.00    -0.353 OA
HETATM   17  C9  UNL     1       5.435  -2.726  56.739  1.00  0.00     0.210 C 
ENDBRANCH   6  16
TORSDOF 4
ENDMDL
MODEL 5
REMARK VINA RESULT: -6.454624240      1.507      6.095
REMARK  4 active torsions:
REMARK  status: ('A' for Active; 'I' for Inactive)
REMARK    1  A    between atoms: C2_2  and  O1_3 
REMARK    2  A    between atoms: O1_3  and  C3_4 
REMARK    3  A    between atoms: C8_9  and  O2_10 
REMARK    4  A    between atoms: C10_12  and  O3_13 
ROOT
HETATM    1  C3  UNL     1      12.732  -4.702  55.536  1.00  0.00     0.069 A 
HETATM    2  C4  UNL     1      13.316  -5.788  56.129  1.00  0.00     0.037 A 
HETATM    3  C5  UNL     1      14.605  -6.238  55.821  1.00  0.00     0.015 A 
HETATM    4  C6  UNL     1      15.299  -5.521  54.860  1.00  0.00    -0.023 A 
HETATM    5  C7  UNL     1      16.590  -5.935  54.519  1.00  0.00     0.052 A 
HETATM    6  C8  UNL     1      17.332  -5.264  53.568  1.00  0.00     0.102 A 
HETATM    7  C10 UNL     1      16.792  -4.172  52.947  1.00  0.00     0.099 A 
HETATM    8  C11 UNL     1      15.510  -3.755  53.281  1.00  0.00     0.051 A 
HETATM    9  C12 UNL     1      14.751  -4.424  54.238  1.00  0.00    -0.021 A 
HETATM   10  C13 UNL     1      13.476  -4.006  54.567  1.00  0.00     0.049 A 
ENDROOT
BRANCH   1  11
HETATM   11  O1  UNL     1      11.480  -4.212  55.792  1.00  0.00    -0.351 OA
BRANCH  11  12
HETATM   12  C2  UNL     1      11.058  -2.920  55.467  1.00  0.00     0.171 C 
HETATM   13  C1  UNL     1       9.830  -2.964  54.595  1.00  0.00     0.034 C 
ENDBRANCH  11  12
ENDBRANCH   1  11
BRANCH   7  14
HETATM   14  O3  UNL     1      17.546  -3.500  51.990  1.00  0.00    -0.358 OA
ATOM     15  H3  UNL     1      17.118  -3.196  51.198  1.00  0.00     0.217 HD
ENDBRANCH   7  14
BRANCH   6  16
HETATM   16  O2  UNL     1      18.614  -5.687  53.239  1.00  0.00    -0.353 OA
HETATM   17  C9  UNL     1      18.881  -6.454  52.065  1.00  0.00     0.210 C 
ENDBRANCH   6  16
TORSDOF 4
ENDMDL
