MODEL 1
REMARK VINA RESULT: -6.997795446      0.000      0.000
REMARK  3 active torsions:
REMARK  status: ('A' for Active; 'I' for Inactive)
REMARK    1  A    between atoms: O1_2  and  C2_3 
REMARK    2  A    between atoms: C8_9  and  C9_10 
REMARK    3  A    between atoms: C12_14  and  O3_15 
ROOT
HETATM    1  C2  UNL     1      12.430  -4.647  55.791  1.00  0.00     0.079 A 
HETATM    2  C3  UNL     1      13.573  -5.465  55.785  1.00  0.00     0.044 A 
HETATM    3  C4  UNL     1      14.717  -5.148  55.104  1.00  0.00    -0.059 A 
HETATM    4  C5  UNL     1      15.908  -6.034  55.120  1.00  0.00     0.048 C 
HETATM    5  C6  UNL     1      14.690  -3.966  54.412  1.00  0.00     0.008 A 
HETATM    6  C7  UNL     1      13.580  -3.154  54.405  1.00  0.00     0.015 A 
HETATM    7  C8  UNL     1      12.399  -3.473  55.102  1.00  0.00     0.007 A 
ENDROOT
BRANCH   7   8
HETATM    8  C9  UNL     1      11.244  -2.574  54.981  1.00  0.00    -0.020 A 
HETATM    9  C10 UNL     1      10.021  -2.991  54.857  1.00  0.00     0.012 A 
HETATM   10  C11 UNL     1       8.803  -2.095  54.733  1.00  0.00     0.206 A 
HETATM   11  O2  UNL     1       9.130  -0.750  54.820  1.00  0.00    -0.327 OA
HETATM   12  C12 UNL     1      10.409  -0.307  54.951  1.00  0.00     0.179 A 
HETATM   13  C13 UNL     1      11.451  -1.119  55.032  1.00  0.00     0.075 A 
BRANCH  12  14
HETATM   14  O3  UNL     1      10.636   1.085  55.003  1.00  0.00    -0.341 OA
ATOM     15  H3  UNL     1      11.185   1.479  54.335  1.00  0.00     0.220 HD
ENDBRANCH  12  14
ENDBRANCH   7   8
BRANCH   1  16
HETATM   16  O1  UNL     1      11.332  -5.074  56.526  1.00  0.00    -0.355 OA
HETATM   17  C1  UNL     1      11.134  -4.728  57.872  1.00  0.00     0.210 C 
ENDBRANCH   1  16
TORSDOF 3
ENDMDL
MODEL 2
REMARK VINA RESULT: -6.916285619      2.157      3.790
REMARK  3 active torsions:
REMARK  status: ('A' for Active; 'I' for Inactive)
REMARK    1  A    between atoms: O1_2  and  C2_3 
REMARK    2  A    between atoms: C8_9  and  C9_10 
REMARK    3  A    between atoms: C12_14  and  O3_15 
ROOT
HETATM    1  C2  UNL     1      15.155  -4.313  53.380  1.00  0.00     0.079 A 
HETATM    2  C3  UNL     1      16.421  -4.737  52.943  1.00  0.00     0.044 A 
HETATM    3  C4  UNL     1      17.226  -5.569  53.674  1.00  0.00    -0.059 A 
HETATM    4  C5  UNL     1      18.559  -5.999  53.182  1.00  0.00     0.048 C 
HETATM    5  C6  UNL     1      16.722  -5.974  54.881  1.00  0.00     0.008 A 
HETATM    6  C7  UNL     1      15.485  -5.568  55.327  1.00  0.00     0.015 A 
HETATM    7  C8  UNL     1      14.651  -4.713  54.581  1.00  0.00     0.007 A 
ENDROOT
BRANCH   7   8
HETATM    8  C9  UNL     1      13.377  -4.282  55.169  1.00  0.00    -0.020 A 
HETATM    9  C10 UNL     1      12.686  -5.008  55.994  1.00  0.00     0.012 A 
HETATM   10  C11 UNL     1      11.370  -4.596  56.625  1.00  0.00     0.206 A 
HETATM   11  O2  UNL     1      10.993  -3.311  56.263  1.00  0.00    -0.327 OA
HETATM   12  C12 UNL     1      11.713  -2.546  55.400  1.00  0.00     0.179 A 
HETATM   13  C13 UNL     1      12.848  -2.947  54.849  1.00  0.00     0.075 A 
BRANCH  12  14
HETATM   14  O3  UNL     1      11.228  -1.261  55.077  1.00  0.00    -0.341 OA
ATOM     15  H3  UNL     1      11.241  -0.988  54.166  1.00  0.00     0.220 HD
ENDBRANCH  12  14
ENDBRANCH   7   8
BRANCH   1  16
HETATM   16  O1  UNL     1      14.429  -3.474  52.545  1.00  0.00    -0.355 OA
HETATM   17  C1  UNL     1      14.918  -3.019  51.309  1.00  0.00     0.210 C 
ENDBRANCH   1  16
TORSDOF 3
ENDMDL
MODEL 3
REMARK VINA RESULT: -6.836788444      2.704      4.687
REMARK  3 active torsions:
REMARK  status: ('A' for Active; 'I' for Inactive)
REMARK    1  A    between atoms: O1_2  and  C2_3 
REMARK    2  A    between atoms: C8_9  and  C9_10 
REMARK    3  A    between atoms: C12_14  and  O3_15 
ROOT
HETATM    1  C2  UNL     1      10.131  -1.494  55.263  1.00  0.00     0.079 A 
HETATM    2  C3  UNL     1      11.430  -1.848  54.860  1.00  0.00     0.044 A 
HETATM    3  C4  UNL     1      12.111  -2.916  55.378  1.00  0.00    -0.059 A 
HETATM    4  C5  UNL     1      13.483  -3.263  54.929  1.00  0.00     0.048 C 
HETATM    5  C6  UNL     1      11.445  -3.639  56.332  1.00  0.00     0.008 A 
HETATM    6  C7  UNL     1      10.174  -3.308  56.740  1.00  0.00     0.015 A 
HETATM    7  C8  UNL     1       9.468  -2.210  56.212  1.00  0.00     0.007 A 
ENDROOT
BRANCH   7   8
HETATM    8  C9  UNL     1       8.142  -1.897  56.759  1.00  0.00    -0.020 A 
HETATM    9  C10 UNL     1       7.919  -0.925  57.591  1.00  0.00     0.012 A 
HETATM   10  C11 UNL     1       6.565  -0.569  58.173  1.00  0.00     0.206 A 
HETATM   11  O2  UNL     1       5.551  -1.373  57.674  1.00  0.00    -0.327 OA
HETATM   12  C12 UNL     1       5.777  -2.391  56.802  1.00  0.00     0.179 A 
HETATM   13  C13 UNL     1       6.978  -2.689  56.332  1.00  0.00     0.075 A 
BRANCH  12  14
HETATM   14  O3  UNL     1       4.678  -3.167  56.375  1.00  0.00    -0.341 OA
ATOM     15  H3  UNL     1       4.844  -4.042  56.043  1.00  0.00     0.220 HD
ENDBRANCH  12  14
ENDBRANCH   7   8
BRANCH   1  16
HETATM   16  O1  UNL     1       9.544  -0.392  54.658  1.00  0.00    -0.355 OA
HETATM   17  C1  UNL     1       9.842   0.930  55.026  1.00  0.00     0.210 C 
ENDBRANCH   1  16
TORSDOF 3
ENDMDL
MODEL 4
REMARK VINA RESULT: -6.654093818      2.258      5.282
REMARK  3 active torsions:
REMARK  status: ('A' for Active; 'I' for Inactive)
REMARK    1  A    between atoms: O1_2  and  C2_3 
REMARK    2  A    between atoms: C8_9  and  C9_10 
REMARK    3  A    between atoms: C12_14  and  O3_15 
ROOT
HETATM    1  C2  UNL     1      11.343  -3.790  56.160  1.00  0.00     0.079 A 
HETATM    2  C3  UNL     1      10.243  -2.917  56.121  1.00  0.00     0.044 A 
HETATM    3  C4  UNL     1      10.105  -1.926  55.186  1.00  0.00    -0.059 A 
HETATM    4  C5  UNL     1       8.930  -1.020  55.173  1.00  0.00     0.048 C 
HETATM    5  C6  UNL     1      11.119  -1.828  54.270  1.00  0.00     0.008 A 
HETATM    6  C7  UNL     1      12.204  -2.673  54.293  1.00  0.00     0.015 A 
HETATM    7  C8  UNL     1      12.353  -3.694  55.251  1.00  0.00     0.007 A 
ENDROOT
BRANCH   7   8
HETATM    8  C9  UNL     1      13.578  -4.503  55.235  1.00  0.00    -0.020 A 
HETATM    9  C10 UNL     1      13.637  -5.726  55.668  1.00  0.00     0.012 A 
HETATM   10  C11 UNL     1      14.881  -6.593  55.664  1.00  0.00     0.206 A 
HETATM   11  O2  UNL     1      15.966  -5.951  55.085  1.00  0.00    -0.327 OA
HETATM   12  C12 UNL     1      15.911  -4.673  54.628  1.00  0.00     0.179 A 
HETATM   13  C13 UNL     1      14.812  -3.935  54.670  1.00  0.00     0.075 A 
BRANCH  12  14
HETATM   14  O3  UNL     1      17.080  -4.103  54.081  1.00  0.00    -0.341 OA
ATOM     15  H3  UNL     1      17.122  -3.970  53.141  1.00  0.00     0.220 HD
ENDBRANCH  12  14
ENDBRANCH   7   8
BRANCH   1  16
HETATM   16  O1  UNL     1      11.365  -4.760  57.154  1.00  0.00    -0.355 OA
HETATM   17  C1  UNL     1      11.623  -4.465  58.502  1.00  0.00     0.210 C 
ENDBRANCH   1  16
TORSDOF 3
ENDMDL
MODEL 5
REMARK VINA RESULT: -6.580856092      2.820      4.728
REMARK  3 active torsions:
REMARK  status: ('A' for Active; 'I' for Inactive)
REMARK    1  A    between atoms: O1_2  and  C2_3 
REMARK    2  A    between atoms: C8_9  and  C9_10 
REMARK    3  A    between atoms: C12_14  and  O3_15 
ROOT
HETATM    1  C2  UNL     1       9.657  -1.430  55.190  1.00  0.00     0.079 A 
HETATM    2  C3  UNL     1      10.996  -1.685  54.851  1.00  0.00     0.044 A 
HETATM    3  C4  UNL     1      11.743  -2.670  55.437  1.00  0.00    -0.059 A 
HETATM    4  C5  UNL     1      13.157  -2.913  55.055  1.00  0.00     0.048 C 
HETATM    5  C6  UNL     1      11.103  -3.411  56.395  1.00  0.00     0.008 A 
HETATM    6  C7  UNL     1       9.793  -3.176  56.741  1.00  0.00     0.015 A 
HETATM    7  C8  UNL     1       9.018  -2.164  56.142  1.00  0.00     0.007 A 
ENDROOT
BRANCH   7   8
HETATM    8  C9  UNL     1       7.649  -1.947  56.625  1.00  0.00    -0.020 A 
HETATM    9  C10 UNL     1       6.687  -2.804  56.467  1.00  0.00     0.012 A 
HETATM   10  C11 UNL     1       5.264  -2.617  56.955  1.00  0.00     0.206 A 
HETATM   11  O2  UNL     1       5.099  -1.429  57.652  1.00  0.00    -0.327 OA
HETATM   12  C12 UNL     1       6.102  -0.528  57.823  1.00  0.00     0.179 A 
HETATM   13  C13 UNL     1       7.329  -0.714  57.362  1.00  0.00     0.075 A 
BRANCH  12  14
HETATM   14  O3  UNL     1       5.823   0.663  58.526  1.00  0.00    -0.341 OA
ATOM     15  H3  UNL     1       4.933   0.997  58.515  1.00  0.00     0.220 HD
ENDBRANCH  12  14
ENDBRANCH   7   8
BRANCH   1  16
HETATM   16  O1  UNL     1       9.003  -0.406  54.518  1.00  0.00    -0.355 OA
HETATM   17  C1  UNL     1       9.156   0.948  54.855  1.00  0.00     0.210 C 
ENDBRANCH   1  16
TORSDOF 3
ENDMDL
