MODEL 1
REMARK VINA RESULT: -6.781039368      0.000      0.000
REMARK  4 active torsions:
REMARK  status: ('A' for Active; 'I' for Inactive)
REMARK    1  A    between atoms: O1_2  and  C2_3 
REMARK    2  A    between atoms: C6_7  and  O2_8 
REMARK    3  A    between atoms: C11_14  and  C12_15 
REMARK    4  A    between atoms: C12_15  and  O3_17 
ROOT
HETATM    1  C2  UNL     1       9.888  -0.899  55.098  1.00  0.00     0.077 A 
HETATM    2  C3  UNL     1      11.189  -1.228  54.790  1.00  0.00     0.049 A 
HETATM    3  C4  UNL     1      11.723  -2.463  55.161  1.00  0.00    -0.021 A 
HETATM    4  C5  UNL     1      13.034  -2.812  54.855  1.00  0.00     0.049 A 
HETATM    5  C6  UNL     1      13.510  -4.044  55.243  1.00  0.00     0.066 A 
HETATM    6  C7  UNL     1      12.696  -4.919  55.926  1.00  0.00     0.037 A 
HETATM    7  C8  UNL     1      11.414  -4.577  56.225  1.00  0.00     0.015 A 
HETATM    8  C9  UNL     1      10.930  -3.359  55.846  1.00  0.00    -0.025 A 
HETATM    9  C10 UNL     1       9.609  -2.998  56.147  1.00  0.00     0.025 A 
HETATM   10  C11 UNL     1       9.078  -1.803  55.792  1.00  0.00     0.004 A 
ENDROOT
BRANCH  10  11
HETATM   11  C12 UNL     1       7.689  -1.412  56.085  1.00  0.00     0.150 C 
HETATM   12  C13 UNL     1       6.872  -2.505  56.717  1.00  0.00     0.044 C 
BRANCH  11  13
HETATM   13  O3  UNL     1       7.064  -1.135  54.834  1.00  0.00    -0.391 OA
ATOM     14  H3  UNL     1       6.257  -0.671  55.025  1.00  0.00     0.210 HD
ENDBRANCH  11  13
ENDBRANCH  10  11
BRANCH   1  15
HETATM   15  O1  UNL     1       9.349   0.315  54.739  1.00  0.00    -0.355 OA
HETATM   16  C1  UNL     1       9.896   1.538  55.163  1.00  0.00     0.210 C 
ENDBRANCH   1  15
BRANCH   5  17
HETATM   17  O2  UNL     1      14.808  -4.399  54.940  1.00  0.00    -0.361 OA
ATOM     18  H2  UNL     1      14.970  -5.131  54.357  1.00  0.00     0.217 HD
ENDBRANCH   5  17
TORSDOF 4
ENDMDL
MODEL 2
REMARK VINA RESULT: -6.539734671      2.778      4.227
REMARK  4 active torsions:
REMARK  status: ('A' for Active; 'I' for Inactive)
REMARK    1  A    between atoms: O1_2  and  C2_3 
REMARK    2  A    between atoms: C6_7  and  O2_8 
REMARK    3  A    between atoms: C11_14  and  C12_15 
REMARK    4  A    between atoms: C12_15  and  O3_17 
ROOT
HETATM    1  C2  UNL     1      12.837  -3.224  55.160  1.00  0.00     0.077 A 
HETATM    2  C3  UNL     1      14.062  -3.181  54.534  1.00  0.00     0.049 A 
HETATM    3  C4  UNL     1      14.950  -4.255  54.624  1.00  0.00    -0.021 A 
HETATM    4  C5  UNL     1      16.191  -4.231  53.996  1.00  0.00     0.049 A 
HETATM    5  C6  UNL     1      17.027  -5.318  54.115  1.00  0.00     0.066 A 
HETATM    6  C7  UNL     1      16.638  -6.416  54.847  1.00  0.00     0.037 A 
HETATM    7  C8  UNL     1      15.424  -6.440  55.461  1.00  0.00     0.015 A 
HETATM    8  C9  UNL     1      14.586  -5.369  55.351  1.00  0.00    -0.025 A 
HETATM    9  C10 UNL     1      13.331  -5.385  55.977  1.00  0.00     0.025 A 
HETATM   10  C11 UNL     1      12.461  -4.350  55.897  1.00  0.00     0.004 A 
ENDROOT
BRANCH  10  11
HETATM   11  C12 UNL     1      11.133  -4.355  56.535  1.00  0.00     0.150 C 
HETATM   12  C13 UNL     1      11.089  -3.624  57.848  1.00  0.00     0.044 C 
BRANCH  11  13
HETATM   13  O3  UNL     1      10.823  -5.713  56.837  1.00  0.00    -0.391 OA
ATOM     14  H3  UNL     1      11.115  -5.872  57.727  1.00  0.00     0.210 HD
ENDBRANCH  11  13
ENDBRANCH  10  11
BRANCH   1  15
HETATM   15  O1  UNL     1      11.953  -2.172  55.080  1.00  0.00    -0.355 OA
HETATM   16  C1  UNL     1      10.967  -2.090  54.081  1.00  0.00     0.210 C 
ENDBRANCH   1  15
BRANCH   5  17
HETATM   17  O2  UNL     1      18.258  -5.301  53.492  1.00  0.00    -0.361 OA
ATOM     18  H2  UNL     1      18.374  -5.764  52.671  1.00  0.00     0.217 HD
ENDBRANCH   5  17
TORSDOF 4
ENDMDL
MODEL 3
REMARK VINA RESULT: -6.485790138      1.072      1.114
REMARK  4 active torsions:
REMARK  status: ('A' for Active; 'I' for Inactive)
REMARK    1  A    between atoms: O1_2  and  C2_3 
REMARK    2  A    between atoms: C6_7  and  O2_8 
REMARK    3  A    between atoms: C11_14  and  C12_15 
REMARK    4  A    between atoms: C12_15  and  O3_17 
ROOT
HETATM    1  C2  UNL     1      10.082  -1.523  55.464  1.00  0.00     0.077 A 
HETATM    2  C3  UNL     1      11.315  -1.702  54.880  1.00  0.00     0.049 A 
HETATM    3  C4  UNL     1      12.075  -2.843  55.148  1.00  0.00    -0.021 A 
HETATM    4  C5  UNL     1      13.322  -3.042  54.566  1.00  0.00     0.049 A 
HETATM    5  C6  UNL     1      14.029  -4.185  54.863  1.00  0.00     0.066 A 
HETATM    6  C7  UNL     1      13.505  -5.120  55.727  1.00  0.00     0.037 A 
HETATM    7  C8  UNL     1      12.286  -4.925  56.296  1.00  0.00     0.015 A 
HETATM    8  C9  UNL     1      11.575  -3.796  56.010  1.00  0.00    -0.025 A 
HETATM    9  C10 UNL     1      10.315  -3.587  56.590  1.00  0.00     0.025 A 
HETATM   10  C11 UNL     1       9.568  -2.486  56.338  1.00  0.00     0.004 A 
ENDROOT
BRANCH  10  11
HETATM   11  C12 UNL     1       8.237  -2.256  56.925  1.00  0.00     0.150 C 
HETATM   12  C13 UNL     1       7.146  -2.084  55.904  1.00  0.00     0.044 C 
BRANCH  11  13
HETATM   13  O3  UNL     1       8.304  -1.019  57.632  1.00  0.00    -0.391 OA
ATOM     14  H3  UNL     1       7.409  -0.752  57.806  1.00  0.00     0.210 HD
ENDBRANCH  11  13
ENDBRANCH  10  11
BRANCH   1  15
HETATM   15  O1  UNL     1       9.322  -0.403  55.210  1.00  0.00    -0.355 OA
HETATM   16  C1  UNL     1       9.883   0.882  55.114  1.00  0.00     0.210 C 
ENDBRANCH   1  15
BRANCH   5  17
HETATM   17  O2  UNL     1      15.265  -4.391  54.286  1.00  0.00    -0.361 OA
ATOM     18  H2  UNL     1      15.583  -5.277  54.163  1.00  0.00     0.217 HD
ENDBRANCH   5  17
TORSDOF 4
ENDMDL
MODEL 4
REMARK VINA RESULT: -6.216295496      2.386      4.372
REMARK  4 active torsions:
REMARK  status: ('A' for Active; 'I' for Inactive)
REMARK    1  A    between atoms: O1_2  and  C2_3 
REMARK    2  A    between atoms: C6_7  and  O2_8 
REMARK    3  A    between atoms: C11_14  and  C12_15 
REMARK    4  A    between atoms: C12_15  and  O3_17 
ROOT
HETATM    1  C2  UNL     1      11.892  -4.536  56.161  1.00  0.00     0.077 A 
HETATM    2  C3  UNL     1      12.938  -5.430  56.203  1.00  0.00     0.049 A 
HETATM    3  C4  UNL     1      14.110  -5.197  55.481  1.00  0.00    -0.021 A 
HETATM    4  C5  UNL     1      15.177  -6.088  55.514  1.00  0.00     0.049 A 
HETATM    5  C6  UNL     1      16.311  -5.808  54.786  1.00  0.00     0.066 A 
HETATM    6  C7  UNL     1      16.386  -4.658  54.033  1.00  0.00     0.037 A 
HETATM    7  C8  UNL     1      15.342  -3.787  54.001  1.00  0.00     0.015 A 
HETATM    8  C9  UNL     1      14.213  -4.052  54.719  1.00  0.00    -0.025 A 
HETATM    9  C10 UNL     1      13.132  -3.159  54.695  1.00  0.00     0.025 A 
HETATM   10  C11 UNL     1      11.990  -3.373  55.391  1.00  0.00     0.004 A 
ENDROOT
BRANCH  10  11
HETATM   11  C12 UNL     1      10.851  -2.439  55.390  1.00  0.00     0.150 C 
HETATM   12  C13 UNL     1       9.783  -2.787  54.391  1.00  0.00     0.044 C 
BRANCH  11  13
HETATM   13  O3  UNL     1      11.358  -1.168  54.991  1.00  0.00    -0.391 OA
ATOM     14  H3  UNL     1      10.633  -0.555  55.036  1.00  0.00     0.210 HD
ENDBRANCH  11  13
ENDBRANCH  10  11
BRANCH   1  15
HETATM   15  O1  UNL     1      10.731  -4.754  56.866  1.00  0.00    -0.355 OA
HETATM   16  C1  UNL     1      10.658  -5.664  57.936  1.00  0.00     0.210 C 
ENDBRANCH   1  15
BRANCH   5  17
HETATM   17  O2  UNL     1      17.374  -6.686  54.816  1.00  0.00    -0.361 OA
ATOM     18  H2  UNL     1      17.987  -6.706  54.091  1.00  0.00     0.217 HD
ENDBRANCH   5  17
TORSDOF 4
ENDMDL
MODEL 5
REMARK VINA RESULT: -6.169979027      1.105      2.810
REMARK  4 active torsions:
REMARK  status: ('A' for Active; 'I' for Inactive)
REMARK    1  A    between atoms: O1_2  and  C2_3 
REMARK    2  A    between atoms: C6_7  and  O2_8 
REMARK    3  A    between atoms: C11_14  and  C12_15 
REMARK    4  A    between atoms: C12_15  and  O3_17 
ROOT
HETATM    1  C2  UNL     1       9.073  -2.069  56.370  1.00  0.00     0.077 A 
HETATM    2  C3  UNL     1       9.791  -3.231  56.545  1.00  0.00     0.049 A 
HETATM    3  C4  UNL     1      11.056  -3.385  55.975  1.00  0.00    -0.021 A 
HETATM    4  C5  UNL     1      11.795  -4.551  56.143  1.00  0.00     0.049 A 
HETATM    5  C6  UNL     1      13.038  -4.649  55.561  1.00  0.00     0.066 A 
HETATM    6  C7  UNL     1      13.543  -3.605  54.820  1.00  0.00     0.037 A 
HETATM    7  C8  UNL     1      12.819  -2.465  54.656  1.00  0.00     0.015 A 
HETATM    8  C9  UNL     1      11.586  -2.354  55.228  1.00  0.00    -0.025 A 
HETATM    9  C10 UNL     1      10.833  -1.182  55.067  1.00  0.00     0.025 A 
HETATM   10  C11 UNL     1       9.605  -1.020  55.616  1.00  0.00     0.004 A 
ENDROOT
BRANCH  10  11
HETATM   11  C12 UNL     1       8.807   0.210  55.471  1.00  0.00     0.150 C 
HETATM   12  C13 UNL     1       9.535   1.327  54.777  1.00  0.00     0.044 C 
BRANCH  11  13
HETATM   13  O3  UNL     1       8.533   0.683  56.788  1.00  0.00    -0.391 OA
ATOM     14  H3  UNL     1       8.898   1.559  56.847  1.00  0.00     0.210 HD
ENDBRANCH  11  13
ENDBRANCH  10  11
BRANCH   1  15
HETATM   15  O1  UNL     1       7.825  -1.904  56.926  1.00  0.00    -0.355 OA
HETATM   16  C1  UNL     1       6.687  -2.566  56.433  1.00  0.00     0.210 C 
ENDBRANCH   1  15
BRANCH   5  17
HETATM   17  O2  UNL     1      13.778  -5.802  55.726  1.00  0.00    -0.361 OA
ATOM     18  H2  UNL     1      14.715  -5.740  55.870  1.00  0.00     0.217 HD
ENDBRANCH   5  17
TORSDOF 4
ENDMDL
