MODEL 1
REMARK VINA RESULT: -6.076043006      0.000      0.000
REMARK  10 active torsions:
REMARK  status: ('A' for Active; 'I' for Inactive)
REMARK    1  A    between atoms: C2_2  and  C3_3 
REMARK    2  A    between atoms: C3_3  and  C4_4 
REMARK    3  A    between atoms: C4_4  and  N1_5 
REMARK    4  A    between atoms: C7_8  and  N2_9 
REMARK       I    between atoms: N2_9  and  C8_11 
REMARK       I    between atoms: C8_11  and  N3_13 
REMARK    5  A    between atoms: C11_16  and  C12_17 
REMARK    6  A    between atoms: C11_16  and  S1_24 
REMARK    7  A    between atoms: C12_17  and  O2_18 
REMARK    8  A    between atoms: N4_20  and  O3_22 
REMARK    9  A    between atoms: S1_24  and  N5_26 
REMARK   10  A    between atoms: N5_26  and  C13_28 
ROOT
HETATM    1  N2  UNL     1      13.074  52.621  86.361  1.00  0.00    -0.338 N 
ATOM      2  H2  UNL     1      13.864  51.981  86.287  1.00  0.00     0.164 HD
HETATM    3  C8  UNL     1      12.096  52.640  85.339  1.00  0.00     0.318 C 
HETATM    4  O1  UNL     1      11.127  53.456  85.458  1.00  0.00    -0.247 OA
HETATM    5  N3  UNL     1      12.201  51.783  84.238  1.00  0.00    -0.334 N 
HETATM    6  C9  UNL     1      11.156  51.855  83.207  1.00  0.00     0.129 C 
HETATM    7  C10 UNL     1      11.829  51.362  81.940  1.00  0.00     0.053 C 
HETATM    8  C11 UNL     1      12.211  49.911  82.006  1.00  0.00     0.126 C 
HETATM    9  C15 UNL     1      12.826  49.607  83.344  1.00  0.00     0.053 C 
HETATM   10  C16 UNL     1      13.282  50.843  84.103  1.00  0.00     0.129 C 
ENDROOT
BRANCH   1  11
HETATM   11  C7  UNL     1      12.971  53.496  87.512  1.00  0.00     0.089 C 
HETATM   12  C6  UNL     1      14.219  54.336  87.727  1.00  0.00     0.055 C 
HETATM   13  C5  UNL     1      14.537  54.441  89.199  1.00  0.00     0.274 C 
HETATM   14  N1  UNL     1      13.339  54.714  89.992  1.00  0.00     0.088 N 
HETATM   15  C18 UNL     1      12.370  53.683  89.870  1.00  0.00     0.274 C 
HETATM   16  C17 UNL     1      12.734  52.717  88.767  1.00  0.00     0.055 C 
BRANCH  14  17
HETATM   17  C4  UNL     1      13.800  54.827  91.348  1.00  0.00     0.272 C 
BRANCH  17  18
HETATM   18  C3  UNL     1      14.143  53.599  92.088  1.00  0.00     0.030 C 
BRANCH  18  19
HETATM   19  C2  UNL     1      13.730  53.476  93.499  1.00  0.00    -0.003 C 
HETATM   20  C1  UNL     1      13.684  54.876  94.126  1.00  0.00     0.005 C 
ENDBRANCH  18  19
ENDBRANCH  17  18
ENDBRANCH  14  17
ENDBRANCH   1  11
BRANCH   8  21
HETATM   21  C12 UNL     1      11.085  48.984  81.772  1.00  0.00     0.159 C 
HETATM   22  N4  UNL     1      10.304  48.947  80.798  1.00  0.00    -0.250 N 
ATOM     23  H4  UNL     1       9.608  48.206  80.878  1.00  0.00     0.196 HD
BRANCH  21  24
HETATM   24  O2  UNL     1      10.845  47.996  82.773  1.00  0.00    -0.347 OA
ATOM     25  H2  UNL     1       9.938  47.785  82.958  1.00  0.00     0.219 HD
ENDBRANCH  21  24
BRANCH  22  26
HETATM   26  O3  UNL     1      10.174  49.657  79.678  1.00  0.00    -0.288 OA
ATOM     27  H3  UNL     1      10.673  49.728  78.873  1.00  0.00     0.244 HD
ENDBRANCH  22  26
ENDBRANCH   8  21
BRANCH   8  28
HETATM   28  S1  UNL     1      13.505  49.629  80.795  1.00  0.00     0.128 S 
HETATM   29  O4  UNL     1      12.996  48.791  79.658  1.00  0.00    -0.234 OA
BRANCH  28  30
HETATM   30  N5  UNL     1      14.029  50.957  80.214  1.00  0.00    -0.326 N 
ATOM     31  H5  UNL     1      13.345  51.599  79.814  1.00  0.00     0.171 HD
BRANCH  30  32
HETATM   32  C13 UNL     1      15.397  51.358  80.192  1.00  0.00     0.158 C 
HETATM   33  C14 UNL     1      16.183  50.477  79.236  1.00  0.00     0.045 C 
HETATM   34 BR1  UNL     1      16.247  51.298  81.921  1.00  0.00    -0.069 Br
ENDBRANCH  30  32
ENDBRANCH  28  30
ENDBRANCH   8  28
TORSDOF 10
ENDMDL
MODEL 2
REMARK VINA RESULT: -5.944650884      5.733     11.115
REMARK  10 active torsions:
REMARK  status: ('A' for Active; 'I' for Inactive)
REMARK    1  A    between atoms: C2_2  and  C3_3 
REMARK    2  A    between atoms: C3_3  and  C4_4 
REMARK    3  A    between atoms: C4_4  and  N1_5 
REMARK    4  A    between atoms: C7_8  and  N2_9 
REMARK       I    between atoms: N2_9  and  C8_11 
REMARK       I    between atoms: C8_11  and  N3_13 
REMARK    5  A    between atoms: C11_16  and  C12_17 
REMARK    6  A    between atoms: C11_16  and  S1_24 
REMARK    7  A    between atoms: C12_17  and  O2_18 
REMARK    8  A    between atoms: N4_20  and  O3_22 
REMARK    9  A    between atoms: S1_24  and  N5_26 
REMARK   10  A    between atoms: N5_26  and  C13_28 
ROOT
HETATM    1  N2  UNL     1      12.404  53.200  88.047  1.00  0.00    -0.338 N 
ATOM      2  H2  UNL     1      11.497  52.900  88.404  1.00  0.00     0.164 HD
HETATM    3  C8  UNL     1      13.383  53.680  88.949  1.00  0.00     0.318 C 
HETATM    4  O1  UNL     1      14.500  54.054  88.469  1.00  0.00    -0.247 OA
HETATM    5  N3  UNL     1      13.119  53.734  90.321  1.00  0.00    -0.334 N 
HETATM    6  C9  UNL     1      14.175  54.248  91.206  1.00  0.00     0.129 C 
HETATM    7  C10 UNL     1      13.438  54.783  92.418  1.00  0.00     0.053 C 
HETATM    8  C11 UNL     1      12.755  53.706  93.212  1.00  0.00     0.126 C 
HETATM    9  C15 UNL     1      12.064  52.748  92.281  1.00  0.00     0.053 C 
HETATM   10  C16 UNL     1      11.866  53.295  90.877  1.00  0.00     0.129 C 
ENDROOT
BRANCH   1  11
HETATM   11  C7  UNL     1      12.667  53.128  86.623  1.00  0.00     0.089 C 
HETATM   12  C6  UNL     1      12.082  51.884  85.978  1.00  0.00     0.055 C 
HETATM   13  C5  UNL     1      13.036  51.324  84.950  1.00  0.00     0.274 C 
HETATM   14  N1  UNL     1      13.600  52.378  84.106  1.00  0.00     0.088 N 
HETATM   15  C18 UNL     1      14.341  53.327  84.858  1.00  0.00     0.274 C 
HETATM   16  C17 UNL     1      14.136  53.130  86.342  1.00  0.00     0.055 C 
BRANCH  14  17
HETATM   17  C4  UNL     1      14.444  51.696  83.164  1.00  0.00     0.272 C 
BRANCH  17  18
HETATM   18  C3  UNL     1      15.807  52.207  82.931  1.00  0.00     0.030 C 
BRANCH  18  19
HETATM   19  C2  UNL     1      16.671  51.519  81.953  1.00  0.00    -0.003 C 
HETATM   20  C1  UNL     1      16.296  51.993  80.542  1.00  0.00     0.005 C 
ENDBRANCH  18  19
ENDBRANCH  17  18
ENDBRANCH  14  17
ENDBRANCH   1  11
BRANCH   8  21
HETATM   21  C12 UNL     1      13.663  52.947  94.096  1.00  0.00     0.159 C 
HETATM   22  N4  UNL     1      14.382  51.967  93.806  1.00  0.00    -0.250 N 
ATOM     23  H4  UNL     1      14.919  51.623  94.602  1.00  0.00     0.196 HD
BRANCH  21  24
HETATM   24  O2  UNL     1      13.747  53.374  95.453  1.00  0.00    -0.347 OA
ATOM     25  H2  UNL     1      13.257  54.153  95.689  1.00  0.00     0.219 HD
ENDBRANCH  21  24
BRANCH  22  26
HETATM   26  O3  UNL     1      14.605  51.269  92.694  1.00  0.00    -0.288 OA
ATOM     27  H3  UNL     1      15.361  51.127  92.137  1.00  0.00     0.244 HD
ENDBRANCH  22  26
ENDBRANCH   8  21
BRANCH   8  28
HETATM   28  S1  UNL     1      11.454  54.477  94.178  1.00  0.00     0.128 S 
HETATM   29  O4  UNL     1      10.918  53.523  95.205  1.00  0.00    -0.234 OA
BRANCH  28  30
HETATM   30  N5  UNL     1      11.968  55.732  94.911  1.00  0.00    -0.326 N 
ATOM     31  H5  UNL     1      12.963  55.774  95.133  1.00  0.00     0.171 HD
BRANCH  30  32
HETATM   32  C13 UNL     1      11.161  56.840  95.303  1.00  0.00     0.158 C 
HETATM   33  C14 UNL     1      12.001  58.105  95.354  1.00  0.00     0.045 C 
HETATM   34 BR1  UNL     1      10.302  56.604  97.012  1.00  0.00    -0.069 Br
ENDBRANCH  30  32
ENDBRANCH  28  30
ENDBRANCH   8  28
TORSDOF 10
ENDMDL
MODEL 3
REMARK VINA RESULT: -5.865013731      5.422      9.766
REMARK  10 active torsions:
REMARK  status: ('A' for Active; 'I' for Inactive)
REMARK    1  A    between atoms: C2_2  and  C3_3 
REMARK    2  A    between atoms: C3_3  and  C4_4 
REMARK    3  A    between atoms: C4_4  and  N1_5 
REMARK    4  A    between atoms: C7_8  and  N2_9 
REMARK       I    between atoms: N2_9  and  C8_11 
REMARK       I    between atoms: C8_11  and  N3_13 
REMARK    5  A    between atoms: C11_16  and  C12_17 
REMARK    6  A    between atoms: C11_16  and  S1_24 
REMARK    7  A    between atoms: C12_17  and  O2_18 
REMARK    8  A    between atoms: N4_20  and  O3_22 
REMARK    9  A    between atoms: S1_24  and  N5_26 
REMARK   10  A    between atoms: N5_26  and  C13_28 
ROOT
HETATM    1  N2  UNL     1      11.939  52.512  85.841  1.00  0.00    -0.338 N 
ATOM      2  H2  UNL     1      11.122  52.606  85.239  1.00  0.00     0.164 HD
HETATM    3  C8  UNL     1      11.810  52.750  87.230  1.00  0.00     0.318 C 
HETATM    4  O1  UNL     1      12.851  52.632  87.952  1.00  0.00    -0.247 OA
HETATM    5  N3  UNL     1      10.573  53.101  87.779  1.00  0.00    -0.334 N 
HETATM    6  C9  UNL     1      10.505  53.340  89.228  1.00  0.00     0.129 C 
HETATM    7  C10 UNL     1       9.327  54.277  89.411  1.00  0.00     0.053 C 
HETATM    8  C11 UNL     1       8.012  53.641  89.060  1.00  0.00     0.126 C 
HETATM    9  C15 UNL     1       8.151  52.856  87.785  1.00  0.00     0.053 C 
HETATM   10  C16 UNL     1       9.385  53.218  86.975  1.00  0.00     0.129 C 
ENDROOT
BRANCH   1  11
HETATM   11  C7  UNL     1      13.213  52.138  85.260  1.00  0.00     0.089 C 
HETATM   12  C6  UNL     1      14.236  53.260  85.309  1.00  0.00     0.055 C 
HETATM   13  C5  UNL     1      15.042  53.296  84.033  1.00  0.00     0.274 C 
HETATM   14  N1  UNL     1      15.460  51.956  83.620  1.00  0.00     0.088 N 
HETATM   15  C18 UNL     1      14.352  51.104  83.366  1.00  0.00     0.274 C 
HETATM   16  C17 UNL     1      13.059  51.734  83.828  1.00  0.00     0.055 C 
BRANCH  14  17
HETATM   17  C4  UNL     1      16.241  52.153  82.431  1.00  0.00     0.272 C 
BRANCH  17  18
HETATM   18  C3  UNL     1      16.130  51.171  81.337  1.00  0.00     0.030 C 
BRANCH  18  19
HETATM   19  C2  UNL     1      16.279  51.634  79.944  1.00  0.00    -0.003 C 
HETATM   20  C1  UNL     1      16.266  50.414  79.012  1.00  0.00     0.005 C 
ENDBRANCH  18  19
ENDBRANCH  17  18
ENDBRANCH  14  17
ENDBRANCH   1  11
BRANCH   8  21
HETATM   21  C12 UNL     1       7.475  52.756  90.114  1.00  0.00     0.159 C 
HETATM   22  N4  UNL     1       7.028  53.074  91.236  1.00  0.00    -0.250 N 
ATOM     23  H4  UNL     1       6.717  52.269  91.779  1.00  0.00     0.196 HD
BRANCH  21  24
HETATM   24  O2  UNL     1       7.453  51.358  89.831  1.00  0.00    -0.347 OA
ATOM     25  H2  UNL     1       8.271  50.887  89.934  1.00  0.00     0.219 HD
ENDBRANCH  21  24
BRANCH  22  26
HETATM   26  O3  UNL     1       6.867  54.227  91.884  1.00  0.00    -0.288 OA
ATOM     27  H3  UNL     1       6.183  54.592  92.433  1.00  0.00     0.244 HD
ENDBRANCH  22  26
ENDBRANCH   8  21
BRANCH   8  28
HETATM   28  S1  UNL     1       6.844  54.956  88.703  1.00  0.00     0.128 S 
HETATM   29  O4  UNL     1       5.465  54.581  89.163  1.00  0.00    -0.234 OA
BRANCH  28  30
HETATM   30  N5  UNL     1       7.244  56.268  89.407  1.00  0.00    -0.326 N 
ATOM     31  H5  UNL     1       7.963  56.216  90.128  1.00  0.00     0.171 HD
BRANCH  30  32
HETATM   32  C13 UNL     1       6.686  57.550  89.128  1.00  0.00     0.158 C 
HETATM   33  C14 UNL     1       7.796  58.568  88.924  1.00  0.00     0.045 C 
HETATM   34 BR1  UNL     1       5.506  58.197  90.507  1.00  0.00    -0.069 Br
ENDBRANCH  30  32
ENDBRANCH  28  30
ENDBRANCH   8  28
TORSDOF 10
ENDMDL
MODEL 4
REMARK VINA RESULT: -5.810305836      0.879      1.045
REMARK  10 active torsions:
REMARK  status: ('A' for Active; 'I' for Inactive)
REMARK    1  A    between atoms: C2_2  and  C3_3 
REMARK    2  A    between atoms: C3_3  and  C4_4 
REMARK    3  A    between atoms: C4_4  and  N1_5 
REMARK    4  A    between atoms: C7_8  and  N2_9 
REMARK       I    between atoms: N2_9  and  C8_11 
REMARK       I    between atoms: C8_11  and  N3_13 
REMARK    5  A    between atoms: C11_16  and  C12_17 
REMARK    6  A    between atoms: C11_16  and  S1_24 
REMARK    7  A    between atoms: C12_17  and  O2_18 
REMARK    8  A    between atoms: N4_20  and  O3_22 
REMARK    9  A    between atoms: S1_24  and  N5_26 
REMARK   10  A    between atoms: N5_26  and  C13_28 
ROOT
HETATM    1  N2  UNL     1      12.896  52.543  86.812  1.00  0.00    -0.338 N 
ATOM      2  H2  UNL     1      13.596  51.802  86.773  1.00  0.00     0.164 HD
HETATM    3  C8  UNL     1      11.964  52.676  85.756  1.00  0.00     0.318 C 
HETATM    4  O1  UNL     1      11.110  53.614  85.832  1.00  0.00    -0.247 OA
HETATM    5  N3  UNL     1      11.993  51.796  84.669  1.00  0.00    -0.334 N 
HETATM    6  C9  UNL     1      11.002  51.990  83.600  1.00  0.00     0.129 C 
HETATM    7  C10 UNL     1      11.646  51.394  82.363  1.00  0.00     0.053 C 
HETATM    8  C11 UNL     1      11.830  49.906  82.457  1.00  0.00     0.126 C 
HETATM    9  C15 UNL     1      12.353  49.544  83.819  1.00  0.00     0.053 C 
HETATM   10  C16 UNL     1      12.943  50.719  84.581  1.00  0.00     0.129 C 
ENDROOT
BRANCH   1  11
HETATM   11  C7  UNL     1      12.871  53.441  87.950  1.00  0.00     0.089 C 
HETATM   12  C6  UNL     1      14.107  54.320  88.034  1.00  0.00     0.055 C 
HETATM   13  C5  UNL     1      14.554  54.469  89.468  1.00  0.00     0.274 C 
HETATM   14  N1  UNL     1      13.424  54.725  90.362  1.00  0.00     0.088 N 
HETATM   15  C18 UNL     1      12.481  53.664  90.349  1.00  0.00     0.274 C 
HETATM   16  C17 UNL     1      12.773  52.684  89.237  1.00  0.00     0.055 C 
BRANCH  14  17
HETATM   17  C4  UNL     1      14.003  54.883  91.667  1.00  0.00     0.272 C 
BRANCH  17  18
HETATM   18  C3  UNL     1      13.274  54.359  92.836  1.00  0.00     0.030 C 
BRANCH  18  19
HETATM   19  C2  UNL     1      13.590  54.894  94.174  1.00  0.00    -0.003 C 
HETATM   20  C1  UNL     1      12.476  55.863  94.596  1.00  0.00     0.005 C 
ENDBRANCH  18  19
ENDBRANCH  17  18
ENDBRANCH  14  17
ENDBRANCH   1  11
BRANCH   8  21
HETATM   21  C12 UNL     1      10.599  49.133  82.193  1.00  0.00     0.159 C 
HETATM   22  N4  UNL     1       9.833  49.214  81.211  1.00  0.00    -0.250 N 
ATOM     23  H4  UNL     1       9.047  48.565  81.268  1.00  0.00     0.196 HD
BRANCH  21  24
HETATM   24  O2  UNL     1      10.225  48.165  83.170  1.00  0.00    -0.347 OA
ATOM     25  H2  UNL     1       9.696  48.471  83.897  1.00  0.00     0.219 HD
ENDBRANCH  21  24
BRANCH  22  26
HETATM   26  O3  UNL     1       9.807  49.956  80.104  1.00  0.00    -0.288 OA
ATOM     27  H3  UNL     1       9.881  49.770  79.176  1.00  0.00     0.244 HD
ENDBRANCH  22  26
ENDBRANCH   8  21
BRANCH   8  28
HETATM   28  S1  UNL     1      13.116  49.437  81.296  1.00  0.00     0.128 S 
HETATM   29  O4  UNL     1      12.517  48.901  80.028  1.00  0.00    -0.234 OA
BRANCH  28  30
HETATM   30  N5  UNL     1      14.010  50.640  80.933  1.00  0.00    -0.326 N 
ATOM     31  H5  UNL     1      13.565  51.436  80.476  1.00  0.00     0.171 HD
BRANCH  30  32
HETATM   32  C13 UNL     1      15.410  50.725  81.186  1.00  0.00     0.158 C 
HETATM   33  C14 UNL     1      15.654  51.257  82.589  1.00  0.00     0.045 C 
HETATM   34 BR1  UNL     1      16.355  51.843  79.933  1.00  0.00    -0.069 Br
ENDBRANCH  30  32
ENDBRANCH  28  30
ENDBRANCH   8  28
TORSDOF 10
ENDMDL
MODEL 5
REMARK VINA RESULT: -5.783032991      5.428     11.047
REMARK  10 active torsions:
REMARK  status: ('A' for Active; 'I' for Inactive)
REMARK    1  A    between atoms: C2_2  and  C3_3 
REMARK    2  A    between atoms: C3_3  and  C4_4 
REMARK    3  A    between atoms: C4_4  and  N1_5 
REMARK    4  A    between atoms: C7_8  and  N2_9 
REMARK       I    between atoms: N2_9  and  C8_11 
REMARK       I    between atoms: C8_11  and  N3_13 
REMARK    5  A    between atoms: C11_16  and  C12_17 
REMARK    6  A    between atoms: C11_16  and  S1_24 
REMARK    7  A    between atoms: C12_17  and  O2_18 
REMARK    8  A    between atoms: N4_20  and  O3_22 
REMARK    9  A    between atoms: S1_24  and  N5_26 
REMARK   10  A    between atoms: N5_26  and  C13_28 
ROOT
HETATM    1  N2  UNL     1      12.233  52.925  87.753  1.00  0.00    -0.338 N 
ATOM      2  H2  UNL     1      11.339  52.633  88.147  1.00  0.00     0.164 HD
HETATM    3  C8  UNL     1      13.227  53.462  88.605  1.00  0.00     0.318 C 
HETATM    4  O1  UNL     1      14.328  53.823  88.080  1.00  0.00    -0.247 OA
HETATM    5  N3  UNL     1      12.995  53.584  89.978  1.00  0.00    -0.334 N 
HETATM    6  C9  UNL     1      14.065  54.154  90.810  1.00  0.00     0.129 C 
HETATM    7  C10 UNL     1      13.350  54.743  92.010  1.00  0.00     0.053 C 
HETATM    8  C11 UNL     1      12.700  53.700  92.875  1.00  0.00     0.126 C 
HETATM    9  C15 UNL     1      11.999  52.688  92.011  1.00  0.00     0.053 C 
HETATM   10  C16 UNL     1      11.761  53.160  90.586  1.00  0.00     0.129 C 
ENDROOT
BRANCH   1  11
HETATM   11  C7  UNL     1      12.464  52.783  86.328  1.00  0.00     0.089 C 
HETATM   12  C6  UNL     1      11.314  53.312  85.489  1.00  0.00     0.055 C 
HETATM   13  C5  UNL     1      11.063  52.408  84.307  1.00  0.00     0.274 C 
HETATM   14  N1  UNL     1      12.311  52.015  83.653  1.00  0.00     0.088 N 
HETATM   15  C18 UNL     1      13.169  51.296  84.527  1.00  0.00     0.274 C 
HETATM   16  C17 UNL     1      12.671  51.350  85.952  1.00  0.00     0.055 C 
BRANCH  14  17
HETATM   17  C4  UNL     1      11.915  51.201  82.538  1.00  0.00     0.272 C 
BRANCH  17  18
HETATM   18  C3  UNL     1      12.895  50.267  81.955  1.00  0.00     0.030 C 
BRANCH  18  19
HETATM   19  C2  UNL     1      13.818  50.757  80.914  1.00  0.00    -0.003 C 
HETATM   20  C1  UNL     1      15.243  50.777  81.484  1.00  0.00     0.005 C 
ENDBRANCH  18  19
ENDBRANCH  17  18
ENDBRANCH  14  17
ENDBRANCH   1  11
BRANCH   8  21
HETATM   21  C12 UNL     1      13.638  52.998  93.774  1.00  0.00     0.159 C 
HETATM   22  N4  UNL     1      14.328  51.986  93.532  1.00  0.00    -0.250 N 
ATOM     23  H4  UNL     1      14.898  51.697  94.327  1.00  0.00     0.196 HD
BRANCH  21  24
HETATM   24  O2  UNL     1      13.790  53.530  95.088  1.00  0.00    -0.347 OA
ATOM     25  H2  UNL     1      14.332  53.035  95.691  1.00  0.00     0.219 HD
ENDBRANCH  21  24
BRANCH  22  26
HETATM   26  O3  UNL     1      14.490  51.198  92.469  1.00  0.00    -0.288 OA
ATOM     27  H3  UNL     1      14.654  50.271  92.347  1.00  0.00     0.244 HD
ENDBRANCH  22  26
ENDBRANCH   8  21
BRANCH   8  28
HETATM   28  S1  UNL     1      11.412  54.506  93.831  1.00  0.00     0.128 S 
HETATM   29  O4  UNL     1      10.760  53.533  94.769  1.00  0.00    -0.234 OA
BRANCH  28  30
HETATM   30  N5  UNL     1      11.979  55.671  94.667  1.00  0.00    -0.326 N 
ATOM     31  H5  UNL     1      12.989  55.700  94.809  1.00  0.00     0.171 HD
BRANCH  30  32
HETATM   32  C13 UNL     1      11.201  56.711  95.255  1.00  0.00     0.158 C 
HETATM   33  C14 UNL     1      12.021  57.988  95.342  1.00  0.00     0.045 C 
HETATM   34 BR1  UNL     1      10.544  56.283  97.015  1.00  0.00    -0.069 Br
ENDBRANCH  30  32
ENDBRANCH  28  30
ENDBRANCH   8  28
TORSDOF 10
ENDMDL
