MODEL 1
REMARK VINA RESULT: -7.339485244      0.000      0.000
REMARK  9 active torsions:
REMARK  status: ('A' for Active; 'I' for Inactive)
REMARK    1  A    between atoms: C2_2  and  O1_3 
REMARK    2  A    between atoms: O1_3  and  C3_4 
REMARK    3  A    between atoms: C3_4  and  C4_6 
REMARK    4  A    between atoms: C4_6  and  N1_7 
REMARK    5  A    between atoms: N1_7  and  C5_9 
REMARK    6  A    between atoms: C7_11  and  N2_12 
REMARK    7  A    between atoms: N2_12  and  C8_14 
REMARK    8  A    between atoms: C10_16  and  C11_17 
REMARK    9  A    between atoms: N3_20  and  C14_21 
ROOT
HETATM    1  C8  UNL     1      13.190  53.624  87.963  1.00  0.00     0.122 A 
HETATM    2  C9  UNL     1      12.531  53.467  89.188  1.00  0.00     0.076 A 
HETATM    3  C10 UNL     1      13.408  53.796  90.200  1.00  0.00     0.034 A 
HETATM    4  N4  UNL     1      14.552  54.138  89.584  1.00  0.00    -0.303 N 
ATOM      5  H4  UNL     1      15.402  54.436  90.062  1.00  0.00     0.186 HD
HETATM    6  N5  UNL     1      14.422  54.035  88.262  1.00  0.00    -0.285 N 
ATOM      7  H5  UNL     1      15.154  54.240  87.581  1.00  0.00     0.188 HD
ENDROOT
BRANCH   1   8
HETATM    8  N2  UNL     1      12.603  53.383  86.862  1.00  0.00    -0.340 N 
ATOM      9  H2  UNL     1      11.686  53.811  86.736  1.00  0.00     0.167 HD
BRANCH   8  10
HETATM   10  C7  UNL     1      13.070  52.597  85.805  1.00  0.00     0.056 A 
HETATM   11  C6  UNL     1      14.091  53.021  84.968  1.00  0.00     0.079 A 
HETATM   12  C5  UNL     1      14.545  52.235  83.925  1.00  0.00     0.103 A 
HETATM   13  N6  UNL     1      13.983  51.049  83.732  1.00  0.00    -0.351 N 
HETATM   14  C21 UNL     1      12.982  50.610  84.536  1.00  0.00     0.111 A 
ATOM     15  H6  UNL     1      14.309  50.458  82.967  1.00  0.00     0.166 HD
HETATM   16  C20 UNL     1      12.500  51.359  85.584  1.00  0.00     0.053 A 
HETATM   17 BR1  UNL     1      11.078  50.713  86.710  1.00  0.00    -0.047 Br
BRANCH  12  18
HETATM   18  N1  UNL     1      15.498  52.716  83.203  1.00  0.00    -0.367 N 
ATOM     19  H1  UNL     1      15.514  53.725  83.062  1.00  0.00     0.161 HD
BRANCH  18  20
HETATM   20  C4  UNL     1      16.535  51.951  82.586  1.00  0.00     0.232 C 
BRANCH  20  21
HETATM   21  C3  UNL     1      16.093  51.552  81.224  1.00  0.00     0.276 C 
HETATM   22  O2  UNL     1      16.371  52.257  80.206  1.00  0.00    -0.263 OA
BRANCH  21  23
HETATM   23  O1  UNL     1      15.356  50.395  80.987  1.00  0.00    -0.321 OA
BRANCH  23  24
HETATM   24  C2  UNL     1      14.445  50.269  79.929  1.00  0.00     0.174 C 
HETATM   25  C1  UNL     1      13.081  50.814  80.267  1.00  0.00     0.034 C 
ENDBRANCH  23  24
ENDBRANCH  21  23
ENDBRANCH  20  21
ENDBRANCH  18  20
ENDBRANCH  12  18
ENDBRANCH   8  10
ENDBRANCH   1   8
BRANCH   3  26
HETATM   26  C11 UNL     1      13.133  53.776  91.651  1.00  0.00     0.046 C 
HETATM   27  C12 UNL     1      11.636  53.761  91.929  1.00  0.00     0.056 C 
HETATM   28  C13 UNL     1      11.494  53.432  93.415  1.00  0.00     0.064 C 
HETATM   29  N3  UNL     1      12.237  54.273  94.248  1.00  0.00    -0.367 N 
HETATM   30  C18 UNL     1      13.525  54.671  93.875  1.00  0.00     0.064 C 
HETATM   31  C19 UNL     1      13.752  54.907  92.398  1.00  0.00     0.056 C 
BRANCH  29  32
HETATM   32  C14 UNL     1      11.621  54.878  95.345  1.00  0.00     0.114 C 
HETATM   33  C15 UNL     1      12.158  56.221  95.748  1.00  0.00     0.054 C 
HETATM   34  C16 UNL     1      11.103  57.175  95.291  1.00  0.00     0.169 C 
HETATM   35  O3  UNL     1       9.967  56.490  94.995  1.00  0.00    -0.389 OA
HETATM   36  C17 UNL     1      10.175  55.150  95.043  1.00  0.00     0.193 C 
ENDBRANCH  29  32
ENDBRANCH   3  26
TORSDOF 9
ENDMDL
MODEL 2
REMARK VINA RESULT: -6.989169570      1.373      1.548
REMARK  9 active torsions:
REMARK  status: ('A' for Active; 'I' for Inactive)
REMARK    1  A    between atoms: C2_2  and  O1_3 
REMARK    2  A    between atoms: O1_3  and  C3_4 
REMARK    3  A    between atoms: C3_4  and  C4_6 
REMARK    4  A    between atoms: C4_6  and  N1_7 
REMARK    5  A    between atoms: N1_7  and  C5_9 
REMARK    6  A    between atoms: C7_11  and  N2_12 
REMARK    7  A    between atoms: N2_12  and  C8_14 
REMARK    8  A    between atoms: C10_16  and  C11_17 
REMARK    9  A    between atoms: N3_20  and  C14_21 
ROOT
HETATM    1  C8  UNL     1      13.622  53.899  88.669  1.00  0.00     0.122 A 
HETATM    2  C9  UNL     1      13.162  53.723  89.980  1.00  0.00     0.076 A 
HETATM    3  C10 UNL     1      14.205  53.975  90.845  1.00  0.00     0.034 A 
HETATM    4  N4  UNL     1      15.250  54.292  90.063  1.00  0.00    -0.303 N 
ATOM      5  H4  UNL     1      16.179  54.534  90.406  1.00  0.00     0.186 HD
HETATM    6  N5  UNL     1      14.904  54.246  88.777  1.00  0.00    -0.285 N 
ATOM      7  H5  UNL     1      15.526  54.446  87.993  1.00  0.00     0.188 HD
ENDROOT
BRANCH   1   8
HETATM    8  N2  UNL     1      12.854  53.727  87.672  1.00  0.00    -0.340 N 
ATOM      9  H2  UNL     1      11.946  54.188  87.716  1.00  0.00     0.167 HD
BRANCH   8  10
HETATM   10  C7  UNL     1      13.113  52.976  86.521  1.00  0.00     0.056 A 
HETATM   11  C6  UNL     1      14.069  53.359  85.593  1.00  0.00     0.079 A 
HETATM   12  C5  UNL     1      14.316  52.609  84.458  1.00  0.00     0.103 A 
HETATM   13  N6  UNL     1      13.617  51.499  84.265  1.00  0.00    -0.351 N 
HETATM   14  C21 UNL     1      12.675  51.102  85.158  1.00  0.00     0.111 A 
ATOM     15  H6  UNL     1      13.790  50.935  83.433  1.00  0.00     0.166 HD
HETATM   16  C20 UNL     1      12.396  51.817  86.298  1.00  0.00     0.053 A 
HETATM   17 BR1  UNL     1      11.055  51.232  87.549  1.00  0.00    -0.047 Br
BRANCH  12  18
HETATM   18  N1  UNL     1      15.225  53.046  83.655  1.00  0.00    -0.367 N 
ATOM     19  H1  UNL     1      15.162  54.022  83.365  1.00  0.00     0.161 HD
BRANCH  18  20
HETATM   20  C4  UNL     1      16.313  52.277  83.139  1.00  0.00     0.232 C 
BRANCH  20  21
HETATM   21  C3  UNL     1      15.945  51.766  81.793  1.00  0.00     0.276 C 
HETATM   22  O2  UNL     1      16.445  52.264  80.738  1.00  0.00    -0.263 OA
BRANCH  21  23
HETATM   23  O1  UNL     1      15.042  50.722  81.612  1.00  0.00    -0.321 OA
BRANCH  23  24
HETATM   24  C2  UNL     1      13.983  50.775  80.695  1.00  0.00     0.174 C 
HETATM   25  C1  UNL     1      13.919  49.557  79.810  1.00  0.00     0.034 C 
ENDBRANCH  23  24
ENDBRANCH  21  23
ENDBRANCH  20  21
ENDBRANCH  18  20
ENDBRANCH  12  18
ENDBRANCH   8  10
ENDBRANCH   1   8
BRANCH   3  26
HETATM   26  C11 UNL     1      14.166  53.910  92.320  1.00  0.00     0.046 C 
HETATM   27  C12 UNL     1      13.784  52.517  92.801  1.00  0.00     0.056 C 
HETATM   28  C13 UNL     1      14.080  52.501  94.302  1.00  0.00     0.064 C 
HETATM   29  N3  UNL     1      13.476  53.550  95.002  1.00  0.00    -0.367 N 
HETATM   30  C18 UNL     1      13.432  54.832  94.444  1.00  0.00     0.064 C 
HETATM   31  C19 UNL     1      13.249  54.906  92.945  1.00  0.00     0.056 C 
BRANCH  29  32
HETATM   32  C14 UNL     1      12.741  53.276  96.156  1.00  0.00     0.114 C 
HETATM   33  C15 UNL     1      12.249  54.468  96.926  1.00  0.00     0.054 C 
HETATM   34  C16 UNL     1      10.785  54.500  96.630  1.00  0.00     0.169 C 
HETATM   35  O3  UNL     1      10.406  53.318  96.075  1.00  0.00    -0.389 OA
HETATM   36  C17 UNL     1      11.482  52.535  95.807  1.00  0.00     0.193 C 
ENDBRANCH  29  32
ENDBRANCH   3  26
TORSDOF 9
ENDMDL
MODEL 3
REMARK VINA RESULT: -6.950203897      1.205      1.510
REMARK  9 active torsions:
REMARK  status: ('A' for Active; 'I' for Inactive)
REMARK    1  A    between atoms: C2_2  and  O1_3 
REMARK    2  A    between atoms: O1_3  and  C3_4 
REMARK    3  A    between atoms: C3_4  and  C4_6 
REMARK    4  A    between atoms: C4_6  and  N1_7 
REMARK    5  A    between atoms: N1_7  and  C5_9 
REMARK    6  A    between atoms: C7_11  and  N2_12 
REMARK    7  A    between atoms: N2_12  and  C8_14 
REMARK    8  A    between atoms: C10_16  and  C11_17 
REMARK    9  A    between atoms: N3_20  and  C14_21 
ROOT
HETATM    1  C8  UNL     1      12.503  53.232  88.443  1.00  0.00     0.122 A 
HETATM    2  C9  UNL     1      12.001  53.261  89.749  1.00  0.00     0.076 A 
HETATM    3  C10 UNL     1      13.010  53.670  90.595  1.00  0.00     0.034 A 
HETATM    4  N4  UNL     1      14.077  53.876  89.805  1.00  0.00    -0.303 N 
ATOM      5  H4  UNL     1      14.991  54.188  90.132  1.00  0.00     0.186 HD
HETATM    6  N5  UNL     1      13.775  53.616  88.533  1.00  0.00    -0.285 N 
ATOM      7  H5  UNL     1      14.421  53.698  87.747  1.00  0.00     0.188 HD
ENDROOT
BRANCH   1   8
HETATM    8  N2  UNL     1      11.771  52.886  87.463  1.00  0.00    -0.340 N 
ATOM      9  H2  UNL     1      10.860  53.339  87.397  1.00  0.00     0.167 HD
BRANCH   8  10
HETATM   10  C7  UNL     1      12.074  51.955  86.465  1.00  0.00     0.056 A 
HETATM   11  C6  UNL     1      12.798  52.298  85.333  1.00  0.00     0.079 A 
HETATM   12  C5  UNL     1      13.091  51.369  84.353  1.00  0.00     0.103 A 
HETATM   13  N6  UNL     1      12.665  50.123  84.511  1.00  0.00    -0.351 N 
HETATM   14  C21 UNL     1      11.954  49.761  85.609  1.00  0.00     0.111 A 
ATOM     15  H6  UNL     1      12.875  49.426  83.797  1.00  0.00     0.166 HD
HETATM   16  C20 UNL     1      11.640  50.652  86.608  1.00  0.00     0.053 A 
HETATM   17 BR1  UNL     1      10.631  50.113  88.155  1.00  0.00    -0.047 Br
BRANCH  12  18
HETATM   18  N1  UNL     1      13.769  51.784  83.339  1.00  0.00    -0.367 N 
ATOM     19  H1  UNL     1      13.573  52.725  82.998  1.00  0.00     0.161 HD
BRANCH  18  20
HETATM   20  C4  UNL     1      14.775  51.034  82.653  1.00  0.00     0.232 C 
BRANCH  20  21
HETATM   21  C3  UNL     1      15.990  51.878  82.510  1.00  0.00     0.276 C 
HETATM   22  O2  UNL     1      16.382  52.636  83.450  1.00  0.00    -0.263 OA
BRANCH  21  23
HETATM   23  O1  UNL     1      16.761  51.887  81.351  1.00  0.00    -0.321 OA
BRANCH  23  24
HETATM   24  C2  UNL     1      16.213  52.009  80.067  1.00  0.00     0.174 C 
HETATM   25  C1  UNL     1      16.366  50.754  79.247  1.00  0.00     0.034 C 
ENDBRANCH  23  24
ENDBRANCH  21  23
ENDBRANCH  20  21
ENDBRANCH  18  20
ENDBRANCH  12  18
ENDBRANCH   8  10
ENDBRANCH   1   8
BRANCH   3  26
HETATM   26  C11 UNL     1      12.923  53.843  92.059  1.00  0.00     0.046 C 
HETATM   27  C12 UNL     1      11.492  54.129  92.496  1.00  0.00     0.056 C 
HETATM   28  C13 UNL     1      11.487  53.980  94.018  1.00  0.00     0.064 C 
HETATM   29  N3  UNL     1      12.462  54.749  94.660  1.00  0.00    -0.367 N 
HETATM   30  C18 UNL     1      13.740  54.866  94.105  1.00  0.00     0.064 C 
HETATM   31  C19 UNL     1      13.814  54.911  92.595  1.00  0.00     0.056 C 
BRANCH  29  32
HETATM   32  C14 UNL     1      12.101  55.561  95.736  1.00  0.00     0.114 C 
HETATM   33  C15 UNL     1      12.242  57.041  95.524  1.00  0.00     0.054 C 
HETATM   34  C16 UNL     1      10.832  57.511  95.372  1.00  0.00     0.169 C 
HETATM   35  O3  UNL     1       9.979  56.537  95.785  1.00  0.00    -0.389 OA
HETATM   36  C17 UNL     1      10.644  55.385  96.054  1.00  0.00     0.193 C 
ENDBRANCH  29  32
ENDBRANCH   3  26
TORSDOF 9
ENDMDL
MODEL 4
REMARK VINA RESULT: -6.939757999      1.633      2.017
REMARK  9 active torsions:
REMARK  status: ('A' for Active; 'I' for Inactive)
REMARK    1  A    between atoms: C2_2  and  O1_3 
REMARK    2  A    between atoms: O1_3  and  C3_4 
REMARK    3  A    between atoms: C3_4  and  C4_6 
REMARK    4  A    between atoms: C4_6  and  N1_7 
REMARK    5  A    between atoms: N1_7  and  C5_9 
REMARK    6  A    between atoms: C7_11  and  N2_12 
REMARK    7  A    between atoms: N2_12  and  C8_14 
REMARK    8  A    between atoms: C10_16  and  C11_17 
REMARK    9  A    between atoms: N3_20  and  C14_21 
ROOT
HETATM    1  C8  UNL     1      12.551  52.476  88.796  1.00  0.00     0.122 A 
HETATM    2  C9  UNL     1      12.183  52.441  90.146  1.00  0.00     0.076 A 
HETATM    3  C10 UNL     1      12.974  53.335  90.837  1.00  0.00     0.034 A 
HETATM    4  N4  UNL     1      13.784  53.881  89.915  1.00  0.00    -0.303 N 
ATOM      5  H4  UNL     1      14.493  54.587  90.110  1.00  0.00     0.186 HD
HETATM    6  N5  UNL     1      13.533  53.372  88.709  1.00  0.00    -0.285 N 
ATOM      7  H5  UNL     1      14.020  53.628  87.850  1.00  0.00     0.188 HD
ENDROOT
BRANCH   1   8
HETATM    8  N2  UNL     1      11.973  51.741  87.936  1.00  0.00    -0.340 N 
ATOM      9  H2  UNL     1      11.722  50.800  88.241  1.00  0.00     0.167 HD
BRANCH   8  10
HETATM   10  C7  UNL     1      11.641  52.074  86.619  1.00  0.00     0.056 A 
HETATM   11  C6  UNL     1      12.477  51.779  85.553  1.00  0.00     0.079 A 
HETATM   12  C5  UNL     1      12.138  52.114  84.255  1.00  0.00     0.103 A 
HETATM   13  N6  UNL     1      10.984  52.729  84.038  1.00  0.00    -0.351 N 
HETATM   14  C21 UNL     1      10.148  53.029  85.064  1.00  0.00     0.111 A 
ATOM     15  H6  UNL     1      10.721  52.980  83.085  1.00  0.00     0.166 HD
HETATM   16  C20 UNL     1      10.445  52.716  86.369  1.00  0.00     0.053 A 
HETATM   17 BR1  UNL     1       9.241  53.153  87.806  1.00  0.00    -0.047 Br
BRANCH  12  18
HETATM   18  N1  UNL     1      12.980  51.797  83.332  1.00  0.00    -0.367 N 
ATOM     19  H1  UNL     1      12.816  52.175  82.399  1.00  0.00     0.161 HD
BRANCH  18  20
HETATM   20  C4  UNL     1      14.127  50.962  83.508  1.00  0.00     0.232 C 
BRANCH  20  21
HETATM   21  C3  UNL     1      15.341  51.721  83.111  1.00  0.00     0.276 C 
HETATM   22  O2  UNL     1      15.627  52.836  83.645  1.00  0.00    -0.263 OA
BRANCH  21  23
HETATM   23  O1  UNL     1      16.227  51.259  82.142  1.00  0.00    -0.321 OA
BRANCH  23  24
HETATM   24  C2  UNL     1      16.371  51.861  80.884  1.00  0.00     0.174 C 
HETATM   25  C1  UNL     1      15.951  50.956  79.755  1.00  0.00     0.034 C 
ENDBRANCH  23  24
ENDBRANCH  21  23
ENDBRANCH  20  21
ENDBRANCH  18  20
ENDBRANCH  12  18
ENDBRANCH   8  10
ENDBRANCH   1   8
BRANCH   3  26
HETATM   26  C11 UNL     1      12.926  53.624  92.284  1.00  0.00     0.046 C 
HETATM   27  C12 UNL     1      11.501  53.891  92.747  1.00  0.00     0.056 C 
HETATM   28  C13 UNL     1      11.550  53.866  94.276  1.00  0.00     0.064 C 
HETATM   29  N3  UNL     1      12.514  54.722  94.818  1.00  0.00    -0.367 N 
HETATM   30  C18 UNL     1      13.768  54.842  94.211  1.00  0.00     0.064 C 
HETATM   31  C19 UNL     1      13.791  54.765  92.700  1.00  0.00     0.056 C 
BRANCH  29  32
HETATM   32  C14 UNL     1      12.155  55.605  95.838  1.00  0.00     0.114 C 
HETATM   33  C15 UNL     1      12.266  57.067  95.516  1.00  0.00     0.054 C 
HETATM   34  C16 UNL     1      10.845  57.501  95.352  1.00  0.00     0.169 C 
HETATM   35  O3  UNL     1      10.017  56.546  95.851  1.00  0.00    -0.389 OA
HETATM   36  C17 UNL     1      10.707  55.428  96.192  1.00  0.00     0.193 C 
ENDBRANCH  29  32
ENDBRANCH   3  26
TORSDOF 9
ENDMDL
MODEL 5
REMARK VINA RESULT: -6.901637954      1.910     11.561
REMARK  9 active torsions:
REMARK  status: ('A' for Active; 'I' for Inactive)
REMARK    1  A    between atoms: C2_2  and  O1_3 
REMARK    2  A    between atoms: O1_3  and  C3_4 
REMARK    3  A    between atoms: C3_4  and  C4_6 
REMARK    4  A    between atoms: C4_6  and  N1_7 
REMARK    5  A    between atoms: N1_7  and  C5_9 
REMARK    6  A    between atoms: C7_11  and  N2_12 
REMARK    7  A    between atoms: N2_12  and  C8_14 
REMARK    8  A    between atoms: C10_16  and  C11_17 
REMARK    9  A    between atoms: N3_20  and  C14_21 
ROOT
HETATM    1  C8  UNL     1      12.361  53.064  87.851  1.00  0.00     0.122 A 
HETATM    2  C9  UNL     1      13.013  52.966  86.616  1.00  0.00     0.076 A 
HETATM    3  C10 UNL     1      12.640  51.780  86.019  1.00  0.00     0.034 A 
HETATM    4  N4  UNL     1      11.790  51.198  86.882  1.00  0.00    -0.303 N 
ATOM      5  H4  UNL     1      11.333  50.299  86.730  1.00  0.00     0.186 HD
HETATM    6  N5  UNL     1      11.627  51.958  87.964  1.00  0.00    -0.285 N 
ATOM      7  H5  UNL     1      11.031  51.729  88.760  1.00  0.00     0.188 HD
ENDROOT
BRANCH   1   8
HETATM    8  N2  UNL     1      12.533  54.070  88.608  1.00  0.00    -0.340 N 
ATOM      9  H2  UNL     1      12.626  54.974  88.146  1.00  0.00     0.167 HD
BRANCH   8  10
HETATM   10  C7  UNL     1      12.610  54.077  90.004  1.00  0.00     0.056 A 
HETATM   11  C6  UNL     1      11.526  53.744  90.803  1.00  0.00     0.079 A 
HETATM   12  C5  UNL     1      11.614  53.755  92.182  1.00  0.00     0.103 A 
HETATM   13  N6  UNL     1      12.767  54.093  92.743  1.00  0.00    -0.351 N 
HETATM   14  C21 UNL     1      13.843  54.424  91.984  1.00  0.00     0.111 A 
ATOM     15  H6  UNL     1      12.847  54.105  93.760  1.00  0.00     0.166 HD
HETATM   16  C20 UNL     1      13.800  54.427  90.610  1.00  0.00     0.053 A 
HETATM   17 BR1  UNL     1      15.341  54.900  89.558  1.00  0.00    -0.047 Br
BRANCH  12  18
HETATM   18  N1  UNL     1      10.553  53.430  92.837  1.00  0.00    -0.367 N 
ATOM     19  H1  UNL     1       9.761  53.079  92.300  1.00  0.00     0.161 HD
BRANCH  18  20
HETATM   20  C4  UNL     1      10.396  53.519  94.255  1.00  0.00     0.232 C 
BRANCH  20  21
HETATM   21  C3  UNL     1      10.107  54.931  94.618  1.00  0.00     0.276 C 
HETATM   22  O2  UNL     1       8.918  55.376  94.648  1.00  0.00    -0.263 OA
BRANCH  21  23
HETATM   23  O1  UNL     1      11.111  55.839  94.945  1.00  0.00    -0.321 OA
BRANCH  23  24
HETATM   24  C2  UNL     1      10.853  57.107  95.483  1.00  0.00     0.174 C 
HETATM   25  C1  UNL     1      12.020  58.049  95.339  1.00  0.00     0.034 C 
ENDBRANCH  23  24
ENDBRANCH  21  23
ENDBRANCH  20  21
ENDBRANCH  18  20
ENDBRANCH  12  18
ENDBRANCH   8  10
ENDBRANCH   1   8
BRANCH   3  26
HETATM   26  C11 UNL     1      13.085  51.270  84.707  1.00  0.00     0.046 C 
HETATM   27  C12 UNL     1      14.153  52.169  84.099  1.00  0.00     0.056 C 
HETATM   28  C13 UNL     1      14.738  51.384  82.925  1.00  0.00     0.064 C 
HETATM   29  N3  UNL     1      13.772  50.926  82.022  1.00  0.00    -0.367 N 
HETATM   30  C18 UNL     1      12.555  50.424  82.492  1.00  0.00     0.064 C 
HETATM   31  C19 UNL     1      11.981  51.096  83.720  1.00  0.00     0.056 C 
BRANCH  29  32
HETATM   32  C14 UNL     1      13.940  51.159  80.656  1.00  0.00     0.114 C 
HETATM   33  C15 UNL     1      15.343  51.445  80.202  1.00  0.00     0.054 C 
HETATM   34  C16 UNL     1      15.752  50.188  79.507  1.00  0.00     0.169 C 
HETATM   35  O3  UNL     1      14.655  49.421  79.268  1.00  0.00    -0.389 OA
HETATM   36  C17 UNL     1      13.555  49.939  79.870  1.00  0.00     0.193 C 
ENDBRANCH  29  32
ENDBRANCH   3  26
TORSDOF 9
ENDMDL
