MODEL 1
REMARK VINA RESULT: -7.603130183      0.000      0.000
REMARK  9 active torsions:
REMARK  status: ('A' for Active; 'I' for Inactive)
REMARK    1  A    between atoms: C4_5  and  N1_6 
REMARK    2  A    between atoms: N1_6  and  C5_8 
REMARK    3  A    between atoms: C6_11  and  N3_12 
REMARK    4  A    between atoms: N3_12  and  C7_14 
REMARK    5  A    between atoms: C7_14  and  C8_15 
REMARK    6  A    between atoms: C8_15  and  C9_16 
REMARK    7  A    between atoms: C14_25  and  N6_26 
REMARK    8  A    between atoms: N6_26  and  C15_28 
REMARK    9  A    between atoms: C15_28  and  C16_29 
ROOT
HETATM    1  C5  UNL     1      12.472  52.675  86.964  1.00  0.00     0.713 A 
HETATM    2  N2  UNL     1      12.522  53.636  87.903  1.00  0.00    -0.021 N 
ATOM      3  H2  UNL     1      12.660  54.597  87.591  1.00  0.00     0.203 HD
HETATM    4  C6  UNL     1      12.402  53.416  89.232  1.00  0.00     0.707 A 
HETATM    5  N5  UNL     1      12.220  52.144  89.624  1.00  0.00    -0.022 N 
ATOM      6  H5  UNL     1      12.123  51.930  90.616  1.00  0.00     0.203 HD
HETATM    7  C14 UNL     1      12.165  51.136  88.708  1.00  0.00     0.707 A 
HETATM    8  N7  UNL     1      12.287  51.390  87.407  1.00  0.00    -0.021 N 
ATOM      9  H7  UNL     1      12.243  50.624  86.734  1.00  0.00     0.203 HD
ENDROOT
BRANCH   4  10
HETATM   10  N3  UNL     1      12.478  54.416  90.034  1.00  0.00    -0.225 N 
ATOM     11  H3  UNL     1      11.698  54.587  90.669  1.00  0.00     0.177 HD
BRANCH  10  12
HETATM   12  C7  UNL     1      13.597  55.304  90.084  1.00  0.00     0.144 C 
BRANCH  12  13
HETATM   13  C8  UNL     1      14.759  54.700  90.839  1.00  0.00     0.077 C 
BRANCH  13  14
HETATM   14  C9  UNL     1      14.368  54.109  92.130  1.00  0.00     0.010 A 
HETATM   15  C10 UNL     1      13.879  54.813  93.210  1.00  0.00     0.025 A 
HETATM   16  C11 UNL     1      13.532  54.142  94.366  1.00  0.00     0.003 A 
HETATM   17  C12 UNL     1      13.659  52.786  94.479  1.00  0.00     0.017 A 
HETATM   18  C13 UNL     1      14.151  52.108  93.377  1.00  0.00     0.088 A 
HETATM   19  N4  UNL     1      14.478  52.778  92.272  1.00  0.00    -0.369 N 
ATOM     20  H4  UNL     1      14.836  52.243  91.481  1.00  0.00     0.165 HD
ENDBRANCH  13  14
ENDBRANCH  12  13
ENDBRANCH  10  12
ENDBRANCH   4  10
BRANCH   1  21
HETATM   21  N1  UNL     1      12.546  52.838  85.738  1.00  0.00    -0.175 N 
ATOM     22  H1  UNL     1      11.721  53.302  85.359  1.00  0.00     0.186 HD
BRANCH  21  23
HETATM   23  C4  UNL     1      13.468  52.545  84.768  1.00  0.00     0.120 A 
HETATM   24  C3  UNL     1      14.670  53.248  84.704  1.00  0.00     0.050 A 
HETATM   25  C2  UNL     1      15.571  52.902  83.719  1.00  0.00     0.024 A 
HETATM   26  C1  UNL     1      15.298  51.902  82.825  1.00  0.00     0.026 A 
HETATM   27 BR1  UNL     1      16.551  51.391  81.440  1.00  0.00    -0.050 Br
HETATM   28  C21 UNL     1      14.102  51.220  82.906  1.00  0.00     0.108 A 
HETATM   29  N8  UNL     1      13.233  51.551  83.857  1.00  0.00    -0.351 N 
ATOM     30  H8  UNL     1      12.352  51.041  83.909  1.00  0.00     0.166 HD
ENDBRANCH  21  23
ENDBRANCH   1  21
BRANCH   7  31
HETATM   31  N6  UNL     1      11.962  49.936  89.082  1.00  0.00    -0.223 N 
ATOM     32  H6  UNL     1      11.014  49.560  89.059  1.00  0.00     0.177 HD
BRANCH  31  33
HETATM   33  C15 UNL     1      13.044  49.094  89.537  1.00  0.00     0.170 C 
BRANCH  33  34
HETATM   34  C16 UNL     1      12.977  47.735  88.809  1.00  0.00     0.139 C 
HETATM   35  C17 UNL     1      12.861  47.935  87.329  1.00  0.00     0.034 C 
HETATM   36  C18 UNL     1      13.969  47.419  86.497  1.00  0.00     0.005 C 
HETATM   37  C19 UNL     1      15.227  47.036  87.179  1.00  0.00     0.026 C 
HETATM   38  C20 UNL     1      15.243  47.231  88.662  1.00  0.00     0.168 C 
HETATM   39  O1  UNL     1      14.027  46.955  89.208  1.00  0.00    -0.384 OA
ENDBRANCH  33  34
ENDBRANCH  31  33
ENDBRANCH   7  31
TORSDOF 9
ENDMDL
MODEL 2
REMARK VINA RESULT: -7.482521998      2.472      3.616
REMARK  9 active torsions:
REMARK  status: ('A' for Active; 'I' for Inactive)
REMARK    1  A    between atoms: C4_5  and  N1_6 
REMARK    2  A    between atoms: N1_6  and  C5_8 
REMARK    3  A    between atoms: C6_11  and  N3_12 
REMARK    4  A    between atoms: N3_12  and  C7_14 
REMARK    5  A    between atoms: C7_14  and  C8_15 
REMARK    6  A    between atoms: C8_15  and  C9_16 
REMARK    7  A    between atoms: C14_25  and  N6_26 
REMARK    8  A    between atoms: N6_26  and  C15_28 
REMARK    9  A    between atoms: C15_28  and  C16_29 
ROOT
HETATM    1  C5  UNL     1      12.802  52.362  86.353  1.00  0.00     0.713 A 
HETATM    2  N2  UNL     1      13.346  53.455  86.914  1.00  0.00    -0.021 N 
ATOM      3  H2  UNL     1      13.762  54.150  86.295  1.00  0.00     0.203 HD
HETATM    4  C6  UNL     1      13.379  53.697  88.245  1.00  0.00     0.707 A 
HETATM    5  N5  UNL     1      12.826  52.771  89.046  1.00  0.00    -0.022 N 
ATOM      6  H5  UNL     1      12.826  52.911  90.056  1.00  0.00     0.203 HD
HETATM    7  C14 UNL     1      12.263  51.646  88.521  1.00  0.00     0.707 A 
HETATM    8  N7  UNL     1      12.249  51.441  87.206  1.00  0.00    -0.021 N 
ATOM      9  H7  UNL     1      11.824  50.593  86.829  1.00  0.00     0.203 HD
ENDROOT
BRANCH   4  10
HETATM   10  N3  UNL     1      13.939  54.775  88.664  1.00  0.00    -0.225 N 
ATOM     11  H3  UNL     1      14.596  55.249  88.045  1.00  0.00     0.177 HD
BRANCH  10  12
HETATM   12  C7  UNL     1      13.690  55.344  89.951  1.00  0.00     0.144 C 
BRANCH  12  13
HETATM   13  C8  UNL     1      14.817  55.059  90.917  1.00  0.00     0.077 C 
BRANCH  13  14
HETATM   14  C9  UNL     1      14.379  54.331  92.121  1.00  0.00     0.010 A 
HETATM   15  C10 UNL     1      13.843  54.913  93.250  1.00  0.00     0.025 A 
HETATM   16  C11 UNL     1      13.455  54.120  94.312  1.00  0.00     0.003 A 
HETATM   17  C12 UNL     1      13.588  52.761  94.284  1.00  0.00     0.017 A 
HETATM   18  C13 UNL     1      14.129  52.207  93.136  1.00  0.00     0.088 A 
HETATM   19  N4  UNL     1      14.494  52.993  92.124  1.00  0.00    -0.369 N 
ATOM     20  H4  UNL     1      14.888  52.547  91.294  1.00  0.00     0.165 HD
ENDBRANCH  13  14
ENDBRANCH  12  13
ENDBRANCH  10  12
ENDBRANCH   4  10
BRANCH   1  21
HETATM   21  N1  UNL     1      12.723  52.118  85.141  1.00  0.00    -0.175 N 
ATOM     22  H1  UNL     1      11.760  51.973  84.837  1.00  0.00     0.186 HD
BRANCH  21  23
HETATM   23  C4  UNL     1      13.616  51.995  84.109  1.00  0.00     0.120 A 
HETATM   24  C3  UNL     1      14.826  52.688  84.139  1.00  0.00     0.050 A 
HETATM   25  C2  UNL     1      15.696  52.517  83.084  1.00  0.00     0.024 A 
HETATM   26  C1  UNL     1      15.388  51.695  82.034  1.00  0.00     0.026 A 
HETATM   27 BR1  UNL     1      16.599  51.430  80.546  1.00  0.00    -0.050 Br
HETATM   28  C21 UNL     1      14.186  51.019  82.024  1.00  0.00     0.108 A 
HETATM   29  N8  UNL     1      13.346  51.183  83.042  1.00  0.00    -0.351 N 
ATOM     30  H8  UNL     1      12.459  50.679  83.026  1.00  0.00     0.166 HD
ENDBRANCH  21  23
ENDBRANCH   1  21
BRANCH   7  31
HETATM   31  N6  UNL     1      11.713  50.786  89.282  1.00  0.00    -0.223 N 
ATOM     32  H6  UNL     1      11.242  49.982  88.865  1.00  0.00     0.177 HD
BRANCH  31  33
HETATM   33  C15 UNL     1      11.739  50.922  90.719  1.00  0.00     0.170 C 
BRANCH  33  34
HETATM   34  C16 UNL     1      10.328  51.286  91.225  1.00  0.00     0.139 C 
HETATM   35  C17 UNL     1      10.199  50.988  92.688  1.00  0.00     0.034 C 
HETATM   36  C18 UNL     1       9.944  52.135  93.584  1.00  0.00     0.005 C 
HETATM   37  C19 UNL     1      10.141  53.498  93.037  1.00  0.00     0.026 C 
HETATM   38  C20 UNL     1      10.601  53.563  91.615  1.00  0.00     0.168 C 
HETATM   39  O1  UNL     1      10.037  52.574  90.869  1.00  0.00    -0.384 OA
ENDBRANCH  33  34
ENDBRANCH  31  33
ENDBRANCH   7  31
TORSDOF 9
ENDMDL
MODEL 3
REMARK VINA RESULT: -7.476670012      4.151      8.665
REMARK  9 active torsions:
REMARK  status: ('A' for Active; 'I' for Inactive)
REMARK    1  A    between atoms: C4_5  and  N1_6 
REMARK    2  A    between atoms: N1_6  and  C5_8 
REMARK    3  A    between atoms: C6_11  and  N3_12 
REMARK    4  A    between atoms: N3_12  and  C7_14 
REMARK    5  A    between atoms: C7_14  and  C8_15 
REMARK    6  A    between atoms: C8_15  and  C9_16 
REMARK    7  A    between atoms: C14_25  and  N6_26 
REMARK    8  A    between atoms: N6_26  and  C15_28 
REMARK    9  A    between atoms: C15_28  and  C16_29 
ROOT
HETATM    1  C5  UNL     1      13.790  54.036  88.904  1.00  0.00     0.713 A 
HETATM    2  N2  UNL     1      14.344  54.042  87.680  1.00  0.00    -0.021 N 
ATOM      3  H2  UNL     1      15.319  54.329  87.601  1.00  0.00     0.203 HD
HETATM    4  C6  UNL     1      13.697  53.692  86.544  1.00  0.00     0.707 A 
HETATM    5  N5  UNL     1      12.413  53.316  86.667  1.00  0.00    -0.022 N 
ATOM      6  H5  UNL     1      11.885  53.042  85.838  1.00  0.00     0.203 HD
HETATM    7  C14 UNL     1      11.809  53.296  87.888  1.00  0.00     0.707 A 
HETATM    8  N7  UNL     1      12.477  53.648  88.985  1.00  0.00    -0.021 N 
ATOM      9  H7  UNL     1      12.010  53.628  89.892  1.00  0.00     0.203 HD
ENDROOT
BRANCH   4  10
HETATM   10  N3  UNL     1      14.331  53.749  85.429  1.00  0.00    -0.225 N 
ATOM     11  H3  UNL     1      14.848  54.600  85.210  1.00  0.00     0.177 HD
BRANCH  10  12
HETATM   12  C7  UNL     1      14.351  52.682  84.477  1.00  0.00     0.144 C 
BRANCH  12  13
HETATM   13  C8  UNL     1      15.633  52.668  83.678  1.00  0.00     0.077 C 
BRANCH  13  14
HETATM   14  C9  UNL     1      15.515  51.936  82.405  1.00  0.00     0.010 A 
HETATM   15  C10 UNL     1      16.355  52.086  81.322  1.00  0.00     0.025 A 
HETATM   16  C11 UNL     1      16.149  51.329  80.185  1.00  0.00     0.003 A 
HETATM   17  C12 UNL     1      15.128  50.426  80.094  1.00  0.00     0.017 A 
HETATM   18  C13 UNL     1      14.304  50.299  81.199  1.00  0.00     0.088 A 
HETATM   19  N4  UNL     1      14.523  51.039  82.285  1.00  0.00    -0.369 N 
ATOM     20  H4  UNL     1      13.894  50.915  83.079  1.00  0.00     0.165 HD
ENDBRANCH  13  14
ENDBRANCH  12  13
ENDBRANCH  10  12
ENDBRANCH   4  10
BRANCH   1  21
HETATM   21  N1  UNL     1      14.355  54.318  89.970  1.00  0.00    -0.175 N 
ATOM     22  H1  UNL     1      15.183  54.897  89.828  1.00  0.00     0.186 HD
BRANCH  21  23
HETATM   23  C4  UNL     1      14.138  54.040  91.294  1.00  0.00     0.120 A 
HETATM   24  C3  UNL     1      13.781  55.058  92.178  1.00  0.00     0.050 A 
HETATM   25  C2  UNL     1      13.558  54.721  93.496  1.00  0.00     0.024 A 
HETATM   26  C1  UNL     1      13.682  53.430  93.932  1.00  0.00     0.026 A 
HETATM   27 BR1  UNL     1      13.363  52.931  95.776  1.00  0.00    -0.050 Br
HETATM   28  C21 UNL     1      14.036  52.439  93.040  1.00  0.00     0.108 A 
HETATM   29  N8  UNL     1      14.251  52.762  91.768  1.00  0.00    -0.351 N 
ATOM     30  H8  UNL     1      14.512  52.022  91.117  1.00  0.00     0.166 HD
ENDBRANCH  21  23
ENDBRANCH   1  21
BRANCH   7  31
HETATM   31  N6  UNL     1      10.601  52.910  88.004  1.00  0.00    -0.223 N 
ATOM     32  H6  UNL     1       9.956  53.051  87.226  1.00  0.00     0.177 HD
BRANCH  31  33
HETATM   33  C15 UNL     1      10.123  52.277  89.211  1.00  0.00     0.170 C 
BRANCH  33  34
HETATM   34  C16 UNL     1       9.132  53.220  89.926  1.00  0.00     0.139 C 
HETATM   35  C17 UNL     1       8.072  52.432  90.633  1.00  0.00     0.034 C 
HETATM   36  C18 UNL     1       8.014  52.562  92.105  1.00  0.00     0.005 C 
HETATM   37  C19 UNL     1       9.167  53.190  92.791  1.00  0.00     0.026 C 
HETATM   38  C20 UNL     1      10.292  53.619  91.903  1.00  0.00     0.168 C 
HETATM   39  O1  UNL     1       9.828  54.094  90.715  1.00  0.00    -0.384 OA
ENDBRANCH  33  34
ENDBRANCH  31  33
ENDBRANCH   7  31
TORSDOF 9
ENDMDL
MODEL 4
REMARK VINA RESULT: -7.467391390      1.538      5.899
REMARK  9 active torsions:
REMARK  status: ('A' for Active; 'I' for Inactive)
REMARK    1  A    between atoms: C4_5  and  N1_6 
REMARK    2  A    between atoms: N1_6  and  C5_8 
REMARK    3  A    between atoms: C6_11  and  N3_12 
REMARK    4  A    between atoms: N3_12  and  C7_14 
REMARK    5  A    between atoms: C7_14  and  C8_15 
REMARK    6  A    between atoms: C8_15  and  C9_16 
REMARK    7  A    between atoms: C14_25  and  N6_26 
REMARK    8  A    between atoms: N6_26  and  C15_28 
REMARK    9  A    between atoms: C15_28  and  C16_29 
ROOT
HETATM    1  C5  UNL     1      12.591  52.701  87.123  1.00  0.00     0.713 A 
HETATM    2  N2  UNL     1      12.209  51.531  87.663  1.00  0.00    -0.021 N 
ATOM      3  H2  UNL     1      11.932  50.783  87.028  1.00  0.00     0.203 HD
HETATM    4  C6  UNL     1      12.166  51.277  88.991  1.00  0.00     0.707 A 
HETATM    5  N5  UNL     1      12.534  52.274  89.813  1.00  0.00    -0.022 N 
ATOM      6  H5  UNL     1      12.519  52.129  90.822  1.00  0.00     0.203 HD
HETATM    7  C14 UNL     1      12.928  53.478  89.311  1.00  0.00     0.707 A 
HETATM    8  N7  UNL     1      12.957  53.692  87.997  1.00  0.00    -0.021 N 
ATOM      9  H7  UNL     1      13.255  54.600  87.638  1.00  0.00     0.203 HD
ENDROOT
BRANCH   4  10
HETATM   10  N3  UNL     1      11.771  50.121  89.388  1.00  0.00    -0.225 N 
ATOM     11  H3  UNL     1      10.774  49.911  89.346  1.00  0.00     0.177 HD
BRANCH  10  12
HETATM   12  C7  UNL     1      12.654  49.113  89.885  1.00  0.00     0.144 C 
BRANCH  12  13
HETATM   13  C8  UNL     1      12.560  47.839  89.078  1.00  0.00     0.077 C 
BRANCH  13  14
HETATM   14  C9  UNL     1      13.822  47.484  88.406  1.00  0.00     0.010 A 
HETATM   15  C10 UNL     1      15.075  47.558  88.976  1.00  0.00     0.025 A 
HETATM   16  C11 UNL     1      16.185  47.181  88.245  1.00  0.00     0.003 A 
HETATM   17  C12 UNL     1      16.083  46.733  86.959  1.00  0.00     0.017 A 
HETATM   18  C13 UNL     1      14.812  46.669  86.415  1.00  0.00     0.088 A 
HETATM   19  N4  UNL     1      13.756  47.037  87.140  1.00  0.00    -0.369 N 
ATOM     20  H4  UNL     1      12.835  46.974  86.705  1.00  0.00     0.165 HD
ENDBRANCH  13  14
ENDBRANCH  12  13
ENDBRANCH  10  12
ENDBRANCH   4  10
BRANCH   1  21
HETATM   21  N1  UNL     1      12.675  52.962  85.915  1.00  0.00    -0.175 N 
ATOM     22  H1  UNL     1      11.916  53.564  85.596  1.00  0.00     0.186 HD
BRANCH  21  23
HETATM   23  C4  UNL     1      13.541  52.639  84.904  1.00  0.00     0.120 A 
HETATM   24  C3  UNL     1      14.746  53.327  84.762  1.00  0.00     0.050 A 
HETATM   25  C2  UNL     1      15.589  52.950  83.737  1.00  0.00     0.024 A 
HETATM   26  C1  UNL     1      15.259  51.936  82.881  1.00  0.00     0.026 A 
HETATM   27 BR1  UNL     1      16.431  51.382  81.442  1.00  0.00    -0.050 Br
HETATM   28  C21 UNL     1      14.061  51.269  83.039  1.00  0.00     0.108 A 
HETATM   29  N8  UNL     1      13.248  51.630  84.027  1.00  0.00    -0.351 N 
ATOM     30  H8  UNL     1      12.365  51.132  84.137  1.00  0.00     0.166 HD
ENDBRANCH  21  23
ENDBRANCH   1  21
BRANCH   7  31
HETATM   31  N6  UNL     1      13.305  54.410  90.093  1.00  0.00    -0.223 N 
ATOM     32  H6  UNL     1      13.929  55.135  89.738  1.00  0.00     0.177 HD
BRANCH  31  33
HETATM   33  C15 UNL     1      12.869  54.464  91.468  1.00  0.00     0.170 C 
BRANCH  33  34
HETATM   34  C16 UNL     1      14.092  54.319  92.399  1.00  0.00     0.139 C 
HETATM   35  C17 UNL     1      13.744  54.734  93.796  1.00  0.00     0.034 C 
HETATM   36  C18 UNL     1      13.830  53.695  94.843  1.00  0.00     0.005 C 
HETATM   37  C19 UNL     1      13.944  52.283  94.409  1.00  0.00     0.026 C 
HETATM   38  C20 UNL     1      13.943  52.059  92.930  1.00  0.00     0.168 C 
HETATM   39  O1  UNL     1      14.603  53.056  92.281  1.00  0.00    -0.384 OA
ENDBRANCH  33  34
ENDBRANCH  31  33
ENDBRANCH   7  31
TORSDOF 9
ENDMDL
MODEL 5
REMARK VINA RESULT: -7.430240110      4.150      6.339
REMARK  9 active torsions:
REMARK  status: ('A' for Active; 'I' for Inactive)
REMARK    1  A    between atoms: C4_5  and  N1_6 
REMARK    2  A    between atoms: N1_6  and  C5_8 
REMARK    3  A    between atoms: C6_11  and  N3_12 
REMARK    4  A    between atoms: N3_12  and  C7_14 
REMARK    5  A    between atoms: C7_14  and  C8_15 
REMARK    6  A    between atoms: C8_15  and  C9_16 
REMARK    7  A    between atoms: C14_25  and  N6_26 
REMARK    8  A    between atoms: N6_26  and  C15_28 
REMARK    9  A    between atoms: C15_28  and  C16_29 
ROOT
HETATM    1  C5  UNL     1      11.011  53.480  90.041  1.00  0.00     0.713 A 
HETATM    2  N2  UNL     1      11.829  53.748  91.073  1.00  0.00    -0.021 N 
ATOM      3  H2  UNL     1      11.416  53.805  92.004  1.00  0.00     0.203 HD
HETATM    4  C6  UNL     1      13.163  53.946  90.963  1.00  0.00     0.707 A 
HETATM    5  N5  UNL     1      13.689  53.867  89.729  1.00  0.00    -0.022 N 
ATOM      6  H5  UNL     1      14.690  54.008  89.597  1.00  0.00     0.203 HD
HETATM    7  C14 UNL     1      12.898  53.599  88.653  1.00  0.00     0.707 A 
HETATM    8  N7  UNL     1      11.588  53.410  88.799  1.00  0.00    -0.021 N 
ATOM      9  H7  UNL     1      11.010  53.210  87.983  1.00  0.00     0.203 HD
ENDROOT
BRANCH   4  10
HETATM   10  N3  UNL     1      13.839  54.207  92.023  1.00  0.00    -0.225 N 
ATOM     11  H3  UNL     1      14.756  54.640  91.916  1.00  0.00     0.177 HD
BRANCH  10  12
HETATM   12  C7  UNL     1      13.376  53.922  93.345  1.00  0.00     0.144 C 
BRANCH  12  13
HETATM   13  C8  UNL     1      13.630  55.075  94.288  1.00  0.00     0.077 C 
BRANCH  13  14
HETATM   14  C9  UNL     1      12.396  55.748  94.728  1.00  0.00     0.010 A 
HETATM   15  C10 UNL     1      12.312  57.058  95.149  1.00  0.00     0.025 A 
HETATM   16  C11 UNL     1      11.090  57.581  95.524  1.00  0.00     0.003 A 
HETATM   17  C12 UNL     1       9.946  56.835  95.494  1.00  0.00     0.017 A 
HETATM   18  C13 UNL     1      10.064  55.523  95.066  1.00  0.00     0.088 A 
HETATM   19  N4  UNL     1      11.253  55.042  94.708  1.00  0.00    -0.369 N 
ATOM     20  H4  UNL     1      11.299  54.071  94.397  1.00  0.00     0.165 HD
ENDBRANCH  13  14
ENDBRANCH  12  13
ENDBRANCH  10  12
ENDBRANCH   4  10
BRANCH   1  21
HETATM   21  N1  UNL     1       9.793  53.261  90.104  1.00  0.00    -0.175 N 
ATOM     22  H1  UNL     1       9.576  52.443  90.674  1.00  0.00     0.186 HD
BRANCH  21  23
HETATM   23  C4  UNL     1       8.667  53.851  89.593  1.00  0.00     0.120 A 
HETATM   24  C3  UNL     1       7.601  53.069  89.150  1.00  0.00     0.050 A 
HETATM   25  C2  UNL     1       6.485  53.714  88.660  1.00  0.00     0.024 A 
HETATM   26  C1  UNL     1       6.419  55.080  88.605  1.00  0.00     0.026 A 
HETATM   27 BR1  UNL     1       4.859  56.008  87.931  1.00  0.00    -0.050 Br
HETATM   28  C21 UNL     1       7.486  55.834  89.048  1.00  0.00     0.108 A 
HETATM   29  N8  UNL     1       8.562  55.214  89.522  1.00  0.00    -0.351 N 
ATOM     30  H8  UNL     1       9.346  55.780  89.847  1.00  0.00     0.166 HD
ENDBRANCH  21  23
ENDBRANCH   1  21
BRANCH   7  31
HETATM   31  N6  UNL     1      13.405  53.495  87.490  1.00  0.00    -0.223 N 
ATOM     32  H6  UNL     1      14.248  54.025  87.264  1.00  0.00     0.177 HD
BRANCH  31  33
HETATM   33  C15 UNL     1      12.816  52.644  86.482  1.00  0.00     0.170 C 
BRANCH  33  34
HETATM   34  C16 UNL     1      13.121  53.220  85.083  1.00  0.00     0.139 C 
HETATM   35  C17 UNL     1      14.570  53.584  84.967  1.00  0.00     0.034 C 
HETATM   36  C18 UNL     1      15.364  52.850  83.959  1.00  0.00     0.005 C 
HETATM   37  C19 UNL     1      14.774  51.626  83.369  1.00  0.00     0.026 C 
HETATM   38  C20 UNL     1      13.419  51.250  83.881  1.00  0.00     0.168 C 
HETATM   39  O1  UNL     1      12.663  52.355  84.128  1.00  0.00    -0.384 OA
ENDBRANCH  33  34
ENDBRANCH  31  33
ENDBRANCH   7  31
TORSDOF 9
ENDMDL
