MODEL 1
REMARK VINA RESULT: -6.426739028      0.000      0.000
REMARK  9 active torsions:
REMARK  status: ('A' for Active; 'I' for Inactive)
REMARK    1  A    between atoms: C2_2  and  C3_3 
REMARK    2  A    between atoms: C3_3  and  C4_4 
REMARK    3  A    between atoms: C3_3  and  C12_14 
REMARK    4  A    between atoms: C4_4  and  C5_5 
REMARK    5  A    between atoms: C5_5  and  C6_6 
REMARK    6  A    between atoms: C6_6  and  N1_7 
REMARK    7  A    between atoms: N1_7  and  C7_9 
REMARK    8  A    between atoms: C7_9  and  C8_10 
REMARK    9  A    between atoms: C8_10  and  C9_11 
ROOT
HETATM    1  C5  UNL     1      36.723 -49.461 110.741  1.00  0.00     0.020 C 
ENDROOT
BRANCH   1   2
HETATM    2  C4  UNL     1      36.139 -48.413 111.631  1.00  0.00     0.006 C 
BRANCH   2   3
HETATM    3  C3  UNL     1      34.696 -48.139 111.561  1.00  0.00    -0.012 C 
BRANCH   3   4
HETATM    4  C2  UNL     1      34.106 -48.656 112.882  1.00  0.00     0.000 C 
HETATM    5  C1  UNL     1      32.704 -49.146 112.655  1.00  0.00     0.005 C 
ENDBRANCH   3   4
BRANCH   3   6
HETATM    6  C12 UNL     1      34.189 -46.782 111.342  1.00  0.00    -0.019 C 
HETATM    7  C13 UNL     1      33.418 -46.531 110.072  1.00  0.00     0.010 C 
HETATM    8  C14 UNL     1      35.203 -45.675 111.517  1.00  0.00     0.010 C 
ENDBRANCH   3   6
ENDBRANCH   2   3
ENDBRANCH   1   2
BRANCH   1   9
HETATM    9  C6  UNL     1      38.067 -49.845 111.396  1.00  0.00     0.113 C 
BRANCH   9  10
HETATM   10  N1  UNL     1      39.092 -48.901 111.170  1.00  0.00    -0.421 N 
ATOM     11  H1  UNL     1      38.888 -47.902 111.148  1.00  0.00     0.153 HD
BRANCH  10  12
HETATM   12  C7  UNL     1      40.409 -49.380 110.974  1.00  0.00     0.114 C 
BRANCH  12  13
HETATM   13  C8  UNL     1      40.668 -50.810 111.287  1.00  0.00     0.024 C 
BRANCH  13  14
HETATM   14  C9  UNL     1      41.753 -51.491 110.548  1.00  0.00    -0.013 A 
HETATM   15  C10 UNL     1      43.170 -51.147 110.555  1.00  0.00     0.005 A 
HETATM   16  C11 UNL     1      42.686 -52.368 111.341  1.00  0.00     0.005 A 
ENDBRANCH  13  14
ENDBRANCH  12  13
ENDBRANCH  10  12
ENDBRANCH   9  10
ENDBRANCH   1   9
TORSDOF 9
ENDMDL
MODEL 2
REMARK VINA RESULT: -6.359797390      0.652      1.167
REMARK  9 active torsions:
REMARK  status: ('A' for Active; 'I' for Inactive)
REMARK    1  A    between atoms: C2_2  and  C3_3 
REMARK    2  A    between atoms: C3_3  and  C4_4 
REMARK    3  A    between atoms: C3_3  and  C12_14 
REMARK    4  A    between atoms: C4_4  and  C5_5 
REMARK    5  A    between atoms: C5_5  and  C6_6 
REMARK    6  A    between atoms: C6_6  and  N1_7 
REMARK    7  A    between atoms: N1_7  and  C7_9 
REMARK    8  A    between atoms: C7_9  and  C8_10 
REMARK    9  A    between atoms: C8_10  and  C9_11 
ROOT
HETATM    1  C5  UNL     1      36.895 -49.435 110.882  1.00  0.00     0.020 C 
ENDROOT
BRANCH   1   2
HETATM    2  C4  UNL     1      36.073 -48.791 111.951  1.00  0.00     0.006 C 
BRANCH   2   3
HETATM    3  C3  UNL     1      34.777 -48.196 111.594  1.00  0.00    -0.012 C 
BRANCH   3   4
HETATM    4  C2  UNL     1      33.933 -48.226 112.878  1.00  0.00     0.000 C 
HETATM    5  C1  UNL     1      32.748 -49.129 112.685  1.00  0.00     0.005 C 
ENDBRANCH   3   4
BRANCH   3   6
HETATM    6  C12 UNL     1      34.689 -46.847 111.029  1.00  0.00    -0.019 C 
HETATM    7  C13 UNL     1      34.959 -45.692 111.958  1.00  0.00     0.010 C 
HETATM    8  C14 UNL     1      33.429 -46.553 110.248  1.00  0.00     0.010 C 
ENDBRANCH   3   6
ENDBRANCH   2   3
ENDBRANCH   1   2
BRANCH   1   9
HETATM    9  C6  UNL     1      38.362 -49.184 111.293  1.00  0.00     0.113 C 
BRANCH   9  10
HETATM   10  N1  UNL     1      38.856 -50.131 112.215  1.00  0.00    -0.421 N 
ATOM     11  H1  UNL     1      38.499 -50.169 113.170  1.00  0.00     0.153 HD
BRANCH  10  12
HETATM   12  C7  UNL     1      39.861 -51.027 111.778  1.00  0.00     0.114 C 
BRANCH  12  13
HETATM   13  C8  UNL     1      40.992 -50.456 111.000  1.00  0.00     0.024 C 
BRANCH  13  14
HETATM   14  C9  UNL     1      41.983 -51.396 110.435  1.00  0.00    -0.013 A 
HETATM   15  C10 UNL     1      43.430 -51.352 110.606  1.00  0.00     0.005 A 
HETATM   16  C11 UNL     1      42.611 -52.389 111.376  1.00  0.00     0.005 A 
ENDBRANCH  13  14
ENDBRANCH  12  13
ENDBRANCH  10  12
ENDBRANCH   9  10
ENDBRANCH   1   9
TORSDOF 9
ENDMDL
MODEL 3
REMARK VINA RESULT: -6.255880960      1.125      2.118
REMARK  9 active torsions:
REMARK  status: ('A' for Active; 'I' for Inactive)
REMARK    1  A    between atoms: C2_2  and  C3_3 
REMARK    2  A    between atoms: C3_3  and  C4_4 
REMARK    3  A    between atoms: C3_3  and  C12_14 
REMARK    4  A    between atoms: C4_4  and  C5_5 
REMARK    5  A    between atoms: C5_5  and  C6_6 
REMARK    6  A    between atoms: C6_6  and  N1_7 
REMARK    7  A    between atoms: N1_7  and  C7_9 
REMARK    8  A    between atoms: C7_9  and  C8_10 
REMARK    9  A    between atoms: C8_10  and  C9_11 
ROOT
HETATM    1  C5  UNL     1      37.874 -49.175 111.103  1.00  0.00     0.020 C 
ENDROOT
BRANCH   1   2
HETATM    2  C4  UNL     1      36.382 -49.143 111.031  1.00  0.00     0.006 C 
BRANCH   2   3
HETATM    3  C3  UNL     1      35.654 -48.091 111.755  1.00  0.00    -0.012 C 
BRANCH   3   4
HETATM    4  C2  UNL     1      34.629 -47.528 110.758  1.00  0.00     0.000 C 
HETATM    5  C1  UNL     1      34.645 -46.027 110.807  1.00  0.00     0.005 C 
ENDBRANCH   3   4
BRANCH   3   6
HETATM    6  C12 UNL     1      34.952 -48.376 113.009  1.00  0.00    -0.019 C 
HETATM    7  C13 UNL     1      33.471 -48.640 112.926  1.00  0.00     0.010 C 
HETATM    8  C14 UNL     1      35.205 -47.393 114.130  1.00  0.00     0.010 C 
ENDBRANCH   3   6
ENDBRANCH   2   3
ENDBRANCH   1   2
BRANCH   1   9
HETATM    9  C6  UNL     1      38.200 -49.861 112.447  1.00  0.00     0.113 C 
BRANCH   9  10
HETATM   10  N1  UNL     1      39.051 -50.980 112.314  1.00  0.00    -0.421 N 
ATOM     11  H1  UNL     1      38.874 -51.838 112.834  1.00  0.00     0.153 HD
BRANCH  10  12
HETATM   12  C7  UNL     1      40.159 -50.875 111.438  1.00  0.00     0.114 C 
BRANCH  12  13
HETATM   13  C8  UNL     1      41.198 -51.935 111.525  1.00  0.00     0.024 C 
BRANCH  13  14
HETATM   14  C9  UNL     1      42.320 -51.879 110.564  1.00  0.00    -0.013 A 
HETATM   15  C10 UNL     1      43.328 -50.833 110.452  1.00  0.00     0.005 A 
HETATM   16  C11 UNL     1      43.699 -52.172 111.092  1.00  0.00     0.005 A 
ENDBRANCH  13  14
ENDBRANCH  12  13
ENDBRANCH  10  12
ENDBRANCH   9  10
ENDBRANCH   1   9
TORSDOF 9
ENDMDL
MODEL 4
REMARK VINA RESULT: -6.200042100      0.689      1.270
REMARK  9 active torsions:
REMARK  status: ('A' for Active; 'I' for Inactive)
REMARK    1  A    between atoms: C2_2  and  C3_3 
REMARK    2  A    between atoms: C3_3  and  C4_4 
REMARK    3  A    between atoms: C3_3  and  C12_14 
REMARK    4  A    between atoms: C4_4  and  C5_5 
REMARK    5  A    between atoms: C5_5  and  C6_6 
REMARK    6  A    between atoms: C6_6  and  N1_7 
REMARK    7  A    between atoms: N1_7  and  C7_9 
REMARK    8  A    between atoms: C7_9  and  C8_10 
REMARK    9  A    between atoms: C8_10  and  C9_11 
ROOT
HETATM    1  C5  UNL     1      36.853 -49.428 110.770  1.00  0.00     0.020 C 
ENDROOT
BRANCH   1   2
HETATM    2  C4  UNL     1      36.054 -48.767 111.845  1.00  0.00     0.006 C 
BRANCH   2   3
HETATM    3  C3  UNL     1      34.754 -48.171 111.504  1.00  0.00    -0.012 C 
BRANCH   3   4
HETATM    4  C2  UNL     1      33.962 -48.110 112.820  1.00  0.00     0.000 C 
HETATM    5  C1  UNL     1      32.852 -49.120 112.793  1.00  0.00     0.005 C 
ENDBRANCH   3   4
BRANCH   3   6
HETATM    6  C12 UNL     1      34.664 -46.856 110.863  1.00  0.00    -0.019 C 
HETATM    7  C13 UNL     1      35.145 -45.669 111.656  1.00  0.00     0.010 C 
HETATM    8  C14 UNL     1      33.319 -46.521 110.260  1.00  0.00     0.010 C 
ENDBRANCH   3   6
ENDBRANCH   2   3
ENDBRANCH   1   2
BRANCH   1   9
HETATM    9  C6  UNL     1      37.961 -50.207 111.510  1.00  0.00     0.113 C 
BRANCH   9  10
HETATM   10  N1  UNL     1      38.904 -49.372 112.147  1.00  0.00    -0.421 N 
ATOM     11  H1  UNL     1      38.835 -49.168 113.144  1.00  0.00     0.153 HD
BRANCH  10  12
HETATM   12  C7  UNL     1      39.950 -48.826 111.364  1.00  0.00     0.114 C 
BRANCH  12  13
HETATM   13  C8  UNL     1      40.710 -49.761 110.494  1.00  0.00     0.024 C 
BRANCH  13  14
HETATM   14  C9  UNL     1      41.677 -50.673 111.143  1.00  0.00    -0.013 A 
HETATM   15  C10 UNL     1      41.470 -52.076 111.479  1.00  0.00     0.005 A 
HETATM   16  C11 UNL     1      42.341 -51.709 110.276  1.00  0.00     0.005 A 
ENDBRANCH  13  14
ENDBRANCH  12  13
ENDBRANCH  10  12
ENDBRANCH   9  10
ENDBRANCH   1   9
TORSDOF 9
ENDMDL
MODEL 5
REMARK VINA RESULT: -6.184153330      0.771      1.888
REMARK  9 active torsions:
REMARK  status: ('A' for Active; 'I' for Inactive)
REMARK    1  A    between atoms: C2_2  and  C3_3 
REMARK    2  A    between atoms: C3_3  and  C4_4 
REMARK    3  A    between atoms: C3_3  and  C12_14 
REMARK    4  A    between atoms: C4_4  and  C5_5 
REMARK    5  A    between atoms: C5_5  and  C6_6 
REMARK    6  A    between atoms: C6_6  and  N1_7 
REMARK    7  A    between atoms: N1_7  and  C7_9 
REMARK    8  A    between atoms: C7_9  and  C8_10 
REMARK    9  A    between atoms: C8_10  and  C9_11 
ROOT
HETATM    1  C5  UNL     1      36.556 -49.169 111.105  1.00  0.00     0.020 C 
ENDROOT
BRANCH   1   2
HETATM    2  C4  UNL     1      36.241 -48.358 112.320  1.00  0.00     0.006 C 
BRANCH   2   3
HETATM    3  C3  UNL     1      34.961 -47.638 112.385  1.00  0.00    -0.012 C 
BRANCH   3   4
HETATM    4  C2  UNL     1      34.462 -47.537 110.935  1.00  0.00     0.000 C 
HETATM    5  C1  UNL     1      34.200 -46.099 110.587  1.00  0.00     0.005 C 
ENDBRANCH   3   4
BRANCH   3   6
HETATM    6  C12 UNL     1      33.853 -48.127 113.210  1.00  0.00    -0.019 C 
HETATM    7  C13 UNL     1      32.867 -49.060 112.556  1.00  0.00     0.010 C 
HETATM    8  C14 UNL     1      33.085 -47.063 113.960  1.00  0.00     0.010 C 
ENDBRANCH   3   6
ENDBRANCH   2   3
ENDBRANCH   1   2
BRANCH   1   9
HETATM    9  C6  UNL     1      37.936 -49.801 111.386  1.00  0.00     0.113 C 
BRANCH   9  10
HETATM   10  N1  UNL     1      39.002 -48.879 111.311  1.00  0.00    -0.421 N 
ATOM     11  H1  UNL     1      38.852 -47.888 111.499  1.00  0.00     0.153 HD
BRANCH  10  12
HETATM   12  C7  UNL     1      40.285 -49.368 110.966  1.00  0.00     0.114 C 
BRANCH  12  13
HETATM   13  C8  UNL     1      40.606 -50.768 111.348  1.00  0.00     0.024 C 
BRANCH  13  14
HETATM   14  C9  UNL     1      41.667 -51.463 110.589  1.00  0.00    -0.013 A 
HETATM   15  C10 UNL     1      43.092 -51.158 110.594  1.00  0.00     0.005 A 
HETATM   16  C11 UNL     1      42.579 -52.382 111.357  1.00  0.00     0.005 A 
ENDBRANCH  13  14
ENDBRANCH  12  13
ENDBRANCH  10  12
ENDBRANCH   9  10
ENDBRANCH   1   9
TORSDOF 9
ENDMDL
