MODEL 1
REMARK VINA RESULT: -6.519094904      0.000      0.000
REMARK  8 active torsions:
REMARK  status: ('A' for Active; 'I' for Inactive)
REMARK    1  A    between atoms: C2_2  and  C3_3 
REMARK    2  A    between atoms: C3_3  and  C4_4 
REMARK    3  A    between atoms: C4_4  and  C5_5 
REMARK    4  A    between atoms: C5_5  and  C6_6 
REMARK    5  A    between atoms: C6_6  and  C7_7 
REMARK    6  A    between atoms: C7_7  and  N1_9 
REMARK    7  A    between atoms: N1_9  and  C10_11 
REMARK    8  A    between atoms: C10_11  and  C11_12 
ROOT
HETATM    1  N1  UNL     1      38.266 -49.565 111.567  1.00  0.00     0.092 N 
HETATM    2  C9  UNL     1      39.342 -48.652 111.229  1.00  0.00     0.310 C 
ENDROOT
BRANCH   1   3
HETATM    3  C7  UNL     1      38.817 -50.897 111.876  1.00  0.00     0.219 C 
HETATM    4  C8  UNL     1      38.631 -51.196 113.341  1.00  0.00     0.043 C 
BRANCH   3   5
HETATM    5  C6  UNL     1      40.265 -50.864 111.473  1.00  0.00     0.035 C 
BRANCH   5   6
HETATM    6  C5  UNL     1      40.940 -52.190 111.521  1.00  0.00     0.002 C 
BRANCH   6   7
HETATM    7  C4  UNL     1      42.412 -52.058 111.259  1.00  0.00     0.000 C 
BRANCH   7   8
HETATM    8  C3  UNL     1      42.751 -50.868 110.394  1.00  0.00    -0.000 C 
BRANCH   8   9
HETATM    9  C2  UNL     1      44.226 -50.734 110.250  1.00  0.00    -0.005 C 
HETATM   10  C1  UNL     1      44.862 -51.902 109.563  1.00  0.00     0.005 C 
ENDBRANCH   8   9
ENDBRANCH   7   8
ENDBRANCH   6   7
ENDBRANCH   5   6
ENDBRANCH   3   5
ENDBRANCH   1   3
BRANCH   1  11
HETATM   11  C10 UNL     1      37.535 -49.140 112.732  1.00  0.00     0.312 C 
BRANCH  11  12
HETATM   12  C11 UNL     1      36.269 -48.471 112.412  1.00  0.00    -0.013 A 
HETATM   13  C12 UNL     1      35.633 -48.484 111.196  1.00  0.00     0.027 A 
HETATM   14  C13 UNL     1      34.476 -47.732 111.307  1.00  0.00     0.088 A 
HETATM   15  N2  UNL     1      34.438 -47.291 112.561  1.00  0.00    -0.375 N 
HETATM   16  C14 UNL     1      35.500 -47.717 113.250  1.00  0.00     0.096 A 
ATOM     17  H2  UNL     1      33.696 -46.705 112.946  1.00  0.00     0.164 HD
ENDBRANCH  11  12
ENDBRANCH   1  11
TORSDOF 8
ENDMDL
MODEL 2
REMARK VINA RESULT: -6.431123902      1.066      1.809
REMARK  8 active torsions:
REMARK  status: ('A' for Active; 'I' for Inactive)
REMARK    1  A    between atoms: C2_2  and  C3_3 
REMARK    2  A    between atoms: C3_3  and  C4_4 
REMARK    3  A    between atoms: C4_4  and  C5_5 
REMARK    4  A    between atoms: C5_5  and  C6_6 
REMARK    5  A    between atoms: C6_6  and  C7_7 
REMARK    6  A    between atoms: C7_7  and  N1_9 
REMARK    7  A    between atoms: N1_9  and  C10_11 
REMARK    8  A    between atoms: C10_11  and  C11_12 
ROOT
HETATM    1  N1  UNL     1      37.285 -49.482 111.873  1.00  0.00     0.092 N 
HETATM    2  C9  UNL     1      37.088 -49.910 110.501  1.00  0.00     0.310 C 
ENDROOT
BRANCH   1   3
HETATM    3  C7  UNL     1      38.723 -49.480 112.197  1.00  0.00     0.219 C 
HETATM    4  C8  UNL     1      39.455 -48.564 111.250  1.00  0.00     0.043 C 
BRANCH   3   5
HETATM    5  C6  UNL     1      39.184 -50.907 112.093  1.00  0.00     0.035 C 
BRANCH   5   6
HETATM    6  C5  UNL     1      40.461 -51.080 111.345  1.00  0.00     0.002 C 
BRANCH   6   7
HETATM    7  C4  UNL     1      41.156 -52.348 111.748  1.00  0.00     0.000 C 
BRANCH   7   8
HETATM    8  C3  UNL     1      42.624 -52.352 111.397  1.00  0.00    -0.000 C 
BRANCH   8   9
HETATM    9  C2  UNL     1      42.986 -51.112 110.659  1.00  0.00    -0.005 C 
HETATM   10  C1  UNL     1      44.429 -51.059 110.263  1.00  0.00     0.005 C 
ENDBRANCH   8   9
ENDBRANCH   7   8
ENDBRANCH   6   7
ENDBRANCH   5   6
ENDBRANCH   3   5
ENDBRANCH   1   3
BRANCH   1  11
HETATM   11  C10 UNL     1      36.809 -48.142 112.100  1.00  0.00     0.312 C 
BRANCH  11  12
HETATM   12  C11 UNL     1      35.351 -48.015 111.984  1.00  0.00    -0.013 A 
HETATM   13  C12 UNL     1      34.421 -48.640 112.775  1.00  0.00     0.027 A 
HETATM   14  C13 UNL     1      33.163 -48.262 112.338  1.00  0.00     0.088 A 
HETATM   15  N2  UNL     1      33.356 -47.434 111.316  1.00  0.00    -0.375 N 
HETATM   16  C14 UNL     1      34.660 -47.265 111.078  1.00  0.00     0.096 A 
ATOM     17  H2  UNL     1      32.609 -46.988 110.784  1.00  0.00     0.164 HD
ENDBRANCH  11  12
ENDBRANCH   1  11
TORSDOF 8
ENDMDL
MODEL 3
REMARK VINA RESULT: -6.211242656      0.870      1.549
REMARK  8 active torsions:
REMARK  status: ('A' for Active; 'I' for Inactive)
REMARK    1  A    between atoms: C2_2  and  C3_3 
REMARK    2  A    between atoms: C3_3  and  C4_4 
REMARK    3  A    between atoms: C4_4  and  C5_5 
REMARK    4  A    between atoms: C5_5  and  C6_6 
REMARK    5  A    between atoms: C6_6  and  C7_7 
REMARK    6  A    between atoms: C7_7  and  N1_9 
REMARK    7  A    between atoms: N1_9  and  C10_11 
REMARK    8  A    between atoms: C10_11  and  C11_12 
ROOT
HETATM    1  N1  UNL     1      38.498 -49.767 112.477  1.00  0.00     0.092 N 
HETATM    2  C9  UNL     1      38.302 -51.038 113.150  1.00  0.00     0.310 C 
ENDROOT
BRANCH   1   3
HETATM    3  C7  UNL     1      39.820 -49.743 111.827  1.00  0.00     0.219 C 
HETATM    4  C8  UNL     1      39.786 -48.814 110.641  1.00  0.00     0.043 C 
BRANCH   3   5
HETATM    5  C6  UNL     1      40.131 -51.162 111.440  1.00  0.00     0.035 C 
BRANCH   5   6
HETATM    6  C5  UNL     1      41.465 -51.339 110.801  1.00  0.00     0.002 C 
BRANCH   6   7
HETATM    7  C4  UNL     1      42.238 -52.444 111.461  1.00  0.00     0.000 C 
BRANCH   7   8
HETATM    8  C3  UNL     1      43.733 -52.260 111.356  1.00  0.00    -0.000 C 
BRANCH   8   9
HETATM    9  C2  UNL     1      44.067 -51.352 110.225  1.00  0.00    -0.005 C 
HETATM   10  C1  UNL     1      45.088 -51.923 109.291  1.00  0.00     0.005 C 
ENDBRANCH   8   9
ENDBRANCH   7   8
ENDBRANCH   6   7
ENDBRANCH   5   6
ENDBRANCH   3   5
ENDBRANCH   1   3
BRANCH   1  11
HETATM   11  C10 UNL     1      37.524 -49.543 111.440  1.00  0.00     0.312 C 
BRANCH  11  12
HETATM   12  C11 UNL     1      36.371 -48.752 111.886  1.00  0.00    -0.013 A 
HETATM   13  C12 UNL     1      35.372 -48.259 111.084  1.00  0.00     0.027 A 
HETATM   14  C13 UNL     1      34.481 -47.567 111.886  1.00  0.00     0.088 A 
HETATM   15  N2  UNL     1      34.949 -47.655 113.127  1.00  0.00    -0.375 N 
HETATM   16  C14 UNL     1      36.083 -48.361 113.161  1.00  0.00     0.096 A 
ATOM     17  H2  UNL     1      34.502 -47.240 113.945  1.00  0.00     0.164 HD
ENDBRANCH  11  12
ENDBRANCH   1  11
TORSDOF 8
ENDMDL
MODEL 4
REMARK VINA RESULT: -6.146983228      1.995      7.571
REMARK  8 active torsions:
REMARK  status: ('A' for Active; 'I' for Inactive)
REMARK    1  A    between atoms: C2_2  and  C3_3 
REMARK    2  A    between atoms: C3_3  and  C4_4 
REMARK    3  A    between atoms: C4_4  and  C5_5 
REMARK    4  A    between atoms: C5_5  and  C6_6 
REMARK    5  A    between atoms: C6_6  and  C7_7 
REMARK    6  A    between atoms: C7_7  and  N1_9 
REMARK    7  A    between atoms: N1_9  and  C10_11 
REMARK    8  A    between atoms: C10_11  and  C11_12 
ROOT
HETATM    1  N1  UNL     1      39.689 -49.643 111.872  1.00  0.00     0.092 N 
HETATM    2  C9  UNL     1      39.423 -48.736 110.770  1.00  0.00     0.310 C 
ENDROOT
BRANCH   1   3
HETATM    3  C7  UNL     1      38.524 -49.692 112.773  1.00  0.00     0.219 C 
HETATM    4  C8  UNL     1      38.335 -51.098 113.282  1.00  0.00     0.043 C 
BRANCH   3   5
HETATM    5  C6  UNL     1      37.347 -49.204 111.974  1.00  0.00     0.035 C 
BRANCH   5   6
HETATM    6  C5  UNL     1      36.252 -48.624 112.799  1.00  0.00     0.002 C 
BRANCH   6   7
HETATM    7  C4  UNL     1      34.999 -48.450 111.990  1.00  0.00     0.000 C 
BRANCH   7   8
HETATM    8  C3  UNL     1      33.781 -48.182 112.841  1.00  0.00    -0.000 C 
BRANCH   8   9
HETATM    9  C2  UNL     1      32.711 -49.172 112.542  1.00  0.00    -0.005 C 
HETATM   10  C1  UNL     1      31.570 -49.118 113.510  1.00  0.00     0.005 C 
ENDBRANCH   8   9
ENDBRANCH   7   8
ENDBRANCH   6   7
ENDBRANCH   5   6
ENDBRANCH   3   5
ENDBRANCH   1   3
BRANCH   1  11
HETATM   11  C10 UNL     1      39.923 -50.991 111.424  1.00  0.00     0.312 C 
BRANCH  11  12
HETATM   12  C11 UNL     1      41.343 -51.300 111.224  1.00  0.00    -0.013 A 
HETATM   13  C12 UNL     1      41.982 -52.449 111.616  1.00  0.00     0.027 A 
HETATM   14  C13 UNL     1      43.313 -52.347 111.247  1.00  0.00     0.088 A 
HETATM   15  N2  UNL     1      43.446 -51.165 110.653  1.00  0.00    -0.375 N 
HETATM   16  C14 UNL     1      42.281 -50.512 110.624  1.00  0.00     0.096 A 
ATOM     17  H2  UNL     1      44.321 -50.805 110.272  1.00  0.00     0.164 HD
ENDBRANCH  11  12
ENDBRANCH   1  11
TORSDOF 8
ENDMDL
MODEL 5
REMARK VINA RESULT: -6.088378751      1.163      1.709
REMARK  8 active torsions:
REMARK  status: ('A' for Active; 'I' for Inactive)
REMARK    1  A    between atoms: C2_2  and  C3_3 
REMARK    2  A    between atoms: C3_3  and  C4_4 
REMARK    3  A    between atoms: C4_4  and  C5_5 
REMARK    4  A    between atoms: C5_5  and  C6_6 
REMARK    5  A    between atoms: C6_6  and  C7_7 
REMARK    6  A    between atoms: C7_7  and  N1_9 
REMARK    7  A    between atoms: N1_9  and  C10_11 
REMARK    8  A    between atoms: C10_11  and  C11_12 
ROOT
HETATM    1  N1  UNL     1      37.078 -49.773 111.714  1.00  0.00     0.092 N 
HETATM    2  C9  UNL     1      37.028 -49.813 110.264  1.00  0.00     0.310 C 
ENDROOT
BRANCH   1   3
HETATM    3  C7  UNL     1      38.442 -50.084 112.177  1.00  0.00     0.219 C 
HETATM    4  C8  UNL     1      38.525 -49.899 113.670  1.00  0.00     0.043 C 
BRANCH   3   5
HETATM    5  C6  UNL     1      39.366 -49.163 111.429  1.00  0.00     0.035 C 
BRANCH   5   6
HETATM    6  C5  UNL     1      40.636 -49.804 110.989  1.00  0.00     0.002 C 
BRANCH   6   7
HETATM    7  C4  UNL     1      40.623 -51.279 111.269  1.00  0.00     0.000 C 
BRANCH   7   8
HETATM    8  C3  UNL     1      42.003 -51.892 111.261  1.00  0.00    -0.000 C 
BRANCH   8   9
HETATM    9  C2  UNL     1      42.976 -50.973 110.610  1.00  0.00    -0.005 C 
HETATM   10  C1  UNL     1      44.309 -51.606 110.360  1.00  0.00     0.005 C 
ENDBRANCH   8   9
ENDBRANCH   7   8
ENDBRANCH   6   7
ENDBRANCH   5   6
ENDBRANCH   3   5
ENDBRANCH   1   3
BRANCH   1  11
HETATM   11  C10 UNL     1      36.750 -48.472 112.235  1.00  0.00     0.312 C 
BRANCH  11  12
HETATM   12  C11 UNL     1      35.339 -48.113 112.060  1.00  0.00    -0.013 A 
HETATM   13  C12 UNL     1      34.268 -48.736 112.649  1.00  0.00     0.027 A 
HETATM   14  C13 UNL     1      33.114 -48.101 112.223  1.00  0.00     0.088 A 
HETATM   15  N2  UNL     1      33.503 -47.129 111.404  1.00  0.00    -0.375 N 
HETATM   16  C14 UNL     1      34.834 -47.109 111.285  1.00  0.00     0.096 A 
ATOM     17  H2  UNL     1      32.871 -46.483 110.930  1.00  0.00     0.164 HD
ENDBRANCH  11  12
ENDBRANCH   1  11
TORSDOF 8
ENDMDL
