MODEL 1
REMARK VINA RESULT: -6.958451725      0.000      0.000
REMARK  10 active torsions:
REMARK  status: ('A' for Active; 'I' for Inactive)
REMARK    1  A    between atoms: N1_1  and  C1_5 
REMARK    2  A    between atoms: C1_5  and  C2_6 
REMARK    3  A    between atoms: C2_6  and  C3_7 
REMARK    4  A    between atoms: C3_7  and  C4_8 
REMARK    5  A    between atoms: C4_8  and  C5_9 
REMARK    6  A    between atoms: C5_9  and  C6_10 
REMARK    7  A    between atoms: C6_10  and  C7_11 
REMARK    8  A    between atoms: C7_11  and  C8_12 
REMARK    9  A    between atoms: C8_12  and  C9_13 
REMARK   10  A    between atoms: C9_13  and  C10_14 
ROOT
HETATM    1  C5  UNL     1      36.898 -49.310 111.154  1.00  0.00     0.000 C 
ENDROOT
BRANCH   1   2
HETATM    2  C4  UNL     1      35.667 -48.476 111.318  1.00  0.00     0.000 C 
BRANCH   2   3
HETATM    3  C3  UNL     1      35.082 -48.486 112.676  1.00  0.00     0.002 C 
BRANCH   3   4
HETATM    4  C2  UNL     1      33.622 -48.589 112.828  1.00  0.00     0.027 C 
BRANCH   4   5
HETATM    5  C1  UNL     1      32.878 -47.329 113.155  1.00  0.00     0.229 C 
BRANCH   5   6
HETATM    6  N1  UNL     1      33.290 -46.682 114.319  1.00  0.00    -0.079 N 
ATOM      7  H13 UNL     1      34.214 -46.272 114.184  1.00  0.00     0.274 HD
ATOM      8  H12 UNL     1      32.739 -45.836 114.465  1.00  0.00     0.274 HD
ATOM      9  H11 UNL     1      33.281 -47.256 115.162  1.00  0.00     0.274 HD
ENDBRANCH   5   6
ENDBRANCH   4   5
ENDBRANCH   3   4
ENDBRANCH   2   3
ENDBRANCH   1   2
BRANCH   1  10
HETATM   10  C6  UNL     1      37.573 -49.460 112.495  1.00  0.00     0.000 C 
BRANCH  10  11
HETATM   11  C7  UNL     1      38.467 -50.666 112.595  1.00  0.00     0.000 C 
BRANCH  11  12
HETATM   12  C8  UNL     1      39.723 -50.480 111.733  1.00  0.00     0.000 C 
BRANCH  12  13
HETATM   13  C9  UNL     1      40.393 -51.803 111.512  1.00  0.00     0.005 C 
BRANCH  13  14
HETATM   14  C10 UNL     1      41.676 -51.753 110.790  1.00  0.00    -0.008 C 
HETATM   15  C11 UNL     1      42.800 -52.509 111.502  1.00  0.00     0.031 C 
HETATM   16  C12 UNL     1      43.970 -52.004 110.691  1.00  0.00    -0.030 C 
HETATM   17  C13 UNL     1      43.679 -50.806 110.199  1.00  0.00    -0.030 C 
HETATM   18  C14 UNL     1      42.309 -50.415 110.634  1.00  0.00     0.031 C 
ENDBRANCH  13  14
ENDBRANCH  12  13
ENDBRANCH  11  12
ENDBRANCH  10  11
ENDBRANCH   1  10
TORSDOF 10
ENDMDL
MODEL 2
REMARK VINA RESULT: -6.905619359      1.144      1.515
REMARK  10 active torsions:
REMARK  status: ('A' for Active; 'I' for Inactive)
REMARK    1  A    between atoms: N1_1  and  C1_5 
REMARK    2  A    between atoms: C1_5  and  C2_6 
REMARK    3  A    between atoms: C2_6  and  C3_7 
REMARK    4  A    between atoms: C3_7  and  C4_8 
REMARK    5  A    between atoms: C4_8  and  C5_9 
REMARK    6  A    between atoms: C5_9  and  C6_10 
REMARK    7  A    between atoms: C6_10  and  C7_11 
REMARK    8  A    between atoms: C7_11  and  C8_12 
REMARK    9  A    between atoms: C8_12  and  C9_13 
REMARK   10  A    between atoms: C9_13  and  C10_14 
ROOT
HETATM    1  C5  UNL     1      36.975 -49.751 110.747  1.00  0.00     0.000 C 
ENDROOT
BRANCH   1   2
HETATM    2  C4  UNL     1      36.019 -48.648 111.076  1.00  0.00     0.000 C 
BRANCH   2   3
HETATM    3  C3  UNL     1      35.882 -48.349 112.518  1.00  0.00     0.002 C 
BRANCH   3   4
HETATM    4  C2  UNL     1      34.559 -48.458 113.151  1.00  0.00     0.027 C 
BRANCH   4   5
HETATM    5  C1  UNL     1      33.366 -48.476 112.242  1.00  0.00     0.229 C 
BRANCH   5   6
HETATM    6  N1  UNL     1      32.291 -49.243 112.690  1.00  0.00    -0.079 N 
ATOM      7  H13 UNL     1      32.461 -49.563 113.643  1.00  0.00     0.274 HD
ATOM      8  H12 UNL     1      31.476 -48.650 112.843  1.00  0.00     0.274 HD
ATOM      9  H11 UNL     1      32.043 -50.033 112.094  1.00  0.00     0.274 HD
ENDBRANCH   5   6
ENDBRANCH   4   5
ENDBRANCH   3   4
ENDBRANCH   2   3
ENDBRANCH   1   2
BRANCH   1  10
HETATM   10  C6  UNL     1      38.247 -49.552 111.533  1.00  0.00     0.000 C 
BRANCH  10  11
HETATM   11  C7  UNL     1      38.606 -50.715 112.415  1.00  0.00     0.000 C 
BRANCH  11  12
HETATM   12  C8  UNL     1      39.804 -51.482 111.836  1.00  0.00     0.000 C 
BRANCH  12  13
HETATM   13  C9  UNL     1      40.701 -50.543 111.087  1.00  0.00     0.005 C 
BRANCH  13  14
HETATM   14  C10 UNL     1      42.133 -50.885 111.100  1.00  0.00    -0.008 C 
HETATM   15  C11 UNL     1      42.797 -50.758 109.727  1.00  0.00     0.031 C 
HETATM   16  C12 UNL     1      44.102 -51.453 110.035  1.00  0.00    -0.030 C 
HETATM   17  C13 UNL     1      43.914 -52.327 111.015  1.00  0.00    -0.030 C 
HETATM   18  C14 UNL     1      42.486 -52.290 111.439  1.00  0.00     0.031 C 
ENDBRANCH  13  14
ENDBRANCH  12  13
ENDBRANCH  11  12
ENDBRANCH  10  11
ENDBRANCH   1  10
TORSDOF 10
ENDMDL
MODEL 3
REMARK VINA RESULT: -6.886065378      1.055      2.014
REMARK  10 active torsions:
REMARK  status: ('A' for Active; 'I' for Inactive)
REMARK    1  A    between atoms: N1_1  and  C1_5 
REMARK    2  A    between atoms: C1_5  and  C2_6 
REMARK    3  A    between atoms: C2_6  and  C3_7 
REMARK    4  A    between atoms: C3_7  and  C4_8 
REMARK    5  A    between atoms: C4_8  and  C5_9 
REMARK    6  A    between atoms: C5_9  and  C6_10 
REMARK    7  A    between atoms: C6_10  and  C7_11 
REMARK    8  A    between atoms: C7_11  and  C8_12 
REMARK    9  A    between atoms: C8_12  and  C9_13 
REMARK   10  A    between atoms: C9_13  and  C10_14 
ROOT
HETATM    1  C5  UNL     1      36.165 -48.491 112.711  1.00  0.00     0.000 C 
ENDROOT
BRANCH   1   2
HETATM    2  C4  UNL     1      34.817 -48.124 113.246  1.00  0.00     0.000 C 
BRANCH   2   3
HETATM    3  C3  UNL     1      33.678 -48.500 112.382  1.00  0.00     0.002 C 
BRANCH   3   4
HETATM    4  C2  UNL     1      32.508 -49.162 112.982  1.00  0.00     0.027 C 
BRANCH   4   5
HETATM    5  C1  UNL     1      31.376 -48.281 113.422  1.00  0.00     0.229 C 
BRANCH   5   6
HETATM    6  N1  UNL     1      31.699 -47.347 114.405  1.00  0.00    -0.079 N 
ATOM      7  H13 UNL     1      30.923 -46.700 114.542  1.00  0.00     0.274 HD
ATOM      8  H12 UNL     1      31.722 -47.794 115.320  1.00  0.00     0.274 HD
ATOM      9  H11 UNL     1      32.563 -46.829 114.245  1.00  0.00     0.274 HD
ENDBRANCH   5   6
ENDBRANCH   4   5
ENDBRANCH   3   4
ENDBRANCH   2   3
ENDBRANCH   1   2
BRANCH   1  10
HETATM   10  C6  UNL     1      36.049 -48.767 111.232  1.00  0.00     0.000 C 
BRANCH  10  11
HETATM   11  C7  UNL     1      37.100 -49.704 110.703  1.00  0.00     0.000 C 
BRANCH  11  12
HETATM   12  C8  UNL     1      38.425 -49.507 111.453  1.00  0.00     0.000 C 
BRANCH  12  13
HETATM   13  C9  UNL     1      38.982 -50.836 111.866  1.00  0.00     0.005 C 
BRANCH  13  14
HETATM   14  C10 UNL     1      40.448 -50.960 111.799  1.00  0.00    -0.008 C 
HETATM   15  C11 UNL     1      41.076 -50.103 110.696  1.00  0.00     0.031 C 
HETATM   16  C12 UNL     1      42.468 -50.691 110.710  1.00  0.00    -0.030 C 
HETATM   17  C13 UNL     1      42.411 -51.945 111.138  1.00  0.00    -0.030 C 
HETATM   18  C14 UNL     1      40.996 -52.297 111.443  1.00  0.00     0.031 C 
ENDBRANCH  13  14
ENDBRANCH  12  13
ENDBRANCH  11  12
ENDBRANCH  10  11
ENDBRANCH   1  10
TORSDOF 10
ENDMDL
MODEL 4
REMARK VINA RESULT: -6.878107944      1.700      2.062
REMARK  10 active torsions:
REMARK  status: ('A' for Active; 'I' for Inactive)
REMARK    1  A    between atoms: N1_1  and  C1_5 
REMARK    2  A    between atoms: C1_5  and  C2_6 
REMARK    3  A    between atoms: C2_6  and  C3_7 
REMARK    4  A    between atoms: C3_7  and  C4_8 
REMARK    5  A    between atoms: C4_8  and  C5_9 
REMARK    6  A    between atoms: C5_9  and  C6_10 
REMARK    7  A    between atoms: C6_10  and  C7_11 
REMARK    8  A    between atoms: C7_11  and  C8_12 
REMARK    9  A    between atoms: C8_12  and  C9_13 
REMARK   10  A    between atoms: C9_13  and  C10_14 
ROOT
HETATM    1  C5  UNL     1      36.813 -49.290 110.848  1.00  0.00     0.000 C 
ENDROOT
BRANCH   1   2
HETATM    2  C4  UNL     1      36.046 -48.383 111.758  1.00  0.00     0.000 C 
BRANCH   2   3
HETATM    3  C3  UNL     1      34.755 -47.904 111.219  1.00  0.00     0.002 C 
BRANCH   3   4
HETATM    4  C2  UNL     1      34.576 -46.467 110.956  1.00  0.00     0.027 C 
BRANCH   4   5
HETATM    5  C1  UNL     1      35.366 -45.514 111.802  1.00  0.00     0.229 C 
BRANCH   5   6
HETATM    6  N1  UNL     1      35.645 -44.284 111.207  1.00  0.00    -0.079 N 
ATOM      7  H13 UNL     1      35.390 -44.306 110.220  1.00  0.00     0.274 HD
ATOM      8  H12 UNL     1      34.993 -43.575 111.544  1.00  0.00     0.274 HD
ATOM      9  H11 UNL     1      36.604 -43.956 111.315  1.00  0.00     0.274 HD
ENDBRANCH   5   6
ENDBRANCH   4   5
ENDBRANCH   3   4
ENDBRANCH   2   3
ENDBRANCH   1   2
BRANCH   1  10
HETATM   10  C6  UNL     1      38.220 -49.441 111.373  1.00  0.00     0.000 C 
BRANCH  10  11
HETATM   11  C7  UNL     1      38.395 -50.594 112.322  1.00  0.00     0.000 C 
BRANCH  11  12
HETATM   12  C8  UNL     1      39.702 -51.342 112.028  1.00  0.00     0.000 C 
BRANCH  12  13
HETATM   13  C9  UNL     1      40.578 -50.513 111.138  1.00  0.00     0.005 C 
BRANCH  13  14
HETATM   14  C10 UNL     1      42.006 -50.873 111.137  1.00  0.00    -0.008 C 
HETATM   15  C11 UNL     1      42.660 -50.747 109.759  1.00  0.00     0.031 C 
HETATM   16  C12 UNL     1      43.959 -51.460 110.052  1.00  0.00    -0.030 C 
HETATM   17  C13 UNL     1      43.768 -52.337 111.030  1.00  0.00    -0.030 C 
HETATM   18  C14 UNL     1      42.344 -52.284 111.466  1.00  0.00     0.031 C 
ENDBRANCH  13  14
ENDBRANCH  12  13
ENDBRANCH  11  12
ENDBRANCH  10  11
ENDBRANCH   1  10
TORSDOF 10
ENDMDL
MODEL 5
REMARK VINA RESULT: -6.877094511      0.434      1.041
REMARK  10 active torsions:
REMARK  status: ('A' for Active; 'I' for Inactive)
REMARK    1  A    between atoms: N1_1  and  C1_5 
REMARK    2  A    between atoms: C1_5  and  C2_6 
REMARK    3  A    between atoms: C2_6  and  C3_7 
REMARK    4  A    between atoms: C3_7  and  C4_8 
REMARK    5  A    between atoms: C4_8  and  C5_9 
REMARK    6  A    between atoms: C5_9  and  C6_10 
REMARK    7  A    between atoms: C6_10  and  C7_11 
REMARK    8  A    between atoms: C7_11  and  C8_12 
REMARK    9  A    between atoms: C8_12  and  C9_13 
REMARK   10  A    between atoms: C9_13  and  C10_14 
ROOT
HETATM    1  C5  UNL     1      36.925 -49.191 111.318  1.00  0.00     0.000 C 
ENDROOT
BRANCH   1   2
HETATM    2  C4  UNL     1      35.571 -48.553 111.328  1.00  0.00     0.000 C 
BRANCH   2   3
HETATM    3  C3  UNL     1      34.951 -48.427 112.665  1.00  0.00     0.002 C 
BRANCH   3   4
HETATM    4  C2  UNL     1      33.491 -48.554 112.794  1.00  0.00     0.027 C 
BRANCH   4   5
HETATM    5  C1  UNL     1      32.710 -47.291 113.005  1.00  0.00     0.229 C 
BRANCH   5   6
HETATM    6  N1  UNL     1      32.833 -46.723 114.273  1.00  0.00    -0.079 N 
ATOM      7  H13 UNL     1      32.414 -47.334 114.973  1.00  0.00     0.274 HD
ATOM      8  H12 UNL     1      33.806 -46.746 114.575  1.00  0.00     0.274 HD
ATOM      9  H11 UNL     1      32.460 -45.778 114.363  1.00  0.00     0.274 HD
ENDBRANCH   5   6
ENDBRANCH   4   5
ENDBRANCH   3   4
ENDBRANCH   2   3
ENDBRANCH   1   2
BRANCH   1  10
HETATM   10  C6  UNL     1      37.426 -49.306 112.736  1.00  0.00     0.000 C 
BRANCH  10  11
HETATM   11  C7  UNL     1      38.696 -50.099 112.870  1.00  0.00     0.000 C 
BRANCH  11  12
HETATM   12  C8  UNL     1      39.464 -50.117 111.541  1.00  0.00     0.000 C 
BRANCH  12  13
HETATM   13  C9  UNL     1      40.252 -51.387 111.422  1.00  0.00     0.005 C 
BRANCH  13  14
HETATM   14  C10 UNL     1      41.708 -51.220 111.270  1.00  0.00    -0.008 C 
HETATM   15  C11 UNL     1      42.120 -50.760 109.869  1.00  0.00     0.031 C 
HETATM   16  C12 UNL     1      43.609 -50.992 109.977  1.00  0.00    -0.030 C 
HETATM   17  C13 UNL     1      43.840 -51.957 110.858  1.00  0.00    -0.030 C 
HETATM   18  C14 UNL     1      42.543 -52.444 111.405  1.00  0.00     0.031 C 
ENDBRANCH  13  14
ENDBRANCH  12  13
ENDBRANCH  11  12
ENDBRANCH  10  11
ENDBRANCH   1  10
TORSDOF 10
ENDMDL
