MODEL 1
REMARK VINA RESULT: -6.967079429      0.000      0.000
REMARK  10 active torsions:
REMARK  status: ('A' for Active; 'I' for Inactive)
REMARK    1  A    between atoms: N1_1  and  C1_5 
REMARK    2  A    between atoms: C1_5  and  C2_6 
REMARK    3  A    between atoms: C2_6  and  C3_7 
REMARK    4  A    between atoms: C3_7  and  C4_8 
REMARK    5  A    between atoms: C4_8  and  C5_9 
REMARK    6  A    between atoms: C5_9  and  C6_10 
REMARK    7  A    between atoms: C6_10  and  C7_11 
REMARK    8  A    between atoms: C7_11  and  C8_12 
REMARK    9  A    between atoms: C8_12  and  C9_13 
REMARK   10  A    between atoms: C9_13  and  C10_14 
ROOT
HETATM    1  C5  UNL     1      36.841 -49.577 110.701  1.00  0.00     0.000 C 
ENDROOT
BRANCH   1   2
HETATM    2  C4  UNL     1      35.838 -48.548 111.154  1.00  0.00     0.000 C 
BRANCH   2   3
HETATM    3  C3  UNL     1      35.817 -48.529 112.660  1.00  0.00     0.002 C 
BRANCH   3   4
HETATM    4  C2  UNL     1      34.446 -48.308 113.246  1.00  0.00     0.027 C 
BRANCH   4   5
HETATM    5  C1  UNL     1      33.325 -48.474 112.262  1.00  0.00     0.229 C 
BRANCH   5   6
HETATM    6  N1  UNL     1      32.254 -49.244 112.891  1.00  0.00    -0.079 N 
ATOM      7  H13 UNL     1      31.589 -48.650 113.387  1.00  0.00     0.274 HD
ATOM      8  H12 UNL     1      31.609 -49.642 112.209  1.00  0.00     0.274 HD
ATOM      9  H11 UNL     1      32.668 -49.954 113.496  1.00  0.00     0.274 HD
ENDBRANCH   5   6
ENDBRANCH   4   5
ENDBRANCH   3   4
ENDBRANCH   2   3
ENDBRANCH   1   2
BRANCH   1  10
HETATM   10  C6  UNL     1      37.988 -49.740 111.668  1.00  0.00     0.000 C 
BRANCH  10  11
HETATM   11  C7  UNL     1      39.064 -48.724 111.157  1.00  0.00     0.000 C 
BRANCH  11  12
HETATM   12  C8  UNL     1      40.347 -49.456 111.118  1.00  0.00     0.001 C 
BRANCH  12  13
HETATM   13  C9  UNL     1      40.334 -50.901 111.373  1.00  0.00     0.008 C 
BRANCH  13  14
HETATM   14  C10 UNL     1      41.425 -51.690 110.755  1.00  0.00     0.008 C 
HETATM   15  C11 UNL     1      42.395 -50.769 110.067  1.00  0.00    -0.026 C 
HETATM   16  C12 UNL     1      43.630 -51.137 110.293  1.00  0.00    -0.030 C 
HETATM   17  C13 UNL     1      43.687 -52.334 111.149  1.00  0.00     0.027 C 
HETATM   18  C14 UNL     1      42.282 -52.510 111.643  1.00  0.00     0.012 C 
ENDBRANCH  13  14
ENDBRANCH  12  13
ENDBRANCH  11  12
ENDBRANCH  10  11
ENDBRANCH   1  10
TORSDOF 10
ENDMDL
MODEL 2
REMARK VINA RESULT: -6.963252843      1.013      1.013
REMARK  10 active torsions:
REMARK  status: ('A' for Active; 'I' for Inactive)
REMARK    1  A    between atoms: N1_1  and  C1_5 
REMARK    2  A    between atoms: C1_5  and  C2_6 
REMARK    3  A    between atoms: C2_6  and  C3_7 
REMARK    4  A    between atoms: C3_7  and  C4_8 
REMARK    5  A    between atoms: C4_8  and  C5_9 
REMARK    6  A    between atoms: C5_9  and  C6_10 
REMARK    7  A    between atoms: C6_10  and  C7_11 
REMARK    8  A    between atoms: C7_11  and  C8_12 
REMARK    9  A    between atoms: C8_12  and  C9_13 
REMARK   10  A    between atoms: C9_13  and  C10_14 
ROOT
HETATM    1  C5  UNL     1      36.760 -49.557 110.746  1.00  0.00     0.000 C 
ENDROOT
BRANCH   1   2
HETATM    2  C4  UNL     1      35.925 -48.437 111.310  1.00  0.00     0.000 C 
BRANCH   2   3
HETATM    3  C3  UNL     1      35.786 -48.643 112.796  1.00  0.00     0.002 C 
BRANCH   3   4
HETATM    4  C2  UNL     1      35.208 -47.456 113.522  1.00  0.00     0.027 C 
BRANCH   4   5
HETATM    5  C1  UNL     1      33.720 -47.320 113.388  1.00  0.00     0.229 C 
BRANCH   5   6
HETATM    6  N1  UNL     1      33.223 -46.468 114.466  1.00  0.00    -0.079 N 
ATOM      7  H13 UNL     1      33.375 -46.879 115.388  1.00  0.00     0.274 HD
ATOM      8  H12 UNL     1      33.789 -45.628 114.591  1.00  0.00     0.274 HD
ATOM      9  H11 UNL     1      32.241 -46.253 114.293  1.00  0.00     0.274 HD
ENDBRANCH   5   6
ENDBRANCH   4   5
ENDBRANCH   3   4
ENDBRANCH   2   3
ENDBRANCH   1   2
BRANCH   1  10
HETATM   10  C6  UNL     1      37.976 -49.860 111.586  1.00  0.00     0.000 C 
BRANCH  10  11
HETATM   11  C7  UNL     1      39.024 -48.787 111.139  1.00  0.00     0.000 C 
BRANCH  11  12
HETATM   12  C8  UNL     1      40.336 -49.467 111.113  1.00  0.00     0.001 C 
BRANCH  12  13
HETATM   13  C9  UNL     1      40.380 -50.909 111.385  1.00  0.00     0.008 C 
BRANCH  13  14
HETATM   14  C10 UNL     1      41.472 -51.670 110.735  1.00  0.00     0.008 C 
HETATM   15  C11 UNL     1      42.431 -50.720 110.071  1.00  0.00    -0.026 C 
HETATM   16  C12 UNL     1      43.670 -51.086 110.278  1.00  0.00    -0.030 C 
HETATM   17  C13 UNL     1      43.741 -52.310 111.094  1.00  0.00     0.027 C 
HETATM   18  C14 UNL     1      42.340 -52.511 111.591  1.00  0.00     0.012 C 
ENDBRANCH  13  14
ENDBRANCH  12  13
ENDBRANCH  11  12
ENDBRANCH  10  11
ENDBRANCH   1  10
TORSDOF 10
ENDMDL
MODEL 3
REMARK VINA RESULT: -6.958569607      0.674      1.077
REMARK  10 active torsions:
REMARK  status: ('A' for Active; 'I' for Inactive)
REMARK    1  A    between atoms: N1_1  and  C1_5 
REMARK    2  A    between atoms: C1_5  and  C2_6 
REMARK    3  A    between atoms: C2_6  and  C3_7 
REMARK    4  A    between atoms: C3_7  and  C4_8 
REMARK    5  A    between atoms: C4_8  and  C5_9 
REMARK    6  A    between atoms: C5_9  and  C6_10 
REMARK    7  A    between atoms: C6_10  and  C7_11 
REMARK    8  A    between atoms: C7_11  and  C8_12 
REMARK    9  A    between atoms: C8_12  and  C9_13 
REMARK   10  A    between atoms: C9_13  and  C10_14 
ROOT
HETATM    1  C5  UNL     1      35.988 -48.798 111.306  1.00  0.00     0.000 C 
ENDROOT
BRANCH   1   2
HETATM    2  C4  UNL     1      36.013 -48.474 112.777  1.00  0.00     0.000 C 
BRANCH   2   3
HETATM    3  C3  UNL     1      34.615 -48.121 113.214  1.00  0.00     0.002 C 
BRANCH   3   4
HETATM    4  C2  UNL     1      33.558 -48.449 112.193  1.00  0.00     0.027 C 
BRANCH   4   5
HETATM    5  C1  UNL     1      32.383 -49.201 112.747  1.00  0.00     0.229 C 
BRANCH   5   6
HETATM    6  N1  UNL     1      31.589 -48.295 113.574  1.00  0.00    -0.079 N 
ATOM      7  H13 UNL     1      31.998 -48.153 114.498  1.00  0.00     0.274 HD
ATOM      8  H12 UNL     1      31.635 -47.330 113.249  1.00  0.00     0.274 HD
ATOM      9  H11 UNL     1      30.631 -48.644 113.622  1.00  0.00     0.274 HD
ENDBRANCH   5   6
ENDBRANCH   4   5
ENDBRANCH   3   4
ENDBRANCH   2   3
ENDBRANCH   1   2
BRANCH   1  10
HETATM   10  C6  UNL     1      37.208 -49.564 110.855  1.00  0.00     0.000 C 
BRANCH  10  11
HETATM   11  C7  UNL     1      38.232 -49.370 112.024  1.00  0.00     0.000 C 
BRANCH  11  12
HETATM   12  C8  UNL     1      39.537 -49.847 111.522  1.00  0.00     0.001 C 
BRANCH  12  13
HETATM   13  C9  UNL     1      39.932 -51.231 111.809  1.00  0.00     0.008 C 
BRANCH  13  14
HETATM   14  C10 UNL     1      41.050 -51.778 111.006  1.00  0.00     0.008 C 
HETATM   15  C11 UNL     1      41.843 -50.652 110.401  1.00  0.00    -0.026 C 
HETATM   16  C12 UNL     1      43.127 -50.886 110.485  1.00  0.00    -0.030 C 
HETATM   17  C13 UNL     1      43.397 -52.175 111.144  1.00  0.00     0.027 C 
HETATM   18  C14 UNL     1      42.070 -52.598 111.700  1.00  0.00     0.012 C 
ENDBRANCH  13  14
ENDBRANCH  12  13
ENDBRANCH  11  12
ENDBRANCH  10  11
ENDBRANCH   1  10
TORSDOF 10
ENDMDL
MODEL 4
REMARK VINA RESULT: -6.876616758      2.035      2.181
REMARK  10 active torsions:
REMARK  status: ('A' for Active; 'I' for Inactive)
REMARK    1  A    between atoms: N1_1  and  C1_5 
REMARK    2  A    between atoms: C1_5  and  C2_6 
REMARK    3  A    between atoms: C2_6  and  C3_7 
REMARK    4  A    between atoms: C3_7  and  C4_8 
REMARK    5  A    between atoms: C4_8  and  C5_9 
REMARK    6  A    between atoms: C5_9  and  C6_10 
REMARK    7  A    between atoms: C6_10  and  C7_11 
REMARK    8  A    between atoms: C7_11  and  C8_12 
REMARK    9  A    between atoms: C8_12  and  C9_13 
REMARK   10  A    between atoms: C9_13  and  C10_14 
ROOT
HETATM    1  C5  UNL     1      36.576 -49.222 110.894  1.00  0.00     0.000 C 
ENDROOT
BRANCH   1   2
HETATM    2  C4  UNL     1      35.891 -48.181 111.741  1.00  0.00     0.000 C 
BRANCH   2   3
HETATM    3  C3  UNL     1      34.754 -47.590 110.949  1.00  0.00     0.002 C 
BRANCH   3   4
HETATM    4  C2  UNL     1      34.614 -46.098 111.107  1.00  0.00     0.027 C 
BRANCH   4   5
HETATM    5  C1  UNL     1      35.593 -45.489 112.067  1.00  0.00     0.229 C 
BRANCH   5   6
HETATM    6  N1  UNL     1      36.160 -44.285 111.464  1.00  0.00    -0.079 N 
ATOM      7  H13 UNL     1      35.443 -43.656 111.102  1.00  0.00     0.274 HD
ATOM      8  H12 UNL     1      36.565 -43.656 112.157  1.00  0.00     0.274 HD
ATOM      9  H11 UNL     1      36.834 -44.560 110.748  1.00  0.00     0.274 HD
ENDBRANCH   5   6
ENDBRANCH   4   5
ENDBRANCH   3   4
ENDBRANCH   2   3
ENDBRANCH   1   2
BRANCH   1  10
HETATM   10  C6  UNL     1      37.818 -49.780 111.545  1.00  0.00     0.000 C 
BRANCH  10  11
HETATM   11  C7  UNL     1      38.955 -48.803 111.094  1.00  0.00     0.000 C 
BRANCH  11  12
HETATM   12  C8  UNL     1      40.231 -49.518 111.305  1.00  0.00     0.001 C 
BRANCH  12  13
HETATM   13  C9  UNL     1      40.201 -50.982 111.414  1.00  0.00     0.008 C 
BRANCH  13  14
HETATM   14  C10 UNL     1      41.318 -51.714 110.774  1.00  0.00     0.008 C 
HETATM   15  C11 UNL     1      42.231 -50.744 110.074  1.00  0.00    -0.026 C 
HETATM   16  C12 UNL     1      43.485 -51.051 110.278  1.00  0.00    -0.030 C 
HETATM   17  C13 UNL     1      43.615 -52.247 111.127  1.00  0.00     0.027 C 
HETATM   18  C14 UNL     1      42.229 -52.494 111.643  1.00  0.00     0.012 C 
ENDBRANCH  13  14
ENDBRANCH  12  13
ENDBRANCH  11  12
ENDBRANCH  10  11
ENDBRANCH   1  10
TORSDOF 10
ENDMDL
MODEL 5
REMARK VINA RESULT: -6.785415044      2.136      2.347
REMARK  10 active torsions:
REMARK  status: ('A' for Active; 'I' for Inactive)
REMARK    1  A    between atoms: N1_1  and  C1_5 
REMARK    2  A    between atoms: C1_5  and  C2_6 
REMARK    3  A    between atoms: C2_6  and  C3_7 
REMARK    4  A    between atoms: C3_7  and  C4_8 
REMARK    5  A    between atoms: C4_8  and  C5_9 
REMARK    6  A    between atoms: C5_9  and  C6_10 
REMARK    7  A    between atoms: C6_10  and  C7_11 
REMARK    8  A    between atoms: C7_11  and  C8_12 
REMARK    9  A    between atoms: C8_12  and  C9_13 
REMARK   10  A    between atoms: C9_13  and  C10_14 
ROOT
HETATM    1  C5  UNL     1      35.869 -48.568 111.209  1.00  0.00     0.000 C 
ENDROOT
BRANCH   1   2
HETATM    2  C4  UNL     1      35.445 -48.514 112.654  1.00  0.00     0.000 C 
BRANCH   2   3
HETATM    3  C3  UNL     1      35.196 -47.076 113.028  1.00  0.00     0.002 C 
BRANCH   3   4
HETATM    4  C2  UNL     1      35.734 -46.086 112.028  1.00  0.00     0.027 C 
BRANCH   4   5
HETATM    5  C1  UNL     1      35.278 -44.675 112.257  1.00  0.00     0.229 C 
BRANCH   5   6
HETATM    6  N1  UNL     1      35.186 -43.993 110.967  1.00  0.00    -0.079 N 
ATOM      7  H13 UNL     1      34.258 -44.073 110.551  1.00  0.00     0.274 HD
ATOM      8  H12 UNL     1      35.212 -42.978 111.062  1.00  0.00     0.274 HD
ATOM      9  H11 UNL     1      35.920 -44.345 110.353  1.00  0.00     0.274 HD
ENDBRANCH   5   6
ENDBRANCH   4   5
ENDBRANCH   3   4
ENDBRANCH   2   3
ENDBRANCH   1   2
BRANCH   1  10
HETATM   10  C6  UNL     1      36.957 -49.584 110.957  1.00  0.00     0.000 C 
BRANCH  10  11
HETATM   11  C7  UNL     1      37.948 -49.385 112.152  1.00  0.00     0.000 C 
BRANCH  11  12
HETATM   12  C8  UNL     1      39.280 -49.800 111.665  1.00  0.00     0.001 C 
BRANCH  12  13
HETATM   13  C9  UNL     1      39.728 -51.170 111.942  1.00  0.00     0.008 C 
BRANCH  13  14
HETATM   14  C10 UNL     1      40.812 -51.696 111.081  1.00  0.00     0.008 C 
HETATM   15  C11 UNL     1      41.628 -50.557 110.533  1.00  0.00    -0.026 C 
HETATM   16  C12 UNL     1      42.905 -50.834 110.574  1.00  0.00    -0.030 C 
HETATM   17  C13 UNL     1      43.148 -52.170 111.142  1.00  0.00     0.027 C 
HETATM   18  C14 UNL     1      41.820 -52.590 111.697  1.00  0.00     0.012 C 
ENDBRANCH  13  14
ENDBRANCH  12  13
ENDBRANCH  11  12
ENDBRANCH  10  11
ENDBRANCH   1  10
TORSDOF 10
ENDMDL
