MODEL 1
REMARK VINA RESULT: -5.957950639      0.000      0.000
REMARK  10 active torsions:
REMARK  status: ('A' for Active; 'I' for Inactive)
REMARK    1  A    between atoms: C2_2  and  C3_3 
REMARK    2  A    between atoms: C3_3  and  C4_4 
REMARK    3  A    between atoms: C4_4  and  O2_6 
REMARK    4  A    between atoms: O2_6  and  C5_7 
REMARK    5  A    between atoms: C6_8  and  C7_9 
REMARK    6  A    between atoms: C7_9  and  O3_10 
REMARK    7  A    between atoms: C8_12  and  O4_13 
REMARK    8  A    between atoms: C9_15  and  O5_16 
REMARK    9  A    between atoms: O5_16  and  C10_17 
REMARK   10  A    between atoms: C10_17  and  O6_18 
ROOT
HETATM    1  C5  UNL     1      -0.119  17.313  -5.307  1.00  0.00     0.151 C 
HETATM    2  C6  UNL     1       0.922  17.952  -6.163  1.00  0.00     0.071 C 
HETATM    3  C8  UNL     1       0.344  19.142  -6.827  1.00  0.00     0.158 C 
HETATM    4  C9  UNL     1      -0.473  20.058  -6.013  1.00  0.00     0.183 C 
HETATM    5  C12 UNL     1      -1.183  19.540  -4.834  1.00  0.00     0.170 C 
HETATM    6  O7  UNL     1      -0.970  20.346  -3.689  1.00  0.00    -0.354 OA
HETATM    7  C13 UNL     1      -0.249  19.684  -2.740  1.00  0.00     0.138 C 
HETATM    8  C14 UNL     1      -0.129  18.388  -3.081  1.00  0.00    -0.053 C 
HETATM    9  C15 UNL     1       0.610  17.432  -2.223  1.00  0.00     0.046 C 
HETATM   10  C16 UNL     1      -0.837  18.178  -4.361  1.00  0.00     0.078 C 
ENDROOT
BRANCH   1  11
HETATM   11  O2  UNL     1       0.354  16.157  -4.629  1.00  0.00    -0.314 OA
BRANCH  11  12
HETATM   12  C4  UNL     1      -0.350  14.962  -4.629  1.00  0.00     0.271 C 
HETATM   13  O1  UNL     1      -1.308  14.884  -5.469  1.00  0.00    -0.264 OA
BRANCH  12  14
HETATM   14  C3  UNL     1      -0.062  13.809  -3.741  1.00  0.00     0.065 A 
HETATM   15  C17 UNL     1      -0.432  13.934  -2.249  1.00  0.00     0.025 A 
HETATM   16  C18 UNL     1       0.983  13.874  -2.718  1.00  0.00     0.025 A 
BRANCH  14  17
HETATM   17  C2  UNL     1      -0.472  12.476  -4.320  1.00  0.00    -0.017 C 
HETATM   18  C1  UNL     1       0.392  11.773  -5.032  1.00  0.00     0.008 C 
ENDBRANCH  14  17
ENDBRANCH  12  14
ENDBRANCH  11  12
ENDBRANCH   1  11
BRANCH   2  19
HETATM   19  C7  UNL     1       2.248  18.187  -5.509  1.00  0.00     0.174 C 
BRANCH  19  20
HETATM   20  O3  UNL     1       3.241  18.495  -6.455  1.00  0.00    -0.400 OA
ATOM     21  H3  UNL     1       3.785  19.218  -6.166  1.00  0.00     0.209 HD
ENDBRANCH  19  20
ENDBRANCH   2  19
BRANCH   3  22
HETATM   22  O4  UNL     1      -0.418  18.702  -7.935  1.00  0.00    -0.392 OA
ATOM     23  H4  UNL     1       0.118  18.107  -8.445  1.00  0.00     0.210 HD
ENDBRANCH   3  22
BRANCH   4  24
HETATM   24  O5  UNL     1      -1.382  20.688  -6.899  1.00  0.00    -0.357 OA
BRANCH  24  25
HETATM   25  C10 UNL     1      -2.673  20.249  -6.748  1.00  0.00     0.337 C 
BRANCH  25  26
HETATM   26  O6  UNL     1      -3.278  19.951  -7.961  1.00  0.00    -0.372 OA
HETATM   27  C11 UNL     1      -3.984  18.752  -7.872  1.00  0.00     0.204 C 
ENDBRANCH  25  26
ENDBRANCH  24  25
ENDBRANCH   4  24
TORSDOF 10
ENDMDL
MODEL 2
REMARK VINA RESULT: -5.940267958      5.598     10.462
REMARK  10 active torsions:
REMARK  status: ('A' for Active; 'I' for Inactive)
REMARK    1  A    between atoms: C2_2  and  C3_3 
REMARK    2  A    between atoms: C3_3  and  C4_4 
REMARK    3  A    between atoms: C4_4  and  O2_6 
REMARK    4  A    between atoms: O2_6  and  C5_7 
REMARK    5  A    between atoms: C6_8  and  C7_9 
REMARK    6  A    between atoms: C7_9  and  O3_10 
REMARK    7  A    between atoms: C8_12  and  O4_13 
REMARK    8  A    between atoms: C9_15  and  O5_16 
REMARK    9  A    between atoms: O5_16  and  C10_17 
REMARK   10  A    between atoms: C10_17  and  O6_18 
ROOT
HETATM    1  C5  UNL     1      -6.198  23.331  -7.856  1.00  0.00     0.151 C 
HETATM    2  C6  UNL     1      -5.381  23.499  -9.093  1.00  0.00     0.071 C 
HETATM    3  C8  UNL     1      -4.847  22.182  -9.507  1.00  0.00     0.158 C 
HETATM    4  C9  UNL     1      -5.764  21.030  -9.491  1.00  0.00     0.183 C 
HETATM    5  C12 UNL     1      -6.905  21.026  -8.565  1.00  0.00     0.170 C 
HETATM    6  O7  UNL     1      -8.116  20.682  -9.215  1.00  0.00    -0.354 OA
HETATM    7  C13 UNL     1      -8.981  21.736  -9.249  1.00  0.00     0.138 C 
HETATM    8  C14 UNL     1      -8.516  22.733  -8.474  1.00  0.00    -0.053 C 
HETATM    9  C15 UNL     1      -9.260  24.005  -8.327  1.00  0.00     0.046 C 
HETATM   10  C16 UNL     1      -7.239  22.294  -7.872  1.00  0.00     0.078 C 
ENDROOT
BRANCH   1  11
HETATM   11  O2  UNL     1      -6.752  24.553  -7.387  1.00  0.00    -0.314 OA
BRANCH  11  12
HETATM   12  C4  UNL     1      -6.426  25.083  -6.147  1.00  0.00     0.271 C 
HETATM   13  O1  UNL     1      -5.179  25.216  -5.912  1.00  0.00    -0.264 OA
BRANCH  12  14
HETATM   14  C3  UNL     1      -7.411  25.490  -5.115  1.00  0.00     0.065 A 
HETATM   15  C17 UNL     1      -7.581  24.584  -3.878  1.00  0.00     0.025 A 
HETATM   16  C18 UNL     1      -8.652  24.742  -4.904  1.00  0.00     0.025 A 
BRANCH  14  17
HETATM   17  C2  UNL     1      -7.337  26.952  -4.745  1.00  0.00    -0.017 C 
HETATM   18  C1  UNL     1      -7.516  27.877  -5.672  1.00  0.00     0.008 C 
ENDBRANCH  14  17
ENDBRANCH  12  14
ENDBRANCH  11  12
ENDBRANCH   1  11
BRANCH   2  19
HETATM   19  C7  UNL     1      -6.022  24.285 -10.194  1.00  0.00     0.174 C 
BRANCH  19  20
HETATM   20  O3  UNL     1      -5.843  25.667 -10.011  1.00  0.00    -0.400 OA
ATOM     21  H3  UNL     1      -4.965  25.939 -10.255  1.00  0.00     0.209 HD
ENDBRANCH  19  20
ENDBRANCH   2  19
BRANCH   3  22
HETATM   22  O4  UNL     1      -3.722  21.890  -8.701  1.00  0.00    -0.392 OA
ATOM     23  H4  UNL     1      -3.872  21.055  -8.274  1.00  0.00     0.210 HD
ENDBRANCH   3  22
BRANCH   4  24
HETATM   24  O5  UNL     1      -4.965  19.877  -9.294  1.00  0.00    -0.357 OA
BRANCH  24  25
HETATM   25  C10 UNL     1      -5.208  19.251  -8.098  1.00  0.00     0.337 C 
BRANCH  25  26
HETATM   26  O6  UNL     1      -4.160  19.396  -7.199  1.00  0.00    -0.372 OA
HETATM   27  C11 UNL     1      -3.090  18.580  -7.564  1.00  0.00     0.204 C 
ENDBRANCH  25  26
ENDBRANCH  24  25
ENDBRANCH   4  24
TORSDOF 10
ENDMDL
MODEL 3
REMARK VINA RESULT: -5.904300870      5.725     10.628
REMARK  10 active torsions:
REMARK  status: ('A' for Active; 'I' for Inactive)
REMARK    1  A    between atoms: C2_2  and  C3_3 
REMARK    2  A    between atoms: C3_3  and  C4_4 
REMARK    3  A    between atoms: C4_4  and  O2_6 
REMARK    4  A    between atoms: O2_6  and  C5_7 
REMARK    5  A    between atoms: C6_8  and  C7_9 
REMARK    6  A    between atoms: C7_9  and  O3_10 
REMARK    7  A    between atoms: C8_12  and  O4_13 
REMARK    8  A    between atoms: C9_15  and  O5_16 
REMARK    9  A    between atoms: O5_16  and  C10_17 
REMARK   10  A    between atoms: C10_17  and  O6_18 
ROOT
HETATM    1  C5  UNL     1      -6.265  23.413  -7.956  1.00  0.00     0.151 C 
HETATM    2  C6  UNL     1      -5.445  23.547  -9.195  1.00  0.00     0.071 C 
HETATM    3  C8  UNL     1      -4.892  22.222  -9.559  1.00  0.00     0.158 C 
HETATM    4  C9  UNL     1      -5.795  21.059  -9.505  1.00  0.00     0.183 C 
HETATM    5  C12 UNL     1      -6.940  21.075  -8.583  1.00  0.00     0.170 C 
HETATM    6  O7  UNL     1      -8.144  20.693  -9.224  1.00  0.00    -0.354 OA
HETATM    7  C13 UNL     1      -9.021  21.734  -9.300  1.00  0.00     0.138 C 
HETATM    8  C14 UNL     1      -8.572  22.764  -8.560  1.00  0.00    -0.053 C 
HETATM    9  C15 UNL     1      -9.333  24.031  -8.462  1.00  0.00     0.046 C 
HETATM   10  C16 UNL     1      -7.292  22.363  -7.938  1.00  0.00     0.078 C 
ENDROOT
BRANCH   1  11
HETATM   11  O2  UNL     1      -6.835  24.644  -7.533  1.00  0.00    -0.314 OA
BRANCH  11  12
HETATM   12  C4  UNL     1      -6.500  25.236  -6.324  1.00  0.00     0.271 C 
HETATM   13  O1  UNL     1      -5.446  24.788  -5.761  1.00  0.00    -0.264 OA
BRANCH  12  14
HETATM   14  C3  UNL     1      -7.269  26.323  -5.672  1.00  0.00     0.065 A 
HETATM   15  C17 UNL     1      -7.088  27.760  -6.204  1.00  0.00     0.025 A 
HETATM   16  C18 UNL     1      -6.611  27.343  -4.854  1.00  0.00     0.025 A 
BRANCH  14  17
HETATM   17  C2  UNL     1      -8.721  25.983  -5.431  1.00  0.00    -0.017 C 
HETATM   18  C1  UNL     1      -9.042  24.860  -4.813  1.00  0.00     0.008 C 
ENDBRANCH  14  17
ENDBRANCH  12  14
ENDBRANCH  11  12
ENDBRANCH   1  11
BRANCH   2  19
HETATM   19  C7  UNL     1      -6.090  24.284 -10.326  1.00  0.00     0.174 C 
BRANCH  19  20
HETATM   20  O3  UNL     1      -5.899  25.672 -10.211  1.00  0.00    -0.400 OA
ATOM     21  H3  UNL     1      -5.241  25.984 -10.821  1.00  0.00     0.209 HD
ENDBRANCH  19  20
ENDBRANCH   2  19
BRANCH   3  22
HETATM   22  O4  UNL     1      -3.767  21.973  -8.739  1.00  0.00    -0.392 OA
ATOM     23  H4  UNL     1      -3.737  22.643  -8.066  1.00  0.00     0.210 HD
ENDBRANCH   3  22
BRANCH   4  24
HETATM   24  O5  UNL     1      -4.982  19.925  -9.263  1.00  0.00    -0.357 OA
BRANCH  24  25
HETATM   25  C10 UNL     1      -5.219  19.343  -8.043  1.00  0.00     0.337 C 
BRANCH  25  26
HETATM   26  O6  UNL     1      -4.169  19.528  -7.154  1.00  0.00    -0.372 OA
HETATM   27  C11 UNL     1      -3.130  18.641  -7.435  1.00  0.00     0.204 C 
ENDBRANCH  25  26
ENDBRANCH  24  25
ENDBRANCH   4  24
TORSDOF 10
ENDMDL
MODEL 4
REMARK VINA RESULT: -5.864476829      4.370      9.519
REMARK  10 active torsions:
REMARK  status: ('A' for Active; 'I' for Inactive)
REMARK    1  A    between atoms: C2_2  and  C3_3 
REMARK    2  A    between atoms: C3_3  and  C4_4 
REMARK    3  A    between atoms: C4_4  and  O2_6 
REMARK    4  A    between atoms: O2_6  and  C5_7 
REMARK    5  A    between atoms: C6_8  and  C7_9 
REMARK    6  A    between atoms: C7_9  and  O3_10 
REMARK    7  A    between atoms: C8_12  and  O4_13 
REMARK    8  A    between atoms: C9_15  and  O5_16 
REMARK    9  A    between atoms: O5_16  and  C10_17 
REMARK   10  A    between atoms: C10_17  and  O6_18 
ROOT
HETATM    1  C5  UNL     1      -6.172  21.377  -7.366  1.00  0.00     0.151 C 
HETATM    2  C6  UNL     1      -4.775  21.859  -7.571  1.00  0.00     0.071 C 
HETATM    3  C8  UNL     1      -3.837  20.729  -7.383  1.00  0.00     0.158 C 
HETATM    4  C9  UNL     1      -4.174  19.441  -8.013  1.00  0.00     0.183 C 
HETATM    5  C12 UNL     1      -5.582  19.104  -8.263  1.00  0.00     0.170 C 
HETATM    6  O7  UNL     1      -5.792  18.644  -9.586  1.00  0.00    -0.354 OA
HETATM    7  C13 UNL     1      -6.549  19.521 -10.305  1.00  0.00     0.138 C 
HETATM    8  C14 UNL     1      -7.050  20.466  -9.490  1.00  0.00    -0.053 C 
HETATM    9  C15 UNL     1      -7.913  21.552 -10.010  1.00  0.00     0.046 C 
HETATM   10  C16 UNL     1      -6.589  20.183  -8.114  1.00  0.00     0.078 C 
ENDROOT
BRANCH   1  11
HETATM   11  O2  UNL     1      -7.142  22.403  -7.528  1.00  0.00    -0.314 OA
BRANCH  11  12
HETATM   12  C4  UNL     1      -7.290  23.430  -6.607  1.00  0.00     0.271 C 
HETATM   13  O1  UNL     1      -7.474  23.066  -5.398  1.00  0.00    -0.264 OA
BRANCH  12  14
HETATM   14  C3  UNL     1      -7.248  24.875  -6.937  1.00  0.00     0.065 A 
HETATM   15  C17 UNL     1      -5.867  25.548  -7.072  1.00  0.00     0.025 A 
HETATM   16  C18 UNL     1      -6.806  25.871  -5.959  1.00  0.00     0.025 A 
BRANCH  14  17
HETATM   17  C2  UNL     1      -8.188  25.274  -8.050  1.00  0.00    -0.017 C 
HETATM   18  C1  UNL     1      -9.435  24.836  -8.049  1.00  0.00     0.008 C 
ENDBRANCH  14  17
ENDBRANCH  12  14
ENDBRANCH  11  12
ENDBRANCH   1  11
BRANCH   2  19
HETATM   19  C7  UNL     1      -4.540  22.664  -8.811  1.00  0.00     0.174 C 
BRANCH  19  20
HETATM   20  O3  UNL     1      -3.613  22.038  -9.663  1.00  0.00    -0.400 OA
ATOM     21  H3  UNL     1      -4.047  21.590 -10.379  1.00  0.00     0.209 HD
ENDBRANCH  19  20
ENDBRANCH   2  19
BRANCH   3  22
HETATM   22  O4  UNL     1      -3.656  20.533  -5.994  1.00  0.00    -0.392 OA
ATOM     23  H4  UNL     1      -2.754  20.742  -5.781  1.00  0.00     0.210 HD
ENDBRANCH   3  22
BRANCH   4  24
HETATM   24  O5  UNL     1      -3.557  18.433  -7.231  1.00  0.00    -0.357 OA
BRANCH  24  25
HETATM   25  C10 UNL     1      -2.205  18.336  -7.448  1.00  0.00     0.337 C 
BRANCH  25  26
HETATM   26  O6  UNL     1      -1.475  18.341  -6.267  1.00  0.00    -0.372 OA
HETATM   27  C11 UNL     1      -0.367  19.180  -6.383  1.00  0.00     0.204 C 
ENDBRANCH  25  26
ENDBRANCH  24  25
ENDBRANCH   4  24
TORSDOF 10
ENDMDL
MODEL 5
REMARK VINA RESULT: -5.834292456      5.324     10.149
REMARK  10 active torsions:
REMARK  status: ('A' for Active; 'I' for Inactive)
REMARK    1  A    between atoms: C2_2  and  C3_3 
REMARK    2  A    between atoms: C3_3  and  C4_4 
REMARK    3  A    between atoms: C4_4  and  O2_6 
REMARK    4  A    between atoms: O2_6  and  C5_7 
REMARK    5  A    between atoms: C6_8  and  C7_9 
REMARK    6  A    between atoms: C7_9  and  O3_10 
REMARK    7  A    between atoms: C8_12  and  O4_13 
REMARK    8  A    between atoms: C9_15  and  O5_16 
REMARK    9  A    between atoms: O5_16  and  C10_17 
REMARK   10  A    between atoms: C10_17  and  O6_18 
ROOT
HETATM    1  C5  UNL     1      -6.248  23.463  -8.006  1.00  0.00     0.151 C 
HETATM    2  C6  UNL     1      -5.465  23.555  -9.272  1.00  0.00     0.071 C 
HETATM    3  C8  UNL     1      -4.916  22.221  -9.604  1.00  0.00     0.158 C 
HETATM    4  C9  UNL     1      -5.811  21.057  -9.482  1.00  0.00     0.183 C 
HETATM    5  C12 UNL     1      -6.928  21.101  -8.529  1.00  0.00     0.170 C 
HETATM    6  O7  UNL     1      -8.148  20.690  -9.120  1.00  0.00    -0.354 OA
HETATM    7  C13 UNL     1      -9.033  21.724  -9.208  1.00  0.00     0.138 C 
HETATM    8  C14 UNL     1      -8.568  22.781  -8.519  1.00  0.00    -0.053 C 
HETATM    9  C15 UNL     1      -9.334  24.048  -8.445  1.00  0.00     0.046 C 
HETATM   10  C16 UNL     1      -7.269  22.410  -7.921  1.00  0.00     0.078 C 
ENDROOT
BRANCH   1  11
HETATM   11  O2  UNL     1      -6.814  24.706  -7.612  1.00  0.00    -0.314 OA
BRANCH  11  12
HETATM   12  C4  UNL     1      -6.058  25.701  -7.007  1.00  0.00     0.271 C 
HETATM   13  O1  UNL     1      -5.899  26.767  -7.690  1.00  0.00    -0.264 OA
BRANCH  12  14
HETATM   14  C3  UNL     1      -5.449  25.600  -5.660  1.00  0.00     0.065 A 
HETATM   15  C17 UNL     1      -6.367  25.242  -4.473  1.00  0.00     0.025 A 
HETATM   16  C18 UNL     1      -5.733  26.585  -4.614  1.00  0.00     0.025 A 
BRANCH  14  17
HETATM   17  C2  UNL     1      -4.154  24.822  -5.633  1.00  0.00    -0.017 C 
HETATM   18  C1  UNL     1      -3.217  25.070  -6.531  1.00  0.00     0.008 C 
ENDBRANCH  14  17
ENDBRANCH  12  14
ENDBRANCH  11  12
ENDBRANCH   1  11
BRANCH   2  19
HETATM   19  C7  UNL     1      -6.148  24.249 -10.410  1.00  0.00     0.174 C 
BRANCH  19  20
HETATM   20  O3  UNL     1      -5.849  25.622 -10.430  1.00  0.00    -0.400 OA
ATOM     21  H3  UNL     1      -6.571  26.140 -10.094  1.00  0.00     0.209 HD
ENDBRANCH  19  20
ENDBRANCH   2  19
BRANCH   3  22
HETATM   22  O4  UNL     1      -3.766  22.008  -8.809  1.00  0.00    -0.392 OA
ATOM     23  H4  UNL     1      -3.801  21.121  -8.470  1.00  0.00     0.210 HD
ENDBRANCH   3  22
BRANCH   4  24
HETATM   24  O5  UNL     1      -4.984  19.936  -9.224  1.00  0.00    -0.357 OA
BRANCH  24  25
HETATM   25  C10 UNL     1      -5.199  19.383  -7.985  1.00  0.00     0.337 C 
BRANCH  25  26
HETATM   26  O6  UNL     1      -4.128  19.579  -7.124  1.00  0.00    -0.372 OA
HETATM   27  C11 UNL     1      -3.101  18.681  -7.412  1.00  0.00     0.204 C 
ENDBRANCH  25  26
ENDBRANCH  24  25
ENDBRANCH   4  24
TORSDOF 10
ENDMDL
