MODEL 1
REMARK VINA RESULT: -6.989679863      0.000      0.000
REMARK  9 active torsions:
REMARK  status: ('A' for Active; 'I' for Inactive)
REMARK    1  A    between atoms: C2_2  and  C4_4 
REMARK    2  A    between atoms: C4_4  and  C5_5 
REMARK    3  A    between atoms: C6_6  and  C7_7 
REMARK    4  A    between atoms: C7_7  and  C8_8 
REMARK    5  A    between atoms: C9_10  and  C10_11 
REMARK    6  A    between atoms: C10_11  and  O2_12 
REMARK    7  A    between atoms: O2_12  and  S1_13 
REMARK    8  A    between atoms: S1_13  and  N1_14 
REMARK    9  A    between atoms: C15_24  and  O5_25 
ROOT
HETATM    1  S1  UNL     1      -4.553  19.851  -8.130  1.00  0.00     0.238 S 
HETATM    2  O3  UNL     1      -5.579  20.149  -6.982  1.00  0.00    -0.206 OA
HETATM    3  C11 UNL     1      -5.906  19.233  -9.543  1.00  0.00     0.200 C 
HETATM    4  N2  UNL     1      -6.676  18.859 -10.340  1.00  0.00    -0.179 NA
ENDROOT
BRANCH   1   5
HETATM    5  O2  UNL     1      -3.759  18.702  -7.281  1.00  0.00    -0.278 OA
BRANCH   5   6
HETATM    6  C10 UNL     1      -2.450  18.373  -7.247  1.00  0.00     0.221 C 
BRANCH   6   7
HETATM    7  C9  UNL     1      -1.823  19.063  -6.035  1.00  0.00     0.149 C 
HETATM    8  O1  UNL     1      -1.206  18.139  -5.280  1.00  0.00    -0.375 OA
HETATM    9  C8  UNL     1      -0.057  17.574  -5.658  1.00  0.00     0.156 C 
HETATM   10  C15 UNL     1       1.197  18.273  -5.123  1.00  0.00     0.178 C 
HETATM   11  C14 UNL     1       0.931  19.732  -5.250  1.00  0.00     0.182 A 
HETATM   12  C13 UNL     1       0.437  19.889  -6.680  1.00  0.00     0.156 A 
HETATM   13  O4  UNL     1       1.457  20.579  -6.141  1.00  0.00    -0.373 OA
HETATM   14  C12 UNL     1      -1.008  20.201  -6.555  1.00  0.00     0.069 C 
BRANCH   9  15
HETATM   15  C7  UNL     1       0.007  16.179  -5.003  1.00  0.00     0.061 C 
BRANCH  15  16
HETATM   16  C6  UNL     1      -1.312  15.558  -4.933  1.00  0.00    -0.028 C 
HETATM   17  C5  UNL     1      -1.574  14.285  -5.068  1.00  0.00    -0.030 C 
BRANCH  17  18
HETATM   18  C4  UNL     1      -0.570  13.252  -5.318  1.00  0.00     0.030 C 
BRANCH  18  19
HETATM   19  C2  UNL     1      -0.598  12.162  -4.238  1.00  0.00    -0.019 C 
HETATM   20  C1  UNL     1       0.464  11.140  -4.550  1.00  0.00     0.010 C 
HETATM   21  C3  UNL     1      -0.287  12.761  -2.886  1.00  0.00     0.010 C 
ENDBRANCH  18  19
ENDBRANCH  17  18
ENDBRANCH  15  16
ENDBRANCH   9  15
BRANCH  10  22
HETATM   22  O5  UNL     1       2.323  17.839  -5.781  1.00  0.00    -0.390 OA
ATOM     23  H5  UNL     1       3.051  17.735  -5.179  1.00  0.00     0.210 HD
ENDBRANCH  10  22
ENDBRANCH   6   7
ENDBRANCH   5   6
ENDBRANCH   1   5
BRANCH   1  24
HETATM   24  N1  UNL     1      -4.245  21.697  -8.400  1.00  0.00    -0.328 N 
ATOM     25  H12 UNL     1      -3.755  22.125  -7.614  1.00  0.00     0.168 HD
ATOM     26  H11 UNL     1      -4.469  22.333  -9.165  1.00  0.00     0.168 HD
ENDBRANCH   1  24
TORSDOF 9
ENDMDL
MODEL 2
REMARK VINA RESULT: -6.916846823      4.488      9.797
REMARK  9 active torsions:
REMARK  status: ('A' for Active; 'I' for Inactive)
REMARK    1  A    between atoms: C2_2  and  C4_4 
REMARK    2  A    between atoms: C4_4  and  C5_5 
REMARK    3  A    between atoms: C6_6  and  C7_7 
REMARK    4  A    between atoms: C7_7  and  C8_8 
REMARK    5  A    between atoms: C9_10  and  C10_11 
REMARK    6  A    between atoms: C10_11  and  O2_12 
REMARK    7  A    between atoms: O2_12  and  S1_13 
REMARK    8  A    between atoms: S1_13  and  N1_14 
REMARK    9  A    between atoms: C15_24  and  O5_25 
ROOT
HETATM    1  S1  UNL     1      -1.370  19.323  -7.248  1.00  0.00     0.238 S 
HETATM    2  O3  UNL     1      -1.669  17.786  -7.156  1.00  0.00    -0.206 OA
HETATM    3  C11 UNL     1      -0.937  19.630  -5.266  1.00  0.00     0.200 C 
HETATM    4  N2  UNL     1      -0.713  19.808  -4.132  1.00  0.00    -0.179 NA
ENDROOT
BRANCH   1   5
HETATM    5  O2  UNL     1      -2.872  19.703  -7.768  1.00  0.00    -0.278 OA
BRANCH   5   6
HETATM    6  C10 UNL     1      -3.765  20.608  -7.311  1.00  0.00     0.221 C 
BRANCH   6   7
HETATM    7  C9  UNL     1      -5.160  19.999  -7.443  1.00  0.00     0.149 C 
HETATM    8  O1  UNL     1      -6.063  20.991  -7.506  1.00  0.00    -0.375 OA
HETATM    9  C8  UNL     1      -6.200  21.750  -8.596  1.00  0.00     0.156 C 
HETATM   10  C15 UNL     1      -7.264  21.255  -9.582  1.00  0.00     0.178 C 
HETATM   11  C14 UNL     1      -7.103  19.777  -9.639  1.00  0.00     0.182 A 
HETATM   12  C13 UNL     1      -5.612  19.579  -9.857  1.00  0.00     0.156 A 
HETATM   13  O4  UNL     1      -6.576  19.054 -10.633  1.00  0.00    -0.373 OA
HETATM   14  C12 UNL     1      -5.106  19.027  -8.576  1.00  0.00     0.069 C 
BRANCH   9  15
HETATM   15  C7  UNL     1      -6.748  23.117  -8.139  1.00  0.00     0.061 C 
BRANCH  15  16
HETATM   16  C6  UNL     1      -7.727  22.971  -7.067  1.00  0.00    -0.028 C 
HETATM   17  C5  UNL     1      -8.860  23.616  -6.962  1.00  0.00    -0.030 C 
BRANCH  17  18
HETATM   18  C4  UNL     1      -9.341  24.610  -7.920  1.00  0.00     0.030 C 
BRANCH  18  19
HETATM   19  C2  UNL     1      -9.335  26.023  -7.321  1.00  0.00    -0.019 C 
HETATM   20  C1  UNL     1      -9.256  25.915  -5.820  1.00  0.00     0.010 C 
HETATM   21  C3  UNL     1      -8.122  26.786  -7.800  1.00  0.00     0.010 C 
ENDBRANCH  18  19
ENDBRANCH  17  18
ENDBRANCH  15  16
ENDBRANCH   9  15
BRANCH  10  22
HETATM   22  O5  UNL     1      -7.144  21.890 -10.795  1.00  0.00    -0.390 OA
ATOM     23  H5  UNL     1      -7.955  21.838 -11.288  1.00  0.00     0.210 HD
ENDBRANCH  10  22
ENDBRANCH   6   7
ENDBRANCH   5   6
ENDBRANCH   1   5
BRANCH   1  24
HETATM   24  N1  UNL     1       0.261  19.001  -8.148  1.00  0.00    -0.328 N 
ATOM     25  H12 UNL     1       0.277  19.418  -9.079  1.00  0.00     0.168 HD
ATOM     26  H11 UNL     1       1.111  18.501  -7.887  1.00  0.00     0.168 HD
ENDBRANCH   1  24
TORSDOF 9
ENDMDL
MODEL 3
REMARK VINA RESULT: -6.913960347      4.524      9.731
REMARK  9 active torsions:
REMARK  status: ('A' for Active; 'I' for Inactive)
REMARK    1  A    between atoms: C2_2  and  C4_4 
REMARK    2  A    between atoms: C4_4  and  C5_5 
REMARK    3  A    between atoms: C6_6  and  C7_7 
REMARK    4  A    between atoms: C7_7  and  C8_8 
REMARK    5  A    between atoms: C9_10  and  C10_11 
REMARK    6  A    between atoms: C10_11  and  O2_12 
REMARK    7  A    between atoms: O2_12  and  S1_13 
REMARK    8  A    between atoms: S1_13  and  N1_14 
REMARK    9  A    between atoms: C15_24  and  O5_25 
ROOT
HETATM    1  S1  UNL     1      -1.445  18.989  -6.995  1.00  0.00     0.238 S 
HETATM    2  O3  UNL     1      -1.101  20.307  -6.219  1.00  0.00    -0.206 OA
HETATM    3  C11 UNL     1       0.371  18.740  -7.917  1.00  0.00     0.200 C 
HETATM    4  N2  UNL     1       1.399  18.613  -8.460  1.00  0.00    -0.179 NA
ENDROOT
BRANCH   1   5
HETATM    5  O2  UNL     1      -2.651  19.674  -7.859  1.00  0.00    -0.278 OA
BRANCH   5   6
HETATM    6  C10 UNL     1      -3.544  20.632  -7.528  1.00  0.00     0.221 C 
BRANCH   6   7
HETATM    7  C9  UNL     1      -4.929  19.987  -7.477  1.00  0.00     0.149 C 
HETATM    8  O1  UNL     1      -5.860  20.955  -7.487  1.00  0.00    -0.375 OA
HETATM    9  C8  UNL     1      -6.134  21.655  -8.591  1.00  0.00     0.156 C 
HETATM   10  C15 UNL     1      -7.286  21.088  -9.429  1.00  0.00     0.178 C 
HETATM   11  C14 UNL     1      -7.092  19.612  -9.432  1.00  0.00     0.182 A 
HETATM   12  C13 UNL     1      -5.628  19.436  -9.803  1.00  0.00     0.156 A 
HETATM   13  O4  UNL     1      -6.657  18.852 -10.443  1.00  0.00    -0.373 OA
HETATM   14  C12 UNL     1      -4.972  18.960  -8.561  1.00  0.00     0.069 C 
BRANCH   9  15
HETATM   15  C7  UNL     1      -6.666  23.031  -8.142  1.00  0.00     0.061 C 
BRANCH  15  16
HETATM   16  C6  UNL     1      -7.659  22.902  -7.079  1.00  0.00    -0.028 C 
HETATM   17  C5  UNL     1      -8.798  23.539  -7.005  1.00  0.00    -0.030 C 
BRANCH  17  18
HETATM   18  C4  UNL     1      -9.275  24.504  -7.992  1.00  0.00     0.030 C 
BRANCH  18  19
HETATM   19  C2  UNL     1      -9.279  25.933  -7.432  1.00  0.00    -0.019 C 
HETATM   20  C1  UNL     1      -9.268  25.865  -5.926  1.00  0.00     0.010 C 
HETATM   21  C3  UNL     1      -8.036  26.669  -7.876  1.00  0.00     0.010 C 
ENDBRANCH  18  19
ENDBRANCH  17  18
ENDBRANCH  15  16
ENDBRANCH   9  15
BRANCH  10  22
HETATM   22  O5  UNL     1      -7.316  21.663 -10.677  1.00  0.00    -0.390 OA
ATOM     23  H5  UNL     1      -6.712  22.394 -10.729  1.00  0.00     0.210 HD
ENDBRANCH  10  22
ENDBRANCH   6   7
ENDBRANCH   5   6
ENDBRANCH   1   5
BRANCH   1  24
HETATM   24  N1  UNL     1      -1.417  17.982  -5.395  1.00  0.00    -0.328 N 
ATOM     25  H12 UNL     1      -1.191  18.556  -4.582  1.00  0.00     0.168 HD
ATOM     26  H11 UNL     1      -1.583  16.996  -5.192  1.00  0.00     0.168 HD
ENDBRANCH   1  24
TORSDOF 9
ENDMDL
MODEL 4
REMARK VINA RESULT: -6.851491714      4.537      9.741
REMARK  9 active torsions:
REMARK  status: ('A' for Active; 'I' for Inactive)
REMARK    1  A    between atoms: C2_2  and  C4_4 
REMARK    2  A    between atoms: C4_4  and  C5_5 
REMARK    3  A    between atoms: C6_6  and  C7_7 
REMARK    4  A    between atoms: C7_7  and  C8_8 
REMARK    5  A    between atoms: C9_10  and  C10_11 
REMARK    6  A    between atoms: C10_11  and  O2_12 
REMARK    7  A    between atoms: O2_12  and  S1_13 
REMARK    8  A    between atoms: S1_13  and  N1_14 
REMARK    9  A    between atoms: C15_24  and  O5_25 
ROOT
HETATM    1  S1  UNL     1      -1.492  19.181  -6.576  1.00  0.00     0.238 S 
HETATM    2  O3  UNL     1      -1.646  18.789  -8.086  1.00  0.00    -0.206 OA
HETATM    3  C11 UNL     1      -1.167  17.293  -5.841  1.00  0.00     0.200 C 
HETATM    4  N2  UNL     1      -1.006  16.214  -5.420  1.00  0.00    -0.179 NA
ENDROOT
BRANCH   1   5
HETATM    5  O2  UNL     1      -3.002  19.795  -6.460  1.00  0.00    -0.278 OA
BRANCH   5   6
HETATM    6  C10 UNL     1      -3.718  20.552  -7.319  1.00  0.00     0.221 C 
BRANCH   6   7
HETATM    7  C9  UNL     1      -5.127  19.963  -7.403  1.00  0.00     0.149 C 
HETATM    8  O1  UNL     1      -6.016  20.968  -7.451  1.00  0.00    -0.375 OA
HETATM    9  C8  UNL     1      -6.173  21.717  -8.546  1.00  0.00     0.156 C 
HETATM   10  C15 UNL     1      -7.273  21.227  -9.494  1.00  0.00     0.178 C 
HETATM   11  C14 UNL     1      -7.137  19.746  -9.537  1.00  0.00     0.182 A 
HETATM   12  C13 UNL     1      -5.655  19.522  -9.797  1.00  0.00     0.156 A 
HETATM   13  O4  UNL     1      -6.650  19.003 -10.538  1.00  0.00    -0.373 OA
HETATM   14  C12 UNL     1      -5.120  18.978  -8.525  1.00  0.00     0.069 C 
BRANCH   9  15
HETATM   15  C7  UNL     1      -6.687  23.097  -8.089  1.00  0.00     0.061 C 
BRANCH  15  16
HETATM   16  C6  UNL     1      -7.689  22.976  -7.035  1.00  0.00    -0.028 C 
HETATM   17  C5  UNL     1      -8.829  23.611  -6.976  1.00  0.00    -0.030 C 
BRANCH  17  18
HETATM   18  C4  UNL     1      -9.298  24.569  -7.975  1.00  0.00     0.030 C 
BRANCH  18  19
HETATM   19  C2  UNL     1      -9.308  26.002  -7.425  1.00  0.00    -0.019 C 
HETATM   20  C1  UNL     1      -9.336  25.946  -5.919  1.00  0.00     0.010 C 
HETATM   21  C3  UNL     1      -8.051  26.729  -7.843  1.00  0.00     0.010 C 
ENDBRANCH  18  19
ENDBRANCH  17  18
ENDBRANCH  15  16
ENDBRANCH   9  15
BRANCH  10  22
HETATM   22  O5  UNL     1      -7.180  21.846 -10.718  1.00  0.00    -0.390 OA
ATOM     23  H5  UNL     1      -7.267  21.217 -11.424  1.00  0.00     0.210 HD
ENDBRANCH  10  22
ENDBRANCH   6   7
ENDBRANCH   5   6
ENDBRANCH   1   5
BRANCH   1  24
HETATM   24  N1  UNL     1       0.196  19.967  -6.902  1.00  0.00    -0.328 N 
ATOM     25  H12 UNL     1       0.850  19.312  -7.332  1.00  0.00     0.168 HD
ATOM     26  H11 UNL     1       0.572  20.901  -6.735  1.00  0.00     0.168 HD
ENDBRANCH   1  24
TORSDOF 9
ENDMDL
MODEL 5
REMARK VINA RESULT: -6.815231855      4.459      9.452
REMARK  9 active torsions:
REMARK  status: ('A' for Active; 'I' for Inactive)
REMARK    1  A    between atoms: C2_2  and  C4_4 
REMARK    2  A    between atoms: C4_4  and  C5_5 
REMARK    3  A    between atoms: C6_6  and  C7_7 
REMARK    4  A    between atoms: C7_7  and  C8_8 
REMARK    5  A    between atoms: C9_10  and  C10_11 
REMARK    6  A    between atoms: C10_11  and  O2_12 
REMARK    7  A    between atoms: O2_12  and  S1_13 
REMARK    8  A    between atoms: S1_13  and  N1_14 
REMARK    9  A    between atoms: C15_24  and  O5_25 
ROOT
HETATM    1  S1  UNL     1      -1.504  19.362  -7.249  1.00  0.00     0.238 S 
HETATM    2  O3  UNL     1      -1.865  17.840  -7.148  1.00  0.00    -0.206 OA
HETATM    3  C11 UNL     1      -1.111  19.677  -5.261  1.00  0.00     0.200 C 
HETATM    4  N2  UNL     1      -0.910  19.861  -4.123  1.00  0.00    -0.179 NA
ENDROOT
BRANCH   1   5
HETATM    5  O2  UNL     1      -2.975  19.794  -7.814  1.00  0.00    -0.278 OA
BRANCH   5   6
HETATM    6  C10 UNL     1      -3.836  20.749  -7.402  1.00  0.00     0.221 C 
BRANCH   6   7
HETATM    7  C9  UNL     1      -5.243  20.152  -7.416  1.00  0.00     0.149 C 
HETATM    8  O1  UNL     1      -6.126  21.126  -7.689  1.00  0.00    -0.375 OA
HETATM    9  C8  UNL     1      -6.243  21.646  -8.914  1.00  0.00     0.156 C 
HETATM   10  C15 UNL     1      -7.314  20.977  -9.784  1.00  0.00     0.178 C 
HETATM   11  C14 UNL     1      -7.182  19.516  -9.533  1.00  0.00     0.182 A 
HETATM   12  C13 UNL     1      -5.693  19.250  -9.693  1.00  0.00     0.156 A 
HETATM   13  O4  UNL     1      -6.665  18.594 -10.352  1.00  0.00    -0.373 OA
HETATM   14  C12 UNL     1      -5.203  18.966  -8.322  1.00  0.00     0.069 C 
BRANCH   9  15
HETATM   15  C7  UNL     1      -6.766  23.087  -8.753  1.00  0.00     0.061 C 
BRANCH  15  16
HETATM   16  C6  UNL     1      -8.208  23.114  -8.527  1.00  0.00    -0.028 C 
HETATM   17  C5  UNL     1      -8.807  23.344  -7.388  1.00  0.00    -0.030 C 
BRANCH  17  18
HETATM   18  C4  UNL     1      -8.119  23.618  -6.129  1.00  0.00     0.030 C 
BRANCH  18  19
HETATM   19  C2  UNL     1      -8.915  24.590  -5.248  1.00  0.00    -0.019 C 
HETATM   20  C1  UNL     1      -8.048  25.024  -4.095  1.00  0.00     0.010 C 
HETATM   21  C3  UNL     1      -9.290  25.822  -6.040  1.00  0.00     0.010 C 
ENDBRANCH  18  19
ENDBRANCH  17  18
ENDBRANCH  15  16
ENDBRANCH   9  15
BRANCH  10  22
HETATM   22  O5  UNL     1      -7.178  21.344 -11.101  1.00  0.00    -0.390 OA
ATOM     23  H5  UNL     1      -7.035  20.585 -11.654  1.00  0.00     0.210 HD
ENDBRANCH  10  22
ENDBRANCH   6   7
ENDBRANCH   5   6
ENDBRANCH   1   5
BRANCH   1  24
HETATM   24  N1  UNL     1       0.137  18.965  -8.101  1.00  0.00    -0.328 N 
ATOM     25  H12 UNL     1       0.353  19.624  -8.850  1.00  0.00     0.168 HD
ATOM     26  H11 UNL     1       0.834  18.234  -7.959  1.00  0.00     0.168 HD
ENDBRANCH   1  24
TORSDOF 9
ENDMDL
