MODEL 1
REMARK VINA RESULT: -5.449391018      0.000      0.000
REMARK  7 active torsions:
REMARK  status: ('A' for Active; 'I' for Inactive)
REMARK    1  A    between atoms: O1_2  and  C2_3 
REMARK    2  A    between atoms: C5_6  and  O2_7 
REMARK    3  A    between atoms: C5_6  and  C6_9 
REMARK    4  A    between atoms: C6_9  and  N1_10 
REMARK    5  A    between atoms: N1_10  and  C7_11 
REMARK    6  A    between atoms: N1_10  and  C11_15 
REMARK    7  A    between atoms: C7_11  and  C8_12 
ROOT
HETATM    1  N1  UNL     1      -5.979  21.317  -8.158  1.00  0.00    -0.384 N 
ENDROOT
BRANCH   1   2
HETATM    2  C6  UNL     1      -5.160  20.999  -7.062  1.00  0.00     0.096 C 
BRANCH   2   3
HETATM    3  C5  UNL     1      -3.749  20.556  -7.356  1.00  0.00     0.089 C 
HETATM    4  C4  UNL     1      -3.630  19.039  -7.208  1.00  0.00     0.046 C 
HETATM    5  C3  UNL     1      -2.206  18.670  -7.539  1.00  0.00     0.035 C 
HETATM    6  C2  UNL     1      -1.200  19.444  -6.730  1.00  0.00     0.121 C 
HETATM    7  C16 UNL     1      -1.977  20.143  -5.617  1.00  0.00     0.035 C 
HETATM    8  C15 UNL     1      -2.870  21.158  -6.272  1.00  0.00     0.046 C 
BRANCH   6   9
HETATM    9  O1  UNL     1      -0.217  18.645  -6.171  1.00  0.00    -0.391 OA
HETATM   10  C1  UNL     1      -0.778  17.481  -5.668  1.00  0.00     0.202 C 
ENDBRANCH   6   9
BRANCH   3  11
HETATM   11  O2  UNL     1      -3.226  20.936  -8.561  1.00  0.00    -0.384 OA
ATOM     12  H2  UNL     1      -3.852  20.747  -9.250  1.00  0.00     0.211 HD
ENDBRANCH   3  11
ENDBRANCH   2   3
ENDBRANCH   1   2
BRANCH   1  13
HETATM   13  C7  UNL     1      -6.778  20.275  -8.676  1.00  0.00     0.126 C 
BRANCH  13  14
HETATM   14  C8  UNL     1      -6.287  19.390  -9.745  1.00  0.00    -0.005 C 
HETATM   15  C9  UNL     1      -6.711  17.938  -9.383  1.00  0.00     0.011 C 
HETATM   16  C10 UNL     1      -6.857  19.620 -11.118  1.00  0.00     0.011 C 
ENDBRANCH  13  14
ENDBRANCH   1  13
BRANCH   1  17
HETATM   17  C11 UNL     1      -6.474  22.625  -8.310  1.00  0.00     0.110 C 
HETATM   18  C12 UNL     1      -7.915  22.908  -8.250  1.00  0.00     0.054 C 
HETATM   19  C13 UNL     1      -7.952  24.318  -8.891  1.00  0.00     0.234 C 
HETATM   20  N2  UNL     1      -6.727  24.475  -9.605  1.00  0.00    -0.073 N 
HETATM   21  C14 UNL     1      -6.146  23.122  -9.730  1.00  0.00     0.257 C 
ATOM     22  H22 UNL     1      -6.836  24.953 -10.500  1.00  0.00     0.277 HD
ATOM     23  H21 UNL     1      -6.093  25.150  -9.179  1.00  0.00     0.277 HD
ENDBRANCH   1  17
TORSDOF 7
ENDMDL
MODEL 2
REMARK VINA RESULT: -5.350909095      2.053      2.795
REMARK  7 active torsions:
REMARK  status: ('A' for Active; 'I' for Inactive)
REMARK    1  A    between atoms: O1_2  and  C2_3 
REMARK    2  A    between atoms: C5_6  and  O2_7 
REMARK    3  A    between atoms: C5_6  and  C6_9 
REMARK    4  A    between atoms: C6_9  and  N1_10 
REMARK    5  A    between atoms: N1_10  and  C7_11 
REMARK    6  A    between atoms: N1_10  and  C11_15 
REMARK    7  A    between atoms: C7_11  and  C8_12 
ROOT
HETATM    1  N1  UNL     1      -5.799  21.454  -9.056  1.00  0.00    -0.384 N 
ENDROOT
BRANCH   1   2
HETATM    2  C6  UNL     1      -5.261  21.672  -7.776  1.00  0.00     0.096 C 
BRANCH   2   3
HETATM    3  C5  UNL     1      -3.786  21.972  -7.686  1.00  0.00     0.089 C 
HETATM    4  C4  UNL     1      -3.177  21.264  -6.476  1.00  0.00     0.046 C 
HETATM    5  C3  UNL     1      -1.705  21.589  -6.465  1.00  0.00     0.035 C 
HETATM    6  C2  UNL     1      -1.433  23.068  -6.507  1.00  0.00     0.121 C 
HETATM    7  C16 UNL     1      -2.766  23.766  -6.244  1.00  0.00     0.035 C 
HETATM    8  C15 UNL     1      -3.662  23.461  -7.412  1.00  0.00     0.046 C 
BRANCH   6   9
HETATM    9  O1  UNL     1      -0.507  23.482  -5.565  1.00  0.00    -0.391 OA
HETATM   10  C1  UNL     1      -1.130  23.699  -4.346  1.00  0.00     0.202 C 
ENDBRANCH   6   9
BRANCH   3  11
HETATM   11  O2  UNL     1      -3.035  21.699  -8.796  1.00  0.00    -0.384 OA
ATOM     12  H2  UNL     1      -3.281  22.292  -9.496  1.00  0.00     0.211 HD
ENDBRANCH   3  11
ENDBRANCH   2   3
ENDBRANCH   1   2
BRANCH   1  13
HETATM   13  C7  UNL     1      -5.843  20.116  -9.505  1.00  0.00     0.126 C 
BRANCH  13  14
HETATM   14  C8  UNL     1      -5.889  18.990  -8.558  1.00  0.00    -0.005 C 
HETATM   15  C9  UNL     1      -6.740  17.864  -9.212  1.00  0.00     0.011 C 
HETATM   16  C10 UNL     1      -4.575  18.332  -8.236  1.00  0.00     0.011 C 
ENDBRANCH  13  14
ENDBRANCH   1  13
BRANCH   1  17
HETATM   17  C11 UNL     1      -6.784  22.321  -9.561  1.00  0.00     0.110 C 
HETATM   18  C12 UNL     1      -7.626  23.126  -8.665  1.00  0.00     0.054 C 
HETATM   19  C13 UNL     1      -8.770  23.522  -9.633  1.00  0.00     0.234 C 
HETATM   20  N2  UNL     1      -8.712  22.610 -10.729  1.00  0.00    -0.073 N 
HETATM   21  C14 UNL     1      -7.857  21.489 -10.288  1.00  0.00     0.257 C 
ATOM     22  H22 UNL     1      -9.631  22.314 -11.059  1.00  0.00     0.277 HD
ATOM     23  H21 UNL     1      -8.399  23.041 -11.599  1.00  0.00     0.277 HD
ENDBRANCH   1  17
TORSDOF 7
ENDMDL
MODEL 3
REMARK VINA RESULT: -5.330087038      1.117      1.399
REMARK  7 active torsions:
REMARK  status: ('A' for Active; 'I' for Inactive)
REMARK    1  A    between atoms: O1_2  and  C2_3 
REMARK    2  A    between atoms: C5_6  and  O2_7 
REMARK    3  A    between atoms: C5_6  and  C6_9 
REMARK    4  A    between atoms: C6_9  and  N1_10 
REMARK    5  A    between atoms: N1_10  and  C7_11 
REMARK    6  A    between atoms: N1_10  and  C11_15 
REMARK    7  A    between atoms: C7_11  and  C8_12 
ROOT
HETATM    1  N1  UNL     1      -5.556  22.634  -8.606  1.00  0.00    -0.384 N 
ENDROOT
BRANCH   1   2
HETATM    2  C6  UNL     1      -5.104  21.948  -7.466  1.00  0.00     0.096 C 
BRANCH   2   3
HETATM    3  C5  UNL     1      -3.800  21.199  -7.579  1.00  0.00     0.089 C 
HETATM    4  C4  UNL     1      -4.034  19.702  -7.374  1.00  0.00     0.046 C 
HETATM    5  C3  UNL     1      -2.698  19.019  -7.524  1.00  0.00     0.035 C 
HETATM    6  C2  UNL     1      -1.640  19.602  -6.626  1.00  0.00     0.121 C 
HETATM    7  C16 UNL     1      -2.361  20.510  -5.633  1.00  0.00     0.035 C 
HETATM    8  C15 UNL     1      -2.934  21.656  -6.418  1.00  0.00     0.046 C 
BRANCH   6   9
HETATM    9  O1  UNL     1      -0.923  18.642  -5.933  1.00  0.00    -0.391 OA
HETATM   10  C1  UNL     1      -1.585  17.425  -5.979  1.00  0.00     0.202 C 
ENDBRANCH   6   9
BRANCH   3  11
HETATM   11  O2  UNL     1      -3.080  21.391  -8.725  1.00  0.00    -0.384 OA
ATOM     12  H2  UNL     1      -3.451  22.117  -9.213  1.00  0.00     0.211 HD
ENDBRANCH   3  11
ENDBRANCH   2   3
ENDBRANCH   1   2
BRANCH   1  13
HETATM   13  C7  UNL     1      -6.148  21.852  -9.622  1.00  0.00     0.126 C 
BRANCH  13  14
HETATM   14  C8  UNL     1      -7.007  20.701  -9.302  1.00  0.00    -0.005 C 
HETATM   15  C9  UNL     1      -8.484  21.154  -9.486  1.00  0.00     0.011 C 
HETATM   16  C10 UNL     1      -6.868  19.494 -10.189  1.00  0.00     0.011 C 
ENDBRANCH  13  14
ENDBRANCH   1  13
BRANCH   1  17
HETATM   17  C11 UNL     1      -5.998  23.965  -8.498  1.00  0.00     0.110 C 
HETATM   18  C12 UNL     1      -7.107  24.331  -7.605  1.00  0.00     0.054 C 
HETATM   19  C13 UNL     1      -7.471  25.728  -8.167  1.00  0.00     0.234 C 
HETATM   20  N2  UNL     1      -6.909  25.802  -9.477  1.00  0.00    -0.073 N 
HETATM   21  C14 UNL     1      -6.566  24.416  -9.856  1.00  0.00     0.257 C 
ATOM     22  H22 UNL     1      -7.515  26.269 -10.152  1.00  0.00     0.277 HD
ATOM     23  H21 UNL     1      -6.124  26.447  -9.545  1.00  0.00     0.277 HD
ENDBRANCH   1  17
TORSDOF 7
ENDMDL
MODEL 4
REMARK VINA RESULT: -5.291709618      2.046      3.679
REMARK  7 active torsions:
REMARK  status: ('A' for Active; 'I' for Inactive)
REMARK    1  A    between atoms: O1_2  and  C2_3 
REMARK    2  A    between atoms: C5_6  and  O2_7 
REMARK    3  A    between atoms: C5_6  and  C6_9 
REMARK    4  A    between atoms: C6_9  and  N1_10 
REMARK    5  A    between atoms: N1_10  and  C7_11 
REMARK    6  A    between atoms: N1_10  and  C11_15 
REMARK    7  A    between atoms: C7_11  and  C8_12 
ROOT
HETATM    1  N1  UNL     1      -6.931  22.795  -7.653  1.00  0.00    -0.384 N 
ENDROOT
BRANCH   1   2
HETATM    2  C6  UNL     1      -5.556  22.742  -7.938  1.00  0.00     0.096 C 
BRANCH   2   3
HETATM    3  C5  UNL     1      -4.957  21.386  -8.215  1.00  0.00     0.089 C 
HETATM    4  C4  UNL     1      -5.694  20.311  -7.416  1.00  0.00     0.046 C 
HETATM    5  C3  UNL     1      -5.060  18.988  -7.762  1.00  0.00     0.035 C 
HETATM    6  C2  UNL     1      -3.568  18.985  -7.559  1.00  0.00     0.121 C 
HETATM    7  C16 UNL     1      -3.230  20.253  -6.777  1.00  0.00     0.035 C 
HETATM    8  C15 UNL     1      -3.538  21.420  -7.673  1.00  0.00     0.046 C 
BRANCH   6   9
HETATM    9  O1  UNL     1      -3.114  17.881  -6.859  1.00  0.00    -0.391 OA
HETATM   10  C1  UNL     1      -1.848  18.127  -6.350  1.00  0.00     0.202 C 
ENDBRANCH   6   9
BRANCH   3  11
HETATM   11  O2  UNL     1      -4.883  21.005  -9.526  1.00  0.00    -0.384 OA
ATOM     12  H2  UNL     1      -4.870  21.778 -10.079  1.00  0.00     0.211 HD
ENDBRANCH   3  11
ENDBRANCH   2   3
ENDBRANCH   1   2
BRANCH   1  13
HETATM   13  C7  UNL     1      -7.305  23.429  -6.449  1.00  0.00     0.126 C 
BRANCH  13  14
HETATM   14  C8  UNL     1      -6.571  24.598  -5.937  1.00  0.00    -0.005 C 
HETATM   15  C9  UNL     1      -7.046  25.839  -6.746  1.00  0.00     0.011 C 
HETATM   16  C10 UNL     1      -6.817  24.966  -4.499  1.00  0.00     0.011 C 
ENDBRANCH  13  14
ENDBRANCH   1  13
BRANCH   1  17
HETATM   17  C11 UNL     1      -7.866  22.838  -8.704  1.00  0.00     0.110 C 
HETATM   18  C12 UNL     1      -8.333  21.609  -9.361  1.00  0.00     0.054 C 
HETATM   19  C13 UNL     1      -8.948  22.198 -10.656  1.00  0.00     0.234 C 
HETATM   20  N2  UNL     1      -8.404  23.509 -10.807  1.00  0.00    -0.073 N 
HETATM   21  C14 UNL     1      -7.240  23.580  -9.899  1.00  0.00     0.257 C 
ATOM     22  H22 UNL     1      -8.180  23.746 -11.774  1.00  0.00     0.277 HD
ATOM     23  H21 UNL     1      -9.085  24.251 -10.651  1.00  0.00     0.277 HD
ENDBRANCH   1  17
TORSDOF 7
ENDMDL
MODEL 5
REMARK VINA RESULT: -5.235877115      1.851      2.357
REMARK  7 active torsions:
REMARK  status: ('A' for Active; 'I' for Inactive)
REMARK    1  A    between atoms: O1_2  and  C2_3 
REMARK    2  A    between atoms: C5_6  and  O2_7 
REMARK    3  A    between atoms: C5_6  and  C6_9 
REMARK    4  A    between atoms: C6_9  and  N1_10 
REMARK    5  A    between atoms: N1_10  and  C7_11 
REMARK    6  A    between atoms: N1_10  and  C11_15 
REMARK    7  A    between atoms: C7_11  and  C8_12 
ROOT
HETATM    1  N1  UNL     1      -5.726  21.561  -8.675  1.00  0.00    -0.384 N 
ENDROOT
BRANCH   1   2
HETATM    2  C6  UNL     1      -5.055  22.238  -7.642  1.00  0.00     0.096 C 
BRANCH   2   3
HETATM    3  C5  UNL     1      -3.556  22.088  -7.573  1.00  0.00     0.089 C 
HETATM    4  C4  UNL     1      -3.168  21.209  -6.384  1.00  0.00     0.046 C 
HETATM    5  C3  UNL     1      -1.666  21.086  -6.395  1.00  0.00     0.035 C 
HETATM    6  C2  UNL     1      -0.970  22.420  -6.422  1.00  0.00     0.121 C 
HETATM    7  C16 UNL     1      -2.034  23.475  -6.126  1.00  0.00     0.035 C 
HETATM    8  C15 UNL     1      -2.995  23.469  -7.282  1.00  0.00     0.046 C 
BRANCH   6   9
HETATM    9  O1  UNL     1       0.049  22.524  -5.491  1.00  0.00    -0.391 OA
HETATM   10  C1  UNL     1       0.532  21.265  -5.169  1.00  0.00     0.202 C 
ENDBRANCH   6   9
BRANCH   3  11
HETATM   11  O2  UNL     1      -2.935  21.625  -8.700  1.00  0.00    -0.384 OA
ATOM     12  H2  UNL     1      -2.002  21.552  -8.538  1.00  0.00     0.211 HD
ENDBRANCH   3  11
ENDBRANCH   2   3
ENDBRANCH   1   2
BRANCH   1  13
HETATM   13  C7  UNL     1      -6.226  20.277  -8.370  1.00  0.00     0.126 C 
BRANCH  13  14
HETATM   14  C8  UNL     1      -5.745  19.079  -9.077  1.00  0.00    -0.005 C 
HETATM   15  C9  UNL     1      -4.649  18.421  -8.189  1.00  0.00     0.011 C 
HETATM   16  C10 UNL     1      -6.753  17.986  -9.306  1.00  0.00     0.011 C 
ENDBRANCH  13  14
ENDBRANCH   1  13
BRANCH   1  17
HETATM   17  C11 UNL     1      -6.417  22.290  -9.659  1.00  0.00     0.110 C 
HETATM   18  C12 UNL     1      -6.292  23.751  -9.758  1.00  0.00     0.054 C 
HETATM   19  C13 UNL     1      -7.522  24.081 -10.640  1.00  0.00     0.234 C 
HETATM   20  N2  UNL     1      -8.393  22.953 -10.565  1.00  0.00    -0.073 N 
HETATM   21  C14 UNL     1      -7.931  22.151  -9.414  1.00  0.00     0.257 C 
ATOM     22  H22 UNL     1      -9.380  23.205 -10.514  1.00  0.00     0.277 HD
ATOM     23  H21 UNL     1      -8.444  22.423 -11.434  1.00  0.00     0.277 HD
ENDBRANCH   1  17
TORSDOF 7
ENDMDL
