MODEL 1
REMARK VINA RESULT: -6.107598661      0.000      0.000
REMARK  9 active torsions:
REMARK  status: ('A' for Active; 'I' for Inactive)
REMARK    1  A    between atoms: C2_2  and  C3_3 
REMARK    2  A    between atoms: C3_3  and  C4_4 
REMARK    3  A    between atoms: C7_7  and  O1_8 
REMARK    4  A    between atoms: O1_8  and  C8_9 
REMARK    5  A    between atoms: C9_11  and  C10_12 
REMARK    6  A    between atoms: C10_12  and  N1_13 
REMARK    7  A    between atoms: C11_17  and  O3_18 
REMARK    8  A    between atoms: C12_20  and  O4_21 
REMARK    9  A    between atoms: C13_23  and  O5_24 
ROOT
HETATM    1  C8  UNL     1      -4.844  21.511  -8.110  1.00  0.00     0.292 C 
HETATM    2  O2  UNL     1      -4.803  22.636  -8.920  1.00  0.00    -0.349 OA
HETATM    3  C9  UNL     1      -5.717  22.634  -9.938  1.00  0.00     0.181 C 
HETATM    4  C11 UNL     1      -6.549  21.393  -9.991  1.00  0.00     0.180 C 
HETATM    5  C12 UNL     1      -7.148  21.000  -8.676  1.00  0.00     0.183 C 
HETATM    6  C13 UNL     1      -6.181  21.247  -7.516  1.00  0.00     0.207 C 
ENDROOT
BRANCH   1   7
HETATM    7  O1  UNL     1      -3.804  21.574  -7.219  1.00  0.00    -0.351 OA
BRANCH   7   8
HETATM    8  C7  UNL     1      -3.491  20.389  -6.588  1.00  0.00     0.156 C 
HETATM    9  C6  UNL     1      -3.257  19.236  -7.474  1.00  0.00     0.035 C 
HETATM   10  C5  UNL     1      -1.864  18.640  -7.377  1.00  0.00     0.010 C 
HETATM   11  C4  UNL     1      -1.581  18.378  -5.933  1.00  0.00     0.017 C 
HETATM   12  C16 UNL     1      -1.493  19.705  -5.229  1.00  0.00     0.157 A 
HETATM   13  C15 UNL     1      -2.351  20.701  -5.634  1.00  0.00     0.180 A 
HETATM   14  O6  UNL     1      -1.066  20.803  -6.101  1.00  0.00    -0.372 OA
BRANCH  11  15
HETATM   15  C3  UNL     1      -0.296  17.643  -5.709  1.00  0.00     0.007 C 
BRANCH  15  16
HETATM   16  C2  UNL     1      -0.411  16.549  -4.669  1.00  0.00    -0.004 C 
HETATM   17  C1  UNL     1      -1.384  15.512  -5.236  1.00  0.00     0.005 C 
ENDBRANCH  15  16
ENDBRANCH  11  15
ENDBRANCH   7   8
ENDBRANCH   1   7
BRANCH   6  18
HETATM   18  O5  UNL     1      -6.719  22.160  -6.702  1.00  0.00    -0.383 OA
HETATM   19  C14 UNL     1      -7.976  22.606  -6.888  1.00  0.00     0.202 C 
ENDBRANCH   6  18
BRANCH   3  20
HETATM   20  C10 UNL     1      -6.512  23.902  -9.867  1.00  0.00     0.264 C 
BRANCH  20  21
HETATM   21  N1  UNL     1      -6.972  24.368 -11.150  1.00  0.00    -0.077 N 
ATOM     22  H13 UNL     1      -7.917  24.031 -11.338  1.00  0.00     0.274 HD
ATOM     23  H12 UNL     1      -7.151  25.372 -11.126  1.00  0.00     0.274 HD
ATOM     24  H11 UNL     1      -6.346  24.132 -11.919  1.00  0.00     0.274 HD
ENDBRANCH  20  21
ENDBRANCH   3  20
BRANCH   5  25
HETATM   25  O4  UNL     1      -7.545  19.681  -8.755  1.00  0.00    -0.390 OA
ATOM     26  H4  UNL     1      -8.419  19.609  -8.391  1.00  0.00     0.210 HD
ENDBRANCH   5  25
BRANCH   4  27
HETATM   27  O3  UNL     1      -7.582  21.530 -10.908  1.00  0.00    -0.390 OA
ATOM     28  H3  UNL     1      -7.647  20.761 -11.462  1.00  0.00     0.210 HD
ENDBRANCH   4  27
TORSDOF 9
ENDMDL
MODEL 2
REMARK VINA RESULT: -6.095584536      1.599      2.186
REMARK  9 active torsions:
REMARK  status: ('A' for Active; 'I' for Inactive)
REMARK    1  A    between atoms: C2_2  and  C3_3 
REMARK    2  A    between atoms: C3_3  and  C4_4 
REMARK    3  A    between atoms: C7_7  and  O1_8 
REMARK    4  A    between atoms: O1_8  and  C8_9 
REMARK    5  A    between atoms: C9_11  and  C10_12 
REMARK    6  A    between atoms: C10_12  and  N1_13 
REMARK    7  A    between atoms: C11_17  and  O3_18 
REMARK    8  A    between atoms: C12_20  and  O4_21 
REMARK    9  A    between atoms: C13_23  and  O5_24 
ROOT
HETATM    1  C8  UNL     1      -5.975  22.592  -8.301  1.00  0.00     0.292 C 
HETATM    2  O2  UNL     1      -5.694  23.433  -9.370  1.00  0.00    -0.349 OA
HETATM    3  C9  UNL     1      -6.657  23.456 -10.340  1.00  0.00     0.181 C 
HETATM    4  C11 UNL     1      -7.802  22.535 -10.066  1.00  0.00     0.180 C 
HETATM    5  C12 UNL     1      -8.370  22.654  -8.685  1.00  0.00     0.183 C 
HETATM    6  C13 UNL     1      -7.275  22.876  -7.640  1.00  0.00     0.207 C 
ENDROOT
BRANCH   1   7
HETATM    7  O1  UNL     1      -4.884  22.559  -7.472  1.00  0.00    -0.351 OA
BRANCH   7   8
HETATM    8  C7  UNL     1      -3.936  21.607  -7.778  1.00  0.00     0.156 C 
HETATM    9  C6  UNL     1      -2.794  21.520  -6.851  1.00  0.00     0.035 C 
HETATM   10  C5  UNL     1      -2.647  20.179  -6.156  1.00  0.00     0.010 C 
HETATM   11  C4  UNL     1      -2.672  19.116  -7.206  1.00  0.00     0.017 C 
HETATM   12  C16 UNL     1      -4.048  19.098  -7.816  1.00  0.00     0.157 A 
HETATM   13  C15 UNL     1      -4.688  20.304  -7.984  1.00  0.00     0.180 A 
HETATM   14  O6  UNL     1      -5.098  19.563  -6.905  1.00  0.00    -0.372 OA
BRANCH  11  15
HETATM   15  C3  UNL     1      -2.380  17.750  -6.670  1.00  0.00     0.007 C 
BRANCH  15  16
HETATM   16  C2  UNL     1      -1.158  17.712  -5.776  1.00  0.00    -0.004 C 
HETATM   17  C1  UNL     1      -1.175  16.351  -5.075  1.00  0.00     0.005 C 
ENDBRANCH  15  16
ENDBRANCH  11  15
ENDBRANCH   7   8
ENDBRANCH   1   7
BRANCH   6  18
HETATM   18  O5  UNL     1      -7.465  24.071  -7.073  1.00  0.00    -0.383 OA
HETATM   19  C14 UNL     1      -6.941  24.361  -5.866  1.00  0.00     0.202 C 
ENDBRANCH   6  18
BRANCH   3  20
HETATM   20  C10 UNL     1      -7.060  24.880 -10.576  1.00  0.00     0.264 C 
BRANCH  20  21
HETATM   21  N1  UNL     1      -7.458  25.149 -11.934  1.00  0.00    -0.077 N 
ATOM     22  H13 UNL     1      -7.132  26.069 -12.230  1.00  0.00     0.274 HD
ATOM     23  H12 UNL     1      -6.935  24.565 -12.586  1.00  0.00     0.274 HD
ATOM     24  H11 UNL     1      -8.461  25.055 -12.093  1.00  0.00     0.274 HD
ENDBRANCH  20  21
ENDBRANCH   3  20
BRANCH   5  25
HETATM   25  O4  UNL     1      -9.123  21.528  -8.425  1.00  0.00    -0.390 OA
ATOM     26  H4  UNL     1      -9.362  21.533  -7.506  1.00  0.00     0.210 HD
ENDBRANCH   5  25
BRANCH   4  27
HETATM   27  O3  UNL     1      -8.833  22.746 -10.972  1.00  0.00    -0.390 OA
ATOM     28  H3  UNL     1      -9.670  22.502 -10.595  1.00  0.00     0.210 HD
ENDBRANCH   4  27
TORSDOF 9
ENDMDL
MODEL 3
REMARK VINA RESULT: -6.018569541      3.212      7.550
REMARK  9 active torsions:
REMARK  status: ('A' for Active; 'I' for Inactive)
REMARK    1  A    between atoms: C2_2  and  C3_3 
REMARK    2  A    between atoms: C3_3  and  C4_4 
REMARK    3  A    between atoms: C7_7  and  O1_8 
REMARK    4  A    between atoms: O1_8  and  C8_9 
REMARK    5  A    between atoms: C9_11  and  C10_12 
REMARK    6  A    between atoms: C10_12  and  N1_13 
REMARK    7  A    between atoms: C11_17  and  O3_18 
REMARK    8  A    between atoms: C12_20  and  O4_21 
REMARK    9  A    between atoms: C13_23  and  O5_24 
ROOT
HETATM    1  C8  UNL     1      -1.546  18.938  -6.933  1.00  0.00     0.292 C 
HETATM    2  O2  UNL     1      -0.426  18.999  -7.750  1.00  0.00    -0.349 OA
HETATM    3  C9  UNL     1       0.748  19.223  -7.084  1.00  0.00     0.181 C 
HETATM    4  C11 UNL     1       0.575  19.396  -5.609  1.00  0.00     0.180 C 
HETATM    5  C12 UNL     1      -0.264  18.338  -4.962  1.00  0.00     0.183 C 
HETATM    6  C13 UNL     1      -1.443  17.928  -5.847  1.00  0.00     0.207 C 
ENDROOT
BRANCH   1   7
HETATM    7  O1  UNL     1      -2.660  18.842  -7.725  1.00  0.00    -0.351 OA
BRANCH   7   8
HETATM    8  C7  UNL     1      -3.779  19.497  -7.256  1.00  0.00     0.156 C 
HETATM    9  C6  UNL     1      -3.730  20.968  -7.316  1.00  0.00     0.035 C 
HETATM   10  C5  UNL     1      -4.802  21.599  -8.187  1.00  0.00     0.010 C 
HETATM   11  C4  UNL     1      -6.121  21.041  -7.760  1.00  0.00     0.017 C 
HETATM   12  C16 UNL     1      -6.141  19.577  -8.107  1.00  0.00     0.157 A 
HETATM   13  C15 UNL     1      -4.969  18.870  -7.961  1.00  0.00     0.180 A 
HETATM   14  O6  UNL     1      -5.283  19.234  -9.246  1.00  0.00    -0.372 OA
BRANCH  11  15
HETATM   15  C3  UNL     1      -7.285  21.698  -8.436  1.00  0.00     0.007 C 
BRANCH  15  16
HETATM   16  C2  UNL     1      -7.663  23.024  -7.811  1.00  0.00    -0.004 C 
HETATM   17  C1  UNL     1      -7.697  22.796  -6.297  1.00  0.00     0.005 C 
ENDBRANCH  15  16
ENDBRANCH  11  15
ENDBRANCH   7   8
ENDBRANCH   1   7
BRANCH   6  18
HETATM   18  O5  UNL     1      -1.301  16.639  -6.173  1.00  0.00    -0.383 OA
HETATM   19  C14 UNL     1      -1.295  15.679  -5.230  1.00  0.00     0.202 C 
ENDBRANCH   6  18
BRANCH   3  20
HETATM   20  C10 UNL     1       1.723  18.150  -7.463  1.00  0.00     0.264 C 
BRANCH  20  21
HETATM   21  N1  UNL     1       3.059  18.638  -7.692  1.00  0.00    -0.077 N 
ATOM     22  H13 UNL     1       3.065  19.656  -7.755  1.00  0.00     0.274 HD
ATOM     23  H12 UNL     1       3.635  18.515  -6.859  1.00  0.00     0.274 HD
ATOM     24  H11 UNL     1       3.512  18.224  -8.507  1.00  0.00     0.274 HD
ENDBRANCH  20  21
ENDBRANCH   3  20
BRANCH   5  25
HETATM   25  O4  UNL     1      -0.672  18.799  -3.728  1.00  0.00    -0.390 OA
ATOM     26  H4  UNL     1      -1.187  18.121  -3.308  1.00  0.00     0.210 HD
ENDBRANCH   5  25
BRANCH   4  27
HETATM   27  O3  UNL     1       1.805  19.419  -4.966  1.00  0.00    -0.390 OA
ATOM     28  H3  UNL     1       2.106  20.312  -4.844  1.00  0.00     0.210 HD
ENDBRANCH   4  27
TORSDOF 9
ENDMDL
MODEL 4
REMARK VINA RESULT: -5.940144463      4.427      6.728
REMARK  9 active torsions:
REMARK  status: ('A' for Active; 'I' for Inactive)
REMARK    1  A    between atoms: C2_2  and  C3_3 
REMARK    2  A    between atoms: C3_3  and  C4_4 
REMARK    3  A    between atoms: C7_7  and  O1_8 
REMARK    4  A    between atoms: O1_8  and  C8_9 
REMARK    5  A    between atoms: C9_11  and  C10_12 
REMARK    6  A    between atoms: C10_12  and  N1_13 
REMARK    7  A    between atoms: C11_17  and  O3_18 
REMARK    8  A    between atoms: C12_20  and  O4_21 
REMARK    9  A    between atoms: C13_23  and  O5_24 
ROOT
HETATM    1  C8  UNL     1      -0.148  18.516  -5.437  1.00  0.00     0.292 C 
HETATM    2  O2  UNL     1       0.061  19.720  -4.780  1.00  0.00    -0.349 OA
HETATM    3  C9  UNL     1       0.753  20.649  -5.508  1.00  0.00     0.181 C 
HETATM    4  C11 UNL     1       1.178  20.157  -6.853  1.00  0.00     0.180 C 
HETATM    5  C12 UNL     1       0.085  19.502  -7.641  1.00  0.00     0.183 C 
HETATM    6  C13 UNL     1      -0.828  18.659  -6.750  1.00  0.00     0.207 C 
ENDROOT
BRANCH   1   7
HETATM    7  O1  UNL     1      -0.730  17.635  -4.562  1.00  0.00    -0.351 OA
BRANCH   7   8
HETATM    8  C7  UNL     1      -0.262  16.340  -4.626  1.00  0.00     0.156 C 
HETATM    9  C6  UNL     1       0.186  15.759  -3.349  1.00  0.00     0.035 C 
HETATM   10  C5  UNL     1      -0.587  14.528  -2.910  1.00  0.00     0.010 C 
HETATM   11  C4  UNL     1      -0.602  13.568  -4.055  1.00  0.00     0.017 C 
HETATM   12  C16 UNL     1      -1.420  14.177  -5.162  1.00  0.00     0.157 A 
HETATM   13  C15 UNL     1      -1.326  15.536  -5.352  1.00  0.00     0.180 A 
HETATM   14  O6  UNL     1      -2.447  15.110  -4.685  1.00  0.00    -0.372 OA
BRANCH  11  15
HETATM   15  C3  UNL     1      -1.202  12.242  -3.705  1.00  0.00     0.007 C 
BRANCH  15  16
HETATM   16  C2  UNL     1      -0.233  11.091  -3.868  1.00  0.00    -0.004 C 
HETATM   17  C1  UNL     1       0.513  11.334  -5.183  1.00  0.00     0.005 C 
ENDBRANCH  15  16
ENDBRANCH  11  15
ENDBRANCH   7   8
ENDBRANCH   1   7
BRANCH   6  18
HETATM   18  O5  UNL     1      -2.059  19.180  -6.788  1.00  0.00    -0.383 OA
HETATM   19  C14 UNL     1      -3.098  18.477  -7.278  1.00  0.00     0.202 C 
ENDBRANCH   6  18
BRANCH   3  20
HETATM   20  C10 UNL     1      -0.045  21.916  -5.544  1.00  0.00     0.264 C 
BRANCH  20  21
HETATM   21  N1  UNL     1      -1.406  21.755  -5.100  1.00  0.00    -0.077 N 
ATOM     22  H13 UNL     1      -1.459  21.077  -4.338  1.00  0.00     0.274 HD
ATOM     23  H12 UNL     1      -1.726  22.589  -4.608  1.00  0.00     0.274 HD
ATOM     24  H11 UNL     1      -2.054  21.507  -5.848  1.00  0.00     0.274 HD
ENDBRANCH  20  21
ENDBRANCH   3  20
BRANCH   5  25
HETATM   25  O4  UNL     1       0.661  18.762  -8.653  1.00  0.00    -0.390 OA
ATOM     26  H4  UNL     1       1.492  19.159  -8.880  1.00  0.00     0.210 HD
ENDBRANCH   5  25
BRANCH   4  27
HETATM   27  O3  UNL     1       1.695  21.194  -7.618  1.00  0.00    -0.390 OA
ATOM     28  H3  UNL     1       1.271  21.232  -8.467  1.00  0.00     0.210 HD
ENDBRANCH   4  27
TORSDOF 9
ENDMDL
MODEL 5
REMARK VINA RESULT: -5.909053588      1.014      1.453
REMARK  9 active torsions:
REMARK  status: ('A' for Active; 'I' for Inactive)
REMARK    1  A    between atoms: C2_2  and  C3_3 
REMARK    2  A    between atoms: C3_3  and  C4_4 
REMARK    3  A    between atoms: C7_7  and  O1_8 
REMARK    4  A    between atoms: O1_8  and  C8_9 
REMARK    5  A    between atoms: C9_11  and  C10_12 
REMARK    6  A    between atoms: C10_12  and  N1_13 
REMARK    7  A    between atoms: C11_17  and  O3_18 
REMARK    8  A    between atoms: C12_20  and  O4_21 
REMARK    9  A    between atoms: C13_23  and  O5_24 
ROOT
HETATM    1  C8  UNL     1      -5.108  20.967  -7.488  1.00  0.00     0.292 C 
HETATM    2  O2  UNL     1      -4.678  22.153  -8.066  1.00  0.00    -0.349 OA
HETATM    3  C9  UNL     1      -5.297  22.466  -9.245  1.00  0.00     0.181 C 
HETATM    4  C11 UNL     1      -6.286  21.437  -9.691  1.00  0.00     0.180 C 
HETATM    5  C12 UNL     1      -7.251  21.012  -8.627  1.00  0.00     0.183 C 
HETATM    6  C13 UNL     1      -6.575  20.909  -7.258  1.00  0.00     0.207 C 
ENDROOT
BRANCH   1   7
HETATM    7  O1  UNL     1      -4.326  20.705  -6.393  1.00  0.00    -0.351 OA
BRANCH   7   8
HETATM    8  C7  UNL     1      -2.982  20.539  -6.651  1.00  0.00     0.156 C 
HETATM    9  C6  UNL     1      -2.083  20.731  -5.501  1.00  0.00     0.035 C 
HETATM   10  C5  UNL     1      -1.266  19.507  -5.127  1.00  0.00     0.010 C 
HETATM   11  C4  UNL     1      -0.590  19.016  -6.366  1.00  0.00     0.017 C 
HETATM   12  C16 UNL     1      -1.651  18.513  -7.307  1.00  0.00     0.157 A 
HETATM   13  C15 UNL     1      -2.843  19.199  -7.350  1.00  0.00     0.180 A 
HETATM   14  O6  UNL     1      -2.858  18.034  -6.625  1.00  0.00    -0.372 OA
BRANCH  11  15
HETATM   15  C3  UNL     1       0.375  17.901  -6.108  1.00  0.00     0.007 C 
BRANCH  15  16
HETATM   16  C2  UNL     1       0.160  17.228  -4.769  1.00  0.00    -0.004 C 
HETATM   17  C1  UNL     1      -0.400  15.834  -5.069  1.00  0.00     0.005 C 
ENDBRANCH  15  16
ENDBRANCH  11  15
ENDBRANCH   7   8
ENDBRANCH   1   7
BRANCH   6  18
HETATM   18  O5  UNL     1      -7.137  21.802  -6.438  1.00  0.00    -0.383 OA
HETATM   19  C14 UNL     1      -8.139  22.598  -6.857  1.00  0.00     0.202 C 
ENDBRANCH   6  18
BRANCH   3  20
HETATM   20  C10 UNL     1      -5.860  23.849  -9.135  1.00  0.00     0.264 C 
BRANCH  20  21
HETATM   21  N1  UNL     1      -6.044  24.501 -10.406  1.00  0.00    -0.077 N 
ATOM     22  H13 UNL     1      -6.894  24.170 -10.862  1.00  0.00     0.274 HD
ATOM     23  H12 UNL     1      -6.290  25.482 -10.276  1.00  0.00     0.274 HD
ATOM     24  H11 UNL     1      -5.242  24.411 -11.031  1.00  0.00     0.274 HD
ENDBRANCH  20  21
ENDBRANCH   3  20
BRANCH   5  25
HETATM   25  O4  UNL     1      -7.831  19.823  -9.015  1.00  0.00    -0.390 OA
ATOM     26  H4  UNL     1      -7.409  19.114  -8.545  1.00  0.00     0.210 HD
ENDBRANCH   5  25
BRANCH   4  27
HETATM   27  O3  UNL     1      -7.021  21.896 -10.775  1.00  0.00    -0.390 OA
ATOM     28  H3  UNL     1      -6.571  22.609 -11.212  1.00  0.00     0.210 HD
ENDBRANCH   4  27
TORSDOF 9
ENDMDL
