MODEL 1
REMARK VINA RESULT: -6.300950713      0.000      0.000
REMARK  10 active torsions:
REMARK  status: ('A' for Active; 'I' for Inactive)
REMARK    1  A    between atoms: C2_2  and  C3_3 
REMARK    2  A    between atoms: C3_3  and  O2_5 
REMARK    3  A    between atoms: O2_5  and  C4_6 
REMARK    4  A    between atoms: C9_11  and  N1_12 
REMARK    5  A    between atoms: N1_12  and  C10_14 
REMARK    6  A    between atoms: C10_14  and  C11_15 
REMARK    7  A    between atoms: C12_17  and  O4_18 
REMARK    8  A    between atoms: O4_18  and  C13_19 
REMARK    9  A    between atoms: C16_22  and  O5_23 
REMARK   10  A    between atoms: C17_25  and  O6_26 
ROOT
HETATM    1  C10 UNL     1       0.200  16.264  -5.356  1.00  0.00     0.149 C 
ENDROOT
BRANCH   1   2
HETATM    2  N1  UNL     1      -0.001  15.637  -4.127  1.00  0.00    -0.412 N 
ATOM      3  H1  UNL     1       0.599  15.891  -3.342  1.00  0.00     0.153 HD
BRANCH   2   4
HETATM    4  C9  UNL     1      -0.994  14.671  -3.929  1.00  0.00     0.106 C 
HETATM    5  C4  UNL     1      -0.732  13.749  -2.767  1.00  0.00     0.154 C 
HETATM    6  C5  UNL     1       0.097  12.563  -3.018  1.00  0.00     0.035 C 
HETATM    7  C6  UNL     1       0.265  12.091  -4.400  1.00  0.00     0.003 C 
HETATM    8  C7  UNL     1      -0.538  12.727  -5.455  1.00  0.00     0.002 C 
HETATM    9  C8  UNL     1      -1.435  13.832  -5.065  1.00  0.00     0.027 C 
BRANCH   5  10
HETATM   10  O2  UNL     1      -0.198  14.488  -1.650  1.00  0.00    -0.311 OA
BRANCH  10  11
HETATM   11  C3  UNL     1      -0.514  14.196  -0.350  1.00  0.00     0.282 C 
HETATM   12  O1  UNL     1      -1.717  14.257  -0.004  1.00  0.00    -0.260 OA
BRANCH  11  13
HETATM   13  C2  UNL     1       0.475  13.819   0.660  1.00  0.00     0.072 C 
HETATM   14  C1  UNL     1       1.214  12.749   0.573  1.00  0.00     0.017 C 
ENDBRANCH  11  13
ENDBRANCH  10  11
ENDBRANCH   5  10
ENDBRANCH   2   4
ENDBRANCH   1   2
BRANCH   1  15
HETATM   15  C11 UNL     1      -0.730  17.484  -5.554  1.00  0.00     0.173 C 
HETATM   16  O3  UNL     1      -1.558  17.298  -6.634  1.00  0.00    -0.349 OA
HETATM   17  C12 UNL     1      -1.845  18.570  -7.129  1.00  0.00     0.291 C 
HETATM   18  C16 UNL     1      -0.464  19.176  -7.238  1.00  0.00     0.204 C 
HETATM   19  C17 UNL     1       0.185  18.611  -5.981  1.00  0.00     0.182 C 
BRANCH  17  20
HETATM   20  O4  UNL     1      -2.533  19.291  -6.163  1.00  0.00    -0.354 OA
BRANCH  20  21
HETATM   21  C13 UNL     1      -3.691  19.859  -6.627  1.00  0.00     0.116 C 
HETATM   22  C14 UNL     1      -4.249  18.982  -7.744  1.00  0.00     0.039 C 
HETATM   23  C15 UNL     1      -3.451  21.235  -7.245  1.00  0.00     0.039 C 
ENDBRANCH  20  21
ENDBRANCH  17  20
BRANCH  18  24
HETATM   24  O5  UNL     1       0.202  18.803  -8.382  1.00  0.00    -0.388 OA
ATOM     25  H5  UNL     1       1.062  18.437  -8.211  1.00  0.00     0.210 HD
ENDBRANCH  18  24
BRANCH  19  26
HETATM   26  O6  UNL     1       0.261  19.572  -4.978  1.00  0.00    -0.390 OA
ATOM     27  H6  UNL     1       0.703  20.348  -5.302  1.00  0.00     0.210 HD
ENDBRANCH  19  26
ENDBRANCH   1  15
TORSDOF 10
ENDMDL
MODEL 2
REMARK VINA RESULT: -6.211964438      1.486      2.944
REMARK  10 active torsions:
REMARK  status: ('A' for Active; 'I' for Inactive)
REMARK    1  A    between atoms: C2_2  and  C3_3 
REMARK    2  A    between atoms: C3_3  and  O2_5 
REMARK    3  A    between atoms: O2_5  and  C4_6 
REMARK    4  A    between atoms: C9_11  and  N1_12 
REMARK    5  A    between atoms: N1_12  and  C10_14 
REMARK    6  A    between atoms: C10_14  and  C11_15 
REMARK    7  A    between atoms: C12_17  and  O4_18 
REMARK    8  A    between atoms: O4_18  and  C13_19 
REMARK    9  A    between atoms: C16_22  and  O5_23 
REMARK   10  A    between atoms: C17_25  and  O6_26 
ROOT
HETATM    1  C10 UNL     1      -0.491  16.296  -5.398  1.00  0.00     0.149 C 
ENDROOT
BRANCH   1   2
HETATM    2  N1  UNL     1      -0.821  15.671  -4.196  1.00  0.00    -0.412 N 
ATOM      3  H1  UNL     1      -1.733  15.221  -4.111  1.00  0.00     0.153 HD
BRANCH   2   4
HETATM    4  C9  UNL     1       0.050  15.637  -3.101  1.00  0.00     0.106 C 
HETATM    5  C4  UNL     1      -0.439  14.794  -1.953  1.00  0.00     0.154 C 
HETATM    6  C5  UNL     1      -1.330  15.434  -0.975  1.00  0.00     0.035 C 
HETATM    7  C6  UNL     1      -1.359  16.901  -0.893  1.00  0.00     0.003 C 
HETATM    8  C7  UNL     1      -0.373  17.662  -1.675  1.00  0.00     0.002 C 
HETATM    9  C8  UNL     1       0.559  16.904  -2.531  1.00  0.00     0.027 C 
BRANCH   5  10
HETATM   10  O2  UNL     1      -1.047  13.581  -2.442  1.00  0.00    -0.311 OA
BRANCH  10  11
HETATM   11  C3  UNL     1      -0.315  12.494  -2.840  1.00  0.00     0.282 C 
HETATM   12  O1  UNL     1       0.635  12.120  -2.113  1.00  0.00    -0.260 OA
BRANCH  11  13
HETATM   13  C2  UNL     1      -0.580  11.745  -4.068  1.00  0.00     0.072 C 
HETATM   14  C1  UNL     1       0.224  11.744  -5.094  1.00  0.00     0.017 C 
ENDBRANCH  11  13
ENDBRANCH  10  11
ENDBRANCH   5  10
ENDBRANCH   2   4
ENDBRANCH   1   2
BRANCH   1  15
HETATM   15  C11 UNL     1      -1.368  17.539  -5.677  1.00  0.00     0.173 C 
HETATM   16  O3  UNL     1      -2.080  17.385  -6.841  1.00  0.00    -0.349 OA
HETATM   17  C12 UNL     1      -2.285  18.669  -7.345  1.00  0.00     0.291 C 
HETATM   18  C16 UNL     1      -0.888  19.244  -7.298  1.00  0.00     0.204 C 
HETATM   19  C17 UNL     1      -0.388  18.650  -5.987  1.00  0.00     0.182 C 
BRANCH  17  20
HETATM   20  O4  UNL     1      -3.057  19.394  -6.448  1.00  0.00    -0.354 OA
BRANCH  20  21
HETATM   21  C13 UNL     1      -4.203  19.905  -7.000  1.00  0.00     0.116 C 
HETATM   22  C14 UNL     1      -4.705  18.931  -8.063  1.00  0.00     0.039 C 
HETATM   23  C15 UNL     1      -3.955  21.229  -7.719  1.00  0.00     0.039 C 
ENDBRANCH  20  21
ENDBRANCH  17  20
BRANCH  18  24
HETATM   24  O5  UNL     1      -0.112  18.869  -8.370  1.00  0.00    -0.388 OA
ATOM     25  H5  UNL     1       0.812  18.809  -8.159  1.00  0.00     0.210 HD
ENDBRANCH  18  24
BRANCH  19  26
HETATM   26  O6  UNL     1      -0.400  19.597  -4.969  1.00  0.00    -0.390 OA
ATOM     27  H6  UNL     1      -0.739  19.212  -4.169  1.00  0.00     0.210 HD
ENDBRANCH  19  26
ENDBRANCH   1  15
TORSDOF 10
ENDMDL
MODEL 3
REMARK VINA RESULT: -6.192989466      1.056      1.510
REMARK  10 active torsions:
REMARK  status: ('A' for Active; 'I' for Inactive)
REMARK    1  A    between atoms: C2_2  and  C3_3 
REMARK    2  A    between atoms: C3_3  and  O2_5 
REMARK    3  A    between atoms: O2_5  and  C4_6 
REMARK    4  A    between atoms: C9_11  and  N1_12 
REMARK    5  A    between atoms: N1_12  and  C10_14 
REMARK    6  A    between atoms: C10_14  and  C11_15 
REMARK    7  A    between atoms: C12_17  and  O4_18 
REMARK    8  A    between atoms: O4_18  and  C13_19 
REMARK    9  A    between atoms: C16_22  and  O5_23 
REMARK   10  A    between atoms: C17_25  and  O6_26 
ROOT
HETATM    1  C10 UNL     1       0.358  16.349  -5.326  1.00  0.00     0.149 C 
ENDROOT
BRANCH   1   2
HETATM    2  N1  UNL     1       0.120  15.673  -4.130  1.00  0.00    -0.412 N 
ATOM      3  H1  UNL     1       0.756  15.823  -3.347  1.00  0.00     0.153 HD
BRANCH   2   4
HETATM    4  C9  UNL     1      -0.958  14.796  -3.963  1.00  0.00     0.106 C 
HETATM    5  C4  UNL     1      -0.909  13.999  -2.687  1.00  0.00     0.154 C 
HETATM    6  C5  UNL     1      -0.144  12.744  -2.701  1.00  0.00     0.035 C 
HETATM    7  C6  UNL     1       0.158  12.110  -3.992  1.00  0.00     0.003 C 
HETATM    8  C7  UNL     1      -0.461  12.668  -5.203  1.00  0.00     0.002 C 
HETATM    9  C8  UNL     1      -1.316  13.861  -5.052  1.00  0.00     0.027 C 
BRANCH   5  10
HETATM   10  O2  UNL     1      -0.464  14.826  -1.593  1.00  0.00    -0.311 OA
BRANCH  10  11
HETATM   11  C3  UNL     1      -1.330  15.457  -0.740  1.00  0.00     0.282 C 
HETATM   12  O1  UNL     1      -2.101  14.752  -0.049  1.00  0.00    -0.260 OA
BRANCH  11  13
HETATM   13  C2  UNL     1      -1.406  16.910  -0.592  1.00  0.00     0.072 C 
HETATM   14  C1  UNL     1      -1.387  17.735  -1.601  1.00  0.00     0.017 C 
ENDBRANCH  11  13
ENDBRANCH  10  11
ENDBRANCH   5  10
ENDBRANCH   2   4
ENDBRANCH   1   2
BRANCH   1  15
HETATM   15  C11 UNL     1      -0.613  17.535  -5.537  1.00  0.00     0.173 C 
HETATM   16  O3  UNL     1      -1.461  17.294  -6.590  1.00  0.00    -0.349 OA
HETATM   17  C12 UNL     1      -1.797  18.542  -7.113  1.00  0.00     0.291 C 
HETATM   18  C16 UNL     1      -0.438  19.183  -7.275  1.00  0.00     0.204 C 
HETATM   19  C17 UNL     1       0.259  18.675  -6.018  1.00  0.00     0.182 C 
BRANCH  17  20
HETATM   20  O4  UNL     1      -2.482  19.271  -6.152  1.00  0.00    -0.354 OA
BRANCH  20  21
HETATM   21  C13 UNL     1      -3.649  19.824  -6.613  1.00  0.00     0.116 C 
HETATM   22  C14 UNL     1      -4.197  18.939  -7.730  1.00  0.00     0.039 C 
HETATM   23  C15 UNL     1      -3.428  21.203  -7.232  1.00  0.00     0.039 C 
ENDBRANCH  20  21
ENDBRANCH  17  20
BRANCH  18  24
HETATM   24  O5  UNL     1       0.211  18.795  -8.423  1.00  0.00    -0.388 OA
ATOM     25  H5  UNL     1       0.441  19.525  -8.987  1.00  0.00     0.210 HD
ENDBRANCH  18  24
BRANCH  19  26
HETATM   26  O6  UNL     1       0.330  19.667  -5.046  1.00  0.00    -0.390 OA
ATOM     27  H6  UNL     1       0.483  20.512  -5.452  1.00  0.00     0.210 HD
ENDBRANCH  19  26
ENDBRANCH   1  15
TORSDOF 10
ENDMDL
MODEL 4
REMARK VINA RESULT: -6.176343007      3.224      7.751
REMARK  10 active torsions:
REMARK  status: ('A' for Active; 'I' for Inactive)
REMARK    1  A    between atoms: C2_2  and  C3_3 
REMARK    2  A    between atoms: C3_3  and  O2_5 
REMARK    3  A    between atoms: O2_5  and  C4_6 
REMARK    4  A    between atoms: C9_11  and  N1_12 
REMARK    5  A    between atoms: N1_12  and  C10_14 
REMARK    6  A    between atoms: C10_14  and  C11_15 
REMARK    7  A    between atoms: C12_17  and  O4_18 
REMARK    8  A    between atoms: O4_18  and  C13_19 
REMARK    9  A    between atoms: C16_22  and  O5_23 
REMARK   10  A    between atoms: C17_25  and  O6_26 
ROOT
HETATM    1  C10 UNL     1       0.103  20.937  -5.843  1.00  0.00     0.149 C 
ENDROOT
BRANCH   1   2
HETATM    2  N1  UNL     1      -0.907  21.598  -6.542  1.00  0.00    -0.412 N 
ATOM      3  H1  UNL     1      -0.695  21.986  -7.461  1.00  0.00     0.153 HD
BRANCH   2   4
HETATM    4  C9  UNL     1      -2.201  21.750  -6.029  1.00  0.00     0.106 C 
HETATM    5  C4  UNL     1      -3.291  21.348  -6.987  1.00  0.00     0.154 C 
HETATM    6  C5  UNL     1      -3.761  22.362  -7.942  1.00  0.00     0.035 C 
HETATM    7  C6  UNL     1      -3.495  23.780  -7.662  1.00  0.00     0.003 C 
HETATM    8  C7  UNL     1      -2.918  24.136  -6.357  1.00  0.00     0.002 C 
HETATM    9  C8  UNL     1      -2.601  23.039  -5.423  1.00  0.00     0.027 C 
BRANCH   5  10
HETATM   10  O2  UNL     1      -2.922  20.148  -7.696  1.00  0.00    -0.311 OA
BRANCH  10  11
HETATM   11  C3  UNL     1      -3.607  18.969  -7.565  1.00  0.00     0.282 C 
HETATM   12  O1  UNL     1      -3.105  18.068  -6.854  1.00  0.00    -0.260 OA
BRANCH  11  13
HETATM   13  C2  UNL     1      -4.892  18.703  -8.211  1.00  0.00     0.072 C 
HETATM   14  C1  UNL     1      -6.016  19.228  -7.811  1.00  0.00     0.017 C 
ENDBRANCH  11  13
ENDBRANCH  10  11
ENDBRANCH   5  10
ENDBRANCH   2   4
ENDBRANCH   1   2
BRANCH   1  15
HETATM   15  C11 UNL     1       0.048  19.404  -6.037  1.00  0.00     0.173 C 
HETATM   16  O3  UNL     1       0.889  18.768  -5.157  1.00  0.00    -0.349 OA
HETATM   17  C12 UNL     1       1.281  17.583  -5.780  1.00  0.00     0.291 C 
HETATM   18  C16 UNL     1       1.724  18.080  -7.137  1.00  0.00     0.204 C 
HETATM   19  C17 UNL     1       0.676  19.157  -7.392  1.00  0.00     0.182 C 
BRANCH  17  20
HETATM   20  O4  UNL     1       0.165  16.783  -5.982  1.00  0.00    -0.354 OA
BRANCH  20  21
HETATM   21  C13 UNL     1      -0.161  16.014  -4.894  1.00  0.00     0.116 C 
HETATM   22  C14 UNL     1       1.014  15.091  -4.583  1.00  0.00     0.039 C 
HETATM   23  C15 UNL     1      -1.357  15.105  -5.168  1.00  0.00     0.039 C 
ENDBRANCH  20  21
ENDBRANCH  17  20
BRANCH  18  24
HETATM   24  O5  UNL     1       3.002  18.588  -7.136  1.00  0.00    -0.388 OA
ATOM     25  H5  UNL     1       3.671  17.915  -7.185  1.00  0.00     0.210 HD
ENDBRANCH  18  24
BRANCH  19  26
HETATM   26  O6  UNL     1      -0.288  18.717  -8.293  1.00  0.00    -0.390 OA
ATOM     27  H6  UNL     1       0.122  18.461  -9.111  1.00  0.00     0.210 HD
ENDBRANCH  19  26
ENDBRANCH   1  15
TORSDOF 10
ENDMDL
MODEL 5
REMARK VINA RESULT: -6.164498240      3.329      6.230
REMARK  10 active torsions:
REMARK  status: ('A' for Active; 'I' for Inactive)
REMARK    1  A    between atoms: C2_2  and  C3_3 
REMARK    2  A    between atoms: C3_3  and  O2_5 
REMARK    3  A    between atoms: O2_5  and  C4_6 
REMARK    4  A    between atoms: C9_11  and  N1_12 
REMARK    5  A    between atoms: N1_12  and  C10_14 
REMARK    6  A    between atoms: C10_14  and  C11_15 
REMARK    7  A    between atoms: C12_17  and  O4_18 
REMARK    8  A    between atoms: O4_18  and  C13_19 
REMARK    9  A    between atoms: C16_22  and  O5_23 
REMARK   10  A    between atoms: C17_25  and  O6_26 
ROOT
HETATM    1  C10 UNL     1      -4.083  18.831  -7.730  1.00  0.00     0.149 C 
ENDROOT
BRANCH   1   2
HETATM    2  N1  UNL     1      -3.437  19.336  -6.603  1.00  0.00    -0.412 N 
ATOM      3  H1  UNL     1      -3.979  19.484  -5.751  1.00  0.00     0.153 HD
BRANCH   2   4
HETATM    4  C9  UNL     1      -2.073  19.649  -6.595  1.00  0.00     0.106 C 
HETATM    5  C4  UNL     1      -1.222  18.668  -5.832  1.00  0.00     0.154 C 
HETATM    6  C5  UNL     1      -1.079  18.878  -4.384  1.00  0.00     0.035 C 
HETATM    7  C6  UNL     1      -1.376  20.205  -3.825  1.00  0.00     0.003 C 
HETATM    8  C7  UNL     1      -1.642  21.310  -4.759  1.00  0.00     0.002 C 
HETATM    9  C8  UNL     1      -1.636  21.007  -6.202  1.00  0.00     0.027 C 
BRANCH   5  10
HETATM   10  O2  UNL     1      -1.661  17.318  -6.085  1.00  0.00    -0.311 OA
BRANCH  10  11
HETATM   11  C3  UNL     1      -1.037  16.223  -5.549  1.00  0.00     0.282 C 
HETATM   12  O1  UNL     1       0.213  16.161  -5.616  1.00  0.00    -0.260 OA
BRANCH  11  13
HETATM   13  C2  UNL     1      -1.748  15.121  -4.903  1.00  0.00     0.072 C 
HETATM   14  C1  UNL     1      -1.481  13.865  -5.132  1.00  0.00     0.017 C 
ENDBRANCH  11  13
ENDBRANCH  10  11
ENDBRANCH   5  10
ENDBRANCH   2   4
ENDBRANCH   1   2
BRANCH   1  15
HETATM   15  C11 UNL     1      -5.213  19.761  -8.230  1.00  0.00     0.173 C 
HETATM   16  O3  UNL     1      -4.729  20.684  -9.124  1.00  0.00    -0.349 OA
HETATM   17  C12 UNL     1      -5.551  21.804  -9.012  1.00  0.00     0.291 C 
HETATM   18  C16 UNL     1      -5.565  22.028  -7.518  1.00  0.00     0.204 C 
HETATM   19  C17 UNL     1      -5.604  20.587  -7.023  1.00  0.00     0.182 C 
BRANCH  17  20
HETATM   20  O4  UNL     1      -6.843  21.461  -9.386  1.00  0.00    -0.354 OA
BRANCH  20  21
HETATM   21  C13 UNL     1      -7.760  22.456  -9.164  1.00  0.00     0.116 C 
HETATM   22  C14 UNL     1      -9.160  21.860  -9.275  1.00  0.00     0.039 C 
HETATM   23  C15 UNL     1      -7.681  23.558 -10.219  1.00  0.00     0.039 C 
ENDBRANCH  20  21
ENDBRANCH  17  20
BRANCH  18  24
HETATM   24  O5  UNL     1      -4.459  22.705  -7.062  1.00  0.00    -0.388 OA
ATOM     25  H5  UNL     1      -4.596  23.122  -6.219  1.00  0.00     0.210 HD
ENDBRANCH  18  24
BRANCH  19  26
HETATM   26  O6  UNL     1      -6.880  20.236  -6.596  1.00  0.00    -0.390 OA
ATOM     27  H6  UNL     1      -7.531  20.770  -7.037  1.00  0.00     0.210 HD
ENDBRANCH  19  26
ENDBRANCH   1  15
TORSDOF 10
ENDMDL
