MODEL 1
REMARK VINA RESULT: -5.890219591      0.000      0.000
REMARK  7 active torsions:
REMARK  status: ('A' for Active; 'I' for Inactive)
REMARK    1  A    between atoms: C2_2  and  C3_3 
REMARK    2  A    between atoms: C3_3  and  C5_5 
REMARK    3  A    between atoms: C5_5  and  N1_8 
REMARK    4  A    between atoms: N1_8  and  C8_11 
REMARK    5  A    between atoms: C8_11  and  C9_12 
REMARK    6  A    between atoms: C9_12  and  C10_13 
REMARK    7  A    between atoms: C9_12  and  N4_20 
ROOT
HETATM    1  C9  UNL     1      -4.542  20.939  -7.742  1.00  0.00     0.160 C 
ENDROOT
BRANCH   1   2
HETATM    2  C8  UNL     1      -4.420  22.321  -8.323  1.00  0.00     0.264 C 
BRANCH   2   3
HETATM    3  N1  UNL     1      -5.310  23.270  -7.692  1.00  0.00    -0.064 N 
ATOM      4  H12 UNL     1      -4.788  23.994  -7.199  1.00  0.00     0.278 HD
ATOM      5  H11 UNL     1      -5.794  22.851  -6.898  1.00  0.00     0.278 HD
BRANCH   3   6
HETATM    6  C5  UNL     1      -6.252  23.852  -8.635  1.00  0.00     0.122 C 
HETATM    7  C6  UNL     1      -6.073  25.378  -8.391  1.00  0.00     0.046 C 
HETATM    8  C7  UNL     1      -5.919  23.612 -10.071  1.00  0.00     0.046 C 
BRANCH   6   9
HETATM    9  C3  UNL     1      -7.646  23.456  -8.280  1.00  0.00     0.016 C 
HETATM   10  C4  UNL     1      -7.750  22.527  -7.108  1.00  0.00     0.012 C 
BRANCH   9  11
HETATM   11  C2  UNL     1      -8.388  22.887  -9.479  1.00  0.00     0.002 C 
HETATM   12  C1  UNL     1      -8.885  21.480  -9.230  1.00  0.00     0.005 C 
ENDBRANCH   9  11
ENDBRANCH   6   9
ENDBRANCH   3   6
ENDBRANCH   2   3
ENDBRANCH   1   2
BRANCH   1  13
HETATM   13  C10 UNL     1      -5.375  20.030  -8.558  1.00  0.00     0.050 A 
HETATM   14  C11 UNL     1      -6.135  18.933  -8.195  1.00  0.00     0.116 A 
HETATM   15  N2  UNL     1      -6.715  18.410  -9.322  1.00  0.00    -0.360 N 
HETATM   16  C12 UNL     1      -6.324  19.164 -10.354  1.00  0.00     0.180 A 
ATOM     17  H2  UNL     1      -7.330  17.597  -9.364  1.00  0.00     0.166 HD
HETATM   18  N3  UNL     1      -5.524  20.128  -9.890  1.00  0.00    -0.353 N 
ATOM     19  H3  UNL     1      -5.085  20.844 -10.469  1.00  0.00     0.166 HD
ENDBRANCH   1  13
BRANCH   1  20
HETATM   20  N4  UNL     1      -3.339  20.281  -7.428  1.00  0.00    -0.377 N 
HETATM   21  C13 UNL     1      -3.334  18.862  -7.358  1.00  0.00     0.149 C 
HETATM   22  C14 UNL     1      -2.089  18.244  -6.856  1.00  0.00     0.187 C 
HETATM   23  O1  UNL     1      -1.212  19.026  -6.163  1.00  0.00    -0.385 OA
HETATM   24  C15 UNL     1      -1.866  20.095  -5.582  1.00  0.00     0.212 C 
HETATM   25  C16 UNL     1      -2.325  20.966  -6.744  1.00  0.00     0.085 C 
ENDBRANCH   1  20
TORSDOF 7
ENDMDL
MODEL 2
REMARK VINA RESULT: -5.787333616      5.098      9.378
REMARK  7 active torsions:
REMARK  status: ('A' for Active; 'I' for Inactive)
REMARK    1  A    between atoms: C2_2  and  C3_3 
REMARK    2  A    between atoms: C3_3  and  C5_5 
REMARK    3  A    between atoms: C5_5  and  N1_8 
REMARK    4  A    between atoms: N1_8  and  C8_11 
REMARK    5  A    between atoms: C8_11  and  C9_12 
REMARK    6  A    between atoms: C9_12  and  C10_13 
REMARK    7  A    between atoms: C9_12  and  N4_20 
ROOT
HETATM    1  C9  UNL     1      -0.202  17.262  -4.963  1.00  0.00     0.160 C 
ENDROOT
BRANCH   1   2
HETATM    2  C8  UNL     1      -1.043  16.240  -4.247  1.00  0.00     0.264 C 
BRANCH   2   3
HETATM    3  N1  UNL     1      -0.383  14.958  -4.132  1.00  0.00    -0.064 N 
ATOM      4  H12 UNL     1       0.502  14.952  -4.638  1.00  0.00     0.278 HD
ATOM      5  H11 UNL     1      -0.877  14.240  -4.661  1.00  0.00     0.278 HD
BRANCH   3   6
HETATM    6  C5  UNL     1      -0.198  14.557  -2.745  1.00  0.00     0.122 C 
HETATM    7  C6  UNL     1       1.289  14.931  -2.483  1.00  0.00     0.046 C 
HETATM    8  C7  UNL     1      -1.010  15.335  -1.763  1.00  0.00     0.046 C 
BRANCH   6   9
HETATM    9  C3  UNL     1      -0.367  13.080  -2.611  1.00  0.00     0.016 C 
HETATM   10  C4  UNL     1       0.822  12.367  -2.041  1.00  0.00     0.012 C 
BRANCH   9  11
HETATM   11  C2  UNL     1      -0.791  12.445  -3.925  1.00  0.00     0.002 C 
HETATM   12  C1  UNL     1       0.226  11.447  -4.433  1.00  0.00     0.005 C 
ENDBRANCH   9  11
ENDBRANCH   6   9
ENDBRANCH   3   6
ENDBRANCH   2   3
ENDBRANCH   1   2
BRANCH   1  13
HETATM   13  C10 UNL     1      -0.928  17.969  -6.039  1.00  0.00     0.050 A 
HETATM   14  C11 UNL     1      -0.491  18.911  -6.953  1.00  0.00     0.116 A 
HETATM   15  N2  UNL     1      -1.550  19.280  -7.742  1.00  0.00    -0.360 N 
HETATM   16  C12 UNL     1      -2.613  18.585  -7.325  1.00  0.00     0.180 A 
ATOM     17  H2  UNL     1      -1.530  19.959  -8.503  1.00  0.00     0.166 HD
HETATM   18  N3  UNL     1      -2.233  17.805  -6.309  1.00  0.00    -0.353 N 
ATOM     19  H3  UNL     1      -2.852  17.170  -5.805  1.00  0.00     0.166 HD
ENDBRANCH   1  13
BRANCH   1  20
HETATM   20  N4  UNL     1       0.447  18.216  -4.158  1.00  0.00    -0.377 N 
HETATM   21  C13 UNL     1       1.868  18.229  -4.124  1.00  0.00     0.149 C 
HETATM   22  C14 UNL     1       2.482  19.135  -3.132  1.00  0.00     0.187 C 
HETATM   23  O1  UNL     1       1.709  19.589  -2.103  1.00  0.00    -0.385 OA
HETATM   24  C15 UNL     1       0.669  18.714  -1.853  1.00  0.00     0.212 C 
HETATM   25  C16 UNL     1      -0.232  18.798  -3.079  1.00  0.00     0.085 C 
ENDBRANCH   1  20
TORSDOF 7
ENDMDL
MODEL 3
REMARK VINA RESULT: -5.780800743      2.014      3.946
REMARK  7 active torsions:
REMARK  status: ('A' for Active; 'I' for Inactive)
REMARK    1  A    between atoms: C2_2  and  C3_3 
REMARK    2  A    between atoms: C3_3  and  C5_5 
REMARK    3  A    between atoms: C5_5  and  N1_8 
REMARK    4  A    between atoms: N1_8  and  C8_11 
REMARK    5  A    between atoms: C8_11  and  C9_12 
REMARK    6  A    between atoms: C9_12  and  C10_13 
REMARK    7  A    between atoms: C9_12  and  N4_20 
ROOT
HETATM    1  C9  UNL     1      -3.125  22.024  -7.844  1.00  0.00     0.160 C 
ENDROOT
BRANCH   1   2
HETATM    2  C8  UNL     1      -4.491  22.593  -8.110  1.00  0.00     0.264 C 
BRANCH   2   3
HETATM    3  N1  UNL     1      -4.921  22.393  -9.476  1.00  0.00    -0.064 N 
ATOM      4  H12 UNL     1      -4.797  21.423  -9.763  1.00  0.00     0.278 HD
ATOM      5  H11 UNL     1      -4.281  22.839 -10.133  1.00  0.00     0.278 HD
BRANCH   3   6
HETATM    6  C5  UNL     1      -6.290  22.835  -9.693  1.00  0.00     0.122 C 
HETATM    7  C6  UNL     1      -6.756  23.203  -8.255  1.00  0.00     0.046 C 
HETATM    8  C7  UNL     1      -6.417  24.078 -10.510  1.00  0.00     0.046 C 
BRANCH   6   9
HETATM    9  C3  UNL     1      -7.119  21.705 -10.206  1.00  0.00     0.016 C 
HETATM   10  C4  UNL     1      -8.596  21.959 -10.188  1.00  0.00     0.012 C 
BRANCH   9  11
HETATM   11  C2  UNL     1      -6.793  20.404  -9.493  1.00  0.00     0.002 C 
HETATM   12  C1  UNL     1      -6.448  19.292 -10.459  1.00  0.00     0.005 C 
ENDBRANCH   9  11
ENDBRANCH   6   9
ENDBRANCH   3   6
ENDBRANCH   2   3
ENDBRANCH   1   2
BRANCH   1  13
HETATM   13  C10 UNL     1      -2.272  22.906  -7.018  1.00  0.00     0.050 A 
HETATM   14  C11 UNL     1      -2.489  23.456  -5.768  1.00  0.00     0.116 A 
HETATM   15  N2  UNL     1      -1.401  24.221  -5.431  1.00  0.00    -0.360 N 
HETATM   16  C12 UNL     1      -0.536  24.145  -6.448  1.00  0.00     0.180 A 
ATOM     17  H2  UNL     1      -1.276  24.748  -4.567  1.00  0.00     0.166 HD
HETATM   18  N3  UNL     1      -1.064  23.359  -7.390  1.00  0.00    -0.353 N 
ATOM     19  H3  UNL     1      -0.609  23.133  -8.275  1.00  0.00     0.166 HD
ENDBRANCH   1  13
BRANCH   1  20
HETATM   20  N4  UNL     1      -3.080  20.726  -7.304  1.00  0.00    -0.377 N 
HETATM   21  C13 UNL     1      -1.832  20.048  -7.260  1.00  0.00     0.149 C 
HETATM   22  C14 UNL     1      -1.882  18.630  -6.845  1.00  0.00     0.187 C 
HETATM   23  O1  UNL     1      -3.080  17.981  -6.900  1.00  0.00    -0.385 OA
HETATM   24  C15 UNL     1      -3.911  18.572  -7.831  1.00  0.00     0.212 C 
HETATM   25  C16 UNL     1      -4.243  19.945  -7.262  1.00  0.00     0.085 C 
ENDBRANCH   1  20
TORSDOF 7
ENDMDL
MODEL 4
REMARK VINA RESULT: -5.775058125      1.841      3.004
REMARK  7 active torsions:
REMARK  status: ('A' for Active; 'I' for Inactive)
REMARK    1  A    between atoms: C2_2  and  C3_3 
REMARK    2  A    between atoms: C3_3  and  C5_5 
REMARK    3  A    between atoms: C5_5  and  N1_8 
REMARK    4  A    between atoms: N1_8  and  C8_11 
REMARK    5  A    between atoms: C8_11  and  C9_12 
REMARK    6  A    between atoms: C9_12  and  C10_13 
REMARK    7  A    between atoms: C9_12  and  N4_20 
ROOT
HETATM    1  C9  UNL     1      -5.739  21.860  -7.687  1.00  0.00     0.160 C 
ENDROOT
BRANCH   1   2
HETATM    2  C8  UNL     1      -5.276  23.276  -7.482  1.00  0.00     0.264 C 
BRANCH   2   3
HETATM    3  N1  UNL     1      -5.238  24.033  -8.713  1.00  0.00    -0.064 N 
ATOM      4  H12 UNL     1      -5.737  23.550  -9.459  1.00  0.00     0.278 HD
ATOM      5  H11 UNL     1      -4.302  24.032  -9.118  1.00  0.00     0.278 HD
BRANCH   3   6
HETATM    6  C5  UNL     1      -5.734  25.390  -8.542  1.00  0.00     0.122 C 
HETATM    7  C6  UNL     1      -6.738  25.233  -7.363  1.00  0.00     0.046 C 
HETATM    8  C7  UNL     1      -4.705  26.373  -8.092  1.00  0.00     0.046 C 
BRANCH   6   9
HETATM    9  C3  UNL     1      -6.472  25.826  -9.763  1.00  0.00     0.016 C 
HETATM   10  C4  UNL     1      -6.547  24.793 -10.846  1.00  0.00     0.012 C 
BRANCH   9  11
HETATM   11  C2  UNL     1      -5.924  27.134 -10.310  1.00  0.00     0.002 C 
HETATM   12  C1  UNL     1      -5.521  27.023 -11.763  1.00  0.00     0.005 C 
ENDBRANCH   9  11
ENDBRANCH   6   9
ENDBRANCH   3   6
ENDBRANCH   2   3
ENDBRANCH   1   2
BRANCH   1  13
HETATM   13  C10 UNL     1      -6.787  21.730  -8.722  1.00  0.00     0.050 A 
HETATM   14  C11 UNL     1      -8.138  22.022  -8.679  1.00  0.00     0.116 A 
HETATM   15  N2  UNL     1      -8.693  21.713  -9.894  1.00  0.00    -0.360 N 
HETATM   16  C12 UNL     1      -7.709  21.242 -10.668  1.00  0.00     0.180 A 
ATOM     17  H2  UNL     1      -9.672  21.822 -10.159  1.00  0.00     0.166 HD
HETATM   18  N3  UNL     1      -6.576  21.255  -9.961  1.00  0.00    -0.353 N 
ATOM     19  H3  UNL     1      -5.670  20.946 -10.315  1.00  0.00     0.166 HD
ENDBRANCH   1  13
BRANCH   1  20
HETATM   20  N4  UNL     1      -4.739  20.903  -7.940  1.00  0.00    -0.377 N 
HETATM   21  C13 UNL     1      -5.039  19.530  -7.729  1.00  0.00     0.149 C 
HETATM   22  C14 UNL     1      -3.900  18.596  -7.844  1.00  0.00     0.187 C 
HETATM   23  O1  UNL     1      -2.636  19.102  -7.765  1.00  0.00    -0.385 OA
HETATM   24  C15 UNL     1      -2.631  20.287  -7.055  1.00  0.00     0.212 C 
HETATM   25  C16 UNL     1      -3.390  21.281  -7.924  1.00  0.00     0.085 C 
ENDBRANCH   1  20
TORSDOF 7
ENDMDL
MODEL 5
REMARK VINA RESULT: -5.774275104      1.847      3.928
REMARK  7 active torsions:
REMARK  status: ('A' for Active; 'I' for Inactive)
REMARK    1  A    between atoms: C2_2  and  C3_3 
REMARK    2  A    between atoms: C3_3  and  C5_5 
REMARK    3  A    between atoms: C5_5  and  N1_8 
REMARK    4  A    between atoms: N1_8  and  C8_11 
REMARK    5  A    between atoms: C8_11  and  C9_12 
REMARK    6  A    between atoms: C9_12  and  C10_13 
REMARK    7  A    between atoms: C9_12  and  N4_20 
ROOT
HETATM    1  C9  UNL     1      -4.228  20.978  -8.161  1.00  0.00     0.160 C 
ENDROOT
BRANCH   1   2
HETATM    2  C8  UNL     1      -5.084  21.959  -7.408  1.00  0.00     0.264 C 
BRANCH   2   3
HETATM    3  N1  UNL     1      -5.340  23.167  -8.160  1.00  0.00    -0.064 N 
ATOM      4  H12 UNL     1      -5.168  23.025  -9.155  1.00  0.00     0.278 HD
ATOM      5  H11 UNL     1      -4.630  23.875  -7.973  1.00  0.00     0.278 HD
BRANCH   3   6
HETATM    6  C5  UNL     1      -6.678  23.687  -7.927  1.00  0.00     0.122 C 
HETATM    7  C6  UNL     1      -7.330  22.565  -7.070  1.00  0.00     0.046 C 
HETATM    8  C7  UNL     1      -6.723  24.931  -7.102  1.00  0.00     0.046 C 
BRANCH   6   9
HETATM    9  C3  UNL     1      -7.414  23.811  -9.220  1.00  0.00     0.016 C 
HETATM   10  C4  UNL     1      -8.473  22.772  -9.435  1.00  0.00     0.012 C 
BRANCH   9  11
HETATM   11  C2  UNL     1      -6.461  23.854 -10.403  1.00  0.00     0.002 C 
HETATM   12  C1  UNL     1      -6.355  25.239 -11.002  1.00  0.00     0.005 C 
ENDBRANCH   9  11
ENDBRANCH   6   9
ENDBRANCH   3   6
ENDBRANCH   2   3
ENDBRANCH   1   2
BRANCH   1  13
HETATM   13  C10 UNL     1      -3.175  20.358  -7.329  1.00  0.00     0.050 A 
HETATM   14  C11 UNL     1      -2.928  20.450  -5.971  1.00  0.00     0.116 A 
HETATM   15  N2  UNL     1      -1.820  19.698  -5.675  1.00  0.00    -0.360 N 
HETATM   16  C12 UNL     1      -1.395  19.155  -6.820  1.00  0.00     0.180 A 
ATOM     17  H2  UNL     1      -1.400  19.576  -4.753  1.00  0.00     0.166 HD
HETATM   18  N3  UNL     1      -2.208  19.554  -7.802  1.00  0.00    -0.353 N 
ATOM     19  H3  UNL     1      -2.108  19.284  -8.781  1.00  0.00     0.166 HD
ENDBRANCH   1  13
BRANCH   1  20
HETATM   20  N4  UNL     1      -4.904  19.960  -8.859  1.00  0.00    -0.377 N 
HETATM   21  C13 UNL     1      -5.723  20.318  -9.963  1.00  0.00     0.149 C 
HETATM   22  C14 UNL     1      -6.539  19.229 -10.541  1.00  0.00     0.187 C 
HETATM   23  O1  UNL     1      -6.747  18.108  -9.792  1.00  0.00    -0.385 OA
HETATM   24  C15 UNL     1      -6.632  18.394  -8.446  1.00  0.00     0.212 C 
HETATM   25  C16 UNL     1      -5.163  18.735  -8.230  1.00  0.00     0.085 C 
ENDBRANCH   1  20
TORSDOF 7
ENDMDL
