MODEL 1
REMARK VINA RESULT: -6.603564616      0.000      0.000
REMARK  9 active torsions:
REMARK  status: ('A' for Active; 'I' for Inactive)
REMARK    1  A    between atoms: C2_2  and  C3_3 
REMARK    2  A    between atoms: C3_3  and  C4_4 
REMARK    3  A    between atoms: C4_4  and  C5_5 
REMARK    4  A    between atoms: C4_4  and  N3_11 
REMARK    5  A    between atoms: N2_7  and  O1_9 
REMARK    6  A    between atoms: N3_11  and  C7_13 
REMARK    7  A    between atoms: C11_17  and  O2_18 
REMARK    8  A    between atoms: O2_18  and  C12_19 
REMARK    9  A    between atoms: C12_19  and  C13_21 
ROOT
HETATM    1  N3  UNL     1      -6.823  21.383  -9.182  1.00  0.00    -0.401 N 
HETATM    2  C6  UNL     1      -8.209  21.249  -9.191  1.00  0.00     0.144 C 
ENDROOT
BRANCH   1   3
HETATM    3  C4  UNL     1      -5.990  20.273  -9.127  1.00  0.00     0.149 C 
BRANCH   3   4
HETATM    4  C3  UNL     1      -5.752  19.847  -7.667  1.00  0.00     0.058 C 
BRANCH   4   5
HETATM    5  C2  UNL     1      -4.297  19.975  -7.399  1.00  0.00    -0.035 C 
HETATM    6  C1  UNL     1      -3.437  18.974  -7.449  1.00  0.00     0.007 C 
ENDBRANCH   4   5
ENDBRANCH   3   4
BRANCH   3   7
HETATM    7  C5  UNL     1      -6.423  19.052  -9.832  1.00  0.00     0.136 C 
HETATM    8  N1  UNL     1      -6.549  19.016 -11.230  1.00  0.00    -0.083 NA
HETATM    9  N2  UNL     1      -6.687  18.010  -9.139  1.00  0.00    -0.257 N 
ATOM     10  H2  UNL     1      -6.585  18.072  -8.126  1.00  0.00     0.195 HD
BRANCH   9  11
HETATM   11  O1  UNL     1      -7.101  16.810  -9.672  1.00  0.00    -0.289 OA
ATOM     12  H1  UNL     1      -7.995  16.491  -9.640  1.00  0.00     0.244 HD
ENDBRANCH   9  11
ENDBRANCH   3   7
ENDBRANCH   1   3
BRANCH   1  13
HETATM   13  C7  UNL     1      -6.250  22.668  -9.317  1.00  0.00     0.082 C 
HETATM   14  C8  UNL     1      -6.887  23.388 -10.466  1.00  0.00     0.025 C 
HETATM   15  C9  UNL     1      -6.430  24.789 -10.650  1.00  0.00     0.004 C 
HETATM   16  C10 UNL     1      -6.314  25.612  -9.421  1.00  0.00     0.033 C 
HETATM   17  C11 UNL     1      -6.021  24.900  -8.152  1.00  0.00     0.134 C 
HETATM   18  C15 UNL     1      -6.471  23.470  -8.076  1.00  0.00     0.057 C 
BRANCH  17  19
HETATM   19  O2  UNL     1      -4.659  25.026  -7.804  1.00  0.00    -0.313 OA
BRANCH  19  20
HETATM   20  C12 UNL     1      -4.216  24.637  -6.549  1.00  0.00     0.282 C 
HETATM   21  O3  UNL     1      -4.777  25.160  -5.533  1.00  0.00    -0.260 OA
BRANCH  20  22
HETATM   22  C13 UNL     1      -3.153  23.675  -6.347  1.00  0.00     0.072 C 
HETATM   23  C14 UNL     1      -2.510  23.175  -7.374  1.00  0.00     0.017 C 
ENDBRANCH  20  22
ENDBRANCH  19  20
ENDBRANCH  17  19
ENDBRANCH   1  13
TORSDOF 9
ENDMDL
MODEL 2
REMARK VINA RESULT: -6.294302521      0.792      1.187
REMARK  9 active torsions:
REMARK  status: ('A' for Active; 'I' for Inactive)
REMARK    1  A    between atoms: C2_2  and  C3_3 
REMARK    2  A    between atoms: C3_3  and  C4_4 
REMARK    3  A    between atoms: C4_4  and  C5_5 
REMARK    4  A    between atoms: C4_4  and  N3_11 
REMARK    5  A    between atoms: N2_7  and  O1_9 
REMARK    6  A    between atoms: N3_11  and  C7_13 
REMARK    7  A    between atoms: C11_17  and  O2_18 
REMARK    8  A    between atoms: O2_18  and  C12_19 
REMARK    9  A    between atoms: C12_19  and  C13_21 
ROOT
HETATM    1  N3  UNL     1      -6.813  21.378  -9.202  1.00  0.00    -0.401 N 
HETATM    2  C6  UNL     1      -8.199  21.259  -9.247  1.00  0.00     0.144 C 
ENDROOT
BRANCH   1   3
HETATM    3  C4  UNL     1      -5.993  20.260  -9.127  1.00  0.00     0.149 C 
BRANCH   3   4
HETATM    4  C3  UNL     1      -5.790  19.835  -7.661  1.00  0.00     0.058 C 
BRANCH   4   5
HETATM    5  C2  UNL     1      -4.340  19.947  -7.364  1.00  0.00    -0.035 C 
HETATM    6  C1  UNL     1      -3.470  18.963  -7.502  1.00  0.00     0.007 C 
ENDBRANCH   4   5
ENDBRANCH   3   4
BRANCH   3   7
HETATM    7  C5  UNL     1      -6.425  19.041  -9.837  1.00  0.00     0.136 C 
HETATM    8  N1  UNL     1      -6.546  19.009 -11.236  1.00  0.00    -0.083 NA
HETATM    9  N2  UNL     1      -6.695  17.997  -9.149  1.00  0.00    -0.257 N 
ATOM     10  H2  UNL     1      -6.597  18.056  -8.135  1.00  0.00     0.195 HD
BRANCH   9  11
HETATM   11  O1  UNL     1      -7.108  16.800  -9.687  1.00  0.00    -0.289 OA
ATOM     12  H1  UNL     1      -7.662  16.722 -10.455  1.00  0.00     0.244 HD
ENDBRANCH   9  11
ENDBRANCH   3   7
ENDBRANCH   1   3
BRANCH   1  13
HETATM   13  C7  UNL     1      -6.223  22.657  -9.321  1.00  0.00     0.082 C 
HETATM   14  C8  UNL     1      -6.882  23.417 -10.431  1.00  0.00     0.025 C 
HETATM   15  C9  UNL     1      -6.407  24.816 -10.592  1.00  0.00     0.004 C 
HETATM   16  C10 UNL     1      -6.240  25.603  -9.345  1.00  0.00     0.033 C 
HETATM   17  C11 UNL     1      -5.922  24.853  -8.105  1.00  0.00     0.134 C 
HETATM   18  C15 UNL     1      -6.392  23.429  -8.053  1.00  0.00     0.057 C 
BRANCH  17  19
HETATM   19  O2  UNL     1      -4.548  24.949  -7.796  1.00  0.00    -0.313 OA
BRANCH  19  20
HETATM   20  C12 UNL     1      -4.079  24.556  -6.550  1.00  0.00     0.282 C 
HETATM   21  O3  UNL     1      -3.244  23.596  -6.506  1.00  0.00    -0.260 OA
BRANCH  20  22
HETATM   22  C13 UNL     1      -4.497  25.181  -5.313  1.00  0.00     0.072 C 
HETATM   23  C14 UNL     1      -4.149  26.416  -5.046  1.00  0.00     0.017 C 
ENDBRANCH  20  22
ENDBRANCH  19  20
ENDBRANCH  17  19
ENDBRANCH   1  13
TORSDOF 9
ENDMDL
MODEL 3
REMARK VINA RESULT: -6.250149023      1.073      1.146
REMARK  9 active torsions:
REMARK  status: ('A' for Active; 'I' for Inactive)
REMARK    1  A    between atoms: C2_2  and  C3_3 
REMARK    2  A    between atoms: C3_3  and  C4_4 
REMARK    3  A    between atoms: C4_4  and  C5_5 
REMARK    4  A    between atoms: C4_4  and  N3_11 
REMARK    5  A    between atoms: N2_7  and  O1_9 
REMARK    6  A    between atoms: N3_11  and  C7_13 
REMARK    7  A    between atoms: C11_17  and  O2_18 
REMARK    8  A    between atoms: O2_18  and  C12_19 
REMARK    9  A    between atoms: C12_19  and  C13_21 
ROOT
HETATM    1  N3  UNL     1      -6.786  21.371  -9.188  1.00  0.00    -0.401 N 
HETATM    2  C6  UNL     1      -8.172  21.257  -9.222  1.00  0.00     0.144 C 
ENDROOT
BRANCH   1   3
HETATM    3  C4  UNL     1      -5.969  20.250  -9.122  1.00  0.00     0.149 C 
BRANCH   3   4
HETATM    4  C3  UNL     1      -5.751  19.824  -7.659  1.00  0.00     0.058 C 
BRANCH   4   5
HETATM    5  C2  UNL     1      -4.293  19.896  -7.389  1.00  0.00    -0.035 C 
HETATM    6  C1  UNL     1      -3.452  18.891  -7.557  1.00  0.00     0.007 C 
ENDBRANCH   4   5
ENDBRANCH   3   4
BRANCH   3   7
HETATM    7  C5  UNL     1      -6.414  19.032  -9.828  1.00  0.00     0.136 C 
HETATM    8  N1  UNL     1      -6.535  18.997 -11.226  1.00  0.00    -0.083 NA
HETATM    9  N2  UNL     1      -6.693  17.994  -9.135  1.00  0.00    -0.257 N 
ATOM     10  H2  UNL     1      -6.594  18.056  -8.121  1.00  0.00     0.195 HD
BRANCH   9  11
HETATM   11  O1  UNL     1      -7.118  16.799  -9.669  1.00  0.00    -0.289 OA
ATOM     12  H1  UNL     1      -6.888  15.946  -9.319  1.00  0.00     0.244 HD
ENDBRANCH   9  11
ENDBRANCH   3   7
ENDBRANCH   1   3
BRANCH   1  13
HETATM   13  C7  UNL     1      -6.192  22.649  -9.309  1.00  0.00     0.082 C 
HETATM   14  C8  UNL     1      -6.858  23.414 -10.411  1.00  0.00     0.025 C 
HETATM   15  C9  UNL     1      -6.379  24.811 -10.572  1.00  0.00     0.004 C 
HETATM   16  C10 UNL     1      -6.199  25.595  -9.325  1.00  0.00     0.033 C 
HETATM   17  C11 UNL     1      -5.872  24.840  -8.089  1.00  0.00     0.134 C 
HETATM   18  C15 UNL     1      -6.347  23.418  -8.037  1.00  0.00     0.057 C 
BRANCH  17  19
HETATM   19  O2  UNL     1      -4.495  24.930  -7.792  1.00  0.00    -0.313 OA
BRANCH  19  20
HETATM   20  C12 UNL     1      -3.958  26.112  -7.303  1.00  0.00     0.282 C 
HETATM   21  O3  UNL     1      -4.589  26.710  -6.372  1.00  0.00    -0.260 OA
BRANCH  20  22
HETATM   22  C13 UNL     1      -2.728  26.689  -7.801  1.00  0.00     0.072 C 
HETATM   23  C14 UNL     1      -1.569  26.207  -7.421  1.00  0.00     0.017 C 
ENDBRANCH  20  22
ENDBRANCH  19  20
ENDBRANCH  17  19
ENDBRANCH   1  13
TORSDOF 9
ENDMDL
MODEL 4
REMARK VINA RESULT: -6.219865385      1.636      2.234
REMARK  9 active torsions:
REMARK  status: ('A' for Active; 'I' for Inactive)
REMARK    1  A    between atoms: C2_2  and  C3_3 
REMARK    2  A    between atoms: C3_3  and  C4_4 
REMARK    3  A    between atoms: C4_4  and  C5_5 
REMARK    4  A    between atoms: C4_4  and  N3_11 
REMARK    5  A    between atoms: N2_7  and  O1_9 
REMARK    6  A    between atoms: N3_11  and  C7_13 
REMARK    7  A    between atoms: C11_17  and  O2_18 
REMARK    8  A    between atoms: O2_18  and  C12_19 
REMARK    9  A    between atoms: C12_19  and  C13_21 
ROOT
HETATM    1  N3  UNL     1      -6.619  21.163  -8.654  1.00  0.00    -0.401 N 
HETATM    2  C6  UNL     1      -7.885  21.280  -9.219  1.00  0.00     0.144 C 
ENDROOT
BRANCH   1   3
HETATM    3  C4  UNL     1      -5.791  20.088  -8.949  1.00  0.00     0.149 C 
BRANCH   3   4
HETATM    4  C3  UNL     1      -5.283  19.424  -7.657  1.00  0.00     0.058 C 
BRANCH   4   5
HETATM    5  C2  UNL     1      -3.799  19.435  -7.706  1.00  0.00    -0.035 C 
HETATM    6  C1  UNL     1      -3.033  18.408  -7.386  1.00  0.00     0.007 C 
ENDBRANCH   4   5
ENDBRANCH   3   4
BRANCH   3   7
HETATM    7  C5  UNL     1      -6.350  18.993  -9.765  1.00  0.00     0.136 C 
HETATM    8  N1  UNL     1      -6.512  19.121 -11.154  1.00  0.00    -0.083 NA
HETATM    9  N2  UNL     1      -6.693  17.910  -9.179  1.00  0.00    -0.257 N 
ATOM     10  H2  UNL     1      -6.562  17.852  -8.168  1.00  0.00     0.195 HD
BRANCH   9  11
HETATM   11  O1  UNL     1      -7.227  16.816  -9.822  1.00  0.00    -0.289 OA
ATOM     12  H1  UNL     1      -6.930  15.923  -9.693  1.00  0.00     0.244 HD
ENDBRANCH   9  11
ENDBRANCH   3   7
ENDBRANCH   1   3
BRANCH   1  13
HETATM   13  C7  UNL     1      -6.130  22.201  -7.827  1.00  0.00     0.082 C 
HETATM   14  C8  UNL     1      -4.897  22.794  -8.436  1.00  0.00     0.025 C 
HETATM   15  C9  UNL     1      -4.343  23.961  -7.702  1.00  0.00     0.004 C 
HETATM   16  C10 UNL     1      -5.322  24.971  -7.232  1.00  0.00     0.033 C 
HETATM   17  C11 UNL     1      -6.698  24.497  -6.936  1.00  0.00     0.134 C 
HETATM   18  C15 UNL     1      -7.154  23.279  -7.684  1.00  0.00     0.057 C 
BRANCH  17  19
HETATM   19  O2  UNL     1      -6.891  24.345  -5.546  1.00  0.00    -0.313 OA
BRANCH  19  20
HETATM   20  C12 UNL     1      -6.634  25.399  -4.682  1.00  0.00     0.282 C 
HETATM   21  O3  UNL     1      -7.258  26.492  -4.876  1.00  0.00    -0.260 OA
BRANCH  20  22
HETATM   22  C13 UNL     1      -5.696  25.312  -3.583  1.00  0.00     0.072 C 
HETATM   23  C14 UNL     1      -4.456  25.711  -3.738  1.00  0.00     0.017 C 
ENDBRANCH  20  22
ENDBRANCH  19  20
ENDBRANCH  17  19
ENDBRANCH   1  13
TORSDOF 9
ENDMDL
MODEL 5
REMARK VINA RESULT: -6.202069479      1.798      2.619
REMARK  9 active torsions:
REMARK  status: ('A' for Active; 'I' for Inactive)
REMARK    1  A    between atoms: C2_2  and  C3_3 
REMARK    2  A    between atoms: C3_3  and  C4_4 
REMARK    3  A    between atoms: C4_4  and  C5_5 
REMARK    4  A    between atoms: C4_4  and  N3_11 
REMARK    5  A    between atoms: N2_7  and  O1_9 
REMARK    6  A    between atoms: N3_11  and  C7_13 
REMARK    7  A    between atoms: C11_17  and  O2_18 
REMARK    8  A    between atoms: O2_18  and  C12_19 
REMARK    9  A    between atoms: C12_19  and  C13_21 
ROOT
HETATM    1  N3  UNL     1      -6.134  20.736  -8.223  1.00  0.00    -0.401 N 
HETATM    2  C6  UNL     1      -6.570  20.518  -6.920  1.00  0.00     0.144 C 
ENDROOT
BRANCH   1   3
HETATM    3  C4  UNL     1      -5.435  19.762  -8.924  1.00  0.00     0.149 C 
BRANCH   3   4
HETATM    4  C3  UNL     1      -4.593  18.902  -7.963  1.00  0.00     0.058 C 
BRANCH   4   5
HETATM    5  C2  UNL     1      -3.334  19.642  -7.695  1.00  0.00    -0.035 C 
HETATM    6  C1  UNL     1      -2.199  19.076  -7.327  1.00  0.00     0.007 C 
ENDBRANCH   4   5
ENDBRANCH   3   4
BRANCH   3   7
HETATM    7  C5  UNL     1      -6.213  18.805  -9.735  1.00  0.00     0.136 C 
HETATM    8  N1  UNL     1      -6.534  19.070 -11.076  1.00  0.00    -0.083 NA
HETATM    9  N2  UNL     1      -6.599  17.716  -9.188  1.00  0.00    -0.257 N 
ATOM     10  H2  UNL     1      -6.348  17.557  -8.212  1.00  0.00     0.195 HD
BRANCH   9  11
HETATM   11  O1  UNL     1      -7.330  16.743  -9.832  1.00  0.00    -0.289 OA
ATOM     12  H1  UNL     1      -7.611  15.931  -9.427  1.00  0.00     0.244 HD
ENDBRANCH   9  11
ENDBRANCH   3   7
ENDBRANCH   1   3
BRANCH   1  13
HETATM   13  C7  UNL     1      -6.481  21.940  -8.879  1.00  0.00     0.082 C 
HETATM   14  C8  UNL     1      -7.910  21.879  -9.323  1.00  0.00     0.025 C 
HETATM   15  C9  UNL     1      -8.419  23.128  -9.945  1.00  0.00     0.004 C 
HETATM   16  C10 UNL     1      -8.058  24.398  -9.268  1.00  0.00     0.033 C 
HETATM   17  C11 UNL     1      -6.789  24.419  -8.498  1.00  0.00     0.134 C 
HETATM   18  C15 UNL     1      -6.322  23.101  -7.953  1.00  0.00     0.057 C 
BRANCH  17  19
HETATM   19  O2  UNL     1      -5.765  25.062  -9.228  1.00  0.00    -0.313 OA
BRANCH  19  20
HETATM   20  C12 UNL     1      -5.810  26.431  -9.443  1.00  0.00     0.282 C 
HETATM   21  O3  UNL     1      -5.875  27.190  -8.423  1.00  0.00    -0.260 OA
BRANCH  20  22
HETATM   22  C13 UNL     1      -5.789  27.027 -10.762  1.00  0.00     0.072 C 
HETATM   23  C14 UNL     1      -5.885  26.273 -11.830  1.00  0.00     0.017 C 
ENDBRANCH  20  22
ENDBRANCH  19  20
ENDBRANCH  17  19
ENDBRANCH   1  13
TORSDOF 9
ENDMDL
