MODEL 1
REMARK VINA RESULT: -6.693752919      0.000      0.000
REMARK  9 active torsions:
REMARK  status: ('A' for Active; 'I' for Inactive)
REMARK    1  A    between atoms: O1_2  and  C2_3 
REMARK    2  A    between atoms: C2_3  and  C3_4 
REMARK    3  A    between atoms: C3_4  and  N1_6 
REMARK    4  A    between atoms: N1_6  and  C5_9 
REMARK    5  A    between atoms: C8_12  and  C9_13 
REMARK    6  A    between atoms: C9_13  and  C10_14 
REMARK    7  A    between atoms: C10_14  and  O2_15 
REMARK    8  A    between atoms: C10_14  and  N2_17 
REMARK    9  A    between atoms: N2_17  and  C11_18 
ROOT
HETATM    1  C5  UNL     1      -2.823  19.487  -7.280  1.00  0.00     0.186 C 
HETATM    2  C6  UNL     1      -3.288  20.776  -7.946  1.00  0.00     0.033 C 
HETATM    3  C7  UNL     1      -4.768  20.695  -7.792  1.00  0.00     0.007 C 
HETATM    4  C8  UNL     1      -5.166  19.278  -7.912  1.00  0.00    -0.004 C 
HETATM    5  C16 UNL     1      -3.816  18.475  -7.736  1.00  0.00     0.038 C 
ENDROOT
BRANCH   4   6
HETATM    6  C9  UNL     1      -5.677  18.740  -9.185  1.00  0.00     0.104 C 
BRANCH   6   7
HETATM    7  C10 UNL     1      -6.600  19.582  -9.989  1.00  0.00     0.184 C 
BRANCH   7   8
HETATM    8  O2  UNL     1      -6.474  19.291 -11.264  1.00  0.00    -0.339 OA
ATOM      9  H2  UNL     1      -7.185  19.684 -11.757  1.00  0.00     0.220 HD
ENDBRANCH   7   8
BRANCH   7  10
HETATM   10  N2  UNL     1      -7.486  20.539  -9.590  1.00  0.00    -0.423 NA
BRANCH  10  11
HETATM   11  C11 UNL     1      -8.423  21.497  -9.240  1.00  0.00     0.165 C 
HETATM   12  C12 UNL     1      -8.077  22.206  -7.905  1.00  0.00     0.039 C 
HETATM   13  C13 UNL     1      -7.110  23.295  -8.329  1.00  0.00     0.003 C 
HETATM   14  C14 UNL     1      -7.178  23.377  -9.843  1.00  0.00     0.003 C 
HETATM   15  C15 UNL     1      -8.506  22.713 -10.161  1.00  0.00     0.039 C 
ENDBRANCH  10  11
ENDBRANCH   7  10
ENDBRANCH   6   7
ENDBRANCH   4   6
BRANCH   1  16
HETATM   16  N1  UNL     1      -1.458  19.195  -7.726  1.00  0.00    -0.065 N 
ATOM     17  H12 UNL     1      -1.154  19.849  -8.447  1.00  0.00     0.278 HD
ATOM     18  H11 UNL     1      -1.419  18.332  -8.269  1.00  0.00     0.278 HD
BRANCH  16  19
HETATM   19  C3  UNL     1      -0.534  19.164  -6.622  1.00  0.00     0.205 C 
HETATM   20  C4  UNL     1      -0.447  20.524  -5.997  1.00  0.00     0.042 C 
BRANCH  19  21
HETATM   21  C2  UNL     1      -1.060  18.104  -5.671  1.00  0.00     0.199 C 
BRANCH  21  22
HETATM   22  O1  UNL     1      -0.861  16.835  -6.158  1.00  0.00    -0.394 OA
HETATM   23  C1  UNL     1      -1.148  15.851  -5.257  1.00  0.00     0.201 C 
ENDBRANCH  21  22
ENDBRANCH  19  21
ENDBRANCH  16  19
ENDBRANCH   1  16
TORSDOF 9
ENDMDL
MODEL 2
REMARK VINA RESULT: -6.646671958      1.077      1.610
REMARK  9 active torsions:
REMARK  status: ('A' for Active; 'I' for Inactive)
REMARK    1  A    between atoms: O1_2  and  C2_3 
REMARK    2  A    between atoms: C2_3  and  C3_4 
REMARK    3  A    between atoms: C3_4  and  N1_6 
REMARK    4  A    between atoms: N1_6  and  C5_9 
REMARK    5  A    between atoms: C8_12  and  C9_13 
REMARK    6  A    between atoms: C9_13  and  C10_14 
REMARK    7  A    between atoms: C10_14  and  O2_15 
REMARK    8  A    between atoms: C10_14  and  N2_17 
REMARK    9  A    between atoms: N2_17  and  C11_18 
ROOT
HETATM    1  C5  UNL     1      -2.890  19.554  -7.156  1.00  0.00     0.186 C 
HETATM    2  C6  UNL     1      -3.318  20.863  -7.806  1.00  0.00     0.033 C 
HETATM    3  C7  UNL     1      -4.804  20.769  -7.757  1.00  0.00     0.007 C 
HETATM    4  C8  UNL     1      -5.182  19.354  -7.954  1.00  0.00    -0.004 C 
HETATM    5  C16 UNL     1      -3.841  18.553  -7.714  1.00  0.00     0.038 C 
ENDROOT
BRANCH   4   6
HETATM    6  C9  UNL     1      -5.600  18.860  -9.278  1.00  0.00     0.104 C 
BRANCH   6   7
HETATM    7  C10 UNL     1      -6.602  19.646 -10.044  1.00  0.00     0.184 C 
BRANCH   7   8
HETATM    8  O2  UNL     1      -6.520  19.350 -11.321  1.00  0.00    -0.339 OA
ATOM      9  H2  UNL     1      -7.241  19.751 -11.792  1.00  0.00     0.220 HD
ENDBRANCH   7   8
BRANCH   7  10
HETATM   10  N2  UNL     1      -7.517  20.559  -9.609  1.00  0.00    -0.423 NA
BRANCH  10  11
HETATM   11  C11 UNL     1      -8.461  21.499  -9.233  1.00  0.00     0.165 C 
HETATM   12  C12 UNL     1      -8.089  22.217  -7.910  1.00  0.00     0.039 C 
HETATM   13  C13 UNL     1      -7.157  23.323  -8.364  1.00  0.00     0.003 C 
HETATM   14  C14 UNL     1      -7.271  23.401  -9.875  1.00  0.00     0.003 C 
HETATM   15  C15 UNL     1      -8.595  22.712 -10.153  1.00  0.00     0.039 C 
ENDBRANCH  10  11
ENDBRANCH   7  10
ENDBRANCH   6   7
ENDBRANCH   4   6
BRANCH   1  16
HETATM   16  N1  UNL     1      -1.495  19.286  -7.516  1.00  0.00    -0.065 N 
ATOM     17  H12 UNL     1      -1.123  20.010  -8.131  1.00  0.00     0.278 HD
ATOM     18  H11 UNL     1      -1.419  18.488  -8.147  1.00  0.00     0.278 HD
BRANCH  16  19
HETATM   19  C3  UNL     1      -0.669  19.113  -6.349  1.00  0.00     0.205 C 
HETATM   20  C4  UNL     1      -0.903  17.753  -5.762  1.00  0.00     0.042 C 
BRANCH  19  21
HETATM   21  C2  UNL     1       0.760  19.322  -6.817  1.00  0.00     0.199 C 
BRANCH  21  22
HETATM   22  O1  UNL     1       1.076  18.506  -7.875  1.00  0.00    -0.394 OA
HETATM   23  C1  UNL     1       2.410  18.478  -8.166  1.00  0.00     0.201 C 
ENDBRANCH  21  22
ENDBRANCH  19  21
ENDBRANCH  16  19
ENDBRANCH   1  16
TORSDOF 9
ENDMDL
MODEL 3
REMARK VINA RESULT: -6.306324674      1.288      1.861
REMARK  9 active torsions:
REMARK  status: ('A' for Active; 'I' for Inactive)
REMARK    1  A    between atoms: O1_2  and  C2_3 
REMARK    2  A    between atoms: C2_3  and  C3_4 
REMARK    3  A    between atoms: C3_4  and  N1_6 
REMARK    4  A    between atoms: N1_6  and  C5_9 
REMARK    5  A    between atoms: C8_12  and  C9_13 
REMARK    6  A    between atoms: C9_13  and  C10_14 
REMARK    7  A    between atoms: C10_14  and  O2_15 
REMARK    8  A    between atoms: C10_14  and  N2_17 
REMARK    9  A    between atoms: N2_17  and  C11_18 
ROOT
HETATM    1  C5  UNL     1      -2.830  19.547  -7.296  1.00  0.00     0.186 C 
HETATM    2  C6  UNL     1      -3.333  20.824  -7.955  1.00  0.00     0.033 C 
HETATM    3  C7  UNL     1      -4.809  20.709  -7.783  1.00  0.00     0.007 C 
HETATM    4  C8  UNL     1      -5.175  19.283  -7.899  1.00  0.00    -0.004 C 
HETATM    5  C16 UNL     1      -3.805  18.511  -7.740  1.00  0.00     0.038 C 
ENDROOT
BRANCH   4   6
HETATM    6  C9  UNL     1      -5.689  18.734  -9.167  1.00  0.00     0.104 C 
BRANCH   6   7
HETATM    7  C10 UNL     1      -6.604  19.573  -9.982  1.00  0.00     0.184 C 
BRANCH   7   8
HETATM    8  O2  UNL     1      -6.425  19.319 -11.259  1.00  0.00    -0.339 OA
ATOM      9  H2  UNL     1      -5.978  20.048 -11.673  1.00  0.00     0.220 HD
ENDBRANCH   7   8
BRANCH   7  10
HETATM   10  N2  UNL     1      -7.529  20.496  -9.591  1.00  0.00    -0.423 NA
BRANCH  10  11
HETATM   11  C11 UNL     1      -8.430  21.480  -9.222  1.00  0.00     0.165 C 
HETATM   12  C12 UNL     1      -8.001  22.226  -7.933  1.00  0.00     0.039 C 
HETATM   13  C13 UNL     1      -7.043  23.284  -8.445  1.00  0.00     0.003 C 
HETATM   14  C14 UNL     1      -7.193  23.318  -9.955  1.00  0.00     0.003 C 
HETATM   15  C15 UNL     1      -8.546  22.667 -10.177  1.00  0.00     0.039 C 
ENDBRANCH  10  11
ENDBRANCH   7  10
ENDBRANCH   6   7
ENDBRANCH   4   6
BRANCH   1  16
HETATM   16  N1  UNL     1      -1.464  19.288  -7.758  1.00  0.00    -0.065 N 
ATOM     17  H12 UNL     1      -1.096  20.074  -8.293  1.00  0.00     0.278 HD
ATOM     18  H11 UNL     1      -1.446  18.577  -8.490  1.00  0.00     0.278 HD
BRANCH  16  19
HETATM   19  C3  UNL     1      -0.591  18.939  -6.667  1.00  0.00     0.205 C 
HETATM   20  C4  UNL     1       0.831  18.927  -7.142  1.00  0.00     0.042 C 
BRANCH  19  21
HETATM   21  C2  UNL     1      -0.848  19.971  -5.584  1.00  0.00     0.199 C 
BRANCH  21  22
HETATM   22  O1  UNL     1       0.003  21.044  -5.687  1.00  0.00    -0.394 OA
HETATM   23  C1  UNL     1      -0.639  22.248  -5.750  1.00  0.00     0.201 C 
ENDBRANCH  21  22
ENDBRANCH  19  21
ENDBRANCH  16  19
ENDBRANCH   1  16
TORSDOF 9
ENDMDL
MODEL 4
REMARK VINA RESULT: -6.114107016      1.291      1.495
REMARK  9 active torsions:
REMARK  status: ('A' for Active; 'I' for Inactive)
REMARK    1  A    between atoms: O1_2  and  C2_3 
REMARK    2  A    between atoms: C2_3  and  C3_4 
REMARK    3  A    between atoms: C3_4  and  N1_6 
REMARK    4  A    between atoms: N1_6  and  C5_9 
REMARK    5  A    between atoms: C8_12  and  C9_13 
REMARK    6  A    between atoms: C9_13  and  C10_14 
REMARK    7  A    between atoms: C10_14  and  O2_15 
REMARK    8  A    between atoms: C10_14  and  N2_17 
REMARK    9  A    between atoms: N2_17  and  C11_18 
ROOT
HETATM    1  C5  UNL     1      -2.116  19.521  -6.900  1.00  0.00     0.186 C 
HETATM    2  C6  UNL     1      -2.767  20.806  -7.396  1.00  0.00     0.033 C 
HETATM    3  C7  UNL     1      -4.213  20.544  -7.148  1.00  0.00     0.007 C 
HETATM    4  C8  UNL     1      -4.467  19.108  -7.384  1.00  0.00    -0.004 C 
HETATM    5  C16 UNL     1      -3.030  18.450  -7.386  1.00  0.00     0.038 C 
ENDROOT
BRANCH   4   6
HETATM    6  C9  UNL     1      -5.019  18.638  -8.668  1.00  0.00     0.104 C 
BRANCH   6   7
HETATM    7  C10 UNL     1      -6.431  18.967  -8.993  1.00  0.00     0.184 C 
BRANCH   7   8
HETATM    8  O2  UNL     1      -7.220  17.997  -8.589  1.00  0.00    -0.339 OA
ATOM      9  H2  UNL     1      -7.876  17.816  -9.252  1.00  0.00     0.220 HD
ENDBRANCH   7   8
BRANCH   7  10
HETATM   10  N2  UNL     1      -6.956  20.064  -9.609  1.00  0.00    -0.423 NA
BRANCH  10  11
HETATM   11  C11 UNL     1      -7.523  21.192 -10.177  1.00  0.00     0.165 C 
HETATM   12  C12 UNL     1      -8.738  21.717  -9.370  1.00  0.00     0.039 C 
HETATM   13  C13 UNL     1      -8.098  22.572  -8.293  1.00  0.00     0.003 C 
HETATM   14  C14 UNL     1      -6.644  22.760  -8.688  1.00  0.00     0.003 C 
HETATM   15  C15 UNL     1      -6.652  22.448 -10.174  1.00  0.00     0.039 C 
ENDBRANCH  10  11
ENDBRANCH   7  10
ENDBRANCH   6   7
ENDBRANCH   4   6
BRANCH   1  16
HETATM   16  N1  UNL     1      -0.768  19.430  -7.467  1.00  0.00    -0.065 N 
ATOM     17  H12 UNL     1      -0.380  20.354  -7.657  1.00  0.00     0.278 HD
ATOM     18  H11 UNL     1      -0.788  19.067  -8.420  1.00  0.00     0.278 HD
BRANCH  16  19
HETATM   19  C3  UNL     1       0.109  18.654  -6.629  1.00  0.00     0.205 C 
HETATM   20  C4  UNL     1       1.534  18.894  -7.031  1.00  0.00     0.042 C 
BRANCH  19  21
HETATM   21  C2  UNL     1      -0.189  19.085  -5.204  1.00  0.00     0.199 C 
BRANCH  21  22
HETATM   22  O1  UNL     1      -0.164  18.023  -4.333  1.00  0.00    -0.394 OA
HETATM   23  C1  UNL     1      -0.519  16.836  -4.907  1.00  0.00     0.201 C 
ENDBRANCH  21  22
ENDBRANCH  19  21
ENDBRANCH  16  19
ENDBRANCH   1  16
TORSDOF 9
ENDMDL
MODEL 5
REMARK VINA RESULT: -5.992627171      1.169      1.592
REMARK  9 active torsions:
REMARK  status: ('A' for Active; 'I' for Inactive)
REMARK    1  A    between atoms: O1_2  and  C2_3 
REMARK    2  A    between atoms: C2_3  and  C3_4 
REMARK    3  A    between atoms: C3_4  and  N1_6 
REMARK    4  A    between atoms: N1_6  and  C5_9 
REMARK    5  A    between atoms: C8_12  and  C9_13 
REMARK    6  A    between atoms: C9_13  and  C10_14 
REMARK    7  A    between atoms: C10_14  and  O2_15 
REMARK    8  A    between atoms: C10_14  and  N2_17 
REMARK    9  A    between atoms: N2_17  and  C11_18 
ROOT
HETATM    1  C5  UNL     1      -2.571  19.294  -7.153  1.00  0.00     0.186 C 
HETATM    2  C6  UNL     1      -3.013  20.748  -7.255  1.00  0.00     0.033 C 
HETATM    3  C7  UNL     1      -4.480  20.650  -7.011  1.00  0.00     0.007 C 
HETATM    4  C8  UNL     1      -4.962  19.387  -7.608  1.00  0.00    -0.004 C 
HETATM    5  C16 UNL     1      -3.649  18.546  -7.859  1.00  0.00     0.038 C 
ENDROOT
BRANCH   4   6
HETATM    6  C9  UNL     1      -5.594  19.372  -8.939  1.00  0.00     0.104 C 
BRANCH   6   7
HETATM    7  C10 UNL     1      -6.515  20.481  -9.298  1.00  0.00     0.184 C 
BRANCH   7   8
HETATM    8  O2  UNL     1      -7.759  20.062  -9.250  1.00  0.00    -0.339 OA
ATOM      9  H2  UNL     1      -8.329  20.773  -8.982  1.00  0.00     0.220 HD
ENDBRANCH   7   8
BRANCH   7  10
HETATM   10  N2  UNL     1      -6.240  21.772  -9.642  1.00  0.00    -0.423 NA
BRANCH  10  11
HETATM   11  C11 UNL     1      -6.004  23.103  -9.941  1.00  0.00     0.165 C 
HETATM   12  C12 UNL     1      -7.264  23.821 -10.489  1.00  0.00     0.039 C 
HETATM   13  C13 UNL     1      -8.008  24.229  -9.233  1.00  0.00     0.003 C 
HETATM   14  C14 UNL     1      -7.051  24.029  -8.072  1.00  0.00     0.003 C 
HETATM   15  C15 UNL     1      -5.692  24.007  -8.750  1.00  0.00     0.039 C 
ENDBRANCH  10  11
ENDBRANCH   7  10
ENDBRANCH   6   7
ENDBRANCH   4   6
BRANCH   1  16
HETATM   16  N1  UNL     1      -1.260  19.157  -7.793  1.00  0.00    -0.065 N 
ATOM     17  H12 UNL     1      -1.019  19.990  -8.330  1.00  0.00     0.278 HD
ATOM     18  H11 UNL     1      -1.286  18.480  -8.556  1.00  0.00     0.278 HD
BRANCH  16  19
HETATM   19  C3  UNL     1      -0.234  18.831  -6.837  1.00  0.00     0.205 C 
HETATM   20  C4  UNL     1       0.338  20.092  -6.262  1.00  0.00     0.042 C 
BRANCH  19  21
HETATM   21  C2  UNL     1      -0.900  17.950  -5.796  1.00  0.00     0.199 C 
BRANCH  21  22
HETATM   22  O1  UNL     1      -0.533  16.633  -5.931  1.00  0.00    -0.394 OA
HETATM   23  C1  UNL     1      -1.267  15.779  -5.158  1.00  0.00     0.201 C 
ENDBRANCH  21  22
ENDBRANCH  19  21
ENDBRANCH  16  19
ENDBRANCH   1  16
TORSDOF 9
ENDMDL
