MODEL 1
REMARK VINA RESULT: -8.353998779      0.000      0.000
REMARK  9 active torsions:
REMARK  status: ('A' for Active; 'I' for Inactive)
REMARK    1  A    between atoms: N1_2  and  C3_4 
REMARK       I    between atoms: N2_7  and  C6_8 
REMARK    2  A    between atoms: C6_8  and  C7_10 
REMARK    3  A    between atoms: C7_10  and  C8_11 
REMARK    4  A    between atoms: C8_11  and  C9_12 
REMARK    5  A    between atoms: C10_14  and  C11_15 
REMARK    6  A    between atoms: C11_15  and  O3_16 
REMARK    7  A    between atoms: C17_25  and  O6_26 
REMARK    8  A    between atoms: O6_26  and  C18_27 
REMARK       I    between atoms: C18_27  and  N3_29 
REMARK    9  A    between atoms: N3_29  and  C19_31 
ROOT
HETATM    1  C9  UNL     1       1.025  19.687  -4.630  1.00  0.00     0.154 C 
HETATM    2  O2  UNL     1       2.033  20.506  -4.356  1.00  0.00    -0.373 OA
HETATM    3  C10 UNL     1       3.078  20.194  -3.584  1.00  0.00     0.177 C 
HETATM    4  C12 UNL     1       2.990  19.038  -2.659  1.00  0.00     0.188 C 
HETATM    5  O4  UNL     1       3.953  18.042  -2.954  1.00  0.00    -0.345 OA
HETATM    6  C13 UNL     1       3.491  17.023  -2.114  1.00  0.00     0.158 C 
HETATM    7  C14 UNL     1       3.778  17.357  -0.679  1.00  0.00     0.078 C 
HETATM    8  C15 UNL     1       4.170  15.707  -2.427  1.00  0.00     0.078 C 
HETATM    9  O5  UNL     1       2.142  16.959  -2.397  1.00  0.00    -0.345 OA
HETATM   10  C16 UNL     1       1.718  18.272  -2.684  1.00  0.00     0.189 C 
HETATM   11  C17 UNL     1       1.109  18.282  -4.068  1.00  0.00     0.194 C 
ENDROOT
BRANCH   1  12
HETATM   12  C8  UNL     1       0.553  19.573  -6.058  1.00  0.00     0.044 C 
BRANCH  12  13
HETATM   13  C7  UNL     1      -0.739  20.228  -6.374  1.00  0.00     0.105 C 
BRANCH  13  14
HETATM   14  C6  UNL     1      -1.794  19.409  -6.968  1.00  0.00     0.219 C 
HETATM   15  N2  UNL     1      -3.070  19.964  -7.348  1.00  0.00    -0.349 N 
HETATM   16  C5  UNL     1      -3.274  21.367  -7.124  1.00  0.00     0.128 C 
HETATM   17  C25 UNL     1      -4.035  19.075  -7.915  1.00  0.00     0.165 C 
HETATM   18  C4  UNL     1      -4.728  21.642  -6.724  1.00  0.00     0.058 C 
HETATM   19  C3  UNL     1      -5.591  21.050  -7.814  1.00  0.00     0.258 C 
HETATM   20  C26 UNL     1      -5.455  19.561  -7.746  1.00  0.00     0.221 C 
HETATM   21  F1  UNL     1      -6.281  18.907  -8.647  1.00  0.00    -0.245 F 
HETATM   22  O1  UNL     1      -1.575  18.177  -7.148  1.00  0.00    -0.273 OA
BRANCH  19  23
HETATM   23  N1  UNL     1      -5.204  21.631  -9.066  1.00  0.00     0.087 N 
HETATM   24  C1  UNL     1      -5.246  23.075  -8.920  1.00  0.00     0.310 C 
HETATM   25  C2  UNL     1      -6.041  21.278 -10.173  1.00  0.00     0.310 C 
ENDBRANCH  19  23
ENDBRANCH  13  14
ENDBRANCH  12  13
ENDBRANCH   1  12
BRANCH  11  26
HETATM   26  O6  UNL     1      -0.200  17.760  -3.919  1.00  0.00    -0.293 OA
BRANCH  26  27
HETATM   27  C18 UNL     1      -0.607  16.513  -4.288  1.00  0.00     0.361 C 
HETATM   28  O7  UNL     1      -1.820  16.340  -4.602  1.00  0.00    -0.238 OA
HETATM   29  N3  UNL     1       0.308  15.415  -4.325  1.00  0.00    -0.332 N 
ATOM     30  H3  UNL     1       1.284  15.567  -4.071  1.00  0.00     0.165 HD
BRANCH  29  31
HETATM   31  C19 UNL     1      -0.132  14.076  -4.723  1.00  0.00     0.086 C 
HETATM   32  C20 UNL     1       1.066  13.403  -5.370  1.00  0.00     0.025 C 
HETATM   33  C21 UNL     1       0.697  11.967  -5.703  1.00  0.00     0.002 C 
HETATM   34  C22 UNL     1       0.542  11.225  -4.386  1.00  0.00     0.000 C 
HETATM   35  C23 UNL     1      -0.607  11.849  -3.648  1.00  0.00     0.002 C 
HETATM   36  C24 UNL     1      -0.472  13.322  -3.474  1.00  0.00     0.025 C 
ENDBRANCH  29  31
ENDBRANCH  26  27
ENDBRANCH  11  26
BRANCH   3  37
HETATM   37  C11 UNL     1       4.408  20.113  -4.355  1.00  0.00     0.198 C 
BRANCH  37  38
HETATM   38  O3  UNL     1       4.200  19.656  -5.656  1.00  0.00    -0.398 OA
ATOM     39  H3  UNL     1       4.963  19.190  -5.976  1.00  0.00     0.209 HD
ENDBRANCH  37  38
ENDBRANCH   3  37
TORSDOF 9
ENDMDL
MODEL 2
REMARK VINA RESULT: -8.070041914      1.408      1.546
REMARK  9 active torsions:
REMARK  status: ('A' for Active; 'I' for Inactive)
REMARK    1  A    between atoms: N1_2  and  C3_4 
REMARK       I    between atoms: N2_7  and  C6_8 
REMARK    2  A    between atoms: C6_8  and  C7_10 
REMARK    3  A    between atoms: C7_10  and  C8_11 
REMARK    4  A    between atoms: C8_11  and  C9_12 
REMARK    5  A    between atoms: C10_14  and  C11_15 
REMARK    6  A    between atoms: C11_15  and  O3_16 
REMARK    7  A    between atoms: C17_25  and  O6_26 
REMARK    8  A    between atoms: O6_26  and  C18_27 
REMARK       I    between atoms: C18_27  and  N3_29 
REMARK    9  A    between atoms: N3_29  and  C19_31 
ROOT
HETATM    1  C9  UNL     1      -0.287  19.574  -4.374  1.00  0.00     0.154 C 
HETATM    2  O2  UNL     1      -0.451  20.212  -3.221  1.00  0.00    -0.373 OA
HETATM    3  C10 UNL     1       0.225  19.943  -2.100  1.00  0.00     0.177 C 
HETATM    4  C12 UNL     1       0.933  18.647  -1.961  1.00  0.00     0.188 C 
HETATM    5  O4  UNL     1       2.329  18.814  -1.790  1.00  0.00    -0.345 OA
HETATM    6  C13 UNL     1       2.735  17.482  -1.924  1.00  0.00     0.158 C 
HETATM    7  C14 UNL     1       2.338  16.690  -0.712  1.00  0.00     0.078 C 
HETATM    8  C15 UNL     1       4.238  17.382  -2.070  1.00  0.00     0.078 C 
HETATM    9  O5  UNL     1       2.100  17.066  -3.076  1.00  0.00    -0.345 OA
HETATM   10  C16 UNL     1       0.858  17.729  -3.126  1.00  0.00     0.189 C 
HETATM   11  C17 UNL     1       0.789  18.507  -4.421  1.00  0.00     0.194 C 
ENDROOT
BRANCH   1  12
HETATM   12  C8  UNL     1      -0.172  20.385  -5.640  1.00  0.00     0.044 C 
BRANCH  12  13
HETATM   13  C7  UNL     1      -1.444  20.890  -6.211  1.00  0.00     0.105 C 
BRANCH  13  14
HETATM   14  C6  UNL     1      -2.290  19.944  -6.936  1.00  0.00     0.219 C 
HETATM   15  N2  UNL     1      -3.590  20.314  -7.442  1.00  0.00    -0.349 N 
HETATM   16  C5  UNL     1      -4.031  21.661  -7.211  1.00  0.00     0.128 C 
HETATM   17  C25 UNL     1      -4.340  19.313  -8.132  1.00  0.00     0.165 C 
HETATM   18  C4  UNL     1      -5.544  21.697  -6.968  1.00  0.00     0.058 C 
HETATM   19  C3  UNL     1      -6.185  21.024  -8.161  1.00  0.00     0.258 C 
HETATM   20  C26 UNL     1      -5.828  19.571  -8.111  1.00  0.00     0.221 C 
HETATM   21  F1  UNL     1      -6.443  18.836  -9.112  1.00  0.00    -0.245 F 
HETATM   22  O1  UNL     1      -1.867  18.768  -7.118  1.00  0.00    -0.273 OA
BRANCH  19  23
HETATM   23  N1  UNL     1      -5.762  21.706  -9.349  1.00  0.00     0.087 N 
HETATM   24  C1  UNL     1      -6.205  23.085  -9.254  1.00  0.00     0.310 C 
HETATM   25  C2  UNL     1      -6.281  21.161 -10.567  1.00  0.00     0.310 C 
ENDBRANCH  19  23
ENDBRANCH  13  14
ENDBRANCH  12  13
ENDBRANCH   1  12
BRANCH  11  26
HETATM   26  O6  UNL     1       0.462  17.560  -5.424  1.00  0.00    -0.293 OA
BRANCH  26  27
HETATM   27  C18 UNL     1      -0.133  16.353  -5.215  1.00  0.00     0.361 C 
HETATM   28  O7  UNL     1      -1.384  16.319  -5.026  1.00  0.00    -0.238 OA
HETATM   29  N3  UNL     1       0.628  15.143  -5.205  1.00  0.00    -0.332 N 
ATOM     30  H3  UNL     1       1.635  15.182  -5.357  1.00  0.00     0.165 HD
BRANCH  29  31
HETATM   31  C19 UNL     1      -0.016  13.846  -4.979  1.00  0.00     0.086 C 
HETATM   32  C20 UNL     1       0.960  12.790  -5.469  1.00  0.00     0.025 C 
HETATM   33  C21 UNL     1       0.389  11.417  -5.156  1.00  0.00     0.002 C 
HETATM   34  C22 UNL     1       0.416  11.251  -3.646  1.00  0.00     0.000 C 
HETATM   35  C23 UNL     1      -0.499  12.288  -3.060  1.00  0.00     0.002 C 
HETATM   36  C24 UNL     1      -0.183  13.676  -3.500  1.00  0.00     0.025 C 
ENDBRANCH  29  31
ENDBRANCH  26  27
ENDBRANCH  11  26
BRANCH   3  37
HETATM   37  C11 UNL     1       1.175  21.076  -1.670  1.00  0.00     0.198 C 
BRANCH  37  38
HETATM   38  O3  UNL     1       1.987  21.473  -2.732  1.00  0.00    -0.398 OA
ATOM     39  H3  UNL     1       2.738  21.962  -2.418  1.00  0.00     0.209 HD
ENDBRANCH  37  38
ENDBRANCH   3  37
TORSDOF 9
ENDMDL
MODEL 3
REMARK VINA RESULT: -7.881061256      2.152      3.681
REMARK  9 active torsions:
REMARK  status: ('A' for Active; 'I' for Inactive)
REMARK    1  A    between atoms: N1_2  and  C3_4 
REMARK       I    between atoms: N2_7  and  C6_8 
REMARK    2  A    between atoms: C6_8  and  C7_10 
REMARK    3  A    between atoms: C7_10  and  C8_11 
REMARK    4  A    between atoms: C8_11  and  C9_12 
REMARK    5  A    between atoms: C10_14  and  C11_15 
REMARK    6  A    between atoms: C11_15  and  O3_16 
REMARK    7  A    between atoms: C17_25  and  O6_26 
REMARK    8  A    between atoms: O6_26  and  C18_27 
REMARK       I    between atoms: C18_27  and  N3_29 
REMARK    9  A    between atoms: N3_29  and  C19_31 
ROOT
HETATM    1  C9  UNL     1      -2.064  19.610  -6.183  1.00  0.00     0.154 C 
HETATM    2  O2  UNL     1      -2.092  20.750  -5.503  1.00  0.00    -0.373 OA
HETATM    3  C10 UNL     1      -1.019  21.349  -4.977  1.00  0.00     0.177 C 
HETATM    4  C12 UNL     1       0.232  20.577  -4.781  1.00  0.00     0.188 C 
HETATM    5  O4  UNL     1       1.313  21.112  -5.524  1.00  0.00    -0.345 OA
HETATM    6  C13 UNL     1       2.246  20.084  -5.338  1.00  0.00     0.158 C 
HETATM    7  C14 UNL     1       2.764  20.097  -3.928  1.00  0.00     0.078 C 
HETATM    8  C15 UNL     1       3.429  20.248  -6.267  1.00  0.00     0.078 C 
HETATM    9  O5  UNL     1       1.534  18.944  -5.644  1.00  0.00    -0.345 OA
HETATM   10  C16 UNL     1       0.206  19.160  -5.225  1.00  0.00     0.189 C 
HETATM   11  C17 UNL     1      -0.703  18.987  -6.422  1.00  0.00     0.194 C 
ENDROOT
BRANCH   1  12
HETATM   12  C8  UNL     1      -2.833  19.520  -7.476  1.00  0.00     0.044 C 
BRANCH  12  13
HETATM   13  C7  UNL     1      -4.312  19.515  -7.360  1.00  0.00     0.105 C 
BRANCH  13  14
HETATM   14  C6  UNL     1      -5.080  20.222  -8.383  1.00  0.00     0.219 C 
HETATM   15  N2  UNL     1      -5.575  21.561  -8.176  1.00  0.00    -0.349 N 
HETATM   16  C5  UNL     1      -5.283  22.188  -6.919  1.00  0.00     0.128 C 
HETATM   17  C25 UNL     1      -6.321  22.160  -9.237  1.00  0.00     0.165 C 
HETATM   18  C4  UNL     1      -6.453  23.073  -6.474  1.00  0.00     0.058 C 
HETATM   19  C3  UNL     1      -6.715  24.037  -7.608  1.00  0.00     0.258 C 
HETATM   20  C26 UNL     1      -7.253  23.249  -8.762  1.00  0.00     0.221 C 
HETATM   21  F1  UNL     1      -7.618  24.051  -9.832  1.00  0.00    -0.245 F 
HETATM   22  O1  UNL     1      -5.317  19.635  -9.476  1.00  0.00    -0.273 OA
BRANCH  19  23
HETATM   23  N1  UNL     1      -5.504  24.755  -7.884  1.00  0.00     0.087 N 
HETATM   24  C1  UNL     1      -5.300  25.713  -6.814  1.00  0.00     0.310 C 
HETATM   25  C2  UNL     1      -5.505  25.473  -9.123  1.00  0.00     0.310 C 
ENDBRANCH  19  23
ENDBRANCH  13  14
ENDBRANCH  12  13
ENDBRANCH   1  12
BRANCH  11  26
HETATM   26  O6  UNL     1      -0.855  17.587  -6.592  1.00  0.00    -0.293 OA
BRANCH  26  27
HETATM   27  C18 UNL     1      -0.879  16.662  -5.592  1.00  0.00     0.361 C 
HETATM   28  O7  UNL     1      -1.775  16.753  -4.705  1.00  0.00    -0.238 OA
HETATM   29  N3  UNL     1       0.084  15.607  -5.536  1.00  0.00    -0.332 N 
ATOM     30  H3  UNL     1       0.802  15.544  -6.257  1.00  0.00     0.165 HD
BRANCH  29  31
HETATM   31  C19 UNL     1       0.056  14.613  -4.459  1.00  0.00     0.086 C 
HETATM   32  C20 UNL     1      -0.791  13.457  -4.962  1.00  0.00     0.025 C 
HETATM   33  C21 UNL     1      -0.762  12.346  -3.926  1.00  0.00     0.002 C 
HETATM   34  C22 UNL     1       0.646  11.776  -3.915  1.00  0.00     0.000 C 
HETATM   35  C23 UNL     1       1.573  12.868  -3.463  1.00  0.00     0.002 C 
HETATM   36  C24 UNL     1       1.456  14.117  -4.266  1.00  0.00     0.025 C 
ENDBRANCH  29  31
ENDBRANCH  26  27
ENDBRANCH  11  26
BRANCH   3  37
HETATM   37  C11 UNL     1      -0.674  22.690  -5.650  1.00  0.00     0.198 C 
BRANCH  37  38
HETATM   38  O3  UNL     1      -1.118  22.712  -6.971  1.00  0.00    -0.398 OA
ATOM     39  H3  UNL     1      -0.645  23.363  -7.476  1.00  0.00     0.209 HD
ENDBRANCH  37  38
ENDBRANCH   3  37
TORSDOF 9
ENDMDL
MODEL 4
REMARK VINA RESULT: -7.849510761      1.746      2.610
REMARK  9 active torsions:
REMARK  status: ('A' for Active; 'I' for Inactive)
REMARK    1  A    between atoms: N1_2  and  C3_4 
REMARK       I    between atoms: N2_7  and  C6_8 
REMARK    2  A    between atoms: C6_8  and  C7_10 
REMARK    3  A    between atoms: C7_10  and  C8_11 
REMARK    4  A    between atoms: C8_11  and  C9_12 
REMARK    5  A    between atoms: C10_14  and  C11_15 
REMARK    6  A    between atoms: C11_15  and  O3_16 
REMARK    7  A    between atoms: C17_25  and  O6_26 
REMARK    8  A    between atoms: O6_26  and  C18_27 
REMARK       I    between atoms: C18_27  and  N3_29 
REMARK    9  A    between atoms: N3_29  and  C19_31 
ROOT
HETATM    1  C9  UNL     1       0.025  21.101  -4.106  1.00  0.00     0.154 C 
HETATM    2  O2  UNL     1       0.423  22.367  -4.061  1.00  0.00    -0.373 OA
HETATM    3  C10 UNL     1       1.658  22.787  -4.353  1.00  0.00     0.177 C 
HETATM    4  C12 UNL     1       2.780  21.817  -4.372  1.00  0.00     0.188 C 
HETATM    5  O4  UNL     1       3.391  21.729  -5.647  1.00  0.00    -0.345 OA
HETATM    6  C13 UNL     1       4.212  20.617  -5.428  1.00  0.00     0.158 C 
HETATM    7  C14 UNL     1       5.357  20.981  -4.528  1.00  0.00     0.078 C 
HETATM    8  C15 UNL     1       4.791  20.103  -6.729  1.00  0.00     0.078 C 
HETATM    9  O5  UNL     1       3.357  19.689  -4.871  1.00  0.00    -0.345 OA
HETATM   10  C16 UNL     1       2.430  20.402  -4.084  1.00  0.00     0.189 C 
HETATM   11  C17 UNL     1       1.038  20.079  -4.582  1.00  0.00     0.194 C 
ENDROOT
BRANCH   1  12
HETATM   12  C8  UNL     1      -1.287  20.779  -4.776  1.00  0.00     0.044 C 
BRANCH  12  13
HETATM   13  C7  UNL     1      -1.254  20.649  -6.253  1.00  0.00     0.105 C 
BRANCH  13  14
HETATM   14  C6  UNL     1      -2.202  19.729  -6.879  1.00  0.00     0.219 C 
HETATM   15  N2  UNL     1      -3.472  20.177  -7.396  1.00  0.00    -0.349 N 
HETATM   16  C5  UNL     1      -3.780  21.574  -7.278  1.00  0.00     0.128 C 
HETATM   17  C25 UNL     1      -4.328  19.196  -7.985  1.00  0.00     0.165 C 
HETATM   18  C4  UNL     1      -5.277  21.774  -7.017  1.00  0.00     0.058 C 
HETATM   19  C3  UNL     1      -6.005  21.066  -8.136  1.00  0.00     0.258 C 
HETATM   20  C26 UNL     1      -5.785  19.595  -7.964  1.00  0.00     0.221 C 
HETATM   21  F1  UNL     1      -6.488  18.838  -8.888  1.00  0.00    -0.245 F 
HETATM   22  O1  UNL     1      -1.893  18.507  -6.964  1.00  0.00    -0.273 OA
BRANCH  19  23
HETATM   23  N1  UNL     1      -5.548  21.599  -9.386  1.00  0.00     0.087 N 
HETATM   24  C1  UNL     1      -5.840  23.021  -9.397  1.00  0.00     0.310 C 
HETATM   25  C2  UNL     1      -6.157  21.016 -10.543  1.00  0.00     0.310 C 
ENDBRANCH  19  23
ENDBRANCH  13  14
ENDBRANCH  12  13
ENDBRANCH   1  12
BRANCH  11  26
HETATM   26  O6  UNL     1       0.716  18.812  -4.033  1.00  0.00    -0.293 OA
BRANCH  26  27
HETATM   27  C18 UNL     1       0.699  17.632  -4.713  1.00  0.00     0.361 C 
HETATM   28  O7  UNL     1       0.821  17.656  -5.972  1.00  0.00    -0.238 OA
HETATM   29  N3  UNL     1       0.546  16.385  -4.031  1.00  0.00    -0.332 N 
ATOM     30  H3  UNL     1       0.448  16.377  -3.016  1.00  0.00     0.165 HD
BRANCH  29  31
HETATM   31  C19 UNL     1       0.527  15.117  -4.765  1.00  0.00     0.086 C 
HETATM   32  C20 UNL     1       1.537  14.210  -4.083  1.00  0.00     0.025 C 
HETATM   33  C21 UNL     1       1.479  12.840  -4.737  1.00  0.00     0.002 C 
HETATM   34  C22 UNL     1       0.141  12.221  -4.368  1.00  0.00     0.000 C 
HETATM   35  C23 UNL     1      -0.935  13.078  -4.971  1.00  0.00     0.002 C 
HETATM   36  C24 UNL     1      -0.833  14.515  -4.592  1.00  0.00     0.025 C 
ENDBRANCH  29  31
ENDBRANCH  26  27
ENDBRANCH  11  26
BRANCH   3  37
HETATM   37  C11 UNL     1       1.727  23.650  -5.626  1.00  0.00     0.198 C 
BRANCH  37  38
HETATM   38  O3  UNL     1       1.218  22.958  -6.724  1.00  0.00    -0.398 OA
ATOM     39  H3  UNL     1       0.464  23.407  -7.086  1.00  0.00     0.209 HD
ENDBRANCH  37  38
ENDBRANCH   3  37
TORSDOF 9
ENDMDL
MODEL 5
REMARK VINA RESULT: -7.695340470      2.648      4.632
REMARK  9 active torsions:
REMARK  status: ('A' for Active; 'I' for Inactive)
REMARK    1  A    between atoms: N1_2  and  C3_4 
REMARK       I    between atoms: N2_7  and  C6_8 
REMARK    2  A    between atoms: C6_8  and  C7_10 
REMARK    3  A    between atoms: C7_10  and  C8_11 
REMARK    4  A    between atoms: C8_11  and  C9_12 
REMARK    5  A    between atoms: C10_14  and  C11_15 
REMARK    6  A    between atoms: C11_15  and  O3_16 
REMARK    7  A    between atoms: C17_25  and  O6_26 
REMARK    8  A    between atoms: O6_26  and  C18_27 
REMARK       I    between atoms: C18_27  and  N3_29 
REMARK    9  A    between atoms: N3_29  and  C19_31 
ROOT
HETATM    1  C9  UNL     1      -2.889  19.817  -6.591  1.00  0.00     0.154 C 
HETATM    2  O2  UNL     1      -3.104  21.083  -6.253  1.00  0.00    -0.373 OA
HETATM    3  C10 UNL     1      -2.150  21.946  -5.887  1.00  0.00     0.177 C 
HETATM    4  C12 UNL     1      -0.826  21.438  -5.456  1.00  0.00     0.188 C 
HETATM    5  O4  UNL     1       0.222  21.897  -6.291  1.00  0.00    -0.345 OA
HETATM    6  C13 UNL     1       1.265  21.100  -5.806  1.00  0.00     0.158 C 
HETATM    7  C14 UNL     1       1.689  21.565  -4.443  1.00  0.00     0.078 C 
HETATM    8  C15 UNL     1       2.472  21.170  -6.716  1.00  0.00     0.078 C 
HETATM    9  O5  UNL     1       0.725  19.831  -5.803  1.00  0.00    -0.345 OA
HETATM   10  C16 UNL     1      -0.643  19.964  -5.492  1.00  0.00     0.189 C 
HETATM   11  C17 UNL     1      -1.447  19.349  -6.616  1.00  0.00     0.194 C 
ENDROOT
BRANCH   1  12
HETATM   12  C8  UNL     1      -3.560  19.274  -7.827  1.00  0.00     0.044 C 
BRANCH  12  13
HETATM   13  C7  UNL     1      -5.042  19.271  -7.820  1.00  0.00     0.105 C 
BRANCH  13  14
HETATM   14  C6  UNL     1      -5.733  20.054  -8.843  1.00  0.00     0.219 C 
HETATM   15  N2  UNL     1      -6.027  21.455  -8.663  1.00  0.00    -0.349 N 
HETATM   16  C5  UNL     1      -5.611  22.066  -7.433  1.00  0.00     0.128 C 
HETATM   17  C25 UNL     1      -6.711  22.127  -9.722  1.00  0.00     0.165 C 
HETATM   18  C4  UNL     1      -6.630  23.119  -6.985  1.00  0.00     0.058 C 
HETATM   19  C3  UNL     1      -6.786  24.082  -8.140  1.00  0.00     0.258 C 
HETATM   20  C26 UNL     1      -7.465  23.350  -9.255  1.00  0.00     0.221 C 
HETATM   21  F1  UNL     1      -7.743  24.167 -10.339  1.00  0.00    -0.245 F 
HETATM   22  O1  UNL     1      -6.082  19.479  -9.912  1.00  0.00    -0.273 OA
BRANCH  19  23
HETATM   23  N1  UNL     1      -5.495  24.612  -8.468  1.00  0.00     0.087 N 
HETATM   24  C1  UNL     1      -5.045  25.416  -7.346  1.00  0.00     0.310 C 
HETATM   25  C2  UNL     1      -5.467  25.436  -9.638  1.00  0.00     0.310 C 
ENDBRANCH  19  23
ENDBRANCH  13  14
ENDBRANCH  12  13
ENDBRANCH   1  12
BRANCH  11  26
HETATM   26  O6  UNL     1      -1.408  17.949  -6.397  1.00  0.00    -0.293 OA
BRANCH  26  27
HETATM   27  C18 UNL     1      -0.577  17.301  -5.533  1.00  0.00     0.361 C 
HETATM   28  O7  UNL     1       0.615  17.078  -5.893  1.00  0.00    -0.238 OA
HETATM   29  N3  UNL     1      -1.029  16.877  -4.245  1.00  0.00    -0.332 N 
ATOM     30  H3  UNL     1      -1.993  17.062  -3.966  1.00  0.00     0.165 HD
BRANCH  29  31
HETATM   31  C19 UNL     1      -0.133  16.181  -3.319  1.00  0.00     0.086 C 
HETATM   32  C20 UNL     1      -0.582  16.559  -1.919  1.00  0.00     0.025 C 
HETATM   33  C21 UNL     1       0.245  15.776  -0.914  1.00  0.00     0.002 C 
HETATM   34  C22 UNL     1      -0.162  14.317  -1.035  1.00  0.00     0.000 C 
HETATM   35  C23 UNL     1       0.211  13.856  -2.414  1.00  0.00     0.002 C 
HETATM   36  C24 UNL     1      -0.352  14.710  -3.498  1.00  0.00     0.025 C 
ENDBRANCH  29  31
ENDBRANCH  26  27
ENDBRANCH  11  26
BRANCH   3  37
HETATM   37  C11 UNL     1      -1.940  23.090  -6.896  1.00  0.00     0.198 C 
BRANCH  37  38
HETATM   38  O3  UNL     1      -2.146  22.645  -8.201  1.00  0.00    -0.398 OA
ATOM     39  H3  UNL     1      -1.902  21.732  -8.289  1.00  0.00     0.209 HD
ENDBRANCH  37  38
ENDBRANCH   3  37
TORSDOF 9
ENDMDL
