MODEL 1
REMARK VINA RESULT: -8.032704868      0.000      0.000
REMARK  8 active torsions:
REMARK  status: ('A' for Active; 'I' for Inactive)
REMARK    1  A    between atoms: S1_2  and  C2_4 
REMARK    2  A    between atoms: C10_13  and  C11_14 
REMARK    3  A    between atoms: C12_18  and  O3_19 
REMARK    4  A    between atoms: O3_19  and  C13_20 
REMARK    5  A    between atoms: C13_20  and  C14_21 
REMARK    6  A    between atoms: C18_25  and  O4_26 
REMARK    7  A    between atoms: C20_29  and  C21_30 
REMARK       I    between atoms: C21_30  and  N3_32 
REMARK    8  A    between atoms: N3_32  and  C22_34 
ROOT
HETATM    1  O4  UNL     1       0.607  17.329  -4.228  1.00  0.00    -0.243 OA
HETATM    2  C19 UNL     1      -0.284  16.311  -4.368  1.00  0.00     0.234 C 
HETATM    3  N2  UNL     1      -1.045  15.446  -4.485  1.00  0.00    -0.164 NA
ENDROOT
BRANCH   1   4
HETATM    4  C18 UNL     1       0.323  18.515  -3.568  1.00  0.00     0.098 C 
HETATM    5  C11 UNL     1      -0.010  19.862  -3.964  1.00  0.00     0.253 C 
HETATM    6  N1  UNL     1      -0.847  20.293  -2.811  1.00  0.00    -0.035 N 
HETATM    7  C12 UNL     1       0.009  19.855  -1.689  1.00  0.00     0.348 C 
ATOM      8  H12 UNL     1      -1.120  21.275  -2.804  1.00  0.00     0.281 HD
ATOM      9  H11 UNL     1      -1.804  19.941  -2.802  1.00  0.00     0.281 HD
HETATM   10  C17 UNL     1       0.337  18.498  -2.218  1.00  0.00     0.069 C 
BRANCH   5  11
HETATM   11  C10 UNL     1      -0.894  20.106  -5.122  1.00  0.00     0.060 C 
HETATM   12  C9  UNL     1      -1.218  21.609  -5.073  1.00  0.00     0.175 C 
HETATM   13  O2  UNL     1      -1.502  22.171  -6.280  1.00  0.00    -0.386 OA
HETATM   14  C8  UNL     1      -2.834  22.528  -6.482  1.00  0.00     0.208 C 
HETATM   15  C7  UNL     1      -3.562  21.329  -7.092  1.00  0.00    -0.008 A 
HETATM   16  C2  UNL     1      -4.856  21.363  -7.633  1.00  0.00     0.037 A 
HETATM   17  C6  UNL     1      -3.065  20.160  -7.176  1.00  0.00    -0.033 A 
HETATM   18  C3  UNL     1      -5.088  20.062  -8.060  1.00  0.00     0.008 A 
HETATM   19  C4  UNL     1      -4.000  19.255  -7.801  1.00  0.00     0.073 A 
HETATM   20  C5  UNL     1      -2.681  18.937  -7.322  1.00  0.00    -0.059 A 
HETATM   21  C27 UNL     1      -1.337  18.439  -6.878  1.00  0.00     0.050 C 
HETATM   22  C20 UNL     1      -0.538  19.668  -6.468  1.00  0.00     0.090 C 
BRANCH  16  23
HETATM   23  S1  UNL     1      -5.931  22.743  -7.740  1.00  0.00     0.046 S 
HETATM   24  C1  UNL     1      -6.469  23.316  -6.175  1.00  0.00     0.133 C 
HETATM   25  O1  UNL     1      -7.179  22.433  -8.800  1.00  0.00    -0.253 OA
ENDBRANCH  16  23
BRANCH  22  26
HETATM   26  C21 UNL     1       0.881  19.549  -6.832  1.00  0.00     0.223 C 
HETATM   27  O5  UNL     1       1.396  18.486  -7.211  1.00  0.00    -0.273 OA
HETATM   28  N3  UNL     1       1.718  20.683  -6.757  1.00  0.00    -0.353 N 
ATOM     29  H3  UNL     1       1.297  21.560  -6.448  1.00  0.00     0.163 HD
BRANCH  28  30
HETATM   30  C22 UNL     1       3.120  20.696  -7.085  1.00  0.00     0.118 C 
HETATM   31  C23 UNL     1       4.000  20.205  -5.989  1.00  0.00     0.028 C 
HETATM   32  C24 UNL     1       5.341  20.777  -6.338  1.00  0.00     0.005 C 
HETATM   33  C25 UNL     1       5.004  22.159  -6.838  1.00  0.00     0.039 C 
HETATM   34  C26 UNL     1       3.550  22.165  -7.213  1.00  0.00     0.192 C 
HETATM   35  F1  UNL     1       3.339  22.583  -8.520  1.00  0.00    -0.247 F 
ENDBRANCH  28  30
ENDBRANCH  22  26
ENDBRANCH   5  11
BRANCH   7  36
HETATM   36  O3  UNL     1      -0.692  19.745  -0.539  1.00  0.00    -0.356 OA
BRANCH  36  37
HETATM   37  C13 UNL     1      -1.148  18.576  -0.079  1.00  0.00     0.175 C 
BRANCH  37  38
HETATM   38  C14 UNL     1      -2.590  18.280   0.034  1.00  0.00     0.009 A 
HETATM   39  C15 UNL     1      -3.470  18.532   1.169  1.00  0.00     0.007 A 
HETATM   40  C16 UNL     1      -3.202  17.108   0.666  1.00  0.00     0.007 A 
ENDBRANCH  37  38
ENDBRANCH  36  37
ENDBRANCH   7  36
ENDBRANCH   1   4
TORSDOF 8
ENDMDL
MODEL 2
REMARK VINA RESULT: -7.820511794      3.503      7.145
REMARK  8 active torsions:
REMARK  status: ('A' for Active; 'I' for Inactive)
REMARK    1  A    between atoms: S1_2  and  C2_4 
REMARK    2  A    between atoms: C10_13  and  C11_14 
REMARK    3  A    between atoms: C12_18  and  O3_19 
REMARK    4  A    between atoms: O3_19  and  C13_20 
REMARK    5  A    between atoms: C13_20  and  C14_21 
REMARK    6  A    between atoms: C18_25  and  O4_26 
REMARK    7  A    between atoms: C20_29  and  C21_30 
REMARK       I    between atoms: C21_30  and  N3_32 
REMARK    8  A    between atoms: N3_32  and  C22_34 
ROOT
HETATM    1  O4  UNL     1       1.568  17.568  -2.473  1.00  0.00    -0.243 OA
HETATM    2  C19 UNL     1       2.819  17.042  -2.554  1.00  0.00     0.234 C 
HETATM    3  N2  UNL     1       3.885  16.593  -2.626  1.00  0.00    -0.164 NA
ENDROOT
BRANCH   1   4
HETATM    4  C18 UNL     1       0.585  17.364  -3.430  1.00  0.00     0.098 C 
HETATM    5  C11 UNL     1      -0.050  18.169  -4.444  1.00  0.00     0.253 C 
HETATM    6  N1  UNL     1      -0.387  17.130  -5.455  1.00  0.00    -0.035 N 
HETATM    7  C12 UNL     1      -1.002  16.108  -4.583  1.00  0.00     0.348 C 
ATOM      8  H12 UNL     1      -0.957  17.443  -6.241  1.00  0.00     0.281 HD
ATOM      9  H11 UNL     1       0.387  16.809  -6.037  1.00  0.00     0.281 HD
HETATM   10  C17 UNL     1       0.027  16.136  -3.502  1.00  0.00     0.069 C 
BRANCH   5  11
HETATM   11  C10 UNL     1       0.736  19.146  -5.227  1.00  0.00     0.060 C 
HETATM   12  C9  UNL     1       1.173  18.390  -6.494  1.00  0.00     0.175 C 
HETATM   13  O2  UNL     1       1.380  19.178  -7.584  1.00  0.00    -0.386 OA
HETATM   14  C8  UNL     1       2.710  19.331  -7.974  1.00  0.00     0.208 C 
HETATM   15  C7  UNL     1       3.287  20.541  -7.237  1.00  0.00    -0.008 A 
HETATM   16  C2  UNL     1       4.522  21.143  -7.520  1.00  0.00     0.037 A 
HETATM   17  C6  UNL     1       2.699  21.139  -6.279  1.00  0.00    -0.033 A 
HETATM   18  C3  UNL     1       4.617  22.188  -6.610  1.00  0.00     0.008 A 
HETATM   19  C4  UNL     1       3.502  22.239  -5.800  1.00  0.00     0.073 A 
HETATM   20  C5  UNL     1       2.215  21.830  -5.303  1.00  0.00    -0.059 A 
HETATM   21  C27 UNL     1       0.886  21.539  -4.670  1.00  0.00     0.050 C 
HETATM   22  C20 UNL     1       0.223  20.476  -5.535  1.00  0.00     0.090 C 
BRANCH  16  23
HETATM   23  S1  UNL     1       5.681  20.671  -8.748  1.00  0.00     0.046 S 
HETATM   24  C1  UNL     1       6.474  19.150  -8.395  1.00  0.00     0.133 C 
HETATM   25  O1  UNL     1       6.741  21.918  -9.061  1.00  0.00    -0.253 OA
ENDBRANCH  16  23
BRANCH  22  26
HETATM   26  C21 UNL     1      -1.230  20.679  -5.638  1.00  0.00     0.223 C 
HETATM   27  O5  UNL     1      -1.886  21.316  -4.799  1.00  0.00    -0.273 OA
HETATM   28  N3  UNL     1      -1.934  20.136  -6.734  1.00  0.00    -0.353 N 
ATOM     29  H3  UNL     1      -1.397  19.613  -7.426  1.00  0.00     0.163 HD
BRANCH  28  30
HETATM   30  C22 UNL     1      -3.352  20.263  -6.948  1.00  0.00     0.118 C 
HETATM   31  C23 UNL     1      -3.930  19.195  -7.810  1.00  0.00     0.028 C 
HETATM   32  C24 UNL     1      -5.215  19.797  -8.294  1.00  0.00     0.005 C 
HETATM   33  C25 UNL     1      -4.841  21.233  -8.558  1.00  0.00     0.039 C 
HETATM   34  C26 UNL     1      -3.579  21.523  -7.796  1.00  0.00     0.192 C 
HETATM   35  F1  UNL     1      -3.706  22.617  -6.951  1.00  0.00    -0.247 F 
ENDBRANCH  28  30
ENDBRANCH  22  26
ENDBRANCH   5  11
BRANCH   7  36
HETATM   36  O3  UNL     1      -1.018  14.892  -5.172  1.00  0.00    -0.356 OA
BRANCH  36  37
HETATM   37  C13 UNL     1      -0.057  13.983  -4.983  1.00  0.00     0.175 C 
BRANCH  37  38
HETATM   38  C14 UNL     1      -0.356  12.577  -4.648  1.00  0.00     0.009 A 
HETATM   39  C15 UNL     1       0.111  11.812  -3.497  1.00  0.00     0.007 A 
HETATM   40  C16 UNL     1       0.481  11.407  -4.929  1.00  0.00     0.007 A 
ENDBRANCH  37  38
ENDBRANCH  36  37
ENDBRANCH   7  36
ENDBRANCH   1   4
TORSDOF 8
ENDMDL
MODEL 3
REMARK VINA RESULT: -7.750847449      1.205      1.539
REMARK  8 active torsions:
REMARK  status: ('A' for Active; 'I' for Inactive)
REMARK    1  A    between atoms: S1_2  and  C2_4 
REMARK    2  A    between atoms: C10_13  and  C11_14 
REMARK    3  A    between atoms: C12_18  and  O3_19 
REMARK    4  A    between atoms: O3_19  and  C13_20 
REMARK    5  A    between atoms: C13_20  and  C14_21 
REMARK    6  A    between atoms: C18_25  and  O4_26 
REMARK    7  A    between atoms: C20_29  and  C21_30 
REMARK       I    between atoms: C21_30  and  N3_32 
REMARK    8  A    between atoms: N3_32  and  C22_34 
ROOT
HETATM    1  O4  UNL     1       0.628  17.395  -4.193  1.00  0.00    -0.243 OA
HETATM    2  C19 UNL     1      -0.266  16.378  -4.315  1.00  0.00     0.234 C 
HETATM    3  N2  UNL     1      -1.030  15.513  -4.417  1.00  0.00    -0.164 NA
ENDROOT
BRANCH   1   4
HETATM    4  C18 UNL     1       0.345  18.595  -3.558  1.00  0.00     0.098 C 
HETATM    5  C11 UNL     1       0.008  19.932  -3.983  1.00  0.00     0.253 C 
HETATM    6  N1  UNL     1      -0.824  20.388  -2.836  1.00  0.00    -0.035 N 
HETATM    7  C12 UNL     1       0.039  19.977  -1.709  1.00  0.00     0.348 C 
ATOM      8  H12 UNL     1      -1.098  21.371  -2.849  1.00  0.00     0.281 HD
ATOM      9  H11 UNL     1      -1.780  20.035  -2.814  1.00  0.00     0.281 HD
HETATM   10  C17 UNL     1       0.366  18.610  -2.209  1.00  0.00     0.069 C 
BRANCH   5  11
HETATM   11  C10 UNL     1      -0.883  20.149  -5.142  1.00  0.00     0.060 C 
HETATM   12  C9  UNL     1      -1.211  21.652  -5.124  1.00  0.00     0.175 C 
HETATM   13  O2  UNL     1      -1.502  22.187  -6.341  1.00  0.00    -0.386 OA
HETATM   14  C8  UNL     1      -2.836  22.536  -6.544  1.00  0.00     0.208 C 
HETATM   15  C7  UNL     1      -3.564  21.321  -7.125  1.00  0.00    -0.008 A 
HETATM   16  C2  UNL     1      -4.860  21.340  -7.660  1.00  0.00     0.037 A 
HETATM   17  C6  UNL     1      -3.063  20.153  -7.186  1.00  0.00    -0.033 A 
HETATM   18  C3  UNL     1      -5.091  20.029  -8.058  1.00  0.00     0.008 A 
HETATM   19  C4  UNL     1      -3.999  19.232  -7.787  1.00  0.00     0.073 A 
HETATM   20  C5  UNL     1      -2.677  18.928  -7.308  1.00  0.00    -0.059 A 
HETATM   21  C27 UNL     1      -1.329  18.443  -6.859  1.00  0.00     0.050 C 
HETATM   22  C20 UNL     1      -0.532  19.683  -6.480  1.00  0.00     0.090 C 
BRANCH  16  23
HETATM   23  S1  UNL     1      -5.940  22.715  -7.791  1.00  0.00     0.046 S 
HETATM   24  C1  UNL     1      -6.474  23.317  -6.236  1.00  0.00     0.133 C 
HETATM   25  O1  UNL     1      -7.190  22.379  -8.841  1.00  0.00    -0.253 OA
ENDBRANCH  16  23
BRANCH  22  26
HETATM   26  C21 UNL     1       0.886  19.561  -6.848  1.00  0.00     0.223 C 
HETATM   27  O5  UNL     1       1.396  18.497  -7.234  1.00  0.00    -0.273 OA
HETATM   28  N3  UNL     1       1.727  20.691  -6.770  1.00  0.00    -0.353 N 
ATOM     29  H3  UNL     1       1.311  21.568  -6.454  1.00  0.00     0.163 HD
BRANCH  28  30
HETATM   30  C22 UNL     1       3.129  20.701  -7.101  1.00  0.00     0.118 C 
HETATM   31  C23 UNL     1       4.010  20.194  -6.012  1.00  0.00     0.028 C 
HETATM   32  C24 UNL     1       5.353  20.762  -6.359  1.00  0.00     0.005 C 
HETATM   33  C25 UNL     1       5.021  22.151  -6.844  1.00  0.00     0.039 C 
HETATM   34  C26 UNL     1       3.566  22.168  -7.216  1.00  0.00     0.192 C 
HETATM   35  F1  UNL     1       3.354  22.600  -8.518  1.00  0.00    -0.247 F 
ENDBRANCH  28  30
ENDBRANCH  22  26
ENDBRANCH   5  11
BRANCH   7  36
HETATM   36  O3  UNL     1      -0.656  19.892  -0.553  1.00  0.00    -0.356 OA
BRANCH  36  37
HETATM   37  C13 UNL     1      -0.782  20.920   0.292  1.00  0.00     0.175 C 
BRANCH  37  38
HETATM   38  C14 UNL     1      -1.801  21.973   0.109  1.00  0.00     0.009 A 
HETATM   39  C15 UNL     1      -1.676  23.219  -0.638  1.00  0.00     0.007 A 
HETATM   40  C16 UNL     1      -1.931  23.216   0.874  1.00  0.00     0.007 A 
ENDBRANCH  37  38
ENDBRANCH  36  37
ENDBRANCH   7  36
ENDBRANCH   1   4
TORSDOF 8
ENDMDL
MODEL 4
REMARK VINA RESULT: -7.624573782      3.567      7.073
REMARK  8 active torsions:
REMARK  status: ('A' for Active; 'I' for Inactive)
REMARK    1  A    between atoms: S1_2  and  C2_4 
REMARK    2  A    between atoms: C10_13  and  C11_14 
REMARK    3  A    between atoms: C12_18  and  O3_19 
REMARK    4  A    between atoms: O3_19  and  C13_20 
REMARK    5  A    between atoms: C13_20  and  C14_21 
REMARK    6  A    between atoms: C18_25  and  O4_26 
REMARK    7  A    between atoms: C20_29  and  C21_30 
REMARK       I    between atoms: C21_30  and  N3_32 
REMARK    8  A    between atoms: N3_32  and  C22_34 
ROOT
HETATM    1  O4  UNL     1       0.883  17.637  -2.479  1.00  0.00    -0.243 OA
HETATM    2  C19 UNL     1       2.236  17.729  -2.569  1.00  0.00     0.234 C 
HETATM    3  N2  UNL     1       3.389  17.807  -2.648  1.00  0.00    -0.164 NA
ENDROOT
BRANCH   1   4
HETATM    4  C18 UNL     1       0.072  17.195  -3.514  1.00  0.00     0.098 C 
HETATM    5  C11 UNL     1      -0.609  17.812  -4.627  1.00  0.00     0.253 C 
HETATM    6  N1  UNL     1      -0.608  16.693  -5.609  1.00  0.00    -0.035 N 
HETATM    7  C12 UNL     1      -1.081  15.590  -4.747  1.00  0.00     0.348 C 
ATOM      8  H12 UNL     1      -1.146  16.851  -6.462  1.00  0.00     0.281 HD
ATOM      9  H11 UNL     1       0.273  16.529  -6.095  1.00  0.00     0.281 HD
HETATM   10  C17 UNL     1      -0.201  15.874  -3.575  1.00  0.00     0.069 C 
BRANCH   5  11
HETATM   11  C10 UNL     1       0.030  18.911  -5.381  1.00  0.00     0.060 C 
HETATM   12  C9  UNL     1       1.006  18.222  -6.350  1.00  0.00     0.175 C 
HETATM   13  O2  UNL     1       1.259  18.916  -7.493  1.00  0.00    -0.386 OA
HETATM   14  C8  UNL     1       2.534  19.471  -7.593  1.00  0.00     0.208 C 
HETATM   15  C7  UNL     1       2.491  20.875  -6.986  1.00  0.00    -0.008 A 
HETATM   16  C2  UNL     1       3.515  21.828  -7.090  1.00  0.00     0.037 A 
HETATM   17  C6  UNL     1       1.510  21.333  -6.317  1.00  0.00    -0.033 A 
HETATM   18  C3  UNL     1       3.034  22.931  -6.396  1.00  0.00     0.008 A 
HETATM   19  C4  UNL     1       1.778  22.684  -5.885  1.00  0.00     0.073 A 
HETATM   20  C5  UNL     1       0.590  21.915  -5.625  1.00  0.00    -0.059 A 
HETATM   21  C27 UNL     1      -0.709  21.256  -5.266  1.00  0.00     0.050 C 
HETATM   22  C20 UNL     1      -0.755  19.947  -6.043  1.00  0.00     0.090 C 
BRANCH  16  23
HETATM   23  S1  UNL     1       5.054  21.655  -7.912  1.00  0.00     0.046 S 
HETATM   24  C1  UNL     1       6.110  20.484  -7.150  1.00  0.00     0.133 C 
HETATM   25  O1  UNL     1       5.765  23.144  -8.142  1.00  0.00    -0.253 OA
ENDBRANCH  16  23
BRANCH  22  26
HETATM   26  C21 UNL     1      -2.113  19.631  -6.509  1.00  0.00     0.223 C 
HETATM   27  O5  UNL     1      -2.489  18.476  -6.766  1.00  0.00    -0.273 OA
HETATM   28  N3  UNL     1      -3.053  20.670  -6.679  1.00  0.00    -0.353 N 
ATOM     29  H3  UNL     1      -2.748  21.620  -6.467  1.00  0.00     0.163 HD
BRANCH  28  30
HETATM   30  C22 UNL     1      -4.409  20.490  -7.129  1.00  0.00     0.118 C 
HETATM   31  C23 UNL     1      -4.549  19.517  -8.248  1.00  0.00     0.028 C 
HETATM   32  C24 UNL     1      -5.872  19.875  -8.855  1.00  0.00     0.005 C 
HETATM   33  C25 UNL     1      -5.874  21.382  -8.804  1.00  0.00     0.039 C 
HETATM   34  C26 UNL     1      -4.855  21.805  -7.785  1.00  0.00     0.192 C 
HETATM   35  F1  UNL     1      -5.391  22.635  -6.809  1.00  0.00    -0.247 F 
ENDBRANCH  28  30
ENDBRANCH  22  26
ENDBRANCH   5  11
BRANCH   7  36
HETATM   36  O3  UNL     1      -0.776  14.382  -5.270  1.00  0.00    -0.356 OA
BRANCH  36  37
HETATM   37  C13 UNL     1       0.441  13.838  -5.174  1.00  0.00     0.175 C 
BRANCH  37  38
HETATM   38  C14 UNL     1       0.692  12.595  -4.417  1.00  0.00     0.009 A 
HETATM   39  C15 UNL     1       0.512  11.220  -4.869  1.00  0.00     0.007 A 
HETATM   40  C16 UNL     1      -0.295  11.788  -3.694  1.00  0.00     0.007 A 
ENDBRANCH  37  38
ENDBRANCH  36  37
ENDBRANCH   7  36
ENDBRANCH   1   4
TORSDOF 8
ENDMDL
MODEL 5
REMARK VINA RESULT: -7.599378777      3.740      7.544
REMARK  8 active torsions:
REMARK  status: ('A' for Active; 'I' for Inactive)
REMARK    1  A    between atoms: S1_2  and  C2_4 
REMARK    2  A    between atoms: C10_13  and  C11_14 
REMARK    3  A    between atoms: C12_18  and  O3_19 
REMARK    4  A    between atoms: O3_19  and  C13_20 
REMARK    5  A    between atoms: C13_20  and  C14_21 
REMARK    6  A    between atoms: C18_25  and  O4_26 
REMARK    7  A    between atoms: C20_29  and  C21_30 
REMARK       I    between atoms: C21_30  and  N3_32 
REMARK    8  A    between atoms: N3_32  and  C22_34 
ROOT
HETATM    1  O4  UNL     1      -0.333  16.531  -1.338  1.00  0.00    -0.243 OA
HETATM    2  C19 UNL     1      -1.324  16.054  -0.540  1.00  0.00     0.234 C 
HETATM    3  N2  UNL     1      -2.171  15.647   0.138  1.00  0.00    -0.164 NA
ENDROOT
BRANCH   1   4
HETATM    4  C18 UNL     1      -0.452  16.669  -2.713  1.00  0.00     0.098 C 
HETATM    5  C11 UNL     1      -0.482  17.774  -3.640  1.00  0.00     0.253 C 
HETATM    6  N1  UNL     1       0.099  17.136  -4.854  1.00  0.00    -0.035 N 
HETATM    7  C12 UNL     1      -0.691  15.887  -4.894  1.00  0.00     0.348 C 
ATOM      8  H12 UNL     1       0.081  17.700  -5.703  1.00  0.00     0.281 HD
ATOM      9  H11 UNL     1       1.112  17.019  -4.852  1.00  0.00     0.281 HD
HETATM   10  C17 UNL     1      -0.576  15.543  -3.447  1.00  0.00     0.069 C 
BRANCH   5  11
HETATM   11  C10 UNL     1       0.393  18.948  -3.437  1.00  0.00     0.060 C 
HETATM   12  C9  UNL     1       1.828  18.414  -3.587  1.00  0.00     0.175 C 
HETATM   13  O2  UNL     1       2.736  19.333  -4.015  1.00  0.00    -0.386 OA
HETATM   14  C8  UNL     1       3.662  19.755  -3.062  1.00  0.00     0.208 C 
HETATM   15  C7  UNL     1       3.076  20.966  -2.332  1.00  0.00    -0.008 A 
HETATM   16  C2  UNL     1       3.788  21.800  -1.457  1.00  0.00     0.037 A 
HETATM   17  C6  UNL     1       1.868  21.351  -2.446  1.00  0.00    -0.033 A 
HETATM   18  C3  UNL     1       2.859  22.747  -1.047  1.00  0.00     0.008 A 
HETATM   19  C4  UNL     1       1.631  22.520  -1.633  1.00  0.00     0.073 A 
HETATM   20  C5  UNL     1       0.676  21.844  -2.470  1.00  0.00    -0.059 A 
HETATM   21  C27 UNL     1      -0.437  21.260  -3.290  1.00  0.00     0.050 C 
HETATM   22  C20 UNL     1       0.194  20.192  -4.172  1.00  0.00     0.090 C 
BRANCH  16  23
HETATM   23  S1  UNL     1       5.473  21.667  -0.991  1.00  0.00     0.046 S 
HETATM   24  C1  UNL     1       6.576  21.945  -2.323  1.00  0.00     0.133 C 
HETATM   25  O1  UNL     1       5.746  20.232  -0.188  1.00  0.00    -0.253 OA
ENDBRANCH  16  23
BRANCH  22  26
HETATM   26  C21 UNL     1      -0.420  20.147  -5.507  1.00  0.00     0.223 C 
HETATM   27  O5  UNL     1       0.201  19.808  -6.527  1.00  0.00    -0.273 OA
HETATM   28  N3  UNL     1      -1.778  20.497  -5.663  1.00  0.00    -0.353 N 
ATOM     29  H3  UNL     1      -2.293  20.774  -4.826  1.00  0.00     0.163 HD
BRANCH  28  30
HETATM   30  C22 UNL     1      -2.493  20.493  -6.913  1.00  0.00     0.118 C 
HETATM   31  C23 UNL     1      -3.710  21.351  -6.915  1.00  0.00     0.028 C 
HETATM   32  C24 UNL     1      -4.518  20.805  -8.053  1.00  0.00     0.005 C 
HETATM   33  C25 UNL     1      -4.317  19.316  -7.931  1.00  0.00     0.039 C 
HETATM   34  C26 UNL     1      -3.085  19.089  -7.102  1.00  0.00     0.192 C 
HETATM   35  F1  UNL     1      -2.150  18.289  -7.744  1.00  0.00    -0.247 F 
ENDBRANCH  28  30
ENDBRANCH  22  26
ENDBRANCH   5  11
BRANCH   7  36
HETATM   36  O3  UNL     1      -0.087  14.939  -5.644  1.00  0.00    -0.356 OA
BRANCH  36  37
HETATM   37  C13 UNL     1      -0.539  13.684  -5.722  1.00  0.00     0.175 C 
BRANCH  37  38
HETATM   38  C14 UNL     1       0.361  12.515  -5.642  1.00  0.00     0.009 A 
HETATM   39  C15 UNL     1       0.285  11.389  -4.718  1.00  0.00     0.007 A 
HETATM   40  C16 UNL     1       1.493  12.335  -4.729  1.00  0.00     0.007 A 
ENDBRANCH  37  38
ENDBRANCH  36  37
ENDBRANCH   7  36
ENDBRANCH   1   4
TORSDOF 8
ENDMDL
