MODEL 1
REMARK VINA RESULT: -6.946158064      0.000      0.000
REMARK  9 active torsions:
REMARK  status: ('A' for Active; 'I' for Inactive)
REMARK    1  A    between atoms: O1_2  and  C2_3 
REMARK    2  A    between atoms: C4_5  and  O2_6 
REMARK    3  A    between atoms: C6_8  and  O3_9 
REMARK    4  A    between atoms: C8_11  and  O4_12 
REMARK    5  A    between atoms: O4_12  and  C9_13 
REMARK    6  A    between atoms: C10_15  and  C11_16 
REMARK    7  A    between atoms: C11_16  and  O6_17 
REMARK    8  A    between atoms: C12_19  and  O7_20 
REMARK    9  A    between atoms: C13_22  and  O8_23 
ROOT
HETATM    1  C9  UNL     1      -4.938  20.731  -7.831  1.00  0.00     0.273 C 
HETATM    2  O5  UNL     1      -5.725  19.572  -7.756  1.00  0.00    -0.350 OA
HETATM    3  C10 UNL     1      -5.747  19.032  -9.018  1.00  0.00     0.179 C 
HETATM    4  C12 UNL     1      -6.851  19.767  -9.787  1.00  0.00     0.178 C 
HETATM    5  C13 UNL     1      -6.685  21.236  -9.575  1.00  0.00     0.160 C 
HETATM    6  C15 UNL     1      -5.332  21.598  -9.002  1.00  0.00     0.069 C 
HETATM    7  C16 UNL     1      -5.325  23.036  -8.536  1.00  0.00     0.017 C 
ENDROOT
BRANCH   1   8
HETATM    8  O4  UNL     1      -3.617  20.290  -7.927  1.00  0.00    -0.317 OA
BRANCH   8   9
HETATM    9  C8  UNL     1      -2.800  19.727  -7.009  1.00  0.00     0.111 A 
HETATM   10  C6  UNL     1      -2.335  20.555  -5.976  1.00  0.00     0.135 A 
HETATM   11  C4  UNL     1      -1.506  19.994  -5.039  1.00  0.00     0.106 A 
HETATM   12  C3  UNL     1      -1.118  18.651  -5.079  1.00  0.00     0.076 A 
HETATM   13  C2  UNL     1      -1.583  17.858  -6.096  1.00  0.00     0.073 A 
HETATM   14  C17 UNL     1      -2.431  18.413  -7.063  1.00  0.00     0.076 A 
BRANCH  10  15
HETATM   15  O3  UNL     1      -2.682  21.884  -5.883  1.00  0.00    -0.351 OA
HETATM   16  C7  UNL     1      -1.949  22.926  -6.506  1.00  0.00     0.210 C 
ENDBRANCH  10  15
BRANCH  11  17
HETATM   17  O2  UNL     1      -1.029  20.774  -4.011  1.00  0.00    -0.353 OA
HETATM   18  C5  UNL     1      -1.565  20.710  -2.702  1.00  0.00     0.210 C 
ENDBRANCH  11  17
BRANCH  13  19
HETATM   19  O1  UNL     1      -1.257  16.537  -6.216  1.00  0.00    -0.356 OA
HETATM   20  C1  UNL     1      -1.256  15.650  -5.134  1.00  0.00     0.210 C 
ENDBRANCH  13  19
ENDBRANCH   8   9
ENDBRANCH   1   8
BRANCH   3  21
HETATM   21  C11 UNL     1      -5.982  17.542  -9.039  1.00  0.00     0.198 C 
BRANCH  21  22
HETATM   22  O6  UNL     1      -7.216  17.221  -9.599  1.00  0.00    -0.398 OA
ATOM     23  H6  UNL     1      -7.483  16.337  -9.379  1.00  0.00     0.209 HD
ENDBRANCH  21  22
ENDBRANCH   3  21
BRANCH   5  24
HETATM   24  O8  UNL     1      -7.731  21.847  -8.942  1.00  0.00    -0.388 OA
HETATM   25  C14 UNL     1      -8.962  21.276  -9.121  1.00  0.00     0.202 C 
ENDBRANCH   5  24
BRANCH   4  26
HETATM   26  O7  UNL     1      -6.706  19.378 -11.119  1.00  0.00    -0.390 OA
ATOM     27  H7  UNL     1      -6.331  18.506 -11.092  1.00  0.00     0.210 HD
ENDBRANCH   4  26
TORSDOF 9
ENDMDL
MODEL 2
REMARK VINA RESULT: -6.584092497      1.572      3.444
REMARK  9 active torsions:
REMARK  status: ('A' for Active; 'I' for Inactive)
REMARK    1  A    between atoms: O1_2  and  C2_3 
REMARK    2  A    between atoms: C4_5  and  O2_6 
REMARK    3  A    between atoms: C6_8  and  O3_9 
REMARK    4  A    between atoms: C8_11  and  O4_12 
REMARK    5  A    between atoms: O4_12  and  C9_13 
REMARK    6  A    between atoms: C10_15  and  C11_16 
REMARK    7  A    between atoms: C11_16  and  O6_17 
REMARK    8  A    between atoms: C12_19  and  O7_20 
REMARK    9  A    between atoms: C13_22  and  O8_23 
ROOT
HETATM    1  C9  UNL     1      -5.488  21.769  -8.255  1.00  0.00     0.273 C 
HETATM    2  O5  UNL     1      -6.121  20.566  -7.908  1.00  0.00    -0.350 OA
HETATM    3  C10 UNL     1      -5.961  19.719  -8.978  1.00  0.00     0.179 C 
HETATM    4  C12 UNL     1      -7.079  20.056  -9.970  1.00  0.00     0.178 C 
HETATM    5  C13 UNL     1      -7.125  21.536 -10.156  1.00  0.00     0.160 C 
HETATM    6  C15 UNL     1      -5.887  22.233  -9.635  1.00  0.00     0.069 C 
HETATM    7  C16 UNL     1      -6.108  23.727  -9.576  1.00  0.00     0.017 C 
ENDROOT
BRANCH   1   8
HETATM    8  O4  UNL     1      -4.117  21.521  -8.162  1.00  0.00    -0.317 OA
BRANCH   8   9
HETATM    9  C8  UNL     1      -3.211  21.884  -7.228  1.00  0.00     0.111 A 
HETATM   10  C6  UNL     1      -2.785  20.892  -6.333  1.00  0.00     0.135 A 
HETATM   11  C4  UNL     1      -1.865  21.249  -5.381  1.00  0.00     0.106 A 
HETATM   12  C3  UNL     1      -1.348  22.544  -5.276  1.00  0.00     0.076 A 
HETATM   13  C2  UNL     1      -1.777  23.501  -6.160  1.00  0.00     0.073 A 
HETATM   14  C17 UNL     1      -2.716  23.154  -7.140  1.00  0.00     0.076 A 
BRANCH  10  15
HETATM   15  O3  UNL     1      -3.256  19.599  -6.386  1.00  0.00    -0.351 OA
HETATM   16  C7  UNL     1      -2.634  18.573  -7.141  1.00  0.00     0.210 C 
ENDBRANCH  10  15
BRANCH  11  17
HETATM   17  O2  UNL     1      -1.423  20.303  -4.485  1.00  0.00    -0.353 OA
HETATM   18  C5  UNL     1      -0.096  19.810  -4.499  1.00  0.00     0.210 C 
ENDBRANCH  11  17
BRANCH  13  19
HETATM   19  O1  UNL     1      -1.329  24.791  -6.134  1.00  0.00    -0.356 OA
HETATM   20  C1  UNL     1      -1.820  25.787  -6.984  1.00  0.00     0.210 C 
ENDBRANCH  13  19
ENDBRANCH   8   9
ENDBRANCH   1   8
BRANCH   3  21
HETATM   21  C11 UNL     1      -5.997  18.258  -8.606  1.00  0.00     0.198 C 
BRANCH  21  22
HETATM   22  O6  UNL     1      -7.301  17.799  -8.439  1.00  0.00    -0.398 OA
ATOM     23  H6  UNL     1      -7.658  18.052  -7.597  1.00  0.00     0.209 HD
ENDBRANCH  21  22
ENDBRANCH   3  21
BRANCH   5  24
HETATM   24  O8  UNL     1      -8.294  22.128  -9.764  1.00  0.00    -0.388 OA
HETATM   25  C14 UNL     1      -9.143  21.354  -9.020  1.00  0.00     0.202 C 
ENDBRANCH   5  24
BRANCH   4  26
HETATM   26  O7  UNL     1      -6.768  19.359 -11.139  1.00  0.00    -0.390 OA
ATOM     27  H7  UNL     1      -5.925  19.693 -11.420  1.00  0.00     0.210 HD
ENDBRANCH   4  26
TORSDOF 9
ENDMDL
MODEL 3
REMARK VINA RESULT: -6.317362685      1.530      3.282
REMARK  9 active torsions:
REMARK  status: ('A' for Active; 'I' for Inactive)
REMARK    1  A    between atoms: O1_2  and  C2_3 
REMARK    2  A    between atoms: C4_5  and  O2_6 
REMARK    3  A    between atoms: C6_8  and  O3_9 
REMARK    4  A    between atoms: C8_11  and  O4_12 
REMARK    5  A    between atoms: O4_12  and  C9_13 
REMARK    6  A    between atoms: C10_15  and  C11_16 
REMARK    7  A    between atoms: C11_16  and  O6_17 
REMARK    8  A    between atoms: C12_19  and  O7_20 
REMARK    9  A    between atoms: C13_22  and  O8_23 
ROOT
HETATM    1  C9  UNL     1      -5.511  21.427  -8.209  1.00  0.00     0.273 C 
HETATM    2  O5  UNL     1      -6.199  20.216  -8.041  1.00  0.00    -0.350 OA
HETATM    3  C10 UNL     1      -6.036  19.509  -9.207  1.00  0.00     0.179 C 
HETATM    4  C12 UNL     1      -7.107  20.017 -10.178  1.00  0.00     0.178 C 
HETATM    5  C13 UNL     1      -7.092  21.510 -10.169  1.00  0.00     0.160 C 
HETATM    6  C15 UNL     1      -5.847  22.081  -9.527  1.00  0.00     0.069 C 
HETATM    7  C16 UNL     1      -6.014  23.564  -9.280  1.00  0.00     0.017 C 
ENDROOT
BRANCH   1   8
HETATM    8  O4  UNL     1      -4.154  21.113  -8.111  1.00  0.00    -0.317 OA
BRANCH   8   9
HETATM    9  C8  UNL     1      -3.258  21.348  -7.128  1.00  0.00     0.111 A 
HETATM   10  C6  UNL     1      -2.327  20.334  -6.857  1.00  0.00     0.135 A 
HETATM   11  C4  UNL     1      -1.413  20.563  -5.861  1.00  0.00     0.106 A 
HETATM   12  C3  UNL     1      -1.379  21.749  -5.122  1.00  0.00     0.076 A 
HETATM   13  C2  UNL     1      -2.297  22.729  -5.402  1.00  0.00     0.073 A 
HETATM   14  C17 UNL     1      -3.239  22.514  -6.416  1.00  0.00     0.076 A 
BRANCH  10  15
HETATM   15  O3  UNL     1      -2.310  19.144  -7.549  1.00  0.00    -0.351 OA
HETATM   16  C7  UNL     1      -3.049  18.001  -7.153  1.00  0.00     0.210 C 
ENDBRANCH  10  15
BRANCH  11  17
HETATM   17  O2  UNL     1      -0.484  19.591  -5.566  1.00  0.00    -0.353 OA
HETATM   18  C5  UNL     1       0.878  19.712  -5.933  1.00  0.00     0.210 C 
ENDBRANCH  11  17
BRANCH  13  19
HETATM   19  O1  UNL     1      -2.340  23.919  -4.732  1.00  0.00    -0.356 OA
HETATM   20  C1  UNL     1      -3.364  24.856  -4.908  1.00  0.00     0.210 C 
ENDBRANCH  13  19
ENDBRANCH   8   9
ENDBRANCH   1   8
BRANCH   3  21
HETATM   21  C11 UNL     1      -6.138  18.015  -9.030  1.00  0.00     0.198 C 
BRANCH  21  22
HETATM   22  O6  UNL     1      -7.168  17.474  -9.795  1.00  0.00    -0.398 OA
ATOM     23  H6  UNL     1      -7.944  18.021  -9.779  1.00  0.00     0.209 HD
ENDBRANCH  21  22
ENDBRANCH   3  21
BRANCH   5  24
HETATM   24  O8  UNL     1      -8.250  22.093  -9.737  1.00  0.00    -0.388 OA
HETATM   25  C14 UNL     1      -9.122  21.280  -9.064  1.00  0.00     0.202 C 
ENDBRANCH   5  24
BRANCH   4  26
HETATM   26  O7  UNL     1      -6.783  19.465 -11.418  1.00  0.00    -0.390 OA
ATOM     27  H7  UNL     1      -6.825  18.524 -11.299  1.00  0.00     0.210 HD
ENDBRANCH   4  26
TORSDOF 9
ENDMDL
MODEL 4
REMARK VINA RESULT: -6.272825164      1.410      1.734
REMARK  9 active torsions:
REMARK  status: ('A' for Active; 'I' for Inactive)
REMARK    1  A    between atoms: O1_2  and  C2_3 
REMARK    2  A    between atoms: C4_5  and  O2_6 
REMARK    3  A    between atoms: C6_8  and  O3_9 
REMARK    4  A    between atoms: C8_11  and  O4_12 
REMARK    5  A    between atoms: O4_12  and  C9_13 
REMARK    6  A    between atoms: C10_15  and  C11_16 
REMARK    7  A    between atoms: C11_16  and  O6_17 
REMARK    8  A    between atoms: C12_19  and  O7_20 
REMARK    9  A    between atoms: C13_22  and  O8_23 
ROOT
HETATM    1  C9  UNL     1      -5.434  21.818  -8.192  1.00  0.00     0.273 C 
HETATM    2  O5  UNL     1      -6.063  20.605  -7.878  1.00  0.00    -0.350 OA
HETATM    3  C10 UNL     1      -5.947  19.806  -8.989  1.00  0.00     0.179 C 
HETATM    4  C12 UNL     1      -7.098  20.193  -9.925  1.00  0.00     0.178 C 
HETATM    5  C13 UNL     1      -7.139  21.681 -10.042  1.00  0.00     0.160 C 
HETATM    6  C15 UNL     1      -5.878  22.346  -9.535  1.00  0.00     0.069 C 
HETATM    7  C16 UNL     1      -6.086  23.838  -9.401  1.00  0.00     0.017 C 
ENDROOT
BRANCH   1   8
HETATM    8  O4  UNL     1      -4.063  21.558  -8.159  1.00  0.00    -0.317 OA
BRANCH   8   9
HETATM    9  C8  UNL     1      -3.227  21.333  -7.121  1.00  0.00     0.111 A 
HETATM   10  C6  UNL     1      -2.794  22.453  -6.397  1.00  0.00     0.135 A 
HETATM   11  C4  UNL     1      -1.946  22.236  -5.341  1.00  0.00     0.106 A 
HETATM   12  C3  UNL     1      -1.508  20.960  -4.972  1.00  0.00     0.076 A 
HETATM   13  C2  UNL     1      -1.942  19.878  -5.693  1.00  0.00     0.073 A 
HETATM   14  C17 UNL     1      -2.809  20.080  -6.774  1.00  0.00     0.076 A 
BRANCH  10  15
HETATM   15  O3  UNL     1      -3.189  23.733  -6.711  1.00  0.00    -0.351 OA
HETATM   16  C7  UNL     1      -4.259  24.401  -6.062  1.00  0.00     0.210 C 
ENDBRANCH  10  15
BRANCH  11  17
HETATM   17  O2  UNL     1      -1.499  23.310  -4.606  1.00  0.00    -0.353 OA
HETATM   18  C5  UNL     1      -1.890  23.521  -3.262  1.00  0.00     0.210 C 
ENDBRANCH  11  17
BRANCH  13  19
HETATM   19  O1  UNL     1      -1.568  18.595  -5.406  1.00  0.00    -0.356 OA
HETATM   20  C1  UNL     1      -1.796  17.522  -6.273  1.00  0.00     0.210 C 
ENDBRANCH  13  19
ENDBRANCH   8   9
ENDBRANCH   1   8
BRANCH   3  21
HETATM   21  C11 UNL     1      -5.981  18.330  -8.682  1.00  0.00     0.198 C 
BRANCH  21  22
HETATM   22  O6  UNL     1      -7.279  17.878  -8.456  1.00  0.00    -0.398 OA
ATOM     23  H6  UNL     1      -7.310  16.935  -8.348  1.00  0.00     0.209 HD
ENDBRANCH  21  22
ENDBRANCH   3  21
BRANCH   5  24
HETATM   24  O8  UNL     1      -8.288  22.261  -9.583  1.00  0.00    -0.388 OA
HETATM   25  C14 UNL     1      -9.183  21.427  -8.969  1.00  0.00     0.202 C 
ENDBRANCH   5  24
BRANCH   4  26
HETATM   26  O7  UNL     1      -6.833  19.548 -11.134  1.00  0.00    -0.390 OA
ATOM     27  H7  UNL     1      -6.859  18.619 -10.940  1.00  0.00     0.210 HD
ENDBRANCH   4  26
TORSDOF 9
ENDMDL
MODEL 5
REMARK VINA RESULT: -6.082960305      1.433      3.207
REMARK  9 active torsions:
REMARK  status: ('A' for Active; 'I' for Inactive)
REMARK    1  A    between atoms: O1_2  and  C2_3 
REMARK    2  A    between atoms: C4_5  and  O2_6 
REMARK    3  A    between atoms: C6_8  and  O3_9 
REMARK    4  A    between atoms: C8_11  and  O4_12 
REMARK    5  A    between atoms: O4_12  and  C9_13 
REMARK    6  A    between atoms: C10_15  and  C11_16 
REMARK    7  A    between atoms: C11_16  and  O6_17 
REMARK    8  A    between atoms: C12_19  and  O7_20 
REMARK    9  A    between atoms: C13_22  and  O8_23 
ROOT
HETATM    1  C9  UNL     1      -5.012  21.659  -7.422  1.00  0.00     0.273 C 
HETATM    2  O5  UNL     1      -5.754  20.477  -7.280  1.00  0.00    -0.350 OA
HETATM    3  C10 UNL     1      -5.714  19.843  -8.498  1.00  0.00     0.179 C 
HETATM    4  C12 UNL     1      -6.822  20.471  -9.352  1.00  0.00     0.178 C 
HETATM    5  C13 UNL     1      -6.721  21.956  -9.249  1.00  0.00     0.160 C 
HETATM    6  C15 UNL     1      -5.404  22.418  -8.666  1.00  0.00     0.069 C 
HETATM    7  C16 UNL     1      -5.469  23.887  -8.312  1.00  0.00     0.017 C 
ENDROOT
BRANCH   1   8
HETATM    8  O4  UNL     1      -3.672  21.269  -7.446  1.00  0.00    -0.317 OA
BRANCH   8   9
HETATM    9  C8  UNL     1      -2.699  21.379  -6.515  1.00  0.00     0.111 A 
HETATM   10  C6  UNL     1      -2.295  20.200  -5.871  1.00  0.00     0.135 A 
HETATM   11  C4  UNL     1      -1.308  20.301  -4.925  1.00  0.00     0.106 A 
HETATM   12  C3  UNL     1      -0.703  21.515  -4.588  1.00  0.00     0.076 A 
HETATM   13  C2  UNL     1      -1.111  22.657  -5.228  1.00  0.00     0.073 A 
HETATM   14  C17 UNL     1      -2.118  22.574  -6.198  1.00  0.00     0.076 A 
BRANCH  10  15
HETATM   15  O3  UNL     1      -2.853  18.975  -6.159  1.00  0.00    -0.351 OA
HETATM   16  C7  UNL     1      -2.383  18.129  -7.196  1.00  0.00     0.210 C 
ENDBRANCH  10  15
BRANCH  11  17
HETATM   17  O2  UNL     1      -0.886  19.165  -4.272  1.00  0.00    -0.353 OA
HETATM   18  C5  UNL     1       0.341  18.529  -4.579  1.00  0.00     0.210 C 
ENDBRANCH  11  17
BRANCH  13  19
HETATM   19  O1  UNL     1      -0.578  23.887  -4.965  1.00  0.00    -0.356 OA
HETATM   20  C1  UNL     1      -0.370  24.856  -5.952  1.00  0.00     0.210 C 
ENDBRANCH  13  19
ENDBRANCH   8   9
ENDBRANCH   1   8
BRANCH   3  21
HETATM   21  C11 UNL     1      -5.888  18.348  -8.411  1.00  0.00     0.198 C 
BRANCH  21  22
HETATM   22  O6  UNL     1      -7.232  17.984  -8.388  1.00  0.00    -0.398 OA
ATOM     23  H6  UNL     1      -7.801  18.728  -8.545  1.00  0.00     0.209 HD
ENDBRANCH  21  22
ENDBRANCH   3  21
BRANCH   5  24
HETATM   24  O8  UNL     1      -7.811  22.568  -8.694  1.00  0.00    -0.388 OA
HETATM   25  C14 UNL     1      -8.849  22.842  -9.544  1.00  0.00     0.202 C 
ENDBRANCH   5  24
BRANCH   4  26
HETATM   26  O7  UNL     1      -6.619  19.989 -10.645  1.00  0.00    -0.390 OA
ATOM     27  H7  UNL     1      -7.267  20.424 -11.186  1.00  0.00     0.210 HD
ENDBRANCH   4  26
TORSDOF 9
ENDMDL
