MODEL 1
REMARK VINA RESULT: -6.849634680      0.000      0.000
REMARK  7 active torsions:
REMARK  status: ('A' for Active; 'I' for Inactive)
REMARK    1  A    between atoms: C2_3  and  C3_4 
REMARK    2  A    between atoms: C3_4  and  N2_5 
REMARK    3  A    between atoms: C4_6  and  O1_7 
REMARK    4  A    between atoms: O1_7  and  C5_8 
REMARK    5  A    between atoms: C5_8  and  C6_9 
REMARK    6  A    between atoms: C6_9  and  N3_10 
REMARK    7  A    between atoms: C14_24  and  N6_25 
ROOT
HETATM    1  N1  UNL     1      -1.038  22.818  -5.958  1.00  0.00    -0.197 NA
HETATM    2  C1  UNL     1      -1.943  22.972  -6.656  1.00  0.00     0.060 C 
HETATM    3  C2  UNL     1      -3.086  23.177  -7.549  1.00  0.00     0.144 C 
ENDROOT
BRANCH   3   4
HETATM    4  C3  UNL     1      -4.307  22.668  -6.801  1.00  0.00     0.147 C 
BRANCH   4   5
HETATM    5  N2  UNL     1      -4.938  21.560  -7.461  1.00  0.00    -0.304 N 
HETATM    6  C4  UNL     1      -4.538  20.273  -7.258  1.00  0.00     0.176 A 
HETATM    7  C11 UNL     1      -5.326  19.422  -8.021  1.00  0.00     0.119 A 
HETATM    8  N4  UNL     1      -5.591  18.149  -8.380  1.00  0.00    -0.303 N 
HETATM    9  C13 UNL     1      -6.207  20.264  -8.685  1.00  0.00     0.118 A 
HETATM   10  C12 UNL     1      -6.612  18.168  -9.248  1.00  0.00     0.325 A 
ATOM     11  H4  UNL     1      -5.101  17.318  -8.049  1.00  0.00     0.171 HD
HETATM   12  O3  UNL     1      -7.195  17.211  -9.844  1.00  0.00    -0.247 OA
HETATM   13  N5  UNL     1      -6.994  19.449  -9.440  1.00  0.00    -0.303 N 
ATOM     14  H5  UNL     1      -7.751  19.757 -10.052  1.00  0.00     0.171 HD
HETATM   15  C14 UNL     1      -5.954  21.589  -8.329  1.00  0.00     0.207 A 
BRANCH   6  16
HETATM   16  O1  UNL     1      -3.525  19.846  -6.437  1.00  0.00    -0.332 OA
BRANCH  16  17
HETATM   17  C5  UNL     1      -2.685  18.779  -6.640  1.00  0.00     0.207 C 
BRANCH  17  18
HETATM   18  C6  UNL     1      -1.306  19.047  -7.120  1.00  0.00     0.299 C 
BRANCH  18  19
HETATM   19  N3  UNL     1      -0.296  19.246  -6.118  1.00  0.00     0.094 N 
HETATM   20  C7  UNL     1       1.017  19.380  -6.746  1.00  0.00     0.298 C 
HETATM   21  C8  UNL     1       1.354  18.100  -7.446  1.00  0.00     0.198 C 
HETATM   22  O2  UNL     1       1.517  17.126  -6.456  1.00  0.00    -0.388 OA
HETATM   23  C9  UNL     1       0.380  16.915  -5.737  1.00  0.00     0.198 C 
HETATM   24  C10 UNL     1      -0.238  18.153  -5.159  1.00  0.00     0.298 C 
ENDBRANCH  18  19
ENDBRANCH  17  18
ENDBRANCH  16  17
ENDBRANCH   6  16
BRANCH  15  25
HETATM   25  N6  UNL     1      -6.668  22.704  -8.837  1.00  0.00    -0.095 N 
HETATM   26  O4  UNL     1      -6.210  23.330  -9.810  1.00  0.00    -0.530 OA
HETATM   27  O5  UNL     1      -7.854  23.147  -8.318  1.00  0.00    -0.530 OA
ENDBRANCH  15  25
ENDBRANCH   4   5
ENDBRANCH   3   4
TORSDOF 7
ENDMDL
MODEL 2
REMARK VINA RESULT: -6.824999096      2.162      4.188
REMARK  7 active torsions:
REMARK  status: ('A' for Active; 'I' for Inactive)
REMARK    1  A    between atoms: C2_3  and  C3_4 
REMARK    2  A    between atoms: C3_4  and  N2_5 
REMARK    3  A    between atoms: C4_6  and  O1_7 
REMARK    4  A    between atoms: O1_7  and  C5_8 
REMARK    5  A    between atoms: C5_8  and  C6_9 
REMARK    6  A    between atoms: C6_9  and  N3_10 
REMARK    7  A    between atoms: C14_24  and  N6_25 
ROOT
HETATM    1  N1  UNL     1      -1.905  17.627  -6.592  1.00  0.00    -0.197 NA
HETATM    2  C1  UNL     1      -2.866  17.919  -7.161  1.00  0.00     0.060 C 
HETATM    3  C2  UNL     1      -4.080  18.283  -7.892  1.00  0.00     0.144 C 
ENDROOT
BRANCH   3   4
HETATM    4  C3  UNL     1      -4.714  19.430  -7.122  1.00  0.00     0.147 C 
BRANCH   4   5
HETATM    5  N2  UNL     1      -5.207  20.468  -7.982  1.00  0.00    -0.304 N 
HETATM    6  C4  UNL     1      -4.871  21.777  -7.804  1.00  0.00     0.176 A 
HETATM    7  C11 UNL     1      -5.490  22.547  -8.779  1.00  0.00     0.119 A 
HETATM    8  N4  UNL     1      -5.682  23.781  -9.289  1.00  0.00    -0.303 N 
HETATM    9  C13 UNL     1      -6.207  21.634  -9.541  1.00  0.00     0.118 A 
HETATM   10  C12 UNL     1      -6.497  23.669 -10.347  1.00  0.00     0.325 A 
ATOM     11  H4  UNL     1      -5.278  24.647  -8.932  1.00  0.00     0.171 HD
HETATM   12  O3  UNL     1      -6.947  24.561 -11.129  1.00  0.00    -0.247 OA
HETATM   13  N5  UNL     1      -6.822  22.368 -10.509  1.00  0.00    -0.303 N 
ATOM     14  H5  UNL     1      -7.430  21.995 -11.238  1.00  0.00     0.171 HD
HETATM   15  C14 UNL     1      -6.023  20.348  -9.033  1.00  0.00     0.207 A 
BRANCH   6  16
HETATM   16  O1  UNL     1      -4.054  22.291  -6.828  1.00  0.00    -0.332 OA
BRANCH  16  17
HETATM   17  C5  UNL     1      -2.811  22.851  -6.998  1.00  0.00     0.207 C 
BRANCH  17  18
HETATM   18  C6  UNL     1      -1.744  22.509  -6.023  1.00  0.00     0.299 C 
BRANCH  18  19
HETATM   19  N3  UNL     1      -1.427  21.118  -5.867  1.00  0.00     0.094 N 
HETATM   20  C7  UNL     1      -1.874  20.643  -4.558  1.00  0.00     0.298 C 
HETATM   21  C8  UNL     1      -1.121  21.377  -3.493  1.00  0.00     0.198 C 
HETATM   22  O2  UNL     1       0.216  20.978  -3.591  1.00  0.00    -0.388 OA
HETATM   23  C9  UNL     1       0.773  21.308  -4.790  1.00  0.00     0.198 C 
HETATM   24  C10 UNL     1      -0.002  20.852  -5.990  1.00  0.00     0.298 C 
ENDBRANCH  18  19
ENDBRANCH  17  18
ENDBRANCH  16  17
ENDBRANCH   6  16
BRANCH  15  25
HETATM   25  N6  UNL     1      -6.626  19.183  -9.572  1.00  0.00    -0.095 N 
HETATM   26  O4  UNL     1      -6.592  18.989 -10.800  1.00  0.00    -0.530 OA
HETATM   27  O5  UNL     1      -7.258  18.235  -8.813  1.00  0.00    -0.530 OA
ENDBRANCH  15  25
ENDBRANCH   4   5
ENDBRANCH   3   4
TORSDOF 7
ENDMDL
MODEL 3
REMARK VINA RESULT: -6.818307305      2.321      4.911
REMARK  7 active torsions:
REMARK  status: ('A' for Active; 'I' for Inactive)
REMARK    1  A    between atoms: C2_3  and  C3_4 
REMARK    2  A    between atoms: C3_4  and  N2_5 
REMARK    3  A    between atoms: C4_6  and  O1_7 
REMARK    4  A    between atoms: O1_7  and  C5_8 
REMARK    5  A    between atoms: C5_8  and  C6_9 
REMARK    6  A    between atoms: C6_9  and  N3_10 
REMARK    7  A    between atoms: C14_24  and  N6_25 
ROOT
HETATM    1  N1  UNL     1      -6.474  24.217 -10.205  1.00  0.00    -0.197 NA
HETATM    2  C1  UNL     1      -6.868  23.134 -10.175  1.00  0.00     0.060 C 
HETATM    3  C2  UNL     1      -7.373  21.760 -10.148  1.00  0.00     0.144 C 
ENDROOT
BRANCH   3   4
HETATM    4  C3  UNL     1      -7.400  21.344  -8.687  1.00  0.00     0.147 C 
BRANCH   4   5
HETATM    5  N2  UNL     1      -6.271  20.537  -8.321  1.00  0.00    -0.304 N 
HETATM    6  C4  UNL     1      -5.304  20.986  -7.470  1.00  0.00     0.176 A 
HETATM    7  C11 UNL     1      -4.346  19.996  -7.300  1.00  0.00     0.119 A 
HETATM    8  N4  UNL     1      -3.192  19.633  -6.703  1.00  0.00    -0.303 N 
HETATM    9  C13 UNL     1      -4.789  18.944  -8.089  1.00  0.00     0.118 A 
HETATM   10  C12 UNL     1      -2.899  18.385  -7.094  1.00  0.00     0.325 A 
ATOM     11  H4  UNL     1      -2.640  20.208  -6.066  1.00  0.00     0.171 HD
HETATM   12  O3  UNL     1      -1.916  17.643  -6.787  1.00  0.00    -0.247 OA
HETATM   13  N5  UNL     1      -3.863  17.956  -7.936  1.00  0.00    -0.303 N 
ATOM     14  H5  UNL     1      -3.894  17.041  -8.386  1.00  0.00     0.171 HD
HETATM   15  C14 UNL     1      -5.984  19.294  -8.718  1.00  0.00     0.207 A 
BRANCH   6  16
HETATM   16  O1  UNL     1      -5.254  22.213  -6.857  1.00  0.00    -0.332 OA
BRANCH  16  17
HETATM   17  C5  UNL     1      -4.569  23.325  -7.283  1.00  0.00     0.207 C 
BRANCH  17  18
HETATM   18  C6  UNL     1      -3.087  23.320  -7.187  1.00  0.00     0.299 C 
BRANCH  18  19
HETATM   19  N3  UNL     1      -2.519  23.360  -5.869  1.00  0.00     0.094 N 
HETATM   20  C7  UNL     1      -2.207  24.738  -5.495  1.00  0.00     0.298 C 
HETATM   21  C8  UNL     1      -1.162  25.269  -6.428  1.00  0.00     0.198 C 
HETATM   22  O2  UNL     1       0.009  24.546  -6.180  1.00  0.00    -0.388 OA
HETATM   23  C9  UNL     1      -0.133  23.216  -6.436  1.00  0.00     0.198 C 
HETATM   24  C10 UNL     1      -1.304  22.567  -5.761  1.00  0.00     0.298 C 
ENDBRANCH  18  19
ENDBRANCH  17  18
ENDBRANCH  16  17
ENDBRANCH   6  16
BRANCH  15  25
HETATM   25  N6  UNL     1      -6.697  18.449  -9.606  1.00  0.00    -0.095 N 
HETATM   26  O4  UNL     1      -7.225  17.410  -9.169  1.00  0.00    -0.530 OA
HETATM   27  O5  UNL     1      -6.849  18.706 -10.942  1.00  0.00    -0.530 OA
ENDBRANCH  15  25
ENDBRANCH   4   5
ENDBRANCH   3   4
TORSDOF 7
ENDMDL
MODEL 4
REMARK VINA RESULT: -6.791027096      1.452      3.971
REMARK  7 active torsions:
REMARK  status: ('A' for Active; 'I' for Inactive)
REMARK    1  A    between atoms: C2_3  and  C3_4 
REMARK    2  A    between atoms: C3_4  and  N2_5 
REMARK    3  A    between atoms: C4_6  and  O1_7 
REMARK    4  A    between atoms: O1_7  and  C5_8 
REMARK    5  A    between atoms: C5_8  and  C6_9 
REMARK    6  A    between atoms: C6_9  and  N3_10 
REMARK    7  A    between atoms: C14_24  and  N6_25 
ROOT
HETATM    1  N1  UNL     1      -6.849  19.448 -11.229  1.00  0.00    -0.197 NA
HETATM    2  C1  UNL     1      -6.457  19.025 -10.230  1.00  0.00     0.060 C 
HETATM    3  C2  UNL     1      -5.959  18.478  -8.967  1.00  0.00     0.144 C 
ENDROOT
BRANCH   3   4
HETATM    4  C3  UNL     1      -6.373  19.461  -7.884  1.00  0.00     0.147 C 
BRANCH   4   5
HETATM    5  N2  UNL     1      -5.461  20.563  -7.760  1.00  0.00    -0.304 N 
HETATM    6  C4  UNL     1      -4.250  20.437  -7.147  1.00  0.00     0.176 A 
HETATM    7  C11 UNL     1      -3.590  21.658  -7.179  1.00  0.00     0.119 A 
HETATM    8  N4  UNL     1      -2.479  22.349  -6.849  1.00  0.00    -0.303 N 
HETATM    9  C13 UNL     1      -4.465  22.510  -7.838  1.00  0.00     0.118 A 
HETATM   10  C12 UNL     1      -2.632  23.608  -7.281  1.00  0.00     0.325 A 
ATOM     11  H4  UNL     1      -1.667  21.978  -6.357  1.00  0.00     0.171 HD
HETATM   12  O3  UNL     1      -1.848  24.602  -7.194  1.00  0.00    -0.247 OA
HETATM   13  N5  UNL     1      -3.836  23.717  -7.884  1.00  0.00    -0.303 N 
ATOM     14  H5  UNL     1      -4.213  24.566  -8.306  1.00  0.00     0.171 HD
HETATM   15  C14 UNL     1      -5.623  21.818  -8.191  1.00  0.00     0.207 A 
BRANCH   6  16
HETATM   16  O1  UNL     1      -3.731  19.301  -6.578  1.00  0.00    -0.332 OA
BRANCH  16  17
HETATM   17  C5  UNL     1      -2.850  18.416  -7.149  1.00  0.00     0.207 C 
BRANCH  17  18
HETATM   18  C6  UNL     1      -1.403  18.748  -7.127  1.00  0.00     0.299 C 
BRANCH  18  19
HETATM   19  N3  UNL     1      -0.788  18.898  -5.839  1.00  0.00     0.094 N 
HETATM   20  C7  UNL     1       0.643  19.152  -5.988  1.00  0.00     0.298 C 
HETATM   21  C8  UNL     1       1.283  17.961  -6.632  1.00  0.00     0.198 C 
HETATM   22  O2  UNL     1       1.190  16.906  -5.718  1.00  0.00    -0.388 OA
HETATM   23  C9  UNL     1      -0.100  16.576  -5.430  1.00  0.00     0.198 C 
HETATM   24  C10 UNL     1      -0.962  17.724  -4.997  1.00  0.00     0.298 C 
ENDBRANCH  18  19
ENDBRANCH  17  18
ENDBRANCH  16  17
ENDBRANCH   6  16
BRANCH  15  25
HETATM   25  N6  UNL     1      -6.727  22.398  -8.867  1.00  0.00    -0.095 N 
HETATM   26  O4  UNL     1      -6.606  22.732 -10.059  1.00  0.00    -0.530 OA
HETATM   27  O5  UNL     1      -7.944  22.621  -8.282  1.00  0.00    -0.530 OA
ENDBRANCH  15  25
ENDBRANCH   4   5
ENDBRANCH   3   4
TORSDOF 7
ENDMDL
MODEL 5
REMARK VINA RESULT: -6.636875348      2.607      5.521
REMARK  7 active torsions:
REMARK  status: ('A' for Active; 'I' for Inactive)
REMARK    1  A    between atoms: C2_3  and  C3_4 
REMARK    2  A    between atoms: C3_4  and  N2_5 
REMARK    3  A    between atoms: C4_6  and  O1_7 
REMARK    4  A    between atoms: O1_7  and  C5_8 
REMARK    5  A    between atoms: C5_8  and  C6_9 
REMARK    6  A    between atoms: C6_9  and  N3_10 
REMARK    7  A    between atoms: C14_24  and  N6_25 
ROOT
HETATM    1  N1  UNL     1      -1.677  19.128  -6.218  1.00  0.00    -0.197 NA
HETATM    2  C1  UNL     1      -2.593  18.880  -6.874  1.00  0.00     0.060 C 
HETATM    3  C2  UNL     1      -3.749  18.563  -7.715  1.00  0.00     0.144 C 
ENDROOT
BRANCH   3   4
HETATM    4  C3  UNL     1      -4.919  19.346  -7.145  1.00  0.00     0.147 C 
BRANCH   4   5
HETATM    5  N2  UNL     1      -5.351  20.406  -8.011  1.00  0.00    -0.304 N 
HETATM    6  C4  UNL     1      -5.017  21.708  -7.786  1.00  0.00     0.176 A 
HETATM    7  C11 UNL     1      -5.569  22.503  -8.782  1.00  0.00     0.119 A 
HETATM    8  N4  UNL     1      -5.721  23.749  -9.276  1.00  0.00    -0.303 N 
HETATM    9  C13 UNL     1      -6.244  21.612  -9.604  1.00  0.00     0.118 A 
HETATM   10  C12 UNL     1      -6.470  23.664 -10.385  1.00  0.00     0.325 A 
ATOM     11  H4  UNL     1      -5.333  24.603  -8.878  1.00  0.00     0.171 HD
HETATM   12  O3  UNL     1      -6.864  24.577 -11.175  1.00  0.00    -0.247 OA
HETATM   13  N5  UNL     1      -6.793  22.370 -10.593  1.00  0.00    -0.303 N 
ATOM     14  H5  UNL     1      -7.358  22.017 -11.366  1.00  0.00     0.171 HD
HETATM   15  C14 UNL     1      -6.101  20.314  -9.113  1.00  0.00     0.207 A 
BRANCH   6  16
HETATM   16  O1  UNL     1      -4.258  22.195  -6.752  1.00  0.00    -0.332 OA
BRANCH  16  17
HETATM   17  C5  UNL     1      -2.925  22.526  -6.786  1.00  0.00     0.207 C 
BRANCH  17  18
HETATM   18  C6  UNL     1      -2.549  23.898  -7.211  1.00  0.00     0.299 C 
BRANCH  18  19
HETATM   19  N3  UNL     1      -3.425  24.965  -6.814  1.00  0.00     0.094 N 
HETATM   20  C7  UNL     1      -3.069  26.197  -7.516  1.00  0.00     0.298 C 
HETATM   21  C8  UNL     1      -1.686  26.604  -7.112  1.00  0.00     0.198 C 
HETATM   22  O2  UNL     1      -1.745  26.956  -5.760  1.00  0.00    -0.388 OA
HETATM   23  C9  UNL     1      -2.116  25.914  -4.964  1.00  0.00     0.198 C 
HETATM   24  C10 UNL     1      -3.379  25.222  -5.382  1.00  0.00     0.298 C 
ENDBRANCH  18  19
ENDBRANCH  17  18
ENDBRANCH  16  17
ENDBRANCH   6  16
BRANCH  15  25
HETATM   25  N6  UNL     1      -6.679  19.165  -9.712  1.00  0.00    -0.095 N 
HETATM   26  O4  UNL     1      -6.717  19.076 -10.952  1.00  0.00    -0.530 OA
HETATM   27  O5  UNL     1      -7.208  18.123  -9.000  1.00  0.00    -0.530 OA
ENDBRANCH  15  25
ENDBRANCH   4   5
ENDBRANCH   3   4
TORSDOF 7
ENDMDL
