MODEL 1
REMARK VINA RESULT: -8.576719633      0.000      0.000
REMARK  4 active torsions:
REMARK  status: ('A' for Active; 'I' for Inactive)
REMARK    1  A    between atoms: C7_7  and  O1_8 
REMARK    2  A    between atoms: O1_8  and  C8_9 
REMARK    3  A    between atoms: C12_13  and  O2_14 
REMARK    4  A    between atoms: C14_17  and  C15_18 
ROOT
HETATM    1  C15 UNL     1      39.546   1.659  68.459  1.00  0.00     0.069 C 
HETATM    2  C16 UNL     1      39.325   1.042  69.826  1.00  0.00     0.036 C 
HETATM    3  C17 UNL     1      40.413   2.866  68.527  1.00  0.00     0.036 C 
HETATM    4  C18 UNL     1      38.213   2.092  67.945  1.00  0.00     0.073 C 
HETATM    5  N1  UNL     1      37.189   2.419  67.529  1.00  0.00    -0.196 NA
ENDROOT
BRANCH   1   6
HETATM    6  C14 UNL     1      39.996   0.630  67.485  1.00  0.00    -0.033 A 
HETATM    7  C13 UNL     1      41.321   0.477  67.201  1.00  0.00     0.046 A 
HETATM    8  C12 UNL     1      41.819  -0.474  66.258  1.00  0.00     0.078 A 
HETATM    9  C11 UNL     1      40.824  -1.231  65.646  1.00  0.00     0.019 A 
HETATM   10  C5  UNL     1      41.193  -2.245  64.670  1.00  0.00     0.014 A 
HETATM   11  C20 UNL     1      39.502  -1.080  65.930  1.00  0.00    -0.010 A 
HETATM   12  C4  UNL     1      40.176  -3.005  64.090  1.00  0.00     0.082 A 
HETATM   13  C6  UNL     1      42.496  -2.425  64.282  1.00  0.00     0.052 A 
HETATM   14  C3  UNL     1      40.540  -3.944  63.107  1.00  0.00     0.047 A 
HETATM   15  O3  UNL     1      38.856  -2.866  64.444  1.00  0.00    -0.335 OA
HETATM   16  C2  UNL     1      41.853  -4.090  62.747  1.00  0.00    -0.026 A 
HETATM   17  C1  UNL     1      42.154  -5.109  61.693  1.00  0.00     0.051 C 
HETATM   18  C7  UNL     1      42.855  -3.351  63.312  1.00  0.00     0.076 A 
HETATM   19  C21 UNL     1      38.388  -1.862  65.274  1.00  0.00     0.088 C 
HETATM   20  C22 UNL     1      37.565  -2.463  66.399  1.00  0.00     0.051 C 
HETATM   21  C23 UNL     1      37.523  -0.936  64.438  1.00  0.00     0.051 C 
HETATM   22  C19 UNL     1      39.056  -0.153  66.851  1.00  0.00     0.020 A 
BRANCH   8  23
HETATM   23  O2  UNL     1      43.113  -0.494  66.106  1.00  0.00    -0.360 OA
ATOM     24  H2  UNL     1      43.689   0.101  65.641  1.00  0.00     0.217 HD
ENDBRANCH   8  23
BRANCH  18  25
HETATM   25  O1  UNL     1      44.139  -3.496  62.962  1.00  0.00    -0.346 OA
BRANCH  25  26
HETATM   26  C8  UNL     1      45.055  -2.684  62.339  1.00  0.00     0.120 C 
HETATM   27  C9  UNL     1      46.322  -3.419  61.914  1.00  0.00     0.040 C 
HETATM   28  C10 UNL     1      44.439  -2.071  61.096  1.00  0.00     0.040 C 
ENDBRANCH  25  26
ENDBRANCH  18  25
ENDBRANCH   1   6
TORSDOF 4
ENDMDL
MODEL 2
REMARK VINA RESULT: -8.494007466      2.795      7.373
REMARK  4 active torsions:
REMARK  status: ('A' for Active; 'I' for Inactive)
REMARK    1  A    between atoms: C7_7  and  O1_8 
REMARK    2  A    between atoms: O1_8  and  C8_9 
REMARK    3  A    between atoms: C12_13  and  O2_14 
REMARK    4  A    between atoms: C14_17  and  C15_18 
ROOT
HETATM    1  C15 UNL     1      44.219  -2.800  63.818  1.00  0.00     0.069 C 
HETATM    2  C16 UNL     1      44.484  -2.244  62.433  1.00  0.00     0.036 C 
HETATM    3  C17 UNL     1      45.454  -2.839  64.647  1.00  0.00     0.036 C 
HETATM    4  C18 UNL     1      43.745  -4.205  63.652  1.00  0.00     0.073 C 
HETATM    5  N1  UNL     1      43.365  -5.288  63.539  1.00  0.00    -0.196 NA
ENDROOT
BRANCH   1   6
HETATM    6  C14 UNL     1      43.072  -2.101  64.454  1.00  0.00    -0.033 A 
HETATM    7  C13 UNL     1      41.835  -2.134  63.879  1.00  0.00     0.046 A 
HETATM    8  C12 UNL     1      40.696  -1.464  64.423  1.00  0.00     0.078 A 
HETATM    9  C11 UNL     1      40.964  -0.765  65.596  1.00  0.00     0.019 A 
HETATM   10  C5  UNL     1      39.890  -0.044  66.262  1.00  0.00     0.014 A 
HETATM   11  C20 UNL     1      42.197  -0.732  66.172  1.00  0.00    -0.010 A 
HETATM   12  C4  UNL     1      40.182   0.629  67.449  1.00  0.00     0.082 A 
HETATM   13  C6  UNL     1      38.631   0.024  65.722  1.00  0.00     0.052 A 
HETATM   14  C3  UNL     1      39.149   1.367  68.056  1.00  0.00     0.047 A 
HETATM   15  O3  UNL     1      41.426   0.591  68.034  1.00  0.00    -0.335 OA
HETATM   16  C2  UNL     1      37.907   1.412  67.481  1.00  0.00    -0.026 A 
HETATM   17  C1  UNL     1      36.866   2.222  68.188  1.00  0.00     0.051 C 
HETATM   18  C7  UNL     1      37.612   0.754  66.319  1.00  0.00     0.076 A 
HETATM   19  C21 UNL     1      42.538   0.032  67.429  1.00  0.00     0.088 C 
HETATM   20  C22 UNL     1      43.193  -0.963  68.371  1.00  0.00     0.051 C 
HETATM   21  C23 UNL     1      43.506   1.157  67.110  1.00  0.00     0.051 C 
HETATM   22  C19 UNL     1      43.276  -1.396  65.620  1.00  0.00     0.020 A 
BRANCH   8  23
HETATM   23  O2  UNL     1      39.588  -1.599  63.752  1.00  0.00    -0.360 OA
ATOM     24  H2  UNL     1      39.332  -2.246  63.105  1.00  0.00     0.217 HD
ENDBRANCH   8  23
BRANCH  18  25
HETATM   25  O1  UNL     1      36.397   0.795  65.760  1.00  0.00    -0.346 OA
BRANCH  25  26
HETATM   26  C8  UNL     1      35.943   0.977  64.476  1.00  0.00     0.120 C 
HETATM   27  C9  UNL     1      35.367  -0.290  63.854  1.00  0.00     0.040 C 
HETATM   28  C10 UNL     1      34.856   2.034  64.459  1.00  0.00     0.040 C 
ENDBRANCH  25  26
ENDBRANCH  18  25
ENDBRANCH   1   6
TORSDOF 4
ENDMDL
MODEL 3
REMARK VINA RESULT: -8.455112264      0.890      1.080
REMARK  4 active torsions:
REMARK  status: ('A' for Active; 'I' for Inactive)
REMARK    1  A    between atoms: C7_7  and  O1_8 
REMARK    2  A    between atoms: O1_8  and  C8_9 
REMARK    3  A    between atoms: C12_13  and  O2_14 
REMARK    4  A    between atoms: C14_17  and  C15_18 
ROOT
HETATM    1  C15 UNL     1      39.347   1.728  68.243  1.00  0.00     0.069 C 
HETATM    2  C16 UNL     1      39.445   1.351  69.708  1.00  0.00     0.036 C 
HETATM    3  C17 UNL     1      39.848   3.105  67.988  1.00  0.00     0.036 C 
HETATM    4  C18 UNL     1      37.902   1.700  67.872  1.00  0.00     0.073 C 
HETATM    5  N1  UNL     1      36.791   1.669  67.567  1.00  0.00    -0.196 NA
ENDROOT
BRANCH   1   6
HETATM    6  C14 UNL     1      39.964   0.679  67.389  1.00  0.00    -0.033 A 
HETATM    7  C13 UNL     1      41.319   0.541  67.333  1.00  0.00     0.046 A 
HETATM    8  C12 UNL     1      41.978  -0.429  66.514  1.00  0.00     0.078 A 
HETATM    9  C11 UNL     1      41.106  -1.220  65.771  1.00  0.00     0.019 A 
HETATM   10  C5  UNL     1      41.643  -2.255  64.901  1.00  0.00     0.014 A 
HETATM   11  C20 UNL     1      39.754  -1.083  65.828  1.00  0.00    -0.010 A 
HETATM   12  C4  UNL     1      40.746  -3.048  64.186  1.00  0.00     0.082 A 
HETATM   13  C6  UNL     1      42.995  -2.424  64.739  1.00  0.00     0.052 A 
HETATM   14  C3  UNL     1      41.277  -4.010  63.306  1.00  0.00     0.047 A 
HETATM   15  O3  UNL     1      39.383  -2.922  64.314  1.00  0.00    -0.335 OA
HETATM   16  C2  UNL     1      42.634  -4.144  63.172  1.00  0.00    -0.026 A 
HETATM   17  C1  UNL     1      43.117  -5.187  62.214  1.00  0.00     0.051 C 
HETATM   18  C7  UNL     1      43.520  -3.371  63.870  1.00  0.00     0.076 A 
HETATM   19  C21 UNL     1      38.773  -1.902  65.023  1.00  0.00     0.088 C 
HETATM   20  C22 UNL     1      37.782  -2.485  66.016  1.00  0.00     0.051 C 
HETATM   21  C23 UNL     1      38.047  -1.016  64.027  1.00  0.00     0.051 C 
HETATM   22  C19 UNL     1      39.151  -0.137  66.634  1.00  0.00     0.020 A 
BRANCH   8  23
HETATM   23  O2  UNL     1      43.279  -0.431  66.578  1.00  0.00    -0.360 OA
ATOM     24  H2  UNL     1      43.912   0.220  66.298  1.00  0.00     0.217 HD
ENDBRANCH   8  23
BRANCH  18  25
HETATM   25  O1  UNL     1      44.846  -3.504  63.741  1.00  0.00    -0.346 OA
BRANCH  25  26
HETATM   26  C8  UNL     1      45.884  -2.616  63.598  1.00  0.00     0.120 C 
HETATM   27  C9  UNL     1      46.590  -2.298  64.911  1.00  0.00     0.040 C 
HETATM   28  C10 UNL     1      46.918  -3.182  62.644  1.00  0.00     0.040 C 
ENDBRANCH  25  26
ENDBRANCH  18  25
ENDBRANCH   1   6
TORSDOF 4
ENDMDL
MODEL 4
REMARK VINA RESULT: -8.378656123      2.576      7.526
REMARK  4 active torsions:
REMARK  status: ('A' for Active; 'I' for Inactive)
REMARK    1  A    between atoms: C7_7  and  O1_8 
REMARK    2  A    between atoms: O1_8  and  C8_9 
REMARK    3  A    between atoms: C12_13  and  O2_14 
REMARK    4  A    between atoms: C14_17  and  C15_18 
ROOT
HETATM    1  C15 UNL     1      40.244  -5.388  60.655  1.00  0.00     0.069 C 
HETATM    2  C16 UNL     1      41.449  -5.742  59.806  1.00  0.00     0.036 C 
HETATM    3  C17 UNL     1      39.461  -6.592  61.040  1.00  0.00     0.036 C 
HETATM    4  C18 UNL     1      39.355  -4.521  59.826  1.00  0.00     0.073 C 
HETATM    5  N1  UNL     1      38.665  -3.839  59.204  1.00  0.00    -0.196 NA
ENDROOT
BRANCH   1   6
HETATM    6  C14 UNL     1      40.641  -4.520  61.794  1.00  0.00    -0.033 A 
HETATM    7  C13 UNL     1      39.695  -3.949  62.594  1.00  0.00     0.046 A 
HETATM    8  C12 UNL     1      40.007  -3.086  63.689  1.00  0.00     0.078 A 
HETATM    9  C11 UNL     1      41.371  -2.874  63.865  1.00  0.00     0.019 A 
HETATM   10  C5  UNL     1      41.830  -2.022  64.952  1.00  0.00     0.014 A 
HETATM   11  C20 UNL     1      42.316  -3.444  63.070  1.00  0.00    -0.010 A 
HETATM   12  C4  UNL     1      43.204  -1.846  65.119  1.00  0.00     0.082 A 
HETATM   13  C6  UNL     1      40.945  -1.362  65.766  1.00  0.00     0.052 A 
HETATM   14  C3  UNL     1      43.634  -0.977  66.138  1.00  0.00     0.047 A 
HETATM   15  O3  UNL     1      44.132  -2.486  64.333  1.00  0.00    -0.335 OA
HETATM   16  C2  UNL     1      42.717  -0.334  66.927  1.00  0.00    -0.026 A 
HETATM   17  C1  UNL     1      43.258   0.575  67.986  1.00  0.00     0.051 C 
HETATM   18  C7  UNL     1      41.370  -0.503  66.771  1.00  0.00     0.076 A 
HETATM   19  C21 UNL     1      43.804  -3.224  63.209  1.00  0.00     0.088 C 
HETATM   20  C22 UNL     1      44.436  -4.602  63.293  1.00  0.00     0.051 C 
HETATM   21  C23 UNL     1      44.338  -2.483  61.996  1.00  0.00     0.051 C 
HETATM   22  C19 UNL     1      41.979  -4.278  62.021  1.00  0.00     0.020 A 
BRANCH   8  23
HETATM   23  O2  UNL     1      38.986  -2.626  64.354  1.00  0.00    -0.360 OA
ATOM     24  H2  UNL     1      38.950  -2.094  65.141  1.00  0.00     0.217 HD
ENDBRANCH   8  23
BRANCH  18  25
HETATM   25  O1  UNL     1      40.473   0.123  67.544  1.00  0.00    -0.346 OA
BRANCH  25  26
HETATM   26  C8  UNL     1      39.744   1.280  67.415  1.00  0.00     0.120 C 
HETATM   27  C9  UNL     1      38.251   1.034  67.231  1.00  0.00     0.040 C 
HETATM   28  C10 UNL     1      39.921   2.141  68.650  1.00  0.00     0.040 C 
ENDBRANCH  25  26
ENDBRANCH  18  25
ENDBRANCH   1   6
TORSDOF 4
ENDMDL
MODEL 5
REMARK VINA RESULT: -8.139305002      2.945      7.853
REMARK  4 active torsions:
REMARK  status: ('A' for Active; 'I' for Inactive)
REMARK    1  A    between atoms: C7_7  and  O1_8 
REMARK    2  A    between atoms: O1_8  and  C8_9 
REMARK    3  A    between atoms: C12_13  and  O2_14 
REMARK    4  A    between atoms: C14_17  and  C15_18 
ROOT
HETATM    1  C15 UNL     1      40.217  -5.899  59.944  1.00  0.00     0.069 C 
HETATM    2  C16 UNL     1      39.372  -5.190  58.905  1.00  0.00     0.036 C 
HETATM    3  C17 UNL     1      41.440  -6.502  59.349  1.00  0.00     0.036 C 
HETATM    4  C18 UNL     1      39.394  -7.012  60.504  1.00  0.00     0.073 C 
HETATM    5  N1  UNL     1      38.767  -7.866  60.956  1.00  0.00    -0.196 NA
ENDROOT
BRANCH   1   6
HETATM    6  C14 UNL     1      40.471  -5.011  61.109  1.00  0.00    -0.033 A 
HETATM    7  C13 UNL     1      39.433  -4.495  61.827  1.00  0.00     0.046 A 
HETATM    8  C12 UNL     1      39.606  -3.616  62.941  1.00  0.00     0.078 A 
HETATM    9  C11 UNL     1      40.937  -3.328  63.226  1.00  0.00     0.019 A 
HETATM   10  C5  UNL     1      41.258  -2.452  64.343  1.00  0.00     0.014 A 
HETATM   11  C20 UNL     1      41.974  -3.844  62.512  1.00  0.00    -0.010 A 
HETATM   12  C4  UNL     1      42.602  -2.199  64.620  1.00  0.00     0.082 A 
HETATM   13  C6  UNL     1      40.274  -1.843  65.080  1.00  0.00     0.052 A 
HETATM   14  C3  UNL     1      42.898  -1.308  65.668  1.00  0.00     0.047 A 
HETATM   15  O3  UNL     1      43.625  -2.785  63.914  1.00  0.00    -0.335 OA
HETATM   16  C2  UNL     1      41.886  -0.719  66.377  1.00  0.00    -0.026 A 
HETATM   17  C1  UNL     1      42.286   0.218  67.473  1.00  0.00     0.051 C 
HETATM   18  C7  UNL     1      40.567  -0.963  66.113  1.00  0.00     0.076 A 
HETATM   19  C21 UNL     1      43.431  -3.540  62.770  1.00  0.00     0.088 C 
HETATM   20  C22 UNL     1      44.131  -4.880  62.911  1.00  0.00     0.051 C 
HETATM   21  C23 UNL     1      44.019  -2.769  61.602  1.00  0.00     0.051 C 
HETATM   22  C19 UNL     1      41.770  -4.694  61.442  1.00  0.00     0.020 A 
BRANCH   8  23
HETATM   23  O2  UNL     1      38.510  -3.215  63.519  1.00  0.00    -0.360 OA
ATOM     24  H2  UNL     1      38.333  -3.002  64.428  1.00  0.00     0.217 HD
ENDBRANCH   8  23
BRANCH  18  25
HETATM   25  O1  UNL     1      39.577  -0.389  66.808  1.00  0.00    -0.346 OA
BRANCH  25  26
HETATM   26  C8  UNL     1      38.698   0.635  66.550  1.00  0.00     0.120 C 
HETATM   27  C9  UNL     1      37.243   0.182  66.500  1.00  0.00     0.040 C 
HETATM   28  C10 UNL     1      38.814   1.697  67.626  1.00  0.00     0.040 C 
ENDBRANCH  25  26
ENDBRANCH  18  25
ENDBRANCH   1   6
TORSDOF 4
ENDMDL
