MODEL 1
REMARK VINA RESULT: -7.749942704      0.000      0.000
REMARK  6 active torsions:
REMARK  status: ('A' for Active; 'I' for Inactive)
REMARK    1  A    between atoms: C4_7  and  C5_8 
REMARK    2  A    between atoms: C5_8  and  C6_10 
REMARK    3  A    between atoms: C7_11  and  C8_12 
REMARK    4  A    between atoms: C10_14  and  C11_15 
REMARK    5  A    between atoms: C15_19  and  O2_20 
REMARK    6  A    between atoms: C16_22  and  C17_23 
ROOT
HETATM    1  C8  UNL     1      41.615  -0.957  65.789  1.00  0.00    -0.029 A 
HETATM    2  C9  UNL     1      40.460  -1.378  65.181  1.00  0.00     0.022 A 
HETATM    3  C10 UNL     1      39.264  -0.912  65.623  1.00  0.00    -0.016 A 
HETATM    4  C15 UNL     1      39.183  -0.013  66.687  1.00  0.00     0.080 A 
HETATM    5  C16 UNL     1      40.350   0.442  67.339  1.00  0.00    -0.010 A 
HETATM    6  C21 UNL     1      41.542  -0.039  66.868  1.00  0.00    -0.042 A 
HETATM    7  C22 UNL     1      42.812   0.452  67.404  1.00  0.00     0.049 C 
ENDROOT
BRANCH   1   8
HETATM    8  C7  UNL     1      42.916  -1.457  65.381  1.00  0.00     0.016 C 
HETATM    9  C6  UNL     1      43.092  -2.333  64.412  1.00  0.00     0.057 C 
BRANCH   9  10
HETATM   10  C5  UNL     1      44.411  -2.805  64.038  1.00  0.00     0.191 C 
HETATM   11  O1  UNL     1      45.405  -2.464  64.700  1.00  0.00    -0.287 OA
BRANCH  10  12
HETATM   12  C4  UNL     1      44.610  -3.687  62.884  1.00  0.00     0.078 A 
HETATM   13  C2  UNL     1      44.692  -3.334  61.560  1.00  0.00     0.026 A 
HETATM   14  C1  UNL     1      44.576  -1.880  61.118  1.00  0.00     0.070 C 
HETATM   15  N1  UNL     1      44.871  -4.286  60.706  1.00  0.00    -0.362 N 
HETATM   16  C3  UNL     1      44.969  -5.541  61.115  1.00  0.00     0.139 A 
ATOM     17  H1  UNL     1      44.937  -4.070  59.712  1.00  0.00     0.165 HD
HETATM   18  S1  UNL     1      44.799  -5.381  62.806  1.00  0.00    -0.079 SA
ENDBRANCH  10  12
ENDBRANCH   9  10
ENDBRANCH   1   8
BRANCH   3  19
HETATM   19  C11 UNL     1      38.021  -1.382  64.948  1.00  0.00    -0.021 C 
HETATM   20  C12 UNL     1      37.078  -2.046  65.924  1.00  0.00     0.019 C 
HETATM   21  C13 UNL     1      38.365  -2.379  63.879  1.00  0.00     0.019 C 
HETATM   22  C14 UNL     1      37.383  -0.187  64.270  1.00  0.00     0.019 C 
ENDBRANCH   3  19
BRANCH   5  23
HETATM   23  C17 UNL     1      40.141   1.313  68.449  1.00  0.00    -0.021 C 
HETATM   24  C18 UNL     1      39.022   1.173  69.405  1.00  0.00     0.019 C 
HETATM   25  C19 UNL     1      41.380   1.391  69.381  1.00  0.00     0.019 C 
HETATM   26  C20 UNL     1      40.012   2.787  67.944  1.00  0.00     0.019 C 
ENDBRANCH   5  23
BRANCH   4  27
HETATM   27  O2  UNL     1      37.977   0.375  67.036  1.00  0.00    -0.360 OA
ATOM     28  H2  UNL     1      37.674   0.097  67.892  1.00  0.00     0.217 HD
ENDBRANCH   4  27
TORSDOF 6
ENDMDL
MODEL 2
REMARK VINA RESULT: -7.734390327      0.959      1.237
REMARK  6 active torsions:
REMARK  status: ('A' for Active; 'I' for Inactive)
REMARK    1  A    between atoms: C4_7  and  C5_8 
REMARK    2  A    between atoms: C5_8  and  C6_10 
REMARK    3  A    between atoms: C7_11  and  C8_12 
REMARK    4  A    between atoms: C10_14  and  C11_15 
REMARK    5  A    between atoms: C15_19  and  O2_20 
REMARK    6  A    between atoms: C16_22  and  C17_23 
ROOT
HETATM    1  C8  UNL     1      41.409  -0.884  65.826  1.00  0.00    -0.029 A 
HETATM    2  C9  UNL     1      40.219  -1.299  65.287  1.00  0.00     0.022 A 
HETATM    3  C10 UNL     1      39.052  -0.829  65.798  1.00  0.00    -0.016 A 
HETATM    4  C15 UNL     1      39.038   0.071  66.865  1.00  0.00     0.080 A 
HETATM    5  C16 UNL     1      40.242   0.520  67.447  1.00  0.00    -0.010 A 
HETATM    6  C21 UNL     1      41.403   0.034  66.909  1.00  0.00    -0.042 A 
HETATM    7  C22 UNL     1      42.704   0.520  67.369  1.00  0.00     0.049 C 
ENDROOT
BRANCH   1   8
HETATM    8  C7  UNL     1      42.682  -1.390  65.343  1.00  0.00     0.016 C 
HETATM    9  C6  UNL     1      42.819  -2.079  64.229  1.00  0.00     0.057 C 
BRANCH   9  10
HETATM   10  C5  UNL     1      44.111  -2.565  63.785  1.00  0.00     0.191 C 
HETATM   11  O1  UNL     1      45.076  -2.573  64.567  1.00  0.00    -0.287 OA
BRANCH  10  12
HETATM   12  C4  UNL     1      44.316  -3.055  62.419  1.00  0.00     0.078 A 
HETATM   13  C2  UNL     1      44.274  -4.354  61.977  1.00  0.00     0.026 A 
HETATM   14  C1  UNL     1      43.990  -5.508  62.930  1.00  0.00     0.070 C 
HETATM   15  N1  UNL     1      44.487  -4.555  60.718  1.00  0.00    -0.362 N 
HETATM   16  C3  UNL     1      44.731  -3.537  59.910  1.00  0.00     0.139 A 
ATOM     17  H1  UNL     1      44.466  -5.504  60.346  1.00  0.00     0.165 HD
HETATM   18  S1  UNL     1      44.660  -2.207  60.978  1.00  0.00    -0.079 SA
ENDBRANCH  10  12
ENDBRANCH   9  10
ENDBRANCH   1   8
BRANCH   3  19
HETATM   19  C11 UNL     1      37.770  -1.293  65.196  1.00  0.00    -0.021 C 
HETATM   20  C12 UNL     1      36.848  -1.877  66.241  1.00  0.00     0.019 C 
HETATM   21  C13 UNL     1      38.041  -2.353  64.168  1.00  0.00     0.019 C 
HETATM   22  C14 UNL     1      37.141  -0.114  64.482  1.00  0.00     0.019 C 
ENDBRANCH   3  19
BRANCH   5  23
HETATM   23  C17 UNL     1      40.102   1.392  68.568  1.00  0.00    -0.021 C 
HETATM   24  C18 UNL     1      39.000   1.299  69.549  1.00  0.00     0.019 C 
HETATM   25  C19 UNL     1      41.365   1.401  69.472  1.00  0.00     0.019 C 
HETATM   26  C20 UNL     1      40.035   2.874  68.076  1.00  0.00     0.019 C 
ENDBRANCH   5  23
BRANCH   4  27
HETATM   27  O2  UNL     1      37.855   0.464  67.283  1.00  0.00    -0.360 OA
ATOM     28  H2  UNL     1      37.388  -0.136  67.852  1.00  0.00     0.217 HD
ENDBRANCH   4  27
TORSDOF 6
ENDMDL
MODEL 3
REMARK VINA RESULT: -7.535361718      3.821      6.875
REMARK  6 active torsions:
REMARK  status: ('A' for Active; 'I' for Inactive)
REMARK    1  A    between atoms: C4_7  and  C5_8 
REMARK    2  A    between atoms: C5_8  and  C6_10 
REMARK    3  A    between atoms: C7_11  and  C8_12 
REMARK    4  A    between atoms: C10_14  and  C11_15 
REMARK    5  A    between atoms: C15_19  and  O2_20 
REMARK    6  A    between atoms: C16_22  and  C17_23 
ROOT
HETATM    1  C8  UNL     1      36.978  -0.015  64.763  1.00  0.00    -0.029 A 
HETATM    2  C9  UNL     1      36.160   1.048  64.474  1.00  0.00     0.022 A 
HETATM    3  C10 UNL     1      35.444   1.046  63.321  1.00  0.00    -0.016 A 
HETATM    4  C15 UNL     1      35.522  -0.016  62.419  1.00  0.00     0.080 A 
HETATM    5  C16 UNL     1      36.353  -1.126  62.680  1.00  0.00    -0.010 A 
HETATM    6  C21 UNL     1      37.059  -1.101  63.853  1.00  0.00    -0.042 A 
HETATM    7  C22 UNL     1      37.864  -2.250  64.267  1.00  0.00     0.049 C 
ENDROOT
BRANCH   1   8
HETATM    8  C7  UNL     1      37.796  -0.042  65.962  1.00  0.00     0.016 C 
HETATM    9  C6  UNL     1      38.934   0.611  66.086  1.00  0.00     0.057 C 
BRANCH   9  10
HETATM   10  C5  UNL     1      39.719   0.553  67.304  1.00  0.00     0.191 C 
HETATM   11  O1  UNL     1      39.173   0.724  68.406  1.00  0.00    -0.287 OA
BRANCH  10  12
HETATM   12  C4  UNL     1      41.162   0.296  67.272  1.00  0.00     0.078 A 
HETATM   13  C2  UNL     1      41.857  -0.485  66.382  1.00  0.00     0.026 A 
HETATM   14  C1  UNL     1      41.150  -1.222  65.251  1.00  0.00     0.070 C 
HETATM   15  N1  UNL     1      43.136  -0.569  66.546  1.00  0.00    -0.362 N 
HETATM   16  C3  UNL     1      43.727   0.080  67.535  1.00  0.00     0.139 A 
ATOM     17  H1  UNL     1      43.692  -1.138  65.909  1.00  0.00     0.165 HD
HETATM   18  S1  UNL     1      42.410   0.861  68.290  1.00  0.00    -0.079 SA
ENDBRANCH  10  12
ENDBRANCH   9  10
ENDBRANCH   1   8
BRANCH   3  19
HETATM   19  C11 UNL     1      34.561   2.211  63.027  1.00  0.00    -0.021 C 
HETATM   20  C12 UNL     1      33.200   1.766  62.546  1.00  0.00     0.019 C 
HETATM   21  C13 UNL     1      35.179   3.064  61.957  1.00  0.00     0.019 C 
HETATM   22  C14 UNL     1      34.470   3.051  64.285  1.00  0.00     0.019 C 
ENDBRANCH   3  19
BRANCH   5  23
HETATM   23  C17 UNL     1      36.396  -2.123  61.661  1.00  0.00    -0.021 C 
HETATM   24  C18 UNL     1      36.358  -1.820  60.214  1.00  0.00     0.019 C 
HETATM   25  C19 UNL     1      37.639  -3.044  61.785  1.00  0.00     0.019 C 
HETATM   26  C20 UNL     1      35.216  -3.129  61.858  1.00  0.00     0.019 C 
ENDBRANCH   5  23
BRANCH   4  27
HETATM   27  O2  UNL     1      34.787   0.083  61.333  1.00  0.00    -0.360 OA
ATOM     28  H2  UNL     1      34.987   0.807  60.752  1.00  0.00     0.217 HD
ENDBRANCH   4  27
TORSDOF 6
ENDMDL
MODEL 4
REMARK VINA RESULT: -7.515103191      1.389      1.539
REMARK  6 active torsions:
REMARK  status: ('A' for Active; 'I' for Inactive)
REMARK    1  A    between atoms: C4_7  and  C5_8 
REMARK    2  A    between atoms: C5_8  and  C6_10 
REMARK    3  A    between atoms: C7_11  and  C8_12 
REMARK    4  A    between atoms: C10_14  and  C11_15 
REMARK    5  A    between atoms: C15_19  and  O2_20 
REMARK    6  A    between atoms: C16_22  and  C17_23 
ROOT
HETATM    1  C8  UNL     1      41.398  -1.478  65.348  1.00  0.00    -0.029 A 
HETATM    2  C9  UNL     1      40.100  -1.664  64.946  1.00  0.00     0.022 A 
HETATM    3  C10 UNL     1      39.106  -0.965  65.552  1.00  0.00    -0.016 A 
HETATM    4  C15 UNL     1      39.377  -0.059  66.578  1.00  0.00     0.080 A 
HETATM    5  C16 UNL     1      40.700   0.158  67.020  1.00  0.00    -0.010 A 
HETATM    6  C21 UNL     1      41.682  -0.556  66.388  1.00  0.00    -0.042 A 
HETATM    7  C22 UNL     1      43.093  -0.323  66.697  1.00  0.00     0.049 C 
ENDROOT
BRANCH   1   8
HETATM    8  C7  UNL     1      42.492  -2.232  64.761  1.00  0.00     0.016 C 
HETATM    9  C6  UNL     1      42.332  -3.365  64.107  1.00  0.00     0.057 C 
BRANCH   9  10
HETATM   10  C5  UNL     1      43.455  -4.084  63.538  1.00  0.00     0.191 C 
HETATM   11  O1  UNL     1      43.407  -5.319  63.416  1.00  0.00    -0.287 OA
BRANCH  10  12
HETATM   12  C4  UNL     1      44.666  -3.385  63.096  1.00  0.00     0.078 A 
HETATM   13  C2  UNL     1      44.890  -2.777  61.886  1.00  0.00     0.026 A 
HETATM   14  C1  UNL     1      43.827  -2.763  60.795  1.00  0.00     0.070 C 
HETATM   15  N1  UNL     1      46.042  -2.217  61.713  1.00  0.00    -0.362 N 
HETATM   16  C3  UNL     1      46.949  -2.241  62.675  1.00  0.00     0.139 A 
ATOM     17  H1  UNL     1      46.253  -1.754  60.829  1.00  0.00     0.165 HD
HETATM   18  S1  UNL     1      46.141  -3.105  63.907  1.00  0.00    -0.079 SA
ENDBRANCH  10  12
ENDBRANCH   9  10
ENDBRANCH   1   8
BRANCH   3  19
HETATM   19  C11 UNL     1      37.703  -1.183  65.100  1.00  0.00    -0.021 C 
HETATM   20  C12 UNL     1      36.825  -1.665  66.231  1.00  0.00     0.019 C 
HETATM   21  C13 UNL     1      37.670  -2.215  64.011  1.00  0.00     0.019 C 
HETATM   22  C14 UNL     1      37.200   0.119  64.509  1.00  0.00     0.019 C 
ENDBRANCH   3  19
BRANCH   5  23
HETATM   23  C17 UNL     1      40.848   1.063  68.113  1.00  0.00    -0.021 C 
HETATM   24  C18 UNL     1      39.972   1.064  69.303  1.00  0.00     0.019 C 
HETATM   25  C19 UNL     1      42.270   1.011  68.735  1.00  0.00     0.019 C 
HETATM   26  C20 UNL     1      40.767   2.534  67.593  1.00  0.00     0.019 C 
ENDBRANCH   5  23
BRANCH   4  27
HETATM   27  O2  UNL     1      38.342   0.565  67.096  1.00  0.00    -0.360 OA
ATOM     28  H2  UNL     1      37.497   0.148  66.982  1.00  0.00     0.217 HD
ENDBRANCH   4  27
TORSDOF 6
ENDMDL
MODEL 5
REMARK VINA RESULT: -7.504762766      1.456      1.705
REMARK  6 active torsions:
REMARK  status: ('A' for Active; 'I' for Inactive)
REMARK    1  A    between atoms: C4_7  and  C5_8 
REMARK    2  A    between atoms: C5_8  and  C6_10 
REMARK    3  A    between atoms: C7_11  and  C8_12 
REMARK    4  A    between atoms: C10_14  and  C11_15 
REMARK    5  A    between atoms: C15_19  and  O2_20 
REMARK    6  A    between atoms: C16_22  and  C17_23 
ROOT
HETATM    1  C8  UNL     1      41.275  -1.432  65.337  1.00  0.00    -0.029 A 
HETATM    2  C9  UNL     1      39.963  -1.665  65.014  1.00  0.00     0.022 A 
HETATM    3  C10 UNL     1      38.982  -1.009  65.685  1.00  0.00    -0.016 A 
HETATM    4  C15 UNL     1      39.281  -0.100  66.702  1.00  0.00     0.080 A 
HETATM    5  C16 UNL     1      40.619   0.165  67.063  1.00  0.00    -0.010 A 
HETATM    6  C21 UNL     1      41.588  -0.506  66.366  1.00  0.00    -0.042 A 
HETATM    7  C22 UNL     1      43.005  -0.222  66.591  1.00  0.00     0.049 C 
ENDROOT
BRANCH   1   8
HETATM    8  C7  UNL     1      42.359  -2.138  64.678  1.00  0.00     0.016 C 
HETATM    9  C6  UNL     1      42.200  -3.263  64.010  1.00  0.00     0.057 C 
BRANCH   9  10
HETATM   10  C5  UNL     1      43.312  -3.934  63.367  1.00  0.00     0.191 C 
HETATM   11  O1  UNL     1      43.495  -5.150  63.546  1.00  0.00    -0.287 OA
BRANCH  10  12
HETATM   12  C4  UNL     1      44.245  -3.209  62.498  1.00  0.00     0.078 A 
HETATM   13  C2  UNL     1      45.528  -2.815  62.785  1.00  0.00     0.026 A 
HETATM   14  C1  UNL     1      46.165  -3.111  64.137  1.00  0.00     0.070 C 
HETATM   15  N1  UNL     1      46.171  -2.183  61.860  1.00  0.00    -0.362 N 
HETATM   16  C3  UNL     1      45.596  -1.939  60.694  1.00  0.00     0.139 A 
ATOM     17  H1  UNL     1      47.126  -1.870  62.030  1.00  0.00     0.165 HD
HETATM   18  S1  UNL     1      44.053  -2.638  60.901  1.00  0.00    -0.079 SA
ENDBRANCH  10  12
ENDBRANCH   9  10
ENDBRANCH   1   8
BRANCH   3  19
HETATM   19  C11 UNL     1      37.563  -1.277  65.318  1.00  0.00    -0.021 C 
HETATM   20  C12 UNL     1      36.788  -1.850  66.481  1.00  0.00     0.019 C 
HETATM   21  C13 UNL     1      37.505  -2.263  64.187  1.00  0.00     0.019 C 
HETATM   22  C14 UNL     1      36.961   0.022  64.822  1.00  0.00     0.019 C 
ENDBRANCH   3  19
BRANCH   5  23
HETATM   23  C17 UNL     1      40.800   1.067  68.154  1.00  0.00    -0.021 C 
HETATM   24  C18 UNL     1      39.952   1.072  69.365  1.00  0.00     0.019 C 
HETATM   25  C19 UNL     1      42.235   1.004  68.742  1.00  0.00     0.019 C 
HETATM   26  C20 UNL     1      40.716   2.540  67.638  1.00  0.00     0.019 C 
ENDBRANCH   5  23
BRANCH   4  27
HETATM   27  O2  UNL     1      38.257   0.480  67.287  1.00  0.00    -0.360 OA
ATOM     28  H2  UNL     1      37.833  -0.011  67.981  1.00  0.00     0.217 HD
ENDBRANCH   4  27
TORSDOF 6
ENDMDL
