MODEL 1
REMARK VINA RESULT: -6.819034202      0.000      0.000
REMARK  4 active torsions:
REMARK  status: ('A' for Active; 'I' for Inactive)
REMARK    1  A    between atoms: C4_4  and  O1_5 
REMARK    2  A    between atoms: C5_7  and  C7_9 
REMARK    3  A    between atoms: C7_9  and  C8_10 
REMARK    4  A    between atoms: C8_10  and  C9_11 
ROOT
HETATM    1  C1  UNL     1      39.363  -2.708  59.226  1.00  0.00     0.043 C 
HETATM    2  C2  UNL     1      38.500  -2.676  60.515  1.00  0.00    -0.085 C 
HETATM    3  C3  UNL     1      39.008  -3.212  61.599  1.00  0.00     0.007 C 
HETATM    4  C4  UNL     1      38.579  -3.401  62.955  1.00  0.00     0.149 C 
HETATM    5  C5  UNL     1      38.993  -2.459  64.034  1.00  0.00    -0.008 C 
HETATM    6  C6  UNL     1      39.161  -3.444  65.251  1.00  0.00     0.018 C 
HETATM    7  C12 UNL     1      37.834  -1.644  64.565  1.00  0.00     0.039 C 
HETATM    8  C13 UNL     1      37.412  -0.446  63.843  1.00  0.00     0.138 C 
HETATM    9  C14 UNL     1      35.927  -0.231  63.684  1.00  0.00     0.037 C 
HETATM   10  C15 UNL     1      35.124  -1.325  63.120  1.00  0.00     0.036 C 
HETATM   11  C16 UNL     1      34.532  -1.064  61.776  1.00  0.00    -0.087 C 
HETATM   12  C17 UNL     1      33.440  -0.021  61.718  1.00  0.00     0.043 C 
HETATM   13  C18 UNL     1      34.883  -1.662  60.660  1.00  0.00    -0.024 C 
HETATM   14  C19 UNL     1      35.963  -2.724  60.578  1.00  0.00     0.031 C 
HETATM   15  C20 UNL     1      37.220  -1.996  60.294  1.00  0.00     0.037 C 
HETATM   16  O2  UNL     1      37.771   0.626  64.759  1.00  0.00    -0.315 OA
HETATM   17  C21 UNL     1      37.391   0.151  66.004  1.00  0.00     0.263 C 
HETATM   18  O3  UNL     1      36.732   0.722  66.923  1.00  0.00    -0.265 OA
HETATM   19  C22 UNL     1      37.965  -1.247  66.006  1.00  0.00     0.089 C 
HETATM   20  C23 UNL     1      37.103  -2.064  66.940  1.00  0.00     0.021 C 
ENDROOT
BRANCH   5  21
HETATM   21  C7  UNL     1      40.300  -1.832  63.991  1.00  0.00     0.013 C 
BRANCH  21  22
HETATM   22  C8  UNL     1      41.510  -2.351  64.604  1.00  0.00     0.005 C 
BRANCH  22  23
HETATM   23  C9  UNL     1      42.273  -1.127  65.175  1.00  0.00    -0.023 C 
HETATM   24  C10 UNL     1      43.472  -1.619  65.918  1.00  0.00     0.009 C 
HETATM   25  C11 UNL     1      41.408  -0.304  66.059  1.00  0.00     0.009 C 
ENDBRANCH  22  23
ENDBRANCH  21  22
ENDBRANCH   5  21
BRANCH   4  26
HETATM   26  O1  UNL     1      38.955  -4.763  63.273  1.00  0.00    -0.391 OA
ATOM     27  H1  UNL     1      38.836  -4.833  64.213  1.00  0.00     0.210 HD
ENDBRANCH   4  26
TORSDOF 4
ENDMDL
MODEL 2
REMARK VINA RESULT: -6.690116774      2.346      7.004
REMARK  4 active torsions:
REMARK  status: ('A' for Active; 'I' for Inactive)
REMARK    1  A    between atoms: C4_4  and  O1_5 
REMARK    2  A    between atoms: C5_7  and  C7_9 
REMARK    3  A    between atoms: C7_9  and  C8_10 
REMARK    4  A    between atoms: C8_10  and  C9_11 
ROOT
HETATM    1  C1  UNL     1      36.312   2.904  67.239  1.00  0.00     0.043 C 
HETATM    2  C2  UNL     1      37.313   1.719  67.309  1.00  0.00    -0.085 C 
HETATM    3  C3  UNL     1      36.935   0.574  66.793  1.00  0.00     0.007 C 
HETATM    4  C4  UNL     1      37.512  -0.731  66.646  1.00  0.00     0.149 C 
HETATM    5  C5  UNL     1      38.175  -1.143  65.376  1.00  0.00    -0.008 C 
HETATM    6  C6  UNL     1      37.772  -2.663  65.301  1.00  0.00     0.018 C 
HETATM    7  C12 UNL     1      39.670  -1.315  65.535  1.00  0.00     0.039 C 
HETATM    8  C13 UNL     1      40.536  -0.141  65.469  1.00  0.00     0.138 C 
HETATM    9  C14 UNL     1      41.650  -0.055  66.483  1.00  0.00     0.037 C 
HETATM   10  C15 UNL     1      41.308  -0.204  67.905  1.00  0.00     0.036 C 
HETATM   11  C16 UNL     1      41.483   1.018  68.741  1.00  0.00    -0.087 C 
HETATM   12  C17 UNL     1      42.906   1.474  68.969  1.00  0.00     0.043 C 
HETATM   13  C18 UNL     1      40.511   1.716  69.284  1.00  0.00    -0.024 C 
HETATM   14  C19 UNL     1      39.042   1.371  69.134  1.00  0.00     0.031 C 
HETATM   15  C20 UNL     1      38.576   2.113  67.941  1.00  0.00     0.037 C 
HETATM   16  O2  UNL     1      41.274  -0.354  64.234  1.00  0.00    -0.315 OA
HETATM   17  C21 UNL     1      41.594  -1.702  64.257  1.00  0.00     0.263 C 
HETATM   18  O3  UNL     1      42.701  -2.276  64.031  1.00  0.00    -0.265 OA
HETATM   19  C22 UNL     1      40.274  -2.341  64.623  1.00  0.00     0.089 C 
HETATM   20  C23 UNL     1      40.605  -3.645  65.311  1.00  0.00     0.021 C 
ENDROOT
BRANCH   5  21
HETATM   21  C7  UNL     1      37.680  -0.653  64.104  1.00  0.00     0.013 C 
BRANCH  21  22
HETATM   22  C8  UNL     1      36.616  -1.254  63.319  1.00  0.00     0.005 C 
BRANCH  22  23
HETATM   23  C9  UNL     1      35.374  -0.339  63.487  1.00  0.00    -0.023 C 
HETATM   24  C10 UNL     1      34.370  -0.706  62.444  1.00  0.00     0.009 C 
HETATM   25  C11 UNL     1      35.735   1.098  63.388  1.00  0.00     0.009 C 
ENDBRANCH  22  23
ENDBRANCH  21  22
ENDBRANCH   5  21
BRANCH   4  26
HETATM   26  O1  UNL     1      36.446  -1.645  67.004  1.00  0.00    -0.391 OA
ATOM     27  H1  UNL     1      36.572  -1.809  67.931  1.00  0.00     0.210 HD
ENDBRANCH   4  26
TORSDOF 4
ENDMDL
MODEL 3
REMARK VINA RESULT: -6.397418656      2.176      6.191
REMARK  4 active torsions:
REMARK  status: ('A' for Active; 'I' for Inactive)
REMARK    1  A    between atoms: C4_4  and  O1_5 
REMARK    2  A    between atoms: C5_7  and  C7_9 
REMARK    3  A    between atoms: C7_9  and  C8_10 
REMARK    4  A    between atoms: C8_10  and  C9_11 
ROOT
HETATM    1  C1  UNL     1      40.866   0.028  65.719  1.00  0.00     0.043 C 
HETATM    2  C2  UNL     1      39.914  -0.986  65.029  1.00  0.00    -0.085 C 
HETATM    3  C3  UNL     1      38.623  -0.799  65.170  1.00  0.00     0.007 C 
HETATM    4  C4  UNL     1      37.431  -1.463  64.728  1.00  0.00     0.149 C 
HETATM    5  C5  UNL     1      36.688  -0.994  63.524  1.00  0.00    -0.008 C 
HETATM    6  C6  UNL     1      35.199  -1.266  63.959  1.00  0.00     0.018 C 
HETATM    7  C12 UNL     1      36.768  -1.977  62.377  1.00  0.00     0.039 C 
HETATM    8  C13 UNL     1      37.944  -1.969  61.509  1.00  0.00     0.138 C 
HETATM    9  C14 UNL     1      38.515  -3.310  61.120  1.00  0.00     0.037 C 
HETATM   10  C15 UNL     1      38.830  -4.268  62.189  1.00  0.00     0.036 C 
HETATM   11  C16 UNL     1      40.279  -4.564  62.384  1.00  0.00    -0.087 C 
HETATM   12  C17 UNL     1      40.958  -5.336  61.277  1.00  0.00     0.043 C 
HETATM   13  C18 UNL     1      40.996  -4.209  63.426  1.00  0.00    -0.024 C 
HETATM   14  C19 UNL     1      40.441  -3.432  64.604  1.00  0.00     0.031 C 
HETATM   15  C20 UNL     1      40.656  -2.004  64.280  1.00  0.00     0.037 C 
HETATM   16  O2  UNL     1      37.407  -1.495  60.243  1.00  0.00    -0.315 OA
HETATM   17  C21 UNL     1      36.203  -2.167  60.111  1.00  0.00     0.263 C 
HETATM   18  O3  UNL     1      35.728  -2.793  59.117  1.00  0.00    -0.265 OA
HETATM   19  C22 UNL     1      35.572  -1.971  61.471  1.00  0.00     0.089 C 
HETATM   20  C23 UNL     1      34.643  -3.142  61.687  1.00  0.00     0.021 C 
ENDROOT
BRANCH   5  21
HETATM   21  C7  UNL     1      36.638   0.420  63.204  1.00  0.00     0.013 C 
BRANCH  21  22
HETATM   22  C8  UNL     1      35.502   1.299  63.419  1.00  0.00     0.005 C 
BRANCH  22  23
HETATM   23  C9  UNL     1      35.026   1.754  62.014  1.00  0.00    -0.023 C 
HETATM   24  C10 UNL     1      35.240   3.228  61.895  1.00  0.00     0.009 C 
HETATM   25  C11 UNL     1      33.601   1.408  61.780  1.00  0.00     0.009 C 
ENDBRANCH  22  23
ENDBRANCH  21  22
ENDBRANCH   5  21
BRANCH   4  26
HETATM   26  O1  UNL     1      36.574  -1.494  65.896  1.00  0.00    -0.391 OA
ATOM     27  H1  UNL     1      36.267  -2.392  65.945  1.00  0.00     0.210 HD
ENDBRANCH   4  26
TORSDOF 4
ENDMDL
MODEL 4
REMARK VINA RESULT: -6.361402829      0.984      1.039
REMARK  4 active torsions:
REMARK  status: ('A' for Active; 'I' for Inactive)
REMARK    1  A    between atoms: C4_4  and  O1_5 
REMARK    2  A    between atoms: C5_7  and  C7_9 
REMARK    3  A    between atoms: C7_9  and  C8_10 
REMARK    4  A    between atoms: C8_10  and  C9_11 
ROOT
HETATM    1  C1  UNL     1      38.736  -2.972  58.869  1.00  0.00     0.043 C 
HETATM    2  C2  UNL     1      38.167  -2.817  60.305  1.00  0.00    -0.085 C 
HETATM    3  C3  UNL     1      38.767  -3.473  61.269  1.00  0.00     0.007 C 
HETATM    4  C4  UNL     1      38.586  -3.618  62.685  1.00  0.00     0.149 C 
HETATM    5  C5  UNL     1      39.379  -2.807  63.652  1.00  0.00    -0.008 C 
HETATM    6  C6  UNL     1      39.591  -3.844  64.818  1.00  0.00     0.018 C 
HETATM    7  C12 UNL     1      38.529  -1.802  64.398  1.00  0.00     0.039 C 
HETATM    8  C13 UNL     1      38.213  -0.524  63.765  1.00  0.00     0.138 C 
HETATM    9  C14 UNL     1      36.796  -0.024  63.905  1.00  0.00     0.037 C 
HETATM   10  C15 UNL     1      35.700  -0.926  63.522  1.00  0.00     0.036 C 
HETATM   11  C16 UNL     1      34.917  -0.515  62.322  1.00  0.00    -0.087 C 
HETATM   12  C17 UNL     1      34.058   0.719  62.474  1.00  0.00     0.043 C 
HETATM   13  C18 UNL     1      34.918  -1.134  61.162  1.00  0.00    -0.024 C 
HETATM   14  C19 UNL     1      35.733  -2.379  60.874  1.00  0.00     0.031 C 
HETATM   15  C20 UNL     1      37.026  -1.897  60.339  1.00  0.00     0.037 C 
HETATM   16  O2  UNL     1      38.946   0.430  64.582  1.00  0.00    -0.315 OA
HETATM   17  C21 UNL     1      38.735  -0.002  65.882  1.00  0.00     0.263 C 
HETATM   18  O3  UNL     1      38.394   0.656  66.910  1.00  0.00    -0.265 OA
HETATM   19  C22 UNL     1      39.017  -1.483  65.780  1.00  0.00     0.089 C 
HETATM   20  C23 UNL     1      38.215  -2.149  66.874  1.00  0.00     0.021 C 
ENDROOT
BRANCH   5  21
HETATM   21  C7  UNL     1      40.749  -2.441  63.343  1.00  0.00     0.013 C 
BRANCH  21  22
HETATM   22  C8  UNL     1      41.938  -3.101  63.852  1.00  0.00     0.005 C 
BRANCH  22  23
HETATM   23  C9  UNL     1      42.925  -1.975  64.261  1.00  0.00    -0.023 C 
HETATM   24  C10 UNL     1      44.311  -2.532  64.250  1.00  0.00     0.009 C 
HETATM   25  C11 UNL     1      42.593  -1.414  65.595  1.00  0.00     0.009 C 
ENDBRANCH  22  23
ENDBRANCH  21  22
ENDBRANCH   5  21
BRANCH   4  26
HETATM   26  O1  UNL     1      38.746  -5.037  62.932  1.00  0.00    -0.391 OA
ATOM     27  H1  UNL     1      39.254  -5.085  63.733  1.00  0.00     0.210 HD
ENDBRANCH   4  26
TORSDOF 4
ENDMDL
MODEL 5
REMARK VINA RESULT: -6.321545955      2.266      3.687
REMARK  4 active torsions:
REMARK  status: ('A' for Active; 'I' for Inactive)
REMARK    1  A    between atoms: C4_4  and  O1_5 
REMARK    2  A    between atoms: C5_7  and  C7_9 
REMARK    3  A    between atoms: C7_9  and  C8_10 
REMARK    4  A    between atoms: C8_10  and  C9_11 
ROOT
HETATM    1  C1  UNL     1      38.009  -3.822  62.327  1.00  0.00     0.043 C 
HETATM    2  C2  UNL     1      36.888  -2.815  62.701  1.00  0.00    -0.085 C 
HETATM    3  C3  UNL     1      37.032  -2.132  63.811  1.00  0.00     0.007 C 
HETATM    4  C4  UNL     1      36.273  -1.139  64.516  1.00  0.00     0.149 C 
HETATM    5  C5  UNL     1      36.581   0.312  64.373  1.00  0.00    -0.008 C 
HETATM    6  C6  UNL     1      36.290   0.831  65.831  1.00  0.00     0.018 C 
HETATM    7  C12 UNL     1      35.489   1.066  63.646  1.00  0.00     0.039 C 
HETATM    8  C13 UNL     1      35.458   1.048  62.185  1.00  0.00     0.138 C 
HETATM    9  C14 UNL     1      34.110   0.866  61.532  1.00  0.00     0.037 C 
HETATM   10  C15 UNL     1      33.284  -0.275  61.949  1.00  0.00     0.036 C 
HETATM   11  C16 UNL     1      33.074  -1.331  60.917  1.00  0.00    -0.087 C 
HETATM   12  C17 UNL     1      32.222  -0.946  59.730  1.00  0.00     0.043 C 
HETATM   13  C18 UNL     1      33.567  -2.548  60.961  1.00  0.00    -0.024 C 
HETATM   14  C19 UNL     1      34.437  -3.063  62.092  1.00  0.00     0.031 C 
HETATM   15  C20 UNL     1      35.831  -2.779  61.685  1.00  0.00     0.037 C 
HETATM   16  O2  UNL     1      35.773   2.425  61.839  1.00  0.00    -0.315 OA
HETATM   17  C21 UNL     1      35.039   3.179  62.741  1.00  0.00     0.263 C 
HETATM   18  O3  UNL     1      34.292   4.183  62.540  1.00  0.00    -0.265 OA
HETATM   19  C22 UNL     1      35.348   2.501  64.056  1.00  0.00     0.089 C 
HETATM   20  C23 UNL     1      34.166   2.760  64.961  1.00  0.00     0.021 C 
ENDROOT
BRANCH   5  21
HETATM   21  C7  UNL     1      37.950   0.751  64.181  1.00  0.00     0.013 C 
BRANCH  21  22
HETATM   22  C8  UNL     1      39.139  -0.045  64.430  1.00  0.00     0.005 C 
BRANCH  22  23
HETATM   23  C9  UNL     1      39.606   0.299  65.869  1.00  0.00    -0.023 C 
HETATM   24  C10 UNL     1      41.077   0.561  65.841  1.00  0.00     0.009 C 
HETATM   25  C11 UNL     1      39.283  -0.790  66.825  1.00  0.00     0.009 C 
ENDBRANCH  22  23
ENDBRANCH  21  22
ENDBRANCH   5  21
BRANCH   4  26
HETATM   26  O1  UNL     1      36.326  -1.554  65.903  1.00  0.00    -0.391 OA
ATOM     27  H1  UNL     1      36.866  -0.898  66.330  1.00  0.00     0.210 HD
ENDBRANCH   4  26
TORSDOF 4
ENDMDL
