MODEL 1
REMARK VINA RESULT: -6.420650746      0.000      0.000
REMARK  4 active torsions:
REMARK  status: ('A' for Active; 'I' for Inactive)
REMARK    1  A    between atoms: O1_2  and  C2_3 
REMARK    2  A    between atoms: C2_3  and  C3_4 
REMARK    3  A    between atoms: C7_9  and  O3_11 
REMARK    4  A    between atoms: O3_11  and  O4_12 
ROOT
HETATM    1  C3  UNL     1      36.034  -0.169  62.444  1.00  0.00    -0.056 C 
HETATM    2  C4  UNL     1      35.766   1.298  62.572  1.00  0.00     0.046 C 
HETATM    3  C5  UNL     1      36.860  -0.824  63.241  1.00  0.00    -0.047 C 
HETATM    4  C6  UNL     1      37.093  -2.267  63.044  1.00  0.00     0.206 C 
HETATM    5  O2  UNL     1      37.818  -2.433  61.860  1.00  0.00    -0.348 OA
HETATM    6  C7  UNL     1      38.788  -3.421  61.964  1.00  0.00     0.197 C 
HETATM    7  C8  UNL     1      38.904  -4.060  60.578  1.00  0.00     0.082 C 
HETATM    8  C9  UNL     1      40.081  -2.740  62.345  1.00  0.00     0.104 C 
HETATM    9  C10 UNL     1      41.100  -3.730  62.849  1.00  0.00    -0.082 C 
HETATM   10  C11 UNL     1      41.765  -4.622  61.860  1.00  0.00     0.043 C 
HETATM   11  C12 UNL     1      41.421  -3.840  64.108  1.00  0.00    -0.020 C 
HETATM   12  C13 UNL     1      40.851  -3.029  65.212  1.00  0.00     0.060 C 
HETATM   13  C14 UNL     1      41.453  -1.697  65.344  1.00  0.00    -0.084 C 
HETATM   14  C15 UNL     1      42.718  -1.324  64.627  1.00  0.00     0.043 C 
HETATM   15  C16 UNL     1      40.875  -0.802  66.109  1.00  0.00    -0.024 C 
HETATM   16  C17 UNL     1      39.614  -1.044  66.878  1.00  0.00     0.028 C 
HETATM   17  C18 UNL     1      38.629  -0.001  66.498  1.00  0.00     0.013 C 
HETATM   18  C19 UNL     1      37.468  -0.514  65.669  1.00  0.00    -0.036 A 
HETATM   19  C20 UNL     1      36.746  -1.737  66.138  1.00  0.00     0.016 C 
HETATM   20  C21 UNL     1      36.520   0.629  65.264  1.00  0.00     0.019 A 
HETATM   21  C22 UNL     1      37.507  -0.019  64.308  1.00  0.00     0.026 A 
ENDROOT
BRANCH   1  22
HETATM   22  C2  UNL     1      35.340  -0.902  61.353  1.00  0.00     0.201 C 
BRANCH  22  23
HETATM   23  O1  UNL     1      33.941  -0.775  61.467  1.00  0.00    -0.392 OA
HETATM   24  C1  UNL     1      33.492  -1.980  62.002  1.00  0.00     0.201 C 
ENDBRANCH  22  23
ENDBRANCH   1  22
BRANCH   6  25
HETATM   25  O3  UNL     1      38.498  -4.396  62.882  1.00  0.00    -0.203 OA
BRANCH  25  26
HETATM   26  O4  UNL     1      38.283  -5.569  62.377  1.00  0.00    -0.247 OA
ATOM     27  H4  UNL     1      37.373  -5.842  62.381  1.00  0.00     0.253 HD
ENDBRANCH  25  26
ENDBRANCH   6  25
TORSDOF 4
ENDMDL
MODEL 2
REMARK VINA RESULT: -6.071334421      2.571      6.660
REMARK  4 active torsions:
REMARK  status: ('A' for Active; 'I' for Inactive)
REMARK    1  A    between atoms: O1_2  and  C2_3 
REMARK    2  A    between atoms: C2_3  and  C3_4 
REMARK    3  A    between atoms: C7_9  and  O3_11 
REMARK    4  A    between atoms: O3_11  and  O4_12 
ROOT
HETATM    1  C3  UNL     1      36.893   0.804  65.133  1.00  0.00    -0.056 C 
HETATM    2  C4  UNL     1      36.559   1.322  66.496  1.00  0.00     0.046 C 
HETATM    3  C5  UNL     1      36.073   0.904  64.102  1.00  0.00    -0.047 C 
HETATM    4  C6  UNL     1      36.459   0.352  62.790  1.00  0.00     0.206 C 
HETATM    5  O2  UNL     1      36.455  -1.044  62.886  1.00  0.00    -0.348 OA
HETATM    6  C7  UNL     1      35.942  -1.654  61.750  1.00  0.00     0.197 C 
HETATM    7  C8  UNL     1      36.691  -2.981  61.597  1.00  0.00     0.082 C 
HETATM    8  C9  UNL     1      34.472  -1.899  61.997  1.00  0.00     0.104 C 
HETATM    9  C10 UNL     1      33.740  -2.205  60.716  1.00  0.00    -0.082 C 
HETATM   10  C11 UNL     1      33.942  -3.542  60.090  1.00  0.00     0.043 C 
HETATM   11  C12 UNL     1      32.941  -1.354  60.133  1.00  0.00    -0.020 C 
HETATM   12  C13 UNL     1      32.637   0.010  60.627  1.00  0.00     0.060 C 
HETATM   13  C14 UNL     1      31.628   0.046  61.694  1.00  0.00    -0.084 C 
HETATM   14  C15 UNL     1      30.784  -1.150  62.027  1.00  0.00     0.043 C 
HETATM   15  C16 UNL     1      31.456   1.151  62.380  1.00  0.00    -0.024 C 
HETATM   16  C17 UNL     1      32.229   2.411  62.151  1.00  0.00     0.028 C 
HETATM   17  C18 UNL     1      32.859   2.811  63.432  1.00  0.00     0.013 C 
HETATM   18  C19 UNL     1      34.366   2.647  63.463  1.00  0.00    -0.036 A 
HETATM   19  C20 UNL     1      35.163   3.192  62.321  1.00  0.00     0.016 C 
HETATM   20  C21 UNL     1      34.944   3.026  64.838  1.00  0.00     0.019 A 
HETATM   21  C22 UNL     1      34.783   1.591  64.363  1.00  0.00     0.026 A 
ENDROOT
BRANCH   1  22
HETATM   22  C2  UNL     1      38.208   0.134  64.956  1.00  0.00     0.201 C 
BRANCH  22  23
HETATM   23  O1  UNL     1      38.325  -0.986  65.803  1.00  0.00    -0.392 OA
HETATM   24  C1  UNL     1      39.105  -1.909  65.110  1.00  0.00     0.201 C 
ENDBRANCH  22  23
ENDBRANCH   1  22
BRANCH   6  25
HETATM   25  O3  UNL     1      36.095  -0.920  60.602  1.00  0.00    -0.203 OA
BRANCH  25  26
HETATM   26  O4  UNL     1      36.775  -1.508  59.671  1.00  0.00    -0.247 OA
ATOM     27  H4  UNL     1      36.413  -1.417  58.797  1.00  0.00     0.253 HD
ENDBRANCH  25  26
ENDBRANCH   6  25
TORSDOF 4
ENDMDL
MODEL 3
REMARK VINA RESULT: -6.059800480      1.230      1.647
REMARK  4 active torsions:
REMARK  status: ('A' for Active; 'I' for Inactive)
REMARK    1  A    between atoms: O1_2  and  C2_3 
REMARK    2  A    between atoms: C2_3  and  C3_4 
REMARK    3  A    between atoms: C7_9  and  O3_11 
REMARK    4  A    between atoms: O3_11  and  O4_12 
ROOT
HETATM    1  C3  UNL     1      36.915  -0.527  63.061  1.00  0.00    -0.056 C 
HETATM    2  C4  UNL     1      36.798   0.950  63.272  1.00  0.00     0.046 C 
HETATM    3  C5  UNL     1      37.916  -1.246  63.537  1.00  0.00    -0.047 C 
HETATM    4  C6  UNL     1      37.980  -2.695  63.273  1.00  0.00     0.206 C 
HETATM    5  O2  UNL     1      38.258  -2.879  61.915  1.00  0.00    -0.348 OA
HETATM    6  C7  UNL     1      39.144  -3.924  61.690  1.00  0.00     0.197 C 
HETATM    7  C8  UNL     1      38.753  -4.539  60.344  1.00  0.00     0.082 C 
HETATM    8  C9  UNL     1      40.530  -3.328  61.619  1.00  0.00     0.104 C 
HETATM    9  C10 UNL     1      41.595  -4.387  61.755  1.00  0.00    -0.082 C 
HETATM   10  C11 UNL     1      41.837  -5.296  60.600  1.00  0.00     0.043 C 
HETATM   11  C12 UNL     1      42.308  -4.543  62.836  1.00  0.00    -0.020 C 
HETATM   12  C13 UNL     1      42.189  -3.724  64.066  1.00  0.00     0.060 C 
HETATM   13  C14 UNL     1      42.884  -2.432  63.991  1.00  0.00    -0.084 C 
HETATM   14  C15 UNL     1      43.859  -2.120  62.895  1.00  0.00     0.043 C 
HETATM   15  C16 UNL     1      42.649  -1.522  64.906  1.00  0.00    -0.024 C 
HETATM   16  C17 UNL     1      41.702  -1.705  66.050  1.00  0.00     0.028 C 
HETATM   17  C18 UNL     1      40.715  -0.598  66.020  1.00  0.00     0.013 C 
HETATM   18  C19 UNL     1      39.315  -1.024  65.624  1.00  0.00    -0.036 A 
HETATM   19  C20 UNL     1      38.715  -2.212  66.306  1.00  0.00     0.016 C 
HETATM   20  C21 UNL     1      38.359   0.182  65.558  1.00  0.00     0.019 A 
HETATM   21  C22 UNL     1      38.930  -0.504  64.328  1.00  0.00     0.026 A 
ENDROOT
BRANCH   1  22
HETATM   22  C2  UNL     1      35.854  -1.193  62.262  1.00  0.00     0.201 C 
BRANCH  22  23
HETATM   23  O1  UNL     1      35.955  -0.851  60.899  1.00  0.00    -0.392 OA
HETATM   24  C1  UNL     1      35.517  -1.968  60.192  1.00  0.00     0.201 C 
ENDBRANCH  22  23
ENDBRANCH   1  22
BRANCH   6  25
HETATM   25  O3  UNL     1      39.115  -4.900  62.652  1.00  0.00    -0.203 OA
BRANCH  25  26
HETATM   26  O4  UNL     1      38.522  -5.994  62.296  1.00  0.00    -0.247 OA
ATOM     27  H4  UNL     1      39.017  -6.536  61.692  1.00  0.00     0.253 HD
ENDBRANCH  25  26
ENDBRANCH   6  25
TORSDOF 4
ENDMDL
MODEL 4
REMARK VINA RESULT: -5.873201723      1.888      3.402
REMARK  4 active torsions:
REMARK  status: ('A' for Active; 'I' for Inactive)
REMARK    1  A    between atoms: O1_2  and  C2_3 
REMARK    2  A    between atoms: C2_3  and  C3_4 
REMARK    3  A    between atoms: C7_9  and  O3_11 
REMARK    4  A    between atoms: O3_11  and  O4_12 
ROOT
HETATM    1  C3  UNL     1      37.375  -1.797  62.410  1.00  0.00    -0.056 C 
HETATM    2  C4  UNL     1      36.348  -0.895  61.800  1.00  0.00     0.046 C 
HETATM    3  C5  UNL     1      37.869  -1.611  63.621  1.00  0.00    -0.047 C 
HETATM    4  C6  UNL     1      38.895  -2.528  64.152  1.00  0.00     0.206 C 
HETATM    5  O2  UNL     1      40.081  -2.315  63.440  1.00  0.00    -0.348 OA
HETATM    6  C7  UNL     1      41.205  -2.364  64.253  1.00  0.00     0.197 C 
HETATM    7  C8  UNL     1      42.336  -2.930  63.390  1.00  0.00     0.082 C 
HETATM    8  C9  UNL     1      41.517  -0.947  64.673  1.00  0.00     0.104 C 
HETATM    9  C10 UNL     1      42.470  -0.913  65.840  1.00  0.00    -0.082 C 
HETATM   10  C11 UNL     1      43.901  -1.241  65.591  1.00  0.00     0.043 C 
HETATM   11  C12 UNL     1      42.098  -0.612  67.053  1.00  0.00    -0.020 C 
HETATM   12  C13 UNL     1      40.715  -0.263  67.463  1.00  0.00     0.060 C 
HETATM   13  C14 UNL     1      40.343   1.128  67.179  1.00  0.00    -0.084 C 
HETATM   14  C15 UNL     1      41.364   2.159  66.794  1.00  0.00     0.043 C 
HETATM   15  C16 UNL     1      39.085   1.488  67.263  1.00  0.00    -0.024 C 
HETATM   16  C17 UNL     1      37.970   0.562  67.636  1.00  0.00     0.028 C 
HETATM   17  C18 UNL     1      36.948   0.606  66.562  1.00  0.00     0.013 C 
HETATM   18  C19 UNL     1      36.866  -0.659  65.729  1.00  0.00    -0.036 A 
HETATM   19  C20 UNL     1      36.791  -1.973  66.439  1.00  0.00     0.016 C 
HETATM   20  C21 UNL     1      35.828  -0.521  64.601  1.00  0.00     0.019 A 
HETATM   21  C22 UNL     1      37.329  -0.451  64.372  1.00  0.00     0.026 A 
ENDROOT
BRANCH   1  22
HETATM   22  C2  UNL     1      37.859  -2.940  61.592  1.00  0.00     0.201 C 
BRANCH  22  23
HETATM   23  O1  UNL     1      37.460  -2.805  60.247  1.00  0.00    -0.392 OA
HETATM   24  C1  UNL     1      38.638  -2.751  59.504  1.00  0.00     0.201 C 
ENDBRANCH  22  23
ENDBRANCH   1  22
BRANCH   6  25
HETATM   25  O3  UNL     1      41.058  -3.148  65.367  1.00  0.00    -0.203 OA
BRANCH  25  26
HETATM   26  O4  UNL     1      41.755  -4.239  65.358  1.00  0.00    -0.247 OA
ATOM     27  H4  UNL     1      41.399  -4.933  64.815  1.00  0.00     0.253 HD
ENDBRANCH  25  26
ENDBRANCH   6  25
TORSDOF 4
ENDMDL
MODEL 5
REMARK VINA RESULT: -5.806470156      2.569      6.236
REMARK  4 active torsions:
REMARK  status: ('A' for Active; 'I' for Inactive)
REMARK    1  A    between atoms: O1_2  and  C2_3 
REMARK    2  A    between atoms: C2_3  and  C3_4 
REMARK    3  A    between atoms: C7_9  and  O3_11 
REMARK    4  A    between atoms: O3_11  and  O4_12 
ROOT
HETATM    1  C3  UNL     1      41.128  -0.373  66.318  1.00  0.00    -0.056 C 
HETATM    2  C4  UNL     1      42.578  -0.148  66.023  1.00  0.00     0.046 C 
HETATM    3  C5  UNL     1      40.378  -1.224  65.639  1.00  0.00    -0.047 C 
HETATM    4  C6  UNL     1      38.950  -1.380  65.970  1.00  0.00     0.206 C 
HETATM    5  O2  UNL     1      38.283  -0.211  65.590  1.00  0.00    -0.348 OA
HETATM    6  C7  UNL     1      37.039  -0.467  65.028  1.00  0.00     0.197 C 
HETATM    7  C8  UNL     1      36.143   0.714  65.409  1.00  0.00     0.082 C 
HETATM    8  C9  UNL     1      37.229  -0.528  63.531  1.00  0.00     0.104 C 
HETATM    9  C10 UNL     1      36.043  -1.163  62.849  1.00  0.00    -0.082 C 
HETATM   10  C11 UNL     1      34.786  -0.373  62.741  1.00  0.00     0.043 C 
HETATM   11  C12 UNL     1      36.071  -2.369  62.354  1.00  0.00    -0.020 C 
HETATM   12  C13 UNL     1      37.241  -3.280  62.382  1.00  0.00     0.060 C 
HETATM   13  C14 UNL     1      38.234  -3.005  61.336  1.00  0.00    -0.084 C 
HETATM   14  C15 UNL     1      37.938  -2.093  60.182  1.00  0.00     0.043 C 
HETATM   15  C16 UNL     1      39.416  -3.570  61.406  1.00  0.00    -0.024 C 
HETATM   16  C17 UNL     1      39.840  -4.498  62.501  1.00  0.00     0.028 C 
HETATM   17  C18 UNL     1      41.084  -3.965  63.109  1.00  0.00     0.013 C 
HETATM   18  C19 UNL     1      40.906  -3.417  64.511  1.00  0.00    -0.036 A 
HETATM   19  C20 UNL     1      40.177  -4.254  65.514  1.00  0.00     0.016 C 
HETATM   20  C21 UNL     1      42.221  -2.830  65.056  1.00  0.00     0.019 A 
HETATM   21  C22 UNL     1      41.064  -1.977  64.560  1.00  0.00     0.026 A 
ENDROOT
BRANCH   1  22
HETATM   22  C2  UNL     1      40.519   0.419  67.419  1.00  0.00     0.201 C 
BRANCH  22  23
HETATM   23  O1  UNL     1      41.494   1.183  68.092  1.00  0.00    -0.392 OA
HETATM   24  C1  UNL     1      40.841   1.760  69.178  1.00  0.00     0.201 C 
ENDBRANCH  22  23
ENDBRANCH   1  22
BRANCH   6  25
HETATM   25  O3  UNL     1      36.456  -1.629  65.462  1.00  0.00    -0.203 OA
BRANCH  25  26
HETATM   26  O4  UNL     1      36.171  -1.652  66.724  1.00  0.00    -0.247 OA
ATOM     27  H4  UNL     1      36.198  -2.515  67.122  1.00  0.00     0.253 HD
ENDBRANCH  25  26
ENDBRANCH   6  25
TORSDOF 4
ENDMDL
