MODEL 1
REMARK VINA RESULT: -9.253892092      0.000      0.000
REMARK  3 active torsions:
REMARK  status: ('A' for Active; 'I' for Inactive)
REMARK    1  A    between atoms: C5_5  and  C6_6 
REMARK       I    between atoms: C6_6  and  N1_8 
REMARK       I    between atoms: N1_8  and  C7_10 
REMARK       I    between atoms: C7_10  and  N2_12 
REMARK    2  A    between atoms: N3_14  and  C8_16 
REMARK    3  A    between atoms: C9_17  and  C10_18 
ROOT
HETATM    1  C6  UNL     1       6.571  27.476  -2.954  1.00  0.00     0.259 C 
HETATM    2  O1  UNL     1       5.852  28.428  -2.513  1.00  0.00    -0.267 OA
HETATM    3  N1  UNL     1       6.439  26.202  -2.367  1.00  0.00    -0.274 N 
ATOM      4  H1  UNL     1       7.012  25.433  -2.715  1.00  0.00     0.173 HD
HETATM    5  C7  UNL     1       5.516  25.958  -1.289  1.00  0.00     0.341 C 
HETATM    6  O2  UNL     1       4.837  26.932  -0.898  1.00  0.00    -0.245 OA
HETATM    7  N2  UNL     1       5.355  24.715  -0.682  1.00  0.00    -0.251 N 
ATOM      8  H2  UNL     1       6.180  24.323  -0.229  1.00  0.00     0.191 HD
HETATM    9  N3  UNL     1       4.315  24.028  -0.631  1.00  0.00    -0.295 N 
ATOM     10  H3  UNL     1       4.336  23.128  -0.150  1.00  0.00     0.187 HD
ENDROOT
BRANCH   9  11
HETATM   11  C8  UNL     1       3.064  24.481  -1.244  1.00  0.00     0.072 A 
HETATM   12  C9  UNL     1       2.702  24.164  -2.506  1.00  0.00     0.010 A 
HETATM   13  C16 UNL     1       1.503  24.657  -2.948  1.00  0.00     0.065 A 
HETATM   14  S1  UNL     1       0.919  25.539  -1.614  1.00  0.00    -0.104 SA
HETATM   15  C17 UNL     1       2.199  25.267  -0.527  1.00  0.00     0.007 A 
HETATM   16  C18 UNL     1       2.331  25.773   0.875  1.00  0.00     0.059 C 
BRANCH  12  17
HETATM   17  C10 UNL     1       3.534  23.315  -3.420  1.00  0.00    -0.023 A 
HETATM   18  C11 UNL     1       3.136  22.035  -3.741  1.00  0.00     0.012 A 
HETATM   19  C12 UNL     1       3.921  21.263  -4.590  1.00  0.00     0.001 A 
HETATM   20  C13 UNL     1       5.094  21.775  -5.109  1.00  0.00     0.000 A 
HETATM   21  C14 UNL     1       5.510  23.057  -4.799  1.00  0.00     0.001 A 
HETATM   22  C15 UNL     1       4.702  23.784  -3.955  1.00  0.00     0.012 A 
ENDBRANCH  12  17
ENDBRANCH   9  11
BRANCH   1  23
HETATM   23  C5  UNL     1       7.484  27.758  -4.035  1.00  0.00     0.032 A 
HETATM   24  C4  UNL     1       8.812  27.956  -3.835  1.00  0.00     0.017 A 
HETATM   25  C3  UNL     1       9.649  28.224  -4.906  1.00  0.00     0.007 A 
HETATM   26  C2  UNL     1       9.154  28.291  -6.171  1.00  0.00    -0.062 A 
HETATM   27  C1  UNL     1      10.038  28.577  -7.322  1.00  0.00     0.048 C 
HETATM   28  C20 UNL     1       7.818  28.095  -6.401  1.00  0.00     0.007 A 
HETATM   29  C19 UNL     1       7.007  27.835  -5.350  1.00  0.00     0.017 A 
ENDBRANCH   1  23
TORSDOF 3
ENDMDL
MODEL 2
REMARK VINA RESULT: -9.051961540      2.885      7.361
REMARK  3 active torsions:
REMARK  status: ('A' for Active; 'I' for Inactive)
REMARK    1  A    between atoms: C5_5  and  C6_6 
REMARK       I    between atoms: C6_6  and  N1_8 
REMARK       I    between atoms: N1_8  and  C7_10 
REMARK       I    between atoms: C7_10  and  N2_12 
REMARK    2  A    between atoms: N3_14  and  C8_16 
REMARK    3  A    between atoms: C9_17  and  C10_18 
ROOT
HETATM    1  C6  UNL     1       3.065  25.292  -2.557  1.00  0.00     0.259 C 
HETATM    2  O1  UNL     1       3.426  26.070  -3.497  1.00  0.00    -0.267 OA
HETATM    3  N1  UNL     1       3.818  25.277  -1.366  1.00  0.00    -0.274 N 
ATOM      4  H1  UNL     1       3.535  24.656  -0.608  1.00  0.00     0.173 HD
HETATM    5  C7  UNL     1       4.975  26.115  -1.193  1.00  0.00     0.341 C 
HETATM    6  O2  UNL     1       5.282  26.858  -2.151  1.00  0.00    -0.245 OA
HETATM    7  N2  UNL     1       5.746  26.130  -0.033  1.00  0.00    -0.251 N 
ATOM      8  H2  UNL     1       6.191  25.251   0.226  1.00  0.00     0.191 HD
HETATM    9  N3  UNL     1       5.952  27.100   0.726  1.00  0.00    -0.295 N 
ATOM     10  H3  UNL     1       6.542  26.972   1.549  1.00  0.00     0.187 HD
ENDROOT
BRANCH   9  11
HETATM   11  C8  UNL     1       5.368  28.418   0.463  1.00  0.00     0.072 A 
HETATM   12  C9  UNL     1       6.054  29.427  -0.117  1.00  0.00     0.010 A 
HETATM   13  C16 UNL     1       5.379  30.606  -0.303  1.00  0.00     0.065 A 
HETATM   14  S1  UNL     1       3.831  30.281   0.326  1.00  0.00    -0.104 SA
HETATM   15  C17 UNL     1       4.066  28.669   0.810  1.00  0.00     0.007 A 
HETATM   16  C18 UNL     1       3.074  27.755   1.460  1.00  0.00     0.059 C 
BRANCH  12  17
HETATM   17  C10 UNL     1       7.483  29.316  -0.556  1.00  0.00    -0.023 A 
HETATM   18  C11 UNL     1       8.501  29.757   0.261  1.00  0.00     0.012 A 
HETATM   19  C12 UNL     1       9.821  29.646  -0.163  1.00  0.00     0.001 A 
HETATM   20  C13 UNL     1      10.110  29.097  -1.397  1.00  0.00     0.000 A 
HETATM   21  C14 UNL     1       9.102  28.649  -2.231  1.00  0.00     0.001 A 
HETATM   22  C15 UNL     1       7.812  28.778  -1.770  1.00  0.00     0.012 A 
ENDBRANCH  12  17
ENDBRANCH   9  11
BRANCH   1  23
HETATM   23  C5  UNL     1       1.900  24.466  -2.767  1.00  0.00     0.032 A 
HETATM   24  C4  UNL     1       0.742  24.653  -2.085  1.00  0.00     0.017 A 
HETATM   25  C3  UNL     1      -0.350  23.833  -2.322  1.00  0.00     0.007 A 
HETATM   26  C2  UNL     1      -0.277  22.833  -3.241  1.00  0.00    -0.062 A 
HETATM   27  C1  UNL     1      -1.436  21.951  -3.503  1.00  0.00     0.048 C 
HETATM   28  C20 UNL     1       0.880  22.623  -3.943  1.00  0.00     0.007 A 
HETATM   29  C19 UNL     1       1.942  23.427  -3.705  1.00  0.00     0.017 A 
ENDBRANCH   1  23
TORSDOF 3
ENDMDL
MODEL 3
REMARK VINA RESULT: -8.640761838      3.158      7.525
REMARK  3 active torsions:
REMARK  status: ('A' for Active; 'I' for Inactive)
REMARK    1  A    between atoms: C5_5  and  C6_6 
REMARK       I    between atoms: C6_6  and  N1_8 
REMARK       I    between atoms: N1_8  and  C7_10 
REMARK       I    between atoms: C7_10  and  N2_12 
REMARK    2  A    between atoms: N3_14  and  C8_16 
REMARK    3  A    between atoms: C9_17  and  C10_18 
ROOT
HETATM    1  C6  UNL     1       3.137  25.542  -2.388  1.00  0.00     0.259 C 
HETATM    2  O1  UNL     1       3.634  26.182  -3.369  1.00  0.00    -0.267 OA
HETATM    3  N1  UNL     1       3.748  25.662  -1.124  1.00  0.00    -0.274 N 
ATOM      4  H1  UNL     1       3.356  25.152  -0.333  1.00  0.00     0.173 HD
HETATM    5  C7  UNL     1       4.912  26.485  -0.922  1.00  0.00     0.341 C 
HETATM    6  O2  UNL     1       5.355  27.090  -1.923  1.00  0.00    -0.245 OA
HETATM    7  N2  UNL     1       5.546  26.631   0.309  1.00  0.00    -0.251 N 
ATOM      8  H2  UNL     1       5.922  25.781   0.727  1.00  0.00     0.191 HD
HETATM    9  N3  UNL     1       5.704  27.685   0.958  1.00  0.00    -0.295 N 
ATOM     10  H3  UNL     1       6.191  27.650   1.855  1.00  0.00     0.187 HD
ENDROOT
BRANCH   9  11
HETATM   11  C8  UNL     1       5.208  28.972   0.465  1.00  0.00     0.072 A 
HETATM   12  C9  UNL     1       6.003  29.896  -0.119  1.00  0.00     0.010 A 
HETATM   13  C16 UNL     1       5.402  31.055  -0.534  1.00  0.00     0.065 A 
HETATM   14  S1  UNL     1       3.769  30.832  -0.106  1.00  0.00    -0.104 SA
HETATM   15  C17 UNL     1       3.878  29.283   0.587  1.00  0.00     0.007 A 
HETATM   16  C18 UNL     1       2.773  28.468   1.183  1.00  0.00     0.059 C 
BRANCH  12  17
HETATM   17  C10 UNL     1       7.476  29.711  -0.328  1.00  0.00    -0.023 A 
HETATM   18  C11 UNL     1       8.379  30.200   0.591  1.00  0.00     0.012 A 
HETATM   19  C12 UNL     1       9.742  30.019   0.379  1.00  0.00     0.001 A 
HETATM   20  C13 UNL     1      10.187  29.353  -0.745  1.00  0.00     0.000 A 
HETATM   21  C14 UNL     1       9.297  28.855  -1.678  1.00  0.00     0.001 A 
HETATM   22  C15 UNL     1       7.959  29.057  -1.428  1.00  0.00     0.012 A 
ENDBRANCH  12  17
ENDBRANCH   9  11
BRANCH   1  23
HETATM   23  C5  UNL     1       1.971  24.727  -2.628  1.00  0.00     0.032 A 
HETATM   24  C4  UNL     1       1.908  23.825  -3.641  1.00  0.00     0.017 A 
HETATM   25  C3  UNL     1       0.765  23.065  -3.831  1.00  0.00     0.007 A 
HETATM   26  C2  UNL     1      -0.307  23.210  -3.007  1.00  0.00    -0.062 A 
HETATM   27  C1  UNL     1      -1.533  22.405  -3.200  1.00  0.00     0.048 C 
HETATM   28  C20 UNL     1      -0.270  24.113  -1.977  1.00  0.00     0.007 A 
HETATM   29  C19 UNL     1       0.849  24.852  -1.799  1.00  0.00     0.017 A 
ENDBRANCH   1  23
TORSDOF 3
ENDMDL
MODEL 4
REMARK VINA RESULT: -8.452541602      4.927      7.605
REMARK  3 active torsions:
REMARK  status: ('A' for Active; 'I' for Inactive)
REMARK    1  A    between atoms: C5_5  and  C6_6 
REMARK       I    between atoms: C6_6  and  N1_8 
REMARK       I    between atoms: N1_8  and  C7_10 
REMARK       I    between atoms: C7_10  and  N2_12 
REMARK    2  A    between atoms: N3_14  and  C8_16 
REMARK    3  A    between atoms: C9_17  and  C10_18 
ROOT
HETATM    1  C6  UNL     1       1.819  25.325  -1.346  1.00  0.00     0.259 C 
HETATM    2  O1  UNL     1       2.591  26.318  -1.535  1.00  0.00    -0.267 OA
HETATM    3  N1  UNL     1       0.962  25.337  -0.228  1.00  0.00    -0.274 N 
ATOM      4  H1  UNL     1       0.340  24.545  -0.070  1.00  0.00     0.173 HD
HETATM    5  C7  UNL     1       0.943  26.441   0.697  1.00  0.00     0.341 C 
HETATM    6  O2  UNL     1       1.724  27.388   0.461  1.00  0.00    -0.245 OA
HETATM    7  N2  UNL     1       0.112  26.493   1.813  1.00  0.00    -0.251 N 
ATOM      8  H2  UNL     1       0.237  25.754   2.505  1.00  0.00     0.191 HD
HETATM    9  N3  UNL     1      -0.769  27.341   2.062  1.00  0.00    -0.295 N 
ATOM     10  H3  UNL     1      -1.310  27.260   2.924  1.00  0.00     0.187 HD
ENDROOT
BRANCH   9  11
HETATM   11  C8  UNL     1      -1.046  28.451   1.146  1.00  0.00     0.072 A 
HETATM   12  C9  UNL     1      -1.945  28.373   0.141  1.00  0.00     0.010 A 
HETATM   13  C16 UNL     1      -2.102  29.490  -0.637  1.00  0.00     0.065 A 
HETATM   14  S1  UNL     1      -1.007  30.604   0.042  1.00  0.00    -0.104 SA
HETATM   15  C17 UNL     1      -0.376  29.639   1.291  1.00  0.00     0.007 A 
HETATM   16  C18 UNL     1       0.664  30.014   2.300  1.00  0.00     0.059 C 
BRANCH  12  17
HETATM   17  C10 UNL     1      -2.759  27.148  -0.152  1.00  0.00    -0.023 A 
HETATM   18  C11 UNL     1      -4.096  27.101   0.180  1.00  0.00     0.012 A 
HETATM   19  C12 UNL     1      -4.834  25.956  -0.099  1.00  0.00     0.001 A 
HETATM   20  C13 UNL     1      -4.232  24.872  -0.706  1.00  0.00     0.000 A 
HETATM   21  C14 UNL     1      -2.892  24.900  -1.047  1.00  0.00     0.001 A 
HETATM   22  C15 UNL     1      -2.201  26.053  -0.752  1.00  0.00     0.012 A 
ENDBRANCH  12  17
ENDBRANCH   9  11
BRANCH   1  23
HETATM   23  C5  UNL     1       1.866  24.237  -2.294  1.00  0.00     0.032 A 
HETATM   24  C4  UNL     1       3.012  23.568  -2.580  1.00  0.00     0.017 A 
HETATM   25  C3  UNL     1       3.006  22.531  -3.498  1.00  0.00     0.007 A 
HETATM   26  C2  UNL     1       1.855  22.167  -4.124  1.00  0.00    -0.062 A 
HETATM   27  C1  UNL     1       1.836  21.061  -5.105  1.00  0.00     0.048 C 
HETATM   28  C20 UNL     1       0.684  22.826  -3.854  1.00  0.00     0.007 A 
HETATM   29  C19 UNL     1       0.698  23.839  -2.957  1.00  0.00     0.017 A 
ENDBRANCH   1  23
TORSDOF 3
ENDMDL
MODEL 5
REMARK VINA RESULT: -8.301726833      2.117      3.872
REMARK  3 active torsions:
REMARK  status: ('A' for Active; 'I' for Inactive)
REMARK    1  A    between atoms: C5_5  and  C6_6 
REMARK       I    between atoms: C6_6  and  N1_8 
REMARK       I    between atoms: N1_8  and  C7_10 
REMARK       I    between atoms: C7_10  and  N2_12 
REMARK    2  A    between atoms: N3_14  and  C8_16 
REMARK    3  A    between atoms: C9_17  and  C10_18 
ROOT
HETATM    1  C6  UNL     1       6.012  26.923  -3.921  1.00  0.00     0.259 C 
HETATM    2  O1  UNL     1       5.101  27.434  -4.646  1.00  0.00    -0.267 OA
HETATM    3  N1  UNL     1       5.634  26.114  -2.831  1.00  0.00    -0.274 N 
ATOM      4  H1  UNL     1       6.358  25.700  -2.245  1.00  0.00     0.173 HD
HETATM    5  C7  UNL     1       4.251  25.857  -2.525  1.00  0.00     0.341 C 
HETATM    6  O2  UNL     1       3.400  26.387  -3.273  1.00  0.00    -0.245 OA
HETATM    7  N2  UNL     1       3.834  25.063  -1.459  1.00  0.00    -0.251 N 
ATOM      8  H2  UNL     1       4.110  25.375  -0.529  1.00  0.00     0.191 HD
HETATM    9  N3  UNL     1       3.162  24.013  -1.515  1.00  0.00    -0.295 N 
ATOM     10  H3  UNL     1       2.924  23.527  -0.649  1.00  0.00     0.187 HD
ENDROOT
BRANCH   9  11
HETATM   11  C8  UNL     1       2.705  23.462  -2.793  1.00  0.00     0.072 A 
HETATM   12  C9  UNL     1       1.413  23.485  -3.188  1.00  0.00     0.010 A 
HETATM   13  C16 UNL     1       1.130  22.933  -4.410  1.00  0.00     0.065 A 
HETATM   14  S1  UNL     1       2.649  22.403  -4.968  1.00  0.00    -0.104 SA
HETATM   15  C17 UNL     1       3.608  22.888  -3.651  1.00  0.00     0.007 A 
HETATM   16  C18 UNL     1       5.086  22.720  -3.484  1.00  0.00     0.059 C 
BRANCH  12  17
HETATM   17  C10 UNL     1       0.304  24.074  -2.369  1.00  0.00    -0.023 A 
HETATM   18  C11 UNL     1      -0.908  23.427  -2.263  1.00  0.00     0.012 A 
HETATM   19  C12 UNL     1      -1.924  23.990  -1.499  1.00  0.00     0.001 A 
HETATM   20  C13 UNL     1      -1.720  25.191  -0.849  1.00  0.00     0.000 A 
HETATM   21  C14 UNL     1      -0.512  25.856  -0.942  1.00  0.00     0.001 A 
HETATM   22  C15 UNL     1       0.465  25.262  -1.709  1.00  0.00     0.012 A 
ENDBRANCH  12  17
ENDBRANCH   9  11
BRANCH   1  23
HETATM   23  C5  UNL     1       7.388  27.203  -4.258  1.00  0.00     0.032 A 
HETATM   24  C4  UNL     1       7.994  26.671  -5.350  1.00  0.00     0.017 A 
HETATM   25  C3  UNL     1       9.317  26.970  -5.630  1.00  0.00     0.007 A 
HETATM   26  C2  UNL     1      10.026  27.800  -4.819  1.00  0.00    -0.062 A 
HETATM   27  C1  UNL     1      11.439  28.127  -5.109  1.00  0.00     0.048 C 
HETATM   28  C20 UNL     1       9.439  28.351  -3.711  1.00  0.00     0.007 A 
HETATM   29  C19 UNL     1       8.146  28.053  -3.442  1.00  0.00     0.017 A 
ENDBRANCH   1  23
TORSDOF 3
ENDMDL
