MODEL 1
REMARK VINA RESULT: -7.932739502      0.000      0.000
REMARK  6 active torsions:
REMARK  status: ('A' for Active; 'I' for Inactive)
REMARK    1  A    between atoms: C5_5  and  C6_6 
REMARK    2  A    between atoms: C6_6  and  O2_8 
REMARK    3  A    between atoms: O2_8  and  C7_9 
REMARK    4  A    between atoms: C9_11  and  S1_12 
REMARK    5  A    between atoms: S1_12  and  C10_13 
REMARK    6  A    between atoms: C13_17  and  C14_18 
ROOT
HETATM    1  C7  UNL     1       6.009  24.761  -3.620  1.00  0.00     0.095 A 
HETATM    2  C8  UNL     1       6.806  25.092  -4.646  1.00  0.00     0.064 A 
HETATM    3  C9  UNL     1       7.179  26.408  -4.759  1.00  0.00     0.044 A 
HETATM    4  S2  UNL     1       6.400  27.132  -3.429  1.00  0.00    -0.084 SA
HETATM    5  C13 UNL     1       5.629  25.760  -2.768  1.00  0.00     0.025 A 
ENDROOT
BRANCH   1   6
HETATM    6  O2  UNL     1       5.543  23.435  -3.378  1.00  0.00    -0.274 OA
BRANCH   6   7
HETATM    7  C6  UNL     1       4.795  22.816  -4.391  1.00  0.00     0.304 C 
HETATM    8  O1  UNL     1       5.426  22.412  -5.415  1.00  0.00    -0.259 OA
BRANCH   7   9
HETATM    9  C5  UNL     1       3.368  22.636  -4.297  1.00  0.00     0.107 A 
HETATM   10  C4  UNL     1       2.558  23.681  -3.951  1.00  0.00     0.025 A 
HETATM   11  C3  UNL     1       1.194  23.473  -3.868  1.00  0.00     0.026 A 
HETATM   12  C2  UNL     1       0.666  22.229  -4.132  1.00  0.00     0.008 A 
HETATM   13  C1  UNL     1      -0.792  22.011  -4.042  1.00  0.00     0.068 C 
HETATM   14  N1  UNL     1       1.501  21.244  -4.466  1.00  0.00    -0.327 N 
HETATM   15  C18 UNL     1       2.827  21.405  -4.557  1.00  0.00     0.262 A 
ATOM     16  H1  UNL     1       1.110  20.322  -4.662  1.00  0.00     0.169 HD
HETATM   17  O3  UNL     1       3.553  20.406  -4.884  1.00  0.00    -0.267 OA
ENDBRANCH   7   9
ENDBRANCH   6   7
ENDBRANCH   1   6
BRANCH   5  18
HETATM   18  C14 UNL     1       4.755  25.733  -1.551  1.00  0.00    -0.015 C 
HETATM   19  C15 UNL     1       5.359  26.702  -0.523  1.00  0.00     0.020 C 
HETATM   20  C16 UNL     1       4.686  24.399  -0.886  1.00  0.00     0.020 C 
HETATM   21  C17 UNL     1       3.370  26.217  -1.835  1.00  0.00     0.020 C 
ENDBRANCH   5  18
BRANCH   3  22
HETATM   22  S1  UNL     1       8.236  27.142  -6.031  1.00  0.00    -0.118 SA
BRANCH  22  23
HETATM   23  C10 UNL     1       9.928  27.324  -5.423  1.00  0.00     0.045 C 
HETATM   24  C11 UNL     1       9.978  28.203  -4.192  1.00  0.00     0.021 C 
HETATM   25  C12 UNL     1      10.876  27.807  -6.494  1.00  0.00     0.021 C 
ENDBRANCH  22  23
ENDBRANCH   3  22
TORSDOF 6
ENDMDL
MODEL 2
REMARK VINA RESULT: -7.906697164      3.169      4.461
REMARK  6 active torsions:
REMARK  status: ('A' for Active; 'I' for Inactive)
REMARK    1  A    between atoms: C5_5  and  C6_6 
REMARK    2  A    between atoms: C6_6  and  O2_8 
REMARK    3  A    between atoms: O2_8  and  C7_9 
REMARK    4  A    between atoms: C9_11  and  S1_12 
REMARK    5  A    between atoms: S1_12  and  C10_13 
REMARK    6  A    between atoms: C13_17  and  C14_18 
ROOT
HETATM    1  C7  UNL     1       3.954  22.741  -3.754  1.00  0.00     0.095 A 
HETATM    2  C8  UNL     1       4.503  22.112  -4.804  1.00  0.00     0.064 A 
HETATM    3  C9  UNL     1       5.671  22.626  -5.310  1.00  0.00     0.044 A 
HETATM    4  S2  UNL     1       5.957  23.967  -4.300  1.00  0.00    -0.084 SA
HETATM    5  C13 UNL     1       4.602  23.843  -3.271  1.00  0.00     0.025 A 
ENDROOT
BRANCH   1   6
HETATM    6  O2  UNL     1       2.745  22.321  -3.126  1.00  0.00    -0.274 OA
BRANCH   6   7
HETATM    7  C6  UNL     1       1.540  22.602  -3.787  1.00  0.00     0.304 C 
HETATM    8  O1  UNL     1       1.506  22.409  -5.040  1.00  0.00    -0.259 OA
BRANCH   7   9
HETATM    9  C5  UNL     1       0.375  23.092  -3.094  1.00  0.00     0.107 A 
HETATM   10  C4  UNL     1       0.422  24.271  -2.403  1.00  0.00     0.025 A 
HETATM   11  C3  UNL     1      -0.713  24.710  -1.748  1.00  0.00     0.026 A 
HETATM   12  C2  UNL     1      -1.871  23.966  -1.795  1.00  0.00     0.008 A 
HETATM   13  C1  UNL     1      -3.080  24.440  -1.093  1.00  0.00     0.068 C 
HETATM   14  N1  UNL     1      -1.862  22.824  -2.483  1.00  0.00    -0.327 N 
HETATM   15  C18 UNL     1      -0.785  22.365  -3.130  1.00  0.00     0.262 A 
ATOM     16  H1  UNL     1      -2.720  22.273  -2.518  1.00  0.00     0.169 HD
HETATM   17  O3  UNL     1      -0.866  21.259  -3.766  1.00  0.00    -0.267 OA
ENDBRANCH   7   9
ENDBRANCH   6   7
ENDBRANCH   1   6
BRANCH   5  18
HETATM   18  C14 UNL     1       4.262  24.762  -2.136  1.00  0.00    -0.015 C 
HETATM   19  C15 UNL     1       5.557  25.466  -1.704  1.00  0.00     0.020 C 
HETATM   20  C16 UNL     1       3.736  24.063  -0.928  1.00  0.00     0.020 C 
HETATM   21  C17 UNL     1       3.304  25.836  -2.542  1.00  0.00     0.020 C 
ENDBRANCH   5  18
BRANCH   3  22
HETATM   22  S1  UNL     1       6.628  21.996  -6.711  1.00  0.00    -0.118 SA
BRANCH  22  23
HETATM   23  C10 UNL     1       7.361  20.395  -6.310  1.00  0.00     0.045 C 
HETATM   24  C11 UNL     1       7.774  19.650  -7.561  1.00  0.00     0.021 C 
HETATM   25  C12 UNL     1       6.467  19.556  -5.429  1.00  0.00     0.021 C 
ENDBRANCH  22  23
ENDBRANCH   3  22
TORSDOF 6
ENDMDL
MODEL 3
REMARK VINA RESULT: -7.649811942      1.840      4.721
REMARK  6 active torsions:
REMARK  status: ('A' for Active; 'I' for Inactive)
REMARK    1  A    between atoms: C5_5  and  C6_6 
REMARK    2  A    between atoms: C6_6  and  O2_8 
REMARK    3  A    between atoms: O2_8  and  C7_9 
REMARK    4  A    between atoms: C9_11  and  S1_12 
REMARK    5  A    between atoms: S1_12  and  C10_13 
REMARK    6  A    between atoms: C13_17  and  C14_18 
ROOT
HETATM    1  C7  UNL     1       5.534  26.274  -3.060  1.00  0.00     0.095 A 
HETATM    2  C8  UNL     1       5.011  26.427  -1.835  1.00  0.00     0.064 A 
HETATM    3  C9  UNL     1       5.468  27.476  -1.077  1.00  0.00     0.044 A 
HETATM    4  S2  UNL     1       6.613  28.207  -2.105  1.00  0.00    -0.084 SA
HETATM    5  C13 UNL     1       6.483  27.174  -3.457  1.00  0.00     0.025 A 
ENDROOT
BRANCH   1   6
HETATM    6  O2  UNL     1       5.156  25.231  -3.956  1.00  0.00    -0.274 OA
BRANCH   6   7
HETATM    7  C6  UNL     1       4.707  24.026  -3.395  1.00  0.00     0.304 C 
HETATM    8  O1  UNL     1       5.550  23.340  -2.742  1.00  0.00    -0.259 OA
BRANCH   7   9
HETATM    9  C5  UNL     1       3.349  23.565  -3.540  1.00  0.00     0.107 A 
HETATM   10  C4  UNL     1       2.361  24.047  -2.726  1.00  0.00     0.025 A 
HETATM   11  C3  UNL     1       1.071  23.582  -2.892  1.00  0.00     0.026 A 
HETATM   12  C2  UNL     1       0.790  22.648  -3.863  1.00  0.00     0.008 A 
HETATM   13  C1  UNL     1      -0.591  22.154  -4.036  1.00  0.00     0.068 C 
HETATM   14  N1  UNL     1       1.790  22.211  -4.630  1.00  0.00    -0.327 N 
HETATM   15  C18 UNL     1       3.053  22.637  -4.502  1.00  0.00     0.262 A 
ATOM     16  H1  UNL     1       1.582  21.519  -5.350  1.00  0.00     0.169 HD
HETATM   17  O3  UNL     1       3.949  22.165  -5.280  1.00  0.00    -0.267 OA
ENDBRANCH   7   9
ENDBRANCH   6   7
ENDBRANCH   1   6
BRANCH   5  18
HETATM   18  C14 UNL     1       7.258  27.283  -4.735  1.00  0.00    -0.015 C 
HETATM   19  C15 UNL     1       8.587  27.984  -4.414  1.00  0.00     0.020 C 
HETATM   20  C16 UNL     1       6.587  28.106  -5.782  1.00  0.00     0.020 C 
HETATM   21  C17 UNL     1       7.606  25.945  -5.304  1.00  0.00     0.020 C 
ENDBRANCH   5  18
BRANCH   3  22
HETATM   22  S1  UNL     1       4.952  27.924   0.598  1.00  0.00    -0.118 SA
BRANCH  22  23
HETATM   23  C10 UNL     1       3.150  28.005   0.707  1.00  0.00     0.045 C 
HETATM   24  C11 UNL     1       2.707  28.884   1.856  1.00  0.00     0.021 C 
HETATM   25  C12 UNL     1       2.515  26.638   0.771  1.00  0.00     0.021 C 
ENDBRANCH  22  23
ENDBRANCH   3  22
TORSDOF 6
ENDMDL
MODEL 4
REMARK VINA RESULT: -7.577470916      3.050      4.336
REMARK  6 active torsions:
REMARK  status: ('A' for Active; 'I' for Inactive)
REMARK    1  A    between atoms: C5_5  and  C6_6 
REMARK    2  A    between atoms: C6_6  and  O2_8 
REMARK    3  A    between atoms: O2_8  and  C7_9 
REMARK    4  A    between atoms: C9_11  and  S1_12 
REMARK    5  A    between atoms: S1_12  and  C10_13 
REMARK    6  A    between atoms: C13_17  and  C14_18 
ROOT
HETATM    1  C7  UNL     1       3.402  25.229  -3.379  1.00  0.00     0.095 A 
HETATM    2  C8  UNL     1       4.073  26.364  -3.137  1.00  0.00     0.064 A 
HETATM    3  C9  UNL     1       5.432  26.350  -3.330  1.00  0.00     0.044 A 
HETATM    4  S2  UNL     1       5.720  24.752  -3.841  1.00  0.00    -0.084 SA
HETATM    5  C13 UNL     1       4.125  24.147  -3.799  1.00  0.00     0.025 A 
ENDROOT
BRANCH   1   6
HETATM    6  O2  UNL     1       1.991  25.096  -3.222  1.00  0.00    -0.274 OA
BRANCH   6   7
HETATM    7  C6  UNL     1       1.503  24.855  -1.929  1.00  0.00     0.304 C 
HETATM    8  O1  UNL     1       2.357  24.630  -1.019  1.00  0.00    -0.259 OA
BRANCH   7   9
HETATM    9  C5  UNL     1       0.095  24.856  -1.623  1.00  0.00     0.107 A 
HETATM   10  C4  UNL     1      -0.456  25.872  -0.892  1.00  0.00     0.025 A 
HETATM   11  C3  UNL     1      -1.809  25.841  -0.615  1.00  0.00     0.026 A 
HETATM   12  C2  UNL     1      -2.586  24.800  -1.071  1.00  0.00     0.008 A 
HETATM   13  C1  UNL     1      -4.032  24.771  -0.772  1.00  0.00     0.068 C 
HETATM   14  N1  UNL     1      -1.999  23.835  -1.780  1.00  0.00    -0.327 N 
HETATM   15  C18 UNL     1      -0.692  23.828  -2.069  1.00  0.00     0.262 A 
ATOM     16  H1  UNL     1      -2.575  23.063  -2.118  1.00  0.00     0.169 HD
HETATM   17  O3  UNL     1      -0.213  22.863  -2.756  1.00  0.00    -0.267 OA
ENDBRANCH   7   9
ENDBRANCH   6   7
ENDBRANCH   1   6
BRANCH   5  18
HETATM   18  C14 UNL     1       3.694  22.753  -4.144  1.00  0.00    -0.015 C 
HETATM   19  C15 UNL     1       4.888  22.049  -4.807  1.00  0.00     0.020 C 
HETATM   20  C16 UNL     1       2.569  22.692  -5.121  1.00  0.00     0.020 C 
HETATM   21  C17 UNL     1       3.342  21.951  -2.932  1.00  0.00     0.020 C 
ENDBRANCH   5  18
BRANCH   3  22
HETATM   22  S1  UNL     1       6.587  27.721  -3.082  1.00  0.00    -0.118 SA
BRANCH  22  23
HETATM   23  C10 UNL     1       7.479  28.084  -4.611  1.00  0.00     0.045 C 
HETATM   24  C11 UNL     1       6.535  28.181  -5.789  1.00  0.00     0.021 C 
HETATM   25  C12 UNL     1       8.598  27.104  -4.871  1.00  0.00     0.021 C 
ENDBRANCH  22  23
ENDBRANCH   3  22
TORSDOF 6
ENDMDL
MODEL 5
REMARK VINA RESULT: -7.531991332      1.041      1.288
REMARK  6 active torsions:
REMARK  status: ('A' for Active; 'I' for Inactive)
REMARK    1  A    between atoms: C5_5  and  C6_6 
REMARK    2  A    between atoms: C6_6  and  O2_8 
REMARK    3  A    between atoms: O2_8  and  C7_9 
REMARK    4  A    between atoms: C9_11  and  S1_12 
REMARK    5  A    between atoms: S1_12  and  C10_13 
REMARK    6  A    between atoms: C13_17  and  C14_18 
ROOT
HETATM    1  C7  UNL     1       5.695  25.047  -2.903  1.00  0.00     0.095 A 
HETATM    2  C8  UNL     1       6.696  25.559  -3.633  1.00  0.00     0.064 A 
HETATM    3  C9  UNL     1       6.975  26.894  -3.476  1.00  0.00     0.044 A 
HETATM    4  S2  UNL     1       5.829  27.381  -2.315  1.00  0.00    -0.084 SA
HETATM    5  C13 UNL     1       5.031  25.894  -2.060  1.00  0.00     0.025 A 
ENDROOT
BRANCH   1   6
HETATM    6  O2  UNL     1       5.293  23.680  -2.963  1.00  0.00    -0.274 OA
BRANCH   6   7
HETATM    7  C6  UNL     1       4.662  23.241  -4.136  1.00  0.00     0.304 C 
HETATM    8  O1  UNL     1       5.370  23.174  -5.186  1.00  0.00    -0.259 OA
BRANCH   7   9
HETATM    9  C5  UNL     1       3.268  22.874  -4.173  1.00  0.00     0.107 A 
HETATM   10  C4  UNL     1       2.300  23.797  -3.888  1.00  0.00     0.025 A 
HETATM   11  C3  UNL     1       0.974  23.411  -3.930  1.00  0.00     0.026 A 
HETATM   12  C2  UNL     1       0.639  22.116  -4.256  1.00  0.00     0.008 A 
HETATM   13  C1  UNL     1      -0.779  21.709  -4.300  1.00  0.00     0.068 C 
HETATM   14  N1  UNL     1       1.623  21.256  -4.526  1.00  0.00    -0.327 N 
HETATM   15  C18 UNL     1       2.918  21.591  -4.495  1.00  0.00     0.262 A 
ATOM     16  H1  UNL     1       1.375  20.297  -4.767  1.00  0.00     0.169 HD
HETATM   17  O3  UNL     1       3.795  20.702  -4.768  1.00  0.00    -0.267 OA
ENDBRANCH   7   9
ENDBRANCH   6   7
ENDBRANCH   1   6
BRANCH   5  18
HETATM   18  C14 UNL     1       3.884  25.651  -1.127  1.00  0.00    -0.015 C 
HETATM   19  C15 UNL     1       4.039  26.611   0.061  1.00  0.00     0.020 C 
HETATM   20  C16 UNL     1       3.849  24.273  -0.557  1.00  0.00     0.020 C 
HETATM   21  C17 UNL     1       2.564  25.959  -1.758  1.00  0.00     0.020 C 
ENDBRANCH   5  18
BRANCH   3  22
HETATM   22  S1  UNL     1       8.256  27.852  -4.323  1.00  0.00    -0.118 SA
BRANCH  22  23
HETATM   23  C10 UNL     1       8.362  27.372  -6.062  1.00  0.00     0.045 C 
HETATM   24  C11 UNL     1       9.613  27.924  -6.710  1.00  0.00     0.021 C 
HETATM   25  C12 UNL     1       7.121  27.742  -6.838  1.00  0.00     0.021 C 
ENDBRANCH  22  23
ENDBRANCH   3  22
TORSDOF 6
ENDMDL
