MODEL 1
REMARK VINA RESULT: -8.565536748      0.000      0.000
REMARK  7 active torsions:
REMARK  status: ('A' for Active; 'I' for Inactive)
REMARK    1  A    between atoms: C2_2  and  C3_3 
REMARK    2  A    between atoms: C2_2  and  C17_24 
REMARK    3  A    between atoms: C4_5  and  C5_6 
REMARK    4  A    between atoms: N1_8  and  O1_10 
REMARK    5  A    between atoms: C8_13  and  C9_14 
REMARK    6  A    between atoms: C13_18  and  O2_19 
REMARK    7  A    between atoms: O2_19  and  C14_20 
ROOT
HETATM    1  C3  UNL     1       4.867  24.720  -2.392  1.00  0.00     0.023 A 
HETATM    2  S1  UNL     1       6.077  25.942  -2.469  1.00  0.00    -0.087 SA
HETATM    3  C4  UNL     1       6.611  25.698  -4.083  1.00  0.00     0.030 A 
HETATM    4  C7  UNL     1       5.822  24.672  -4.503  1.00  0.00     0.034 A 
HETATM    5  C8  UNL     1       4.916  24.165  -3.623  1.00  0.00    -0.007 A 
ENDROOT
BRANCH   5   6
HETATM    6  C9  UNL     1       3.967  23.075  -4.046  1.00  0.00    -0.022 A 
HETATM    7  C10 UNL     1       4.449  21.826  -4.376  1.00  0.00     0.012 A 
HETATM    8  C11 UNL     1       3.538  20.859  -4.750  1.00  0.00     0.004 A 
HETATM    9  C12 UNL     1       2.185  21.126  -4.798  1.00  0.00     0.037 A 
HETATM   10  C13 UNL     1       1.687  22.370  -4.472  1.00  0.00     0.080 A 
HETATM   11  C16 UNL     1       2.609  23.326  -4.099  1.00  0.00     0.049 A 
BRANCH  10  12
HETATM   12  O2  UNL     1       0.323  22.663  -4.513  1.00  0.00    -0.279 OA
BRANCH  12  13
HETATM   13  C14 UNL     1      -0.522  22.406  -3.432  1.00  0.00     0.260 C 
HETATM   14  C15 UNL     1      -0.714  23.419  -2.347  1.00  0.00     0.126 C 
HETATM   15  O3  UNL     1      -1.101  21.289  -3.427  1.00  0.00    -0.265 OA
ENDBRANCH  12  13
ENDBRANCH  10  12
ENDBRANCH   5   6
BRANCH   1  16
HETATM   16  C2  UNL     1       4.013  24.435  -1.212  1.00  0.00    -0.042 C 
HETATM   17  C1  UNL     1       4.247  23.314  -0.569  1.00  0.00     0.021 C 
BRANCH  16  18
HETATM   18  C17 UNL     1       2.955  25.391  -0.813  1.00  0.00    -0.024 C 
HETATM   19  C18 UNL     1       1.948  24.747   0.126  1.00  0.00     0.019 C 
HETATM   20  C19 UNL     1       3.527  26.581  -0.065  1.00  0.00     0.019 C 
HETATM   21  C20 UNL     1       2.213  25.849  -2.039  1.00  0.00     0.019 C 
ENDBRANCH  16  18
ENDBRANCH   1  16
BRANCH   3  22
HETATM   22  C5  UNL     1       7.671  26.451  -4.789  1.00  0.00     0.045 C 
HETATM   23  C6  UNL     1       7.834  27.886  -4.353  1.00  0.00     0.071 C 
HETATM   24  N1  UNL     1       8.377  25.946  -5.675  1.00  0.00    -0.273 N 
ATOM     25  H1  UNL     1       9.069  26.577  -6.078  1.00  0.00     0.194 HD
BRANCH  24  26
HETATM   26  O1  UNL     1       8.382  24.719  -6.186  1.00  0.00    -0.290 OA
ATOM     27  H1  UNL     1       9.097  24.183  -6.506  1.00  0.00     0.244 HD
ENDBRANCH  24  26
ENDBRANCH   3  22
TORSDOF 7
ENDMDL
MODEL 2
REMARK VINA RESULT: -8.244800622      1.061      1.125
REMARK  7 active torsions:
REMARK  status: ('A' for Active; 'I' for Inactive)
REMARK    1  A    between atoms: C2_2  and  C3_3 
REMARK    2  A    between atoms: C2_2  and  C17_24 
REMARK    3  A    between atoms: C4_5  and  C5_6 
REMARK    4  A    between atoms: N1_8  and  O1_10 
REMARK    5  A    between atoms: C8_13  and  C9_14 
REMARK    6  A    between atoms: C13_18  and  O2_19 
REMARK    7  A    between atoms: O2_19  and  C14_20 
ROOT
HETATM    1  C3  UNL     1       4.824  24.783  -2.296  1.00  0.00     0.023 A 
HETATM    2  S1  UNL     1       6.029  26.012  -2.315  1.00  0.00    -0.087 SA
HETATM    3  C4  UNL     1       6.631  25.782  -3.906  1.00  0.00     0.030 A 
HETATM    4  C7  UNL     1       5.868  24.754  -4.365  1.00  0.00     0.034 A 
HETATM    5  C8  UNL     1       4.928  24.236  -3.527  1.00  0.00    -0.007 A 
ENDROOT
BRANCH   5   6
HETATM    6  C9  UNL     1       4.006  23.142  -3.996  1.00  0.00    -0.022 A 
HETATM    7  C10 UNL     1       4.512  21.907  -4.339  1.00  0.00     0.012 A 
HETATM    8  C11 UNL     1       3.624  20.936  -4.756  1.00  0.00     0.004 A 
HETATM    9  C12 UNL     1       2.270  21.186  -4.832  1.00  0.00     0.037 A 
HETATM   10  C13 UNL     1       1.746  22.417  -4.494  1.00  0.00     0.080 A 
HETATM   11  C16 UNL     1       2.646  23.376  -4.078  1.00  0.00     0.049 A 
BRANCH  10  12
HETATM   12  O2  UNL     1       0.380  22.692  -4.564  1.00  0.00    -0.279 OA
BRANCH  12  13
HETATM   13  C14 UNL     1      -0.490  22.393  -3.514  1.00  0.00     0.260 C 
HETATM   14  C15 UNL     1      -0.725  23.372  -2.407  1.00  0.00     0.126 C 
HETATM   15  O3  UNL     1      -1.053  21.269  -3.557  1.00  0.00    -0.265 OA
ENDBRANCH  12  13
ENDBRANCH  10  12
ENDBRANCH   5   6
BRANCH   1  16
HETATM   16  C2  UNL     1       3.923  24.485  -1.155  1.00  0.00    -0.042 C 
HETATM   17  C1  UNL     1       4.133  23.358  -0.513  1.00  0.00     0.021 C 
BRANCH  16  18
HETATM   18  C17 UNL     1       2.847  25.435  -0.791  1.00  0.00    -0.024 C 
HETATM   19  C18 UNL     1       1.818  24.788   0.121  1.00  0.00     0.019 C 
HETATM   20  C19 UNL     1       3.389  26.631  -0.032  1.00  0.00     0.019 C 
HETATM   21  C20 UNL     1       2.138  25.883  -2.040  1.00  0.00     0.019 C 
ENDBRANCH  16  18
ENDBRANCH   1  16
BRANCH   3  22
HETATM   22  C5  UNL     1       7.715  26.546  -4.562  1.00  0.00     0.045 C 
HETATM   23  C6  UNL     1       7.848  26.317  -6.048  1.00  0.00     0.071 C 
HETATM   24  N1  UNL     1       8.462  27.319  -3.943  1.00  0.00    -0.273 N 
ATOM     25  H1  UNL     1       9.166  27.781  -4.518  1.00  0.00     0.194 HD
BRANCH  24  26
HETATM   26  O1  UNL     1       8.497  27.645  -2.655  1.00  0.00    -0.290 OA
ATOM     27  H1  UNL     1       8.250  28.447  -2.211  1.00  0.00     0.244 HD
ENDBRANCH  24  26
ENDBRANCH   3  22
TORSDOF 7
ENDMDL
MODEL 3
REMARK VINA RESULT: -8.208414201      3.517      5.915
REMARK  7 active torsions:
REMARK  status: ('A' for Active; 'I' for Inactive)
REMARK    1  A    between atoms: C2_2  and  C3_3 
REMARK    2  A    between atoms: C2_2  and  C17_24 
REMARK    3  A    between atoms: C4_5  and  C5_6 
REMARK    4  A    between atoms: N1_8  and  O1_10 
REMARK    5  A    between atoms: C8_13  and  C9_14 
REMARK    6  A    between atoms: C13_18  and  O2_19 
REMARK    7  A    between atoms: O2_19  and  C14_20 
ROOT
HETATM    1  C3  UNL     1       2.336  25.302  -0.737  1.00  0.00     0.023 A 
HETATM    2  S1  UNL     1       2.411  26.529   0.468  1.00  0.00    -0.087 SA
HETATM    3  C4  UNL     1       0.740  26.905   0.581  1.00  0.00     0.030 A 
HETATM    4  C7  UNL     1       0.184  26.057  -0.326  1.00  0.00     0.034 A 
HETATM    5  C8  UNL     1       1.015  25.223  -1.010  1.00  0.00    -0.007 A 
ENDROOT
BRANCH   5   6
HETATM    6  C9  UNL     1       0.458  24.214  -1.978  1.00  0.00    -0.022 A 
HETATM    7  C10 UNL     1      -0.804  23.692  -1.786  1.00  0.00     0.012 A 
HETATM    8  C11 UNL     1      -1.272  22.776  -2.705  1.00  0.00     0.004 A 
HETATM    9  C12 UNL     1      -0.507  22.386  -3.785  1.00  0.00     0.037 A 
HETATM   10  C13 UNL     1       0.757  22.897  -3.991  1.00  0.00     0.080 A 
HETATM   11  C16 UNL     1       1.211  23.812  -3.064  1.00  0.00     0.049 A 
BRANCH  10  12
HETATM   12  O2  UNL     1       1.549  22.516  -5.075  1.00  0.00    -0.279 OA
BRANCH  12  13
HETATM   13  C14 UNL     1       2.202  21.283  -5.118  1.00  0.00     0.260 C 
HETATM   14  C15 UNL     1       3.585  21.125  -4.567  1.00  0.00     0.126 C 
HETATM   15  O3  UNL     1       1.566  20.331  -5.639  1.00  0.00    -0.265 OA
ENDBRANCH  12  13
ENDBRANCH  10  12
ENDBRANCH   5   6
BRANCH   1  16
HETATM   16  C2  UNL     1       3.502  24.553  -1.270  1.00  0.00    -0.042 C 
HETATM   17  C1  UNL     1       3.689  23.340  -0.804  1.00  0.00     0.021 C 
BRANCH  16  18
HETATM   18  C17 UNL     1       4.388  25.180  -2.277  1.00  0.00    -0.024 C 
HETATM   19  C18 UNL     1       4.976  24.145  -3.222  1.00  0.00     0.019 C 
HETATM   20  C19 UNL     1       3.638  26.169  -3.148  1.00  0.00     0.019 C 
HETATM   21  C20 UNL     1       5.531  25.861  -1.574  1.00  0.00     0.019 C 
ENDBRANCH  16  18
ENDBRANCH   1  16
BRANCH   3  22
HETATM   22  C5  UNL     1       0.117  27.913   1.466  1.00  0.00     0.045 C 
HETATM   23  C6  UNL     1       0.544  29.338   1.212  1.00  0.00     0.071 C 
HETATM   24  N1  UNL     1      -0.698  27.616   2.354  1.00  0.00    -0.273 N 
ATOM     25  H1  UNL     1      -1.049  28.409   2.890  1.00  0.00     0.194 HD
BRANCH  24  26
HETATM   26  O1  UNL     1      -1.188  26.438   2.722  1.00  0.00    -0.290 OA
ATOM     27  H1  UNL     1      -1.811  26.209   3.402  1.00  0.00     0.244 HD
ENDBRANCH  24  26
ENDBRANCH   3  22
TORSDOF 7
ENDMDL
MODEL 4
REMARK VINA RESULT: -7.979573794      1.975      2.870
REMARK  7 active torsions:
REMARK  status: ('A' for Active; 'I' for Inactive)
REMARK    1  A    between atoms: C2_2  and  C3_3 
REMARK    2  A    between atoms: C2_2  and  C17_24 
REMARK    3  A    between atoms: C4_5  and  C5_6 
REMARK    4  A    between atoms: N1_8  and  O1_10 
REMARK    5  A    between atoms: C8_13  and  C9_14 
REMARK    6  A    between atoms: C13_18  and  O2_19 
REMARK    7  A    between atoms: O2_19  and  C14_20 
ROOT
HETATM    1  C3  UNL     1       4.235  24.087  -3.548  1.00  0.00     0.023 A 
HETATM    2  S1  UNL     1       5.864  24.212  -4.088  1.00  0.00    -0.087 SA
HETATM    3  C4  UNL     1       5.874  22.928  -5.228  1.00  0.00     0.030 A 
HETATM    4  C7  UNL     1       4.603  22.450  -5.145  1.00  0.00     0.034 A 
HETATM    5  C8  UNL     1       3.752  23.054  -4.271  1.00  0.00    -0.007 A 
ENDROOT
BRANCH   5   6
HETATM    6  C9  UNL     1       2.314  22.617  -4.180  1.00  0.00    -0.022 A 
HETATM    7  C10 UNL     1       1.938  21.370  -4.633  1.00  0.00     0.012 A 
HETATM    8  C11 UNL     1       0.609  21.014  -4.521  1.00  0.00     0.004 A 
HETATM    9  C12 UNL     1      -0.321  21.874  -3.975  1.00  0.00     0.037 A 
HETATM   10  C13 UNL     1       0.037  23.125  -3.518  1.00  0.00     0.080 A 
HETATM   11  C16 UNL     1       1.369  23.466  -3.637  1.00  0.00     0.049 A 
BRANCH  10  12
HETATM   12  O2  UNL     1      -0.887  24.011  -2.964  1.00  0.00    -0.279 OA
BRANCH  12  13
HETATM   13  C14 UNL     1      -0.971  24.227  -1.587  1.00  0.00     0.260 C 
HETATM   14  C15 UNL     1      -0.804  25.598  -1.011  1.00  0.00     0.126 C 
HETATM   15  O3  UNL     1      -1.192  23.214  -0.875  1.00  0.00    -0.265 OA
ENDBRANCH  12  13
ENDBRANCH  10  12
ENDBRANCH   5   6
BRANCH   1  16
HETATM   16  C2  UNL     1       3.599  24.966  -2.534  1.00  0.00    -0.042 C 
HETATM   17  C1  UNL     1       2.839  25.938  -2.986  1.00  0.00     0.021 C 
BRANCH  16  18
HETATM   18  C17 UNL     1       3.836  24.729  -1.092  1.00  0.00    -0.024 C 
HETATM   19  C18 UNL     1       2.579  24.974  -0.274  1.00  0.00     0.019 C 
HETATM   20  C19 UNL     1       4.243  23.293  -0.819  1.00  0.00     0.019 C 
HETATM   21  C20 UNL     1       4.895  25.678  -0.602  1.00  0.00     0.019 C 
ENDBRANCH  16  18
ENDBRANCH   1  16
BRANCH   3  22
HETATM   22  C5  UNL     1       7.015  22.496  -6.065  1.00  0.00     0.045 C 
HETATM   23  C6  UNL     1       7.004  21.038  -6.456  1.00  0.00     0.071 C 
HETATM   24  N1  UNL     1       7.916  23.269  -6.423  1.00  0.00    -0.273 N 
ATOM     25  H1  UNL     1       8.641  22.839  -6.998  1.00  0.00     0.194 HD
BRANCH  24  26
HETATM   26  O1  UNL     1       8.094  24.564  -6.183  1.00  0.00    -0.290 OA
ATOM     27  H1  UNL     1       7.740  25.330  -6.618  1.00  0.00     0.244 HD
ENDBRANCH  24  26
ENDBRANCH   3  22
TORSDOF 7
ENDMDL
MODEL 5
REMARK VINA RESULT: -7.939895698      3.476      5.856
REMARK  7 active torsions:
REMARK  status: ('A' for Active; 'I' for Inactive)
REMARK    1  A    between atoms: C2_2  and  C3_3 
REMARK    2  A    between atoms: C2_2  and  C17_24 
REMARK    3  A    between atoms: C4_5  and  C5_6 
REMARK    4  A    between atoms: N1_8  and  O1_10 
REMARK    5  A    between atoms: C8_13  and  C9_14 
REMARK    6  A    between atoms: C13_18  and  O2_19 
REMARK    7  A    between atoms: O2_19  and  C14_20 
ROOT
HETATM    1  C3  UNL     1       2.098  25.149  -0.900  1.00  0.00     0.023 A 
HETATM    2  S1  UNL     1       2.091  26.356   0.327  1.00  0.00    -0.087 SA
HETATM    3  C4  UNL     1       0.400  26.638   0.426  1.00  0.00     0.030 A 
HETATM    4  C7  UNL     1      -0.097  25.777  -0.503  1.00  0.00     0.034 A 
HETATM    5  C8  UNL     1       0.787  25.003  -1.191  1.00  0.00    -0.007 A 
ENDROOT
BRANCH   5   6
HETATM    6  C9  UNL     1       0.297  23.983  -2.184  1.00  0.00    -0.022 A 
HETATM    7  C10 UNL     1      -0.964  23.442  -2.058  1.00  0.00     0.012 A 
HETATM    8  C11 UNL     1      -1.369  22.516  -2.998  1.00  0.00     0.004 A 
HETATM    9  C12 UNL     1      -0.542  22.136  -4.034  1.00  0.00     0.037 A 
HETATM   10  C13 UNL     1       0.724  22.666  -4.175  1.00  0.00     0.080 A 
HETATM   11  C16 UNL     1       1.114  23.591  -3.228  1.00  0.00     0.049 A 
BRANCH  10  12
HETATM   12  O2  UNL     1       1.578  22.296  -5.214  1.00  0.00    -0.279 OA
BRANCH  12  13
HETATM   13  C14 UNL     1       2.265  21.080  -5.211  1.00  0.00     0.260 C 
HETATM   14  C15 UNL     1       3.635  20.973  -4.618  1.00  0.00     0.126 C 
HETATM   15  O3  UNL     1       1.670  20.100  -5.727  1.00  0.00    -0.265 OA
ENDBRANCH  12  13
ENDBRANCH  10  12
ENDBRANCH   5   6
BRANCH   1  16
HETATM   16  C2  UNL     1       3.309  24.475  -1.431  1.00  0.00    -0.042 C 
HETATM   17  C1  UNL     1       3.560  23.267  -0.982  1.00  0.00     0.021 C 
BRANCH  16  18
HETATM   18  C17 UNL     1       4.170  25.166  -2.418  1.00  0.00    -0.024 C 
HETATM   19  C18 UNL     1       4.788  24.186  -3.401  1.00  0.00     0.019 C 
HETATM   20  C19 UNL     1       3.382  26.159  -3.252  1.00  0.00     0.019 C 
HETATM   21  C20 UNL     1       5.292  25.861  -1.695  1.00  0.00     0.019 C 
ENDBRANCH  16  18
ENDBRANCH   1  16
BRANCH   3  22
HETATM   22  C5  UNL     1      -0.288  27.594   1.320  1.00  0.00     0.045 C 
HETATM   23  C6  UNL     1      -1.338  26.986   2.218  1.00  0.00     0.071 C 
HETATM   24  N1  UNL     1      -0.026  28.806   1.337  1.00  0.00    -0.273 N 
ATOM     25  H1  UNL     1      -0.576  29.350   2.002  1.00  0.00     0.194 HD
BRANCH  24  26
HETATM   26  O1  UNL     1       0.850  29.514   0.633  1.00  0.00    -0.290 OA
ATOM     27  H1  UNL     1       0.805  30.401   0.297  1.00  0.00     0.244 HD
ENDBRANCH  24  26
ENDBRANCH   3  22
TORSDOF 7
ENDMDL
