MODEL 1
REMARK VINA RESULT: -7.647479817      0.000      0.000
REMARK  5 active torsions:
REMARK  status: ('A' for Active; 'I' for Inactive)
REMARK    1  A    between atoms: C4_4  and  N1_5 
REMARK       I    between atoms: N1_5  and  C5_7 
REMARK    2  A    between atoms: C5_7  and  C6_9 
REMARK    3  A    between atoms: C9_12  and  S1_13 
REMARK    4  A    between atoms: S1_13  and  C10_14 
REMARK    5  A    between atoms: C14_18  and  N2_19 
ROOT
HETATM    1  C6  UNL     1      33.140  52.623   1.074  1.00  0.00     0.034 A 
HETATM    2  C7  UNL     1      32.682  51.544   0.354  1.00  0.00     0.018 A 
HETATM    3  C8  UNL     1      31.595  51.700  -0.514  1.00  0.00     0.022 A 
HETATM    4  C9  UNL     1      30.974  52.916  -0.662  1.00  0.00     0.034 A 
HETATM    5  C14 UNL     1      31.426  53.994   0.056  1.00  0.00     0.120 A 
HETATM    6  C15 UNL     1      32.502  53.837   0.914  1.00  0.00     0.054 A 
ENDROOT
BRANCH   1   7
HETATM    7  C5  UNL     1      34.279  52.493   1.988  1.00  0.00     0.256 C 
HETATM    8  N1  UNL     1      35.571  52.805   1.594  1.00  0.00    -0.317 N 
ATOM      9  H1  UNL     1      35.694  53.132   0.636  1.00  0.00     0.169 HD
HETATM   10  O1  UNL     1      34.023  52.086   3.141  1.00  0.00    -0.267 OA
BRANCH   8  11
HETATM   11  C4  UNL     1      36.759  52.713   2.410  1.00  0.00     0.077 A 
HETATM   12  C3  UNL     1      37.147  53.411   3.514  1.00  0.00     0.045 A 
HETATM   13  C2  UNL     1      38.336  53.099   4.076  1.00  0.00    -0.046 A 
HETATM   14  C1  UNL     1      38.868  53.814   5.313  1.00  0.00     0.049 C 
HETATM   15  C16 UNL     1      39.062  52.104   3.491  1.00  0.00    -0.013 A 
HETATM   16  S2  UNL     1      38.089  51.624   2.186  1.00  0.00    -0.077 SA
HETATM   17  C17 UNL     1      40.399  51.556   3.896  1.00  0.00     0.057 C 
ENDBRANCH   8  11
ENDBRANCH   1   7
BRANCH   5  18
HETATM   18  N2  UNL     1      30.823  55.276  -0.044  1.00  0.00    -0.114 N 
HETATM   19  O2  UNL     1      30.039  55.653   0.818  1.00  0.00    -0.532 OA
HETATM   20  O3  UNL     1      31.132  56.073  -1.110  1.00  0.00    -0.532 OA
ENDBRANCH   5  18
BRANCH   4  21
HETATM   21  S1  UNL     1      29.601  53.091  -1.764  1.00  0.00    -0.118 SA
BRANCH  21  22
HETATM   22  C10 UNL     1      28.043  52.572  -1.052  1.00  0.00     0.002 C 
HETATM   23  C11 UNL     1      26.892  52.770  -2.052  1.00  0.00     0.026 C 
HETATM   24  C12 UNL     1      27.633  53.355   0.175  1.00  0.00     0.026 C 
HETATM   25  C13 UNL     1      28.092  51.110  -0.675  1.00  0.00     0.026 C 
ENDBRANCH  21  22
ENDBRANCH   4  21
TORSDOF 5
ENDMDL
MODEL 2
REMARK VINA RESULT: -7.496145183      2.489      3.063
REMARK  5 active torsions:
REMARK  status: ('A' for Active; 'I' for Inactive)
REMARK    1  A    between atoms: C4_4  and  N1_5 
REMARK       I    between atoms: N1_5  and  C5_7 
REMARK    2  A    between atoms: C5_7  and  C6_9 
REMARK    3  A    between atoms: C9_12  and  S1_13 
REMARK    4  A    between atoms: S1_13  and  C10_14 
REMARK    5  A    between atoms: C14_18  and  N2_19 
ROOT
HETATM    1  C6  UNL     1      34.060  52.906   1.793  1.00  0.00     0.034 A 
HETATM    2  C7  UNL     1      33.218  53.973   2.002  1.00  0.00     0.018 A 
HETATM    3  C8  UNL     1      32.112  54.160   1.163  1.00  0.00     0.022 A 
HETATM    4  C9  UNL     1      31.851  53.293   0.132  1.00  0.00     0.034 A 
HETATM    5  C14 UNL     1      32.688  52.228  -0.082  1.00  0.00     0.120 A 
HETATM    6  C15 UNL     1      33.781  52.045   0.749  1.00  0.00     0.054 A 
ENDROOT
BRANCH   1   7
HETATM    7  C5  UNL     1      35.224  52.681   2.656  1.00  0.00     0.256 C 
HETATM    8  N1  UNL     1      36.509  53.001   2.247  1.00  0.00    -0.317 N 
ATOM      9  H1  UNL     1      36.609  53.403   1.315  1.00  0.00     0.169 HD
HETATM   10  O1  UNL     1      34.995  52.186   3.780  1.00  0.00    -0.267 OA
BRANCH   8  11
HETATM   11  C4  UNL     1      37.719  52.822   3.013  1.00  0.00     0.077 A 
HETATM   12  C3  UNL     1      38.731  51.916   2.895  1.00  0.00     0.045 A 
HETATM   13  C2  UNL     1      39.755  51.991   3.774  1.00  0.00    -0.046 A 
HETATM   14  C1  UNL     1      40.939  51.031   3.734  1.00  0.00     0.049 C 
HETATM   15  C16 UNL     1      39.698  52.973   4.718  1.00  0.00    -0.013 A 
HETATM   16  S2  UNL     1      38.239  53.766   4.371  1.00  0.00    -0.077 SA
HETATM   17  C17 UNL     1      40.682  53.287   5.806  1.00  0.00     0.057 C 
ENDBRANCH   8  11
ENDBRANCH   1   7
BRANCH   5  18
HETATM   18  N2  UNL     1      32.480  51.299  -1.136  1.00  0.00    -0.114 N 
HETATM   19  O2  UNL     1      33.134  51.385  -2.167  1.00  0.00    -0.532 OA
HETATM   20  O3  UNL     1      31.542  50.317  -0.979  1.00  0.00    -0.532 OA
ENDBRANCH   5  18
BRANCH   4  21
HETATM   21  S1  UNL     1      30.447  53.547  -0.917  1.00  0.00    -0.118 SA
BRANCH  21  22
HETATM   22  C10 UNL     1      29.630  55.116  -0.647  1.00  0.00     0.002 C 
HETATM   23  C11 UNL     1      28.508  55.331  -1.676  1.00  0.00     0.026 C 
HETATM   24  C12 UNL     1      30.535  56.318  -0.799  1.00  0.00     0.026 C 
HETATM   25  C13 UNL     1      29.019  55.167   0.734  1.00  0.00     0.026 C 
ENDBRANCH  21  22
ENDBRANCH   4  21
TORSDOF 5
ENDMDL
MODEL 3
REMARK VINA RESULT: -7.463329278      0.764      1.223
REMARK  5 active torsions:
REMARK  status: ('A' for Active; 'I' for Inactive)
REMARK    1  A    between atoms: C4_4  and  N1_5 
REMARK       I    between atoms: N1_5  and  C5_7 
REMARK    2  A    between atoms: C5_7  and  C6_9 
REMARK    3  A    between atoms: C9_12  and  S1_13 
REMARK    4  A    between atoms: S1_13  and  C10_14 
REMARK    5  A    between atoms: C14_18  and  N2_19 
ROOT
HETATM    1  C6  UNL     1      33.101  52.577   1.152  1.00  0.00     0.034 A 
HETATM    2  C7  UNL     1      32.666  51.481   0.444  1.00  0.00     0.018 A 
HETATM    3  C8  UNL     1      31.603  51.615  -0.459  1.00  0.00     0.022 A 
HETATM    4  C9  UNL     1      30.986  52.826  -0.651  1.00  0.00     0.034 A 
HETATM    5  C14 UNL     1      31.415  53.921   0.055  1.00  0.00     0.120 A 
HETATM    6  C15 UNL     1      32.466  53.785   0.947  1.00  0.00     0.054 A 
ENDROOT
BRANCH   1   7
HETATM    7  C5  UNL     1      34.214  52.469   2.101  1.00  0.00     0.256 C 
HETATM    8  N1  UNL     1      35.442  53.064   1.858  1.00  0.00    -0.317 N 
ATOM      9  H1  UNL     1      35.537  53.584   0.986  1.00  0.00     0.169 HD
HETATM   10  O1  UNL     1      33.996  51.813   3.141  1.00  0.00    -0.267 OA
BRANCH   8  11
HETATM   11  C4  UNL     1      36.599  53.020   2.720  1.00  0.00     0.077 A 
HETATM   12  C3  UNL     1      37.793  52.376   2.589  1.00  0.00     0.045 A 
HETATM   13  C2  UNL     1      38.704  52.522   3.577  1.00  0.00    -0.046 A 
HETATM   14  C1  UNL     1      40.071  51.848   3.535  1.00  0.00     0.049 C 
HETATM   15  C16 UNL     1      38.356  53.306   4.638  1.00  0.00    -0.013 A 
HETATM   16  S2  UNL     1      36.788  53.822   4.245  1.00  0.00    -0.077 SA
HETATM   17  C17 UNL     1      39.159  53.640   5.860  1.00  0.00     0.057 C 
ENDBRANCH   8  11
ENDBRANCH   1   7
BRANCH   5  18
HETATM   18  N2  UNL     1      30.813  55.199  -0.090  1.00  0.00    -0.114 N 
HETATM   19  O2  UNL     1      30.005  55.595   0.740  1.00  0.00    -0.532 OA
HETATM   20  O3  UNL     1      31.151  55.973  -1.165  1.00  0.00    -0.532 OA
ENDBRANCH   5  18
BRANCH   4  21
HETATM   21  S1  UNL     1      29.644  52.974  -1.796  1.00  0.00    -0.118 SA
BRANCH  21  22
HETATM   22  C10 UNL     1      28.068  52.463  -1.118  1.00  0.00     0.002 C 
HETATM   23  C11 UNL     1      26.939  52.678  -2.140  1.00  0.00     0.026 C 
HETATM   24  C12 UNL     1      27.640  53.241   0.105  1.00  0.00     0.026 C 
HETATM   25  C13 UNL     1      28.098  50.998  -0.751  1.00  0.00     0.026 C 
ENDBRANCH  21  22
ENDBRANCH   4  21
TORSDOF 5
ENDMDL
MODEL 4
REMARK VINA RESULT: -7.415728093      2.331      8.942
REMARK  5 active torsions:
REMARK  status: ('A' for Active; 'I' for Inactive)
REMARK    1  A    between atoms: C4_4  and  N1_5 
REMARK       I    between atoms: N1_5  and  C5_7 
REMARK    2  A    between atoms: C5_7  and  C6_9 
REMARK    3  A    between atoms: C9_12  and  S1_13 
REMARK    4  A    between atoms: S1_13  and  C10_14 
REMARK    5  A    between atoms: C14_18  and  N2_19 
ROOT
HETATM    1  C6  UNL     1      33.194  53.785   2.201  1.00  0.00     0.034 A 
HETATM    2  C7  UNL     1      33.842  52.708   1.642  1.00  0.00     0.018 A 
HETATM    3  C8  UNL     1      34.925  52.125   2.312  1.00  0.00     0.022 A 
HETATM    4  C9  UNL     1      35.354  52.611   3.523  1.00  0.00     0.034 A 
HETATM    5  C14 UNL     1      34.713  53.686   4.083  1.00  0.00     0.120 A 
HETATM    6  C15 UNL     1      33.642  54.260   3.418  1.00  0.00     0.054 A 
ENDROOT
BRANCH   1   7
HETATM    7  C5  UNL     1      32.055  54.415   1.527  1.00  0.00     0.256 C 
HETATM    8  N1  UNL     1      31.336  53.758   0.540  1.00  0.00    -0.317 N 
ATOM      9  H1  UNL     1      31.636  52.813   0.304  1.00  0.00     0.169 HD
HETATM   10  O1  UNL     1      31.766  55.575   1.889  1.00  0.00    -0.267 OA
BRANCH   8  11
HETATM   11  C4  UNL     1      30.204  54.284  -0.185  1.00  0.00     0.077 A 
HETATM   12  C3  UNL     1      29.085  53.673  -0.668  1.00  0.00     0.045 A 
HETATM   13  C2  UNL     1      28.178  54.435  -1.321  1.00  0.00    -0.046 A 
HETATM   14  C1  UNL     1      26.892  53.858  -1.901  1.00  0.00     0.049 C 
HETATM   15  C16 UNL     1      28.455  55.764  -1.448  1.00  0.00    -0.013 A 
HETATM   16  S2  UNL     1      29.952  55.930  -0.667  1.00  0.00    -0.077 SA
HETATM   17  C17 UNL     1      27.639  56.832  -2.115  1.00  0.00     0.057 C 
ENDBRANCH   8  11
ENDBRANCH   1   7
BRANCH   5  18
HETATM   18  N2  UNL     1      35.112  54.242   5.327  1.00  0.00    -0.114 N 
HETATM   19  O2  UNL     1      34.389  54.132   6.308  1.00  0.00    -0.532 OA
HETATM   20  O3  UNL     1      36.310  54.897   5.406  1.00  0.00    -0.532 OA
ENDBRANCH   5  18
BRANCH   4  21
HETATM   21  S1  UNL     1      36.725  51.860   4.352  1.00  0.00    -0.118 SA
BRANCH  21  22
HETATM   22  C10 UNL     1      38.316  52.376   3.714  1.00  0.00     0.002 C 
HETATM   23  C11 UNL     1      39.080  51.181   3.120  1.00  0.00     0.026 C 
HETATM   24  C12 UNL     1      39.243  52.952   4.760  1.00  0.00     0.026 C 
HETATM   25  C13 UNL     1      38.142  53.410   2.627  1.00  0.00     0.026 C 
ENDBRANCH  21  22
ENDBRANCH   4  21
TORSDOF 5
ENDMDL
MODEL 5
REMARK VINA RESULT: -7.392489908      2.391      2.799
REMARK  5 active torsions:
REMARK  status: ('A' for Active; 'I' for Inactive)
REMARK    1  A    between atoms: C4_4  and  N1_5 
REMARK       I    between atoms: N1_5  and  C5_7 
REMARK    2  A    between atoms: C5_7  and  C6_9 
REMARK    3  A    between atoms: C9_12  and  S1_13 
REMARK    4  A    between atoms: S1_13  and  C10_14 
REMARK    5  A    between atoms: C14_18  and  N2_19 
ROOT
HETATM    1  C6  UNL     1      34.001  52.949   1.611  1.00  0.00     0.034 A 
HETATM    2  C7  UNL     1      33.195  54.034   1.863  1.00  0.00     0.018 A 
HETATM    3  C8  UNL     1      32.052  54.247   1.082  1.00  0.00     0.022 A 
HETATM    4  C9  UNL     1      31.720  53.388   0.063  1.00  0.00     0.034 A 
HETATM    5  C14 UNL     1      32.523  52.305  -0.193  1.00  0.00     0.120 A 
HETATM    6  C15 UNL     1      33.652  52.097   0.582  1.00  0.00     0.054 A 
ENDROOT
BRANCH   1   7
HETATM    7  C5  UNL     1      35.202  52.698   2.414  1.00  0.00     0.256 C 
HETATM    8  N1  UNL     1      36.471  52.718   1.857  1.00  0.00    -0.317 N 
ATOM      9  H1  UNL     1      36.533  52.917   0.859  1.00  0.00     0.169 HD
HETATM   10  O1  UNL     1      35.020  52.464   3.628  1.00  0.00    -0.267 OA
BRANCH   8  11
HETATM   11  C4  UNL     1      37.714  52.484   2.553  1.00  0.00     0.077 A 
HETATM   12  C3  UNL     1      38.334  53.184   3.545  1.00  0.00     0.045 A 
HETATM   13  C2  UNL     1      39.514  52.716   4.010  1.00  0.00    -0.046 A 
HETATM   14  C1  UNL     1      40.293  53.418   5.117  1.00  0.00     0.049 C 
HETATM   15  C16 UNL     1      39.997  51.571   3.447  1.00  0.00    -0.013 A 
HETATM   16  S2  UNL     1      38.817  51.171   2.297  1.00  0.00    -0.077 SA
HETATM   17  C17 UNL     1      41.265  50.834   3.763  1.00  0.00     0.057 C 
ENDBRANCH   8  11
ENDBRANCH   1   7
BRANCH   5  18
HETATM   18  N2  UNL     1      32.241  51.384  -1.236  1.00  0.00    -0.114 N 
HETATM   19  O2  UNL     1      32.873  51.432  -2.284  1.00  0.00    -0.532 OA
HETATM   20  O3  UNL     1      31.259  50.451  -1.050  1.00  0.00    -0.532 OA
ENDBRANCH   5  18
BRANCH   4  21
HETATM   21  S1  UNL     1      30.272  53.674  -0.913  1.00  0.00    -0.118 SA
BRANCH  21  22
HETATM   22  C10 UNL     1      29.525  55.276  -0.627  1.00  0.00     0.002 C 
HETATM   23  C11 UNL     1      28.405  55.545  -1.645  1.00  0.00     0.026 C 
HETATM   24  C12 UNL     1      30.480  56.439  -0.781  1.00  0.00     0.026 C 
HETATM   25  C13 UNL     1      28.928  55.345   0.759  1.00  0.00     0.026 C 
ENDBRANCH  21  22
ENDBRANCH   4  21
TORSDOF 5
ENDMDL
