MODEL 1
REMARK VINA RESULT: -8.526045020      0.000      0.000
REMARK  6 active torsions:
REMARK  status: ('A' for Active; 'I' for Inactive)
REMARK    1  A    between atoms: C3_3  and  C4_4 
REMARK    2  A    between atoms: C5_5  and  C6_6 
REMARK    3  A    between atoms: C6_6  and  C7_8 
REMARK    4  A    between atoms: C8_9  and  C9_10 
REMARK    5  A    between atoms: C10_11  and  C11_12 
REMARK    6  A    between atoms: C20_24  and  O5_25 
ROOT
HETATM    1  C7  UNL     1      39.367  52.921   4.230  1.00  0.00     0.051 C 
HETATM    2  C8  UNL     1      38.211  52.316   4.167  1.00  0.00    -0.014 C 
ENDROOT
BRANCH   1   3
HETATM    3  C6  UNL     1      40.579  52.143   4.418  1.00  0.00     0.171 C 
HETATM    4  O1  UNL     1      41.314  52.466   5.417  1.00  0.00    -0.289 OA
BRANCH   3   5
HETATM    5  C5  UNL     1      40.989  51.047   3.554  1.00  0.00     0.055 C 
HETATM    6  C4  UNL     1      40.480  50.839   2.362  1.00  0.00     0.018 C 
BRANCH   6   7
HETATM    7  C3  UNL     1      40.915  49.724   1.518  1.00  0.00    -0.003 A 
HETATM    8  C2  UNL     1      40.154  48.742   0.968  1.00  0.00     0.008 A 
HETATM    9  C1  UNL     1      38.674  48.629   1.144  1.00  0.00     0.054 C 
HETATM   10  C20 UNL     1      40.982  47.906   0.250  1.00  0.00     0.189 A 
HETATM   11  O4  UNL     1      42.190  48.392   0.378  1.00  0.00    -0.299 OA
HETATM   12  C19 UNL     1      42.211  49.472   1.121  1.00  0.00     0.157 A 
BRANCH  10  13
HETATM   13  O5  UNL     1      40.559  46.801  -0.442  1.00  0.00    -0.340 OA
ATOM     14  H5  UNL     1      40.757  46.629  -1.355  1.00  0.00     0.220 HD
ENDBRANCH  10  13
ENDBRANCH   6   7
ENDBRANCH   3   5
ENDBRANCH   1   3
BRANCH   2  15
HETATM   15  C9  UNL     1      36.885  52.909   3.984  1.00  0.00     0.056 C 
HETATM   16  C10 UNL     1      35.945  52.827   5.122  1.00  0.00     0.148 C 
HETATM   17  O2  UNL     1      34.652  52.654   4.547  1.00  0.00    -0.314 OA
HETATM   18  C15 UNL     1      34.730  52.757   3.167  1.00  0.00     0.268 C 
HETATM   19  O3  UNL     1      33.807  53.131   2.393  1.00  0.00    -0.264 OA
HETATM   20  C16 UNL     1      36.117  52.336   2.829  1.00  0.00     0.050 C 
HETATM   21  C17 UNL     1      36.125  50.824   2.817  1.00  0.00     0.026 C 
HETATM   22  C18 UNL     1      36.567  52.844   1.493  1.00  0.00     0.026 C 
BRANCH  16  23
HETATM   23  C11 UNL     1      35.869  54.099   5.943  1.00  0.00    -0.024 C 
HETATM   24  C12 UNL     1      36.435  55.212   5.073  1.00  0.00     0.017 C 
HETATM   25  C13 UNL     1      36.801  53.994   7.142  1.00  0.00     0.017 C 
HETATM   26  C14 UNL     1      34.477  54.457   6.353  1.00  0.00     0.017 C 
ENDBRANCH  16  23
ENDBRANCH   2  15
TORSDOF 6
ENDMDL
MODEL 2
REMARK VINA RESULT: -8.422835941      2.535      5.027
REMARK  6 active torsions:
REMARK  status: ('A' for Active; 'I' for Inactive)
REMARK    1  A    between atoms: C3_3  and  C4_4 
REMARK    2  A    between atoms: C5_5  and  C6_6 
REMARK    3  A    between atoms: C6_6  and  C7_8 
REMARK    4  A    between atoms: C8_9  and  C9_10 
REMARK    5  A    between atoms: C10_11  and  C11_12 
REMARK    6  A    between atoms: C20_24  and  O5_25 
ROOT
HETATM    1  C7  UNL     1      34.786  53.426   3.852  1.00  0.00     0.051 C 
HETATM    2  C8  UNL     1      35.252  52.907   2.747  1.00  0.00    -0.014 C 
ENDROOT
BRANCH   1   3
HETATM    3  C6  UNL     1      35.692  53.731   4.945  1.00  0.00     0.171 C 
HETATM    4  O1  UNL     1      35.255  54.540   5.837  1.00  0.00    -0.289 OA
BRANCH   3   5
HETATM    5  C5  UNL     1      37.032  53.179   5.073  1.00  0.00     0.055 C 
HETATM    6  C4  UNL     1      38.072  53.650   4.423  1.00  0.00     0.018 C 
BRANCH   6   7
HETATM    7  C3  UNL     1      39.408  53.070   4.575  1.00  0.00    -0.003 A 
HETATM    8  C2  UNL     1      39.991  52.100   3.823  1.00  0.00     0.008 A 
HETATM    9  C1  UNL     1      39.333  51.430   2.660  1.00  0.00     0.054 C 
HETATM   10  C20 UNL     1      41.254  51.867   4.326  1.00  0.00     0.189 A 
HETATM   11  O4  UNL     1      41.397  52.680   5.340  1.00  0.00    -0.299 OA
HETATM   12  C19 UNL     1      40.333  53.420   5.535  1.00  0.00     0.157 A 
BRANCH  10  13
HETATM   13  O5  UNL     1      42.135  50.949   3.815  1.00  0.00    -0.340 OA
ATOM     14  H5  UNL     1      42.924  50.657   4.257  1.00  0.00     0.220 HD
ENDBRANCH  10  13
ENDBRANCH   6   7
ENDBRANCH   3   5
ENDBRANCH   1   3
BRANCH   2  15
HETATM   15  C9  UNL     1      34.516  52.528   1.540  1.00  0.00     0.056 C 
HETATM   16  C10 UNL     1      33.048  52.707   1.559  1.00  0.00     0.148 C 
HETATM   17  O2  UNL     1      32.515  51.623   0.802  1.00  0.00    -0.314 OA
HETATM   18  C15 UNL     1      33.545  50.894   0.228  1.00  0.00     0.268 C 
HETATM   19  O3  UNL     1      33.478  50.216  -0.833  1.00  0.00    -0.264 OA
HETATM   20  C16 UNL     1      34.708  51.097   1.134  1.00  0.00     0.050 C 
HETATM   21  C17 UNL     1      34.537  50.135   2.289  1.00  0.00     0.026 C 
HETATM   22  C18 UNL     1      36.020  50.831   0.460  1.00  0.00     0.026 C 
BRANCH  16  23
HETATM   23  C11 UNL     1      32.579  53.970   0.867  1.00  0.00    -0.024 C 
HETATM   24  C12 UNL     1      32.157  54.937   1.965  1.00  0.00     0.017 C 
HETATM   25  C13 UNL     1      31.319  53.680   0.063  1.00  0.00     0.017 C 
HETATM   26  C14 UNL     1      33.635  54.614   0.027  1.00  0.00     0.017 C 
ENDBRANCH  16  23
ENDBRANCH   2  15
TORSDOF 6
ENDMDL
MODEL 3
REMARK VINA RESULT: -8.164841690      0.538      1.264
REMARK  6 active torsions:
REMARK  status: ('A' for Active; 'I' for Inactive)
REMARK    1  A    between atoms: C3_3  and  C4_4 
REMARK    2  A    between atoms: C5_5  and  C6_6 
REMARK    3  A    between atoms: C6_6  and  C7_8 
REMARK    4  A    between atoms: C8_9  and  C9_10 
REMARK    5  A    between atoms: C10_11  and  C11_12 
REMARK    6  A    between atoms: C20_24  and  O5_25 
ROOT
HETATM    1  C7  UNL     1      39.273  52.855   4.180  1.00  0.00     0.051 C 
HETATM    2  C8  UNL     1      38.110  52.280   4.022  1.00  0.00    -0.014 C 
ENDROOT
BRANCH   1   3
HETATM    3  C6  UNL     1      40.475  52.044   4.262  1.00  0.00     0.171 C 
HETATM    4  O1  UNL     1      41.387  52.458   5.061  1.00  0.00    -0.289 OA
BRANCH   3   5
HETATM    5  C5  UNL     1      40.688  50.820   3.505  1.00  0.00     0.055 C 
HETATM    6  C4  UNL     1      40.426  50.710   2.223  1.00  0.00     0.018 C 
BRANCH   6   7
HETATM    7  C3  UNL     1      40.652  49.462   1.491  1.00  0.00    -0.003 A 
HETATM    8  C2  UNL     1      41.779  49.060   0.847  1.00  0.00     0.008 A 
HETATM    9  C1  UNL     1      43.037  49.866   0.773  1.00  0.00     0.054 C 
HETATM   10  C20 UNL     1      41.542  47.818   0.297  1.00  0.00     0.189 A 
HETATM   11  O4  UNL     1      40.311  47.509   0.616  1.00  0.00    -0.299 OA
HETATM   12  C19 UNL     1      39.734  48.448   1.325  1.00  0.00     0.157 A 
BRANCH  10  13
HETATM   13  O5  UNL     1      42.458  47.103  -0.428  1.00  0.00    -0.340 OA
ATOM     14  H5  UNL     1      42.358  46.189  -0.671  1.00  0.00     0.220 HD
ENDBRANCH  10  13
ENDBRANCH   6   7
ENDBRANCH   3   5
ENDBRANCH   1   3
BRANCH   2  15
HETATM   15  C9  UNL     1      36.793  52.908   3.918  1.00  0.00     0.056 C 
HETATM   16  C10 UNL     1      35.916  52.842   5.107  1.00  0.00     0.148 C 
HETATM   17  O2  UNL     1      34.589  52.708   4.605  1.00  0.00    -0.314 OA
HETATM   18  C15 UNL     1      34.592  52.819   3.223  1.00  0.00     0.268 C 
HETATM   19  O3  UNL     1      33.637  53.222   2.505  1.00  0.00    -0.264 OA
HETATM   20  C16 UNL     1      35.946  52.364   2.805  1.00  0.00     0.050 C 
HETATM   21  C17 UNL     1      35.913  50.852   2.783  1.00  0.00     0.026 C 
HETATM   22  C18 UNL     1      36.333  52.870   1.449  1.00  0.00     0.026 C 
BRANCH  16  23
HETATM   23  C11 UNL     1      35.921  54.109   5.938  1.00  0.00    -0.024 C 
HETATM   24  C12 UNL     1      36.410  55.226   5.027  1.00  0.00     0.017 C 
HETATM   25  C13 UNL     1      36.957  53.995   7.048  1.00  0.00     0.017 C 
HETATM   26  C14 UNL     1      34.573  54.471   6.475  1.00  0.00     0.017 C 
ENDBRANCH  16  23
ENDBRANCH   2  15
TORSDOF 6
ENDMDL
MODEL 4
REMARK VINA RESULT: -8.002639056      0.979      2.783
REMARK  6 active torsions:
REMARK  status: ('A' for Active; 'I' for Inactive)
REMARK    1  A    between atoms: C3_3  and  C4_4 
REMARK    2  A    between atoms: C5_5  and  C6_6 
REMARK    3  A    between atoms: C6_6  and  C7_8 
REMARK    4  A    between atoms: C8_9  and  C9_10 
REMARK    5  A    between atoms: C10_11  and  C11_12 
REMARK    6  A    between atoms: C20_24  and  O5_25 
ROOT
HETATM    1  C7  UNL     1      38.844  52.958   3.915  1.00  0.00     0.051 C 
HETATM    2  C8  UNL     1      37.904  52.402   4.633  1.00  0.00    -0.014 C 
ENDROOT
BRANCH   1   3
HETATM    3  C6  UNL     1      40.207  52.464   4.001  1.00  0.00     0.171 C 
HETATM    4  O1  UNL     1      40.987  53.084   4.806  1.00  0.00    -0.289 OA
BRANCH   3   5
HETATM    5  C5  UNL     1      40.714  51.332   3.241  1.00  0.00     0.055 C 
HETATM    6  C4  UNL     1      40.139  50.877   2.152  1.00  0.00     0.018 C 
BRANCH   6   7
HETATM    7  C3  UNL     1      40.676  49.735   1.411  1.00  0.00    -0.003 A 
HETATM    8  C2  UNL     1      39.994  48.697   0.859  1.00  0.00     0.008 A 
HETATM    9  C1  UNL     1      38.508  48.542   0.921  1.00  0.00     0.054 C 
HETATM   10  C20 UNL     1      40.904  47.854   0.258  1.00  0.00     0.189 A 
HETATM   11  O4  UNL     1      42.081  48.389   0.457  1.00  0.00    -0.299 OA
HETATM   12  C19 UNL     1      42.008  49.508   1.135  1.00  0.00     0.157 A 
BRANCH  10  13
HETATM   13  O5  UNL     1      40.574  46.698  -0.401  1.00  0.00    -0.340 OA
ATOM     14  H5  UNL     1      41.181  45.991  -0.584  1.00  0.00     0.220 HD
ENDBRANCH  10  13
ENDBRANCH   6   7
ENDBRANCH   3   5
ENDBRANCH   1   3
BRANCH   2  15
HETATM   15  C9  UNL     1      36.483  52.746   4.692  1.00  0.00     0.056 C 
HETATM   16  C10 UNL     1      35.810  53.063   3.414  1.00  0.00     0.148 C 
HETATM   17  O2  UNL     1      34.862  54.084   3.717  1.00  0.00    -0.314 OA
HETATM   18  C15 UNL     1      34.825  54.306   5.085  1.00  0.00     0.268 C 
HETATM   19  O3  UNL     1      33.842  54.739   5.744  1.00  0.00    -0.264 OA
HETATM   20  C16 UNL     1      36.179  53.924   5.571  1.00  0.00     0.050 C 
HETATM   21  C17 UNL     1      37.089  55.101   5.303  1.00  0.00     0.026 C 
HETATM   22  C18 UNL     1      36.199  53.606   7.035  1.00  0.00     0.026 C 
BRANCH  16  23
HETATM   23  C11 UNL     1      35.011  51.909   2.843  1.00  0.00    -0.024 C 
HETATM   24  C12 UNL     1      35.875  51.275   1.762  1.00  0.00     0.017 C 
HETATM   25  C13 UNL     1      33.775  52.439   2.131  1.00  0.00     0.017 C 
HETATM   26  C14 UNL     1      34.661  50.870   3.861  1.00  0.00     0.017 C 
ENDBRANCH  16  23
ENDBRANCH   2  15
TORSDOF 6
ENDMDL
MODEL 5
REMARK VINA RESULT: -7.781454169      2.675      5.975
REMARK  6 active torsions:
REMARK  status: ('A' for Active; 'I' for Inactive)
REMARK    1  A    between atoms: C3_3  and  C4_4 
REMARK    2  A    between atoms: C5_5  and  C6_6 
REMARK    3  A    between atoms: C6_6  and  C7_8 
REMARK    4  A    between atoms: C8_9  and  C9_10 
REMARK    5  A    between atoms: C10_11  and  C11_12 
REMARK    6  A    between atoms: C20_24  and  O5_25 
ROOT
HETATM    1  C7  UNL     1      37.414  49.688   0.541  1.00  0.00     0.051 C 
HETATM    2  C8  UNL     1      36.336  49.898   1.249  1.00  0.00    -0.014 C 
ENDROOT
BRANCH   1   3
HETATM    3  C6  UNL     1      38.626  49.221   1.192  1.00  0.00     0.171 C 
HETATM    4  O1  UNL     1      39.163  48.166   0.704  1.00  0.00    -0.289 OA
BRANCH   3   5
HETATM    5  C5  UNL     1      39.242  49.875   2.336  1.00  0.00     0.055 C 
HETATM    6  C4  UNL     1      39.389  51.176   2.431  1.00  0.00     0.018 C 
BRANCH   6   7
HETATM    7  C3  UNL     1      40.014  51.802   3.599  1.00  0.00    -0.003 A 
HETATM    8  C2  UNL     1      39.471  52.702   4.459  1.00  0.00     0.008 A 
HETATM    9  C1  UNL     1      38.077  53.231   4.350  1.00  0.00     0.054 C 
HETATM   10  C20 UNL     1      40.420  53.018   5.408  1.00  0.00     0.189 A 
HETATM   11  O4  UNL     1      41.483  52.318   5.106  1.00  0.00    -0.299 OA
HETATM   12  C19 UNL     1      41.301  51.577   4.041  1.00  0.00     0.157 A 
BRANCH  10  13
HETATM   13  O5  UNL     1      40.223  53.899   6.439  1.00  0.00    -0.340 OA
ATOM     14  H5  UNL     1      40.411  53.711   7.352  1.00  0.00     0.220 HD
ENDBRANCH  10  13
ENDBRANCH   6   7
ENDBRANCH   3   5
ENDBRANCH   1   3
BRANCH   2  15
HETATM   15  C9  UNL     1      35.026  50.364   0.792  1.00  0.00     0.056 C 
HETATM   16  C10 UNL     1      34.882  50.670  -0.647  1.00  0.00     0.148 C 
HETATM   17  O2  UNL     1      33.992  51.782  -0.720  1.00  0.00    -0.314 OA
HETATM   18  C15 UNL     1      33.497  52.076   0.540  1.00  0.00     0.268 C 
HETATM   19  O3  UNL     1      32.391  52.624   0.798  1.00  0.00    -0.264 OA
HETATM   20  C16 UNL     1      34.547  51.606   1.484  1.00  0.00     0.050 C 
HETATM   21  C17 UNL     1      35.604  52.688   1.537  1.00  0.00     0.026 C 
HETATM   22  C18 UNL     1      34.018  51.364   2.864  1.00  0.00     0.026 C 
BRANCH  16  23
HETATM   23  C11 UNL     1      34.228  49.560  -1.444  1.00  0.00    -0.024 C 
HETATM   24  C12 UNL     1      35.317  48.950  -2.315  1.00  0.00     0.017 C 
HETATM   25  C13 UNL     1      33.206  50.148  -2.407  1.00  0.00     0.017 C 
HETATM   26  C14 UNL     1      33.629  48.490  -0.588  1.00  0.00     0.017 C 
ENDBRANCH  16  23
ENDBRANCH   2  15
TORSDOF 6
ENDMDL
