MODEL 1
REMARK VINA RESULT: -7.671103120      0.000      0.000
REMARK  6 active torsions:
REMARK  status: ('A' for Active; 'I' for Inactive)
REMARK    1  A    between atoms: C4_4  and  N1_5 
REMARK       I    between atoms: N1_5  and  C5_7 
REMARK    2  A    between atoms: C5_7  and  O2_9 
REMARK    3  A    between atoms: O2_9  and  C6_10 
REMARK    4  A    between atoms: C11_15  and  N2_16 
REMARK    5  A    between atoms: C12_19  and  S1_20 
REMARK    6  A    between atoms: S1_20  and  C13_21 
ROOT
HETATM    1  C1  UNL     1      33.839  51.577   1.458  1.00  0.00     0.049 C 
HETATM    2  C2  UNL     1      33.330  52.936   1.854  1.00  0.00    -0.040 A 
HETATM    3  C3  UNL     1      32.578  53.697   0.948  1.00  0.00     0.038 A 
HETATM    4  C4  UNL     1      32.099  54.937   1.274  1.00  0.00     0.039 A 
HETATM    5  C10 UNL     1      32.399  55.412   2.572  1.00  0.00     0.067 A 
HETATM    6  C11 UNL     1      33.136  54.652   3.446  1.00  0.00     0.122 A 
HETATM    7  C12 UNL     1      33.602  53.416   3.089  1.00  0.00     0.044 A 
ENDROOT
BRANCH   4   8
HETATM    8  N1  UNL     1      31.355  55.752   0.415  1.00  0.00    -0.303 N 
HETATM    9  C5  UNL     1      30.394  55.318  -0.517  1.00  0.00     0.365 C 
HETATM   10  O1  UNL     1      30.033  54.149  -0.746  1.00  0.00    -0.238 OA
ATOM     11  H1  UNL     1      31.526  56.756   0.468  1.00  0.00     0.171 HD
BRANCH   9  12
HETATM   12  O2  UNL     1      29.724  56.273  -1.313  1.00  0.00    -0.294 OA
BRANCH  12  13
HETATM   13  C6  UNL     1      28.521  56.831  -0.908  1.00  0.00     0.061 C 
HETATM   14  C7  UNL     1      27.907  56.173   0.303  1.00  0.00     0.046 C 
HETATM   15  C8  UNL     1      27.522  56.633  -2.054  1.00  0.00     0.046 C 
HETATM   16  C9  UNL     1      28.599  58.314  -0.638  1.00  0.00     0.046 C 
ENDBRANCH  12  13
ENDBRANCH   9  12
ENDBRANCH   4   8
BRANCH   6  17
HETATM   17  N2  UNL     1      33.446  55.119   4.759  1.00  0.00    -0.114 N 
HETATM   18  O3  UNL     1      34.561  55.622   5.038  1.00  0.00    -0.532 OA
HETATM   19  O4  UNL     1      32.513  55.027   5.766  1.00  0.00    -0.532 OA
ENDBRANCH   6  17
BRANCH   7  20
HETATM   20  S1  UNL     1      34.569  52.403   4.212  1.00  0.00    -0.087 SA
BRANCH  20  21
HETATM   21  C13 UNL     1      36.312  52.874   4.101  1.00  0.00     0.005 A 
HETATM   22  C14 UNL     1      36.954  53.348   5.211  1.00  0.00     0.019 A 
HETATM   23  C15 UNL     1      38.273  53.711   5.154  1.00  0.00     0.001 A 
HETATM   24  C16 UNL     1      38.982  53.601   3.954  1.00  0.00     0.000 A 
HETATM   25  C17 UNL     1      38.314  53.121   2.849  1.00  0.00     0.001 A 
HETATM   26  C18 UNL     1      36.993  52.760   2.918  1.00  0.00     0.019 A 
ENDBRANCH  20  21
ENDBRANCH   7  20
TORSDOF 6
ENDMDL
MODEL 2
REMARK VINA RESULT: -7.563153966      2.447      3.450
REMARK  6 active torsions:
REMARK  status: ('A' for Active; 'I' for Inactive)
REMARK    1  A    between atoms: C4_4  and  N1_5 
REMARK       I    between atoms: N1_5  and  C5_7 
REMARK    2  A    between atoms: C5_7  and  O2_9 
REMARK    3  A    between atoms: O2_9  and  C6_10 
REMARK    4  A    between atoms: C11_15  and  N2_16 
REMARK    5  A    between atoms: C12_19  and  S1_20 
REMARK    6  A    between atoms: S1_20  and  C13_21 
ROOT
HETATM    1  C1  UNL     1      33.595  53.445   3.119  1.00  0.00     0.049 C 
HETATM    2  C2  UNL     1      33.062  53.160   1.741  1.00  0.00    -0.040 A 
HETATM    3  C3  UNL     1      32.218  54.083   1.109  1.00  0.00     0.038 A 
HETATM    4  C4  UNL     1      31.714  53.857  -0.144  1.00  0.00     0.039 A 
HETATM    5  C10 UNL     1      32.089  52.646  -0.769  1.00  0.00     0.067 A 
HETATM    6  C11 UNL     1      32.917  51.753  -0.134  1.00  0.00     0.122 A 
HETATM    7  C12 UNL     1      33.403  52.009   1.119  1.00  0.00     0.044 A 
ENDROOT
BRANCH   4   8
HETATM    8  N1  UNL     1      30.859  54.729  -0.825  1.00  0.00    -0.303 N 
HETATM    9  C5  UNL     1      30.853  56.133  -0.725  1.00  0.00     0.365 C 
HETATM   10  O1  UNL     1      31.593  56.847  -0.025  1.00  0.00    -0.238 OA
ATOM     11  H1  UNL     1      30.174  54.308  -1.453  1.00  0.00     0.171 HD
BRANCH   9  12
HETATM   12  O2  UNL     1      29.922  56.874  -1.486  1.00  0.00    -0.294 OA
BRANCH  12  13
HETATM   13  C6  UNL     1      28.641  57.120  -1.016  1.00  0.00     0.061 C 
HETATM   14  C7  UNL     1      28.218  56.231   0.128  1.00  0.00     0.046 C 
HETATM   15  C8  UNL     1      27.672  56.824  -2.166  1.00  0.00     0.046 C 
HETATM   16  C9  UNL     1      28.410  58.551  -0.598  1.00  0.00     0.046 C 
ENDBRANCH  12  13
ENDBRANCH   9  12
ENDBRANCH   4   8
BRANCH   6  17
HETATM   17  N2  UNL     1      33.303  50.526  -0.753  1.00  0.00    -0.114 N 
HETATM   18  O3  UNL     1      32.571  49.508  -0.722  1.00  0.00    -0.532 OA
HETATM   19  O4  UNL     1      34.508  50.430  -1.411  1.00  0.00    -0.532 OA
ENDBRANCH   6  17
BRANCH   7  20
HETATM   20  S1  UNL     1      34.486  50.858   1.972  1.00  0.00    -0.087 SA
BRANCH  20  21
HETATM   21  C13 UNL     1      35.974  51.725   2.524  1.00  0.00     0.005 A 
HETATM   22  C14 UNL     1      36.382  51.603   3.823  1.00  0.00     0.019 A 
HETATM   23  C15 UNL     1      37.505  52.249   4.267  1.00  0.00     0.001 A 
HETATM   24  C16 UNL     1      38.250  53.045   3.392  1.00  0.00     0.000 A 
HETATM   25  C17 UNL     1      37.820  53.153   2.089  1.00  0.00     0.001 A 
HETATM   26  C18 UNL     1      36.694  52.502   1.656  1.00  0.00     0.019 A 
ENDBRANCH  20  21
ENDBRANCH   7  20
TORSDOF 6
ENDMDL
MODEL 3
REMARK VINA RESULT: -7.508147874      2.410      3.175
REMARK  6 active torsions:
REMARK  status: ('A' for Active; 'I' for Inactive)
REMARK    1  A    between atoms: C4_4  and  N1_5 
REMARK       I    between atoms: N1_5  and  C5_7 
REMARK    2  A    between atoms: C5_7  and  O2_9 
REMARK    3  A    between atoms: O2_9  and  C6_10 
REMARK    4  A    between atoms: C11_15  and  N2_16 
REMARK    5  A    between atoms: C12_19  and  S1_20 
REMARK    6  A    between atoms: S1_20  and  C13_21 
ROOT
HETATM    1  C1  UNL     1      36.020  49.836  -0.496  1.00  0.00     0.049 C 
HETATM    2  C2  UNL     1      35.031  50.688   0.251  1.00  0.00    -0.040 A 
HETATM    3  C3  UNL     1      34.082  51.445  -0.451  1.00  0.00     0.038 A 
HETATM    4  C4  UNL     1      33.167  52.231   0.196  1.00  0.00     0.039 A 
HETATM    5  C10 UNL     1      33.226  52.240   1.609  1.00  0.00     0.067 A 
HETATM    6  C11 UNL     1      34.161  51.493   2.279  1.00  0.00     0.122 A 
HETATM    7  C12 UNL     1      35.063  50.718   1.603  1.00  0.00     0.044 A 
ENDROOT
BRANCH   4   8
HETATM    8  N1  UNL     1      32.205  53.019  -0.443  1.00  0.00    -0.303 N 
HETATM    9  C5  UNL     1      32.316  54.391  -0.736  1.00  0.00     0.365 C 
HETATM   10  O1  UNL     1      33.274  55.146  -0.485  1.00  0.00    -0.238 OA
ATOM     11  H1  UNL     1      31.341  52.556  -0.724  1.00  0.00     0.171 HD
BRANCH   9  12
HETATM   12  O2  UNL     1      31.252  55.045  -1.393  1.00  0.00    -0.294 OA
BRANCH  12  13
HETATM   13  C6  UNL     1      30.078  55.362  -0.725  1.00  0.00     0.061 C 
HETATM   14  C7  UNL     1      28.900  54.495  -1.094  1.00  0.00     0.046 C 
HETATM   15  C8  UNL     1      29.699  56.791  -1.130  1.00  0.00     0.046 C 
HETATM   16  C9  UNL     1      30.211  55.346   0.778  1.00  0.00     0.046 C 
ENDBRANCH  12  13
ENDBRANCH   9  12
ENDBRANCH   4   8
BRANCH   6  17
HETATM   17  N2  UNL     1      34.231  51.494   3.706  1.00  0.00    -0.114 N 
HETATM   18  O3  UNL     1      34.045  50.453   4.380  1.00  0.00    -0.532 OA
HETATM   19  O4  UNL     1      34.510  52.657   4.386  1.00  0.00    -0.532 OA
ENDBRANCH   6  17
BRANCH   7  20
HETATM   20  S1  UNL     1      36.298  49.731   2.456  1.00  0.00    -0.087 SA
BRANCH  20  21
HETATM   21  C13 UNL     1      37.725  50.766   2.859  1.00  0.00     0.005 A 
HETATM   22  C14 UNL     1      38.963  50.417   2.397  1.00  0.00     0.019 A 
HETATM   23  C15 UNL     1      40.060  51.183   2.687  1.00  0.00     0.001 A 
HETATM   24  C16 UNL     1      39.925  52.338   3.464  1.00  0.00     0.000 A 
HETATM   25  C17 UNL     1      38.669  52.669   3.919  1.00  0.00     0.001 A 
HETATM   26  C18 UNL     1      37.578  51.895   3.622  1.00  0.00     0.019 A 
ENDBRANCH  20  21
ENDBRANCH   7  20
TORSDOF 6
ENDMDL
MODEL 4
REMARK VINA RESULT: -7.475370346      2.416      3.052
REMARK  6 active torsions:
REMARK  status: ('A' for Active; 'I' for Inactive)
REMARK    1  A    between atoms: C4_4  and  N1_5 
REMARK       I    between atoms: N1_5  and  C5_7 
REMARK    2  A    between atoms: C5_7  and  O2_9 
REMARK    3  A    between atoms: O2_9  and  C6_10 
REMARK    4  A    between atoms: C11_15  and  N2_16 
REMARK    5  A    between atoms: C12_19  and  S1_20 
REMARK    6  A    between atoms: S1_20  and  C13_21 
ROOT
HETATM    1  C1  UNL     1      36.025  49.793  -0.477  1.00  0.00     0.049 C 
HETATM    2  C2  UNL     1      35.033  50.646   0.266  1.00  0.00    -0.040 A 
HETATM    3  C3  UNL     1      34.083  51.398  -0.439  1.00  0.00     0.038 A 
HETATM    4  C4  UNL     1      33.166  52.185   0.204  1.00  0.00     0.039 A 
HETATM    5  C10 UNL     1      33.223  52.200   1.617  1.00  0.00     0.067 A 
HETATM    6  C11 UNL     1      34.161  51.458   2.290  1.00  0.00     0.122 A 
HETATM    7  C12 UNL     1      35.064  50.682   1.618  1.00  0.00     0.044 A 
ENDROOT
BRANCH   4   8
HETATM    8  N1  UNL     1      32.202  52.968  -0.439  1.00  0.00    -0.303 N 
HETATM    9  C5  UNL     1      32.315  54.336  -0.749  1.00  0.00     0.365 C 
HETATM   10  O1  UNL     1      33.276  55.091  -0.512  1.00  0.00    -0.238 OA
ATOM     11  H1  UNL     1      31.335  52.504  -0.710  1.00  0.00     0.171 HD
BRANCH   9  12
HETATM   12  O2  UNL     1      31.248  54.985  -1.408  1.00  0.00    -0.294 OA
BRANCH  12  13
HETATM   13  C6  UNL     1      30.129  55.419  -0.712  1.00  0.00     0.061 C 
HETATM   14  C7  UNL     1      30.271  55.363   0.789  1.00  0.00     0.046 C 
HETATM   15  C8  UNL     1      28.979  54.468  -1.067  1.00  0.00     0.046 C 
HETATM   16  C9  UNL     1      29.684  56.812  -1.083  1.00  0.00     0.046 C 
ENDBRANCH  12  13
ENDBRANCH   9  12
ENDBRANCH   4   8
BRANCH   6  17
HETATM   17  N2  UNL     1      34.230  51.465   3.717  1.00  0.00    -0.114 N 
HETATM   18  O3  UNL     1      34.037  50.428   4.395  1.00  0.00    -0.532 OA
HETATM   19  O4  UNL     1      34.515  52.630   4.391  1.00  0.00    -0.532 OA
ENDBRANCH   6  17
BRANCH   7  20
HETATM   20  S1  UNL     1      36.301  49.701   2.475  1.00  0.00    -0.087 SA
BRANCH  20  21
HETATM   21  C13 UNL     1      37.734  50.737   2.857  1.00  0.00     0.005 A 
HETATM   22  C14 UNL     1      37.567  51.869   3.607  1.00  0.00     0.019 A 
HETATM   23  C15 UNL     1      38.635  52.670   3.910  1.00  0.00     0.001 A 
HETATM   24  C16 UNL     1      39.915  52.339   3.454  1.00  0.00     0.000 A 
HETATM   25  C17 UNL     1      40.058  51.195   2.701  1.00  0.00     0.001 A 
HETATM   26  C18 UNL     1      38.981  50.400   2.404  1.00  0.00     0.019 A 
ENDBRANCH  20  21
ENDBRANCH   7  20
TORSDOF 6
ENDMDL
MODEL 5
REMARK VINA RESULT: -7.474720126      1.562      1.934
REMARK  6 active torsions:
REMARK  status: ('A' for Active; 'I' for Inactive)
REMARK    1  A    between atoms: C4_4  and  N1_5 
REMARK       I    between atoms: N1_5  and  C5_7 
REMARK    2  A    between atoms: C5_7  and  O2_9 
REMARK    3  A    between atoms: O2_9  and  C6_10 
REMARK    4  A    between atoms: C11_15  and  N2_16 
REMARK    5  A    between atoms: C12_19  and  S1_20 
REMARK    6  A    between atoms: S1_20  and  C13_21 
ROOT
HETATM    1  C1  UNL     1      34.351  50.783   2.150  1.00  0.00     0.049 C 
HETATM    2  C2  UNL     1      34.002  52.161   2.643  1.00  0.00    -0.040 A 
HETATM    3  C3  UNL     1      33.081  52.948   1.939  1.00  0.00     0.038 A 
HETATM    4  C4  UNL     1      32.741  54.206   2.359  1.00  0.00     0.039 A 
HETATM    5  C10 UNL     1      33.364  54.671   3.540  1.00  0.00     0.067 A 
HETATM    6  C11 UNL     1      34.263  53.886   4.216  1.00  0.00     0.122 A 
HETATM    7  C12 UNL     1      34.583  52.633   3.770  1.00  0.00     0.044 A 
ENDROOT
BRANCH   4   8
HETATM    8  N1  UNL     1      31.841  55.048   1.696  1.00  0.00    -0.303 N 
HETATM    9  C5  UNL     1      32.010  55.599   0.413  1.00  0.00     0.365 C 
HETATM   10  O1  UNL     1      32.976  55.445  -0.358  1.00  0.00    -0.238 OA
ATOM     11  H1  UNL     1      30.980  55.283   2.190  1.00  0.00     0.171 HD
BRANCH   9  12
HETATM   12  O2  UNL     1      31.001  56.431  -0.119  1.00  0.00    -0.294 OA
BRANCH  12  13
HETATM   13  C6  UNL     1      29.768  55.918  -0.495  1.00  0.00     0.061 C 
HETATM   14  C7  UNL     1      29.828  54.536  -1.096  1.00  0.00     0.046 C 
HETATM   15  C8  UNL     1      29.211  56.836  -1.589  1.00  0.00     0.046 C 
HETATM   16  C9  UNL     1      28.754  55.893   0.622  1.00  0.00     0.046 C 
ENDBRANCH  12  13
ENDBRANCH   9  12
ENDBRANCH   4   8
BRANCH   6  17
HETATM   17  N2  UNL     1      34.900  54.343   5.410  1.00  0.00    -0.114 N 
HETATM   18  O3  UNL     1      36.028  54.892   5.392  1.00  0.00    -0.532 OA
HETATM   19  O4  UNL     1      34.280  54.189   6.629  1.00  0.00    -0.532 OA
ENDBRANCH   6  17
BRANCH   7  20
HETATM   20  S1  UNL     1      35.757  51.585   4.636  1.00  0.00    -0.087 SA
BRANCH  20  21
HETATM   21  C13 UNL     1      37.367  51.679   3.818  1.00  0.00     0.005 A 
HETATM   22  C14 UNL     1      38.321  52.531   4.302  1.00  0.00     0.019 A 
HETATM   23  C15 UNL     1      39.548  52.621   3.702  1.00  0.00     0.001 A 
HETATM   24  C16 UNL     1      39.842  51.839   2.581  1.00  0.00     0.000 A 
HETATM   25  C17 UNL     1      38.866  50.988   2.111  1.00  0.00     0.001 A 
HETATM   26  C18 UNL     1      37.641  50.906   2.720  1.00  0.00     0.019 A 
ENDBRANCH  20  21
ENDBRANCH   7  20
TORSDOF 6
ENDMDL
