MODEL 1
REMARK VINA RESULT: -8.796443302      0.000      0.000
REMARK  5 active torsions:
REMARK  status: ('A' for Active; 'I' for Inactive)
REMARK    1  A    between atoms: O1_2  and  C2_3 
REMARK    2  A    between atoms: C4_5  and  C5_6 
REMARK    3  A    between atoms: C7_8  and  C8_9 
REMARK    4  A    between atoms: C18_22  and  O2_23 
REMARK    5  A    between atoms: C19_25  and  O3_26 
ROOT
HETATM    1  C5  UNL     1      36.543  52.620   2.988  1.00  0.00    -0.010 A 
HETATM    2  C6  UNL     1      37.888  52.231   2.832  1.00  0.00     0.038 A 
HETATM    3  C7  UNL     1      38.888  52.473   3.714  1.00  0.00     0.014 A 
HETATM    4  N1  UNL     1      38.522  53.139   4.810  1.00  0.00    -0.353 N 
ATOM      5  H1  UNL     1      39.226  53.353   5.516  1.00  0.00     0.166 HD
HETATM    6  C11 UNL     1      37.226  53.546   5.017  1.00  0.00     0.086 A 
HETATM    7  S1  UNL     1      36.514  54.410   6.310  1.00  0.00    -0.076 SA
HETATM    8  C12 UNL     1      34.928  54.481   5.742  1.00  0.00    -0.012 A 
HETATM    9  C13 UNL     1      33.730  55.121   6.415  1.00  0.00     0.057 C 
HETATM   10  C14 UNL     1      34.973  53.820   4.532  1.00  0.00    -0.035 A 
HETATM   11  C15 UNL     1      33.665  53.774   3.743  1.00  0.00     0.050 C 
HETATM   12  C16 UNL     1      36.187  53.322   4.150  1.00  0.00     0.016 A 
ENDROOT
BRANCH   1  13
HETATM   13  C4  UNL     1      35.620  52.177   1.961  1.00  0.00    -0.019 A 
HETATM   14  C3  UNL     1      34.909  53.038   1.168  1.00  0.00     0.052 A 
HETATM   15  C2  UNL     1      33.996  52.633   0.213  1.00  0.00     0.105 A 
HETATM   16  C19 UNL     1      33.811  51.273   0.072  1.00  0.00     0.135 A 
HETATM   17  C18 UNL     1      34.496  50.349   0.841  1.00  0.00     0.102 A 
HETATM   18  C17 UNL     1      35.404  50.825   1.788  1.00  0.00     0.052 A 
BRANCH  15  19
HETATM   19  O1  UNL     1      33.282  53.479  -0.585  1.00  0.00    -0.353 OA
HETATM   20  C1  UNL     1      32.910  54.793  -0.239  1.00  0.00     0.210 C 
ENDBRANCH  15  19
BRANCH  16  21
HETATM   21  O3  UNL     1      32.896  50.803  -0.882  1.00  0.00    -0.351 OA
HETATM   22  C20 UNL     1      33.268  50.547  -2.224  1.00  0.00     0.210 C 
ENDBRANCH  16  21
BRANCH  17  23
HETATM   23  O2  UNL     1      34.301  48.982   0.692  1.00  0.00    -0.358 OA
ATOM     24  H2  UNL     1      34.712  48.520  -0.030  1.00  0.00     0.217 HD
ENDBRANCH  17  23
ENDBRANCH   1  13
BRANCH   3  25
HETATM   25  C8  UNL     1      40.300  52.036   3.493  1.00  0.00     0.027 C 
HETATM   26  C9  UNL     1      40.349  50.593   2.985  1.00  0.00     0.016 C 
HETATM   27  C10 UNL     1      41.108  52.081   4.765  1.00  0.00     0.016 C 
ENDBRANCH   3  25
TORSDOF 5
ENDMDL
MODEL 2
REMARK VINA RESULT: -8.769861224      1.507      2.050
REMARK  5 active torsions:
REMARK  status: ('A' for Active; 'I' for Inactive)
REMARK    1  A    between atoms: O1_2  and  C2_3 
REMARK    2  A    between atoms: C4_5  and  C5_6 
REMARK    3  A    between atoms: C7_8  and  C8_9 
REMARK    4  A    between atoms: C18_22  and  O2_23 
REMARK    5  A    between atoms: C19_25  and  O3_26 
ROOT
HETATM    1  C5  UNL     1      35.453  52.557   2.159  1.00  0.00    -0.010 A 
HETATM    2  C6  UNL     1      36.571  51.830   1.706  1.00  0.00     0.038 A 
HETATM    3  C7  UNL     1      37.692  51.575   2.424  1.00  0.00     0.014 A 
HETATM    4  N1  UNL     1      37.693  52.074   3.660  1.00  0.00    -0.353 N 
ATOM      5  H1  UNL     1      38.507  51.917   4.255  1.00  0.00     0.166 HD
HETATM    6  C11 UNL     1      36.633  52.792   4.158  1.00  0.00     0.086 A 
HETATM    7  S1  UNL     1      36.396  53.536   5.679  1.00  0.00    -0.076 SA
HETATM    8  C12 UNL     1      34.864  54.190   5.421  1.00  0.00    -0.012 A 
HETATM    9  C13 UNL     1      34.026  54.999   6.391  1.00  0.00     0.057 C 
HETATM   10  C14 UNL     1      34.550  53.815   4.131  1.00  0.00    -0.035 A 
HETATM   11  C15 UNL     1      33.214  54.325   3.591  1.00  0.00     0.050 C 
HETATM   12  C16 UNL     1      35.484  53.073   3.464  1.00  0.00     0.016 A 
ENDROOT
BRANCH   1  13
HETATM   13  C4  UNL     1      34.323  52.633   1.254  1.00  0.00    -0.019 A 
HETATM   14  C3  UNL     1      34.028  53.745   0.511  1.00  0.00     0.052 A 
HETATM   15  C2  UNL     1      32.932  53.848  -0.324  1.00  0.00     0.105 A 
HETATM   16  C19 UNL     1      32.103  52.748  -0.395  1.00  0.00     0.135 A 
HETATM   17  C18 UNL     1      32.342  51.593   0.330  1.00  0.00     0.102 A 
HETATM   18  C17 UNL     1      33.467  51.555   1.155  1.00  0.00     0.052 A 
BRANCH  15  19
HETATM   19  O1  UNL     1      32.627  54.949  -1.070  1.00  0.00    -0.353 OA
HETATM   20  C1  UNL     1      32.222  56.193  -0.546  1.00  0.00     0.210 C 
ENDBRANCH  15  19
BRANCH  16  21
HETATM   21  O3  UNL     1      30.974  52.794  -1.226  1.00  0.00    -0.351 OA
HETATM   22  C20 UNL     1      29.733  53.317  -0.789  1.00  0.00     0.210 C 
ENDBRANCH  16  21
BRANCH  17  23
HETATM   23  O2  UNL     1      31.501  50.491   0.252  1.00  0.00    -0.358 OA
ATOM     24  H2  UNL     1      31.054  50.178   1.030  1.00  0.00     0.217 HD
ENDBRANCH  17  23
ENDBRANCH   1  13
BRANCH   3  25
HETATM   25  C8  UNL     1      38.850  50.797   1.887  1.00  0.00     0.027 C 
HETATM   26  C9  UNL     1      38.536  49.299   1.867  1.00  0.00     0.016 C 
HETATM   27  C10 UNL     1      40.086  50.974   2.731  1.00  0.00     0.016 C 
ENDBRANCH   3  25
TORSDOF 5
ENDMDL
MODEL 3
REMARK VINA RESULT: -8.416226001      2.375      4.411
REMARK  5 active torsions:
REMARK  status: ('A' for Active; 'I' for Inactive)
REMARK    1  A    between atoms: O1_2  and  C2_3 
REMARK    2  A    between atoms: C4_5  and  C5_6 
REMARK    3  A    between atoms: C7_8  and  C8_9 
REMARK    4  A    between atoms: C18_22  and  O2_23 
REMARK    5  A    between atoms: C19_25  and  O3_26 
ROOT
HETATM    1  C5  UNL     1      35.240  52.001   1.973  1.00  0.00    -0.010 A 
HETATM    2  C6  UNL     1      35.337  52.763   3.153  1.00  0.00     0.038 A 
HETATM    3  C7  UNL     1      36.352  52.707   4.049  1.00  0.00     0.014 A 
HETATM    4  N1  UNL     1      37.320  51.841   3.748  1.00  0.00    -0.353 N 
ATOM      5  H1  UNL     1      38.115  51.750   4.380  1.00  0.00     0.166 HD
HETATM    6  C11 UNL     1      37.281  51.069   2.613  1.00  0.00     0.086 A 
HETATM    7  S1  UNL     1      38.371  49.895   2.014  1.00  0.00    -0.076 SA
HETATM    8  C12 UNL     1      37.546  49.454   0.612  1.00  0.00    -0.012 A 
HETATM    9  C13 UNL     1      37.963  48.432  -0.427  1.00  0.00     0.057 C 
HETATM   10  C14 UNL     1      36.411  50.239   0.627  1.00  0.00    -0.035 A 
HETATM   11  C15 UNL     1      35.422  50.011  -0.516  1.00  0.00     0.050 C 
HETATM   12  C16 UNL     1      36.272  51.095   1.683  1.00  0.00     0.016 A 
ENDROOT
BRANCH   1  13
HETATM   13  C4  UNL     1      34.109  52.286   1.111  1.00  0.00    -0.019 A 
HETATM   14  C3  UNL     1      33.956  53.470   0.439  1.00  0.00     0.052 A 
HETATM   15  C2  UNL     1      32.865  53.773  -0.354  1.00  0.00     0.105 A 
HETATM   16  C19 UNL     1      31.888  52.805  -0.456  1.00  0.00     0.135 A 
HETATM   17  C18 UNL     1      31.979  51.588   0.197  1.00  0.00     0.102 A 
HETATM   18  C17 UNL     1      33.108  51.346   0.982  1.00  0.00     0.052 A 
BRANCH  15  19
HETATM   19  O1  UNL     1      32.701  54.947  -1.029  1.00  0.00    -0.353 OA
HETATM   20  C1  UNL     1      32.360  56.179  -0.436  1.00  0.00     0.210 C 
ENDBRANCH  15  19
BRANCH  16  21
HETATM   21  O3  UNL     1      30.757  53.057  -1.247  1.00  0.00    -0.351 OA
HETATM   22  C20 UNL     1      29.578  53.635  -0.718  1.00  0.00     0.210 C 
ENDBRANCH  16  21
BRANCH  17  23
HETATM   23  O2  UNL     1      30.989  50.621   0.087  1.00  0.00    -0.358 OA
ATOM     24  H2  UNL     1      31.004  49.859   0.654  1.00  0.00     0.217 HD
ENDBRANCH  17  23
ENDBRANCH   1  13
BRANCH   3  25
HETATM   25  C8  UNL     1      36.399  53.542   5.288  1.00  0.00     0.027 C 
HETATM   26  C9  UNL     1      35.294  54.600   5.273  1.00  0.00     0.016 C 
HETATM   27  C10 UNL     1      37.709  54.278   5.420  1.00  0.00     0.016 C 
ENDBRANCH   3  25
TORSDOF 5
ENDMDL
MODEL 4
REMARK VINA RESULT: -8.299719447      1.137      4.110
REMARK  5 active torsions:
REMARK  status: ('A' for Active; 'I' for Inactive)
REMARK    1  A    between atoms: O1_2  and  C2_3 
REMARK    2  A    between atoms: C4_5  and  C5_6 
REMARK    3  A    between atoms: C7_8  and  C8_9 
REMARK    4  A    between atoms: C18_22  and  O2_23 
REMARK    5  A    between atoms: C19_25  and  O3_26 
ROOT
HETATM    1  C5  UNL     1      35.300  53.145   3.380  1.00  0.00    -0.010 A 
HETATM    2  C6  UNL     1      34.385  53.940   4.097  1.00  0.00     0.038 A 
HETATM    3  C7  UNL     1      34.683  54.715   5.169  1.00  0.00     0.014 A 
HETATM    4  N1  UNL     1      35.963  54.692   5.541  1.00  0.00    -0.353 N 
ATOM      5  H1  UNL     1      36.254  55.254   6.341  1.00  0.00     0.166 HD
HETATM    6  C11 UNL     1      36.900  53.935   4.883  1.00  0.00     0.086 A 
HETATM    7  S1  UNL     1      38.574  53.725   5.164  1.00  0.00    -0.076 SA
HETATM    8  C12 UNL     1      38.920  52.641   3.921  1.00  0.00    -0.012 A 
HETATM    9  C13 UNL     1      40.261  52.023   3.576  1.00  0.00     0.057 C 
HETATM   10  C14 UNL     1      37.708  52.450   3.291  1.00  0.00    -0.035 A 
HETATM   11  C15 UNL     1      37.701  51.450   2.135  1.00  0.00     0.050 C 
HETATM   12  C16 UNL     1      36.640  53.137   3.797  1.00  0.00     0.016 A 
ENDROOT
BRANCH   1  13
HETATM   13  C4  UNL     1      34.783  52.464   2.208  1.00  0.00    -0.019 A 
HETATM   14  C3  UNL     1      34.163  53.113   1.174  1.00  0.00     0.052 A 
HETATM   15  C2  UNL     1      33.629  52.474   0.071  1.00  0.00     0.105 A 
HETATM   16  C19 UNL     1      33.744  51.100   0.036  1.00  0.00     0.135 A 
HETATM   17  C18 UNL     1      34.358  50.383   1.047  1.00  0.00     0.102 A 
HETATM   18  C17 UNL     1      34.876  51.089   2.134  1.00  0.00     0.052 A 
BRANCH  15  19
HETATM   19  O1  UNL     1      33.009  53.109  -0.966  1.00  0.00    -0.353 OA
HETATM   20  C1  UNL     1      31.684  53.585  -0.946  1.00  0.00     0.210 C 
ENDBRANCH  15  19
BRANCH  16  21
HETATM   21  O3  UNL     1      33.221  50.398  -1.060  1.00  0.00    -0.351 OA
HETATM   22  C20 UNL     1      33.972  50.165  -2.237  1.00  0.00     0.210 C 
ENDBRANCH  16  21
BRANCH  17  23
HETATM   23  O2  UNL     1      34.468  49.000   1.002  1.00  0.00    -0.358 OA
ATOM     24  H2  UNL     1      35.321  48.588   1.076  1.00  0.00     0.217 HD
ENDBRANCH  17  23
ENDBRANCH   1  13
BRANCH   3  25
HETATM   25  C8  UNL     1      33.666  55.539   5.892  1.00  0.00     0.027 C 
HETATM   26  C9  UNL     1      33.297  54.895   7.229  1.00  0.00     0.016 C 
HETATM   27  C10 UNL     1      32.388  55.676   5.103  1.00  0.00     0.016 C 
ENDBRANCH   3  25
TORSDOF 5
ENDMDL
MODEL 5
REMARK VINA RESULT: -8.061044482      1.570      3.950
REMARK  5 active torsions:
REMARK  status: ('A' for Active; 'I' for Inactive)
REMARK    1  A    between atoms: O1_2  and  C2_3 
REMARK    2  A    between atoms: C4_5  and  C5_6 
REMARK    3  A    between atoms: C7_8  and  C8_9 
REMARK    4  A    between atoms: C18_22  and  O2_23 
REMARK    5  A    between atoms: C19_25  and  O3_26 
ROOT
HETATM    1  C5  UNL     1      36.961  52.246   3.049  1.00  0.00    -0.010 A 
HETATM    2  C6  UNL     1      36.606  53.160   4.061  1.00  0.00     0.038 A 
HETATM    3  C7  UNL     1      37.443  53.661   5.002  1.00  0.00     0.014 A 
HETATM    4  N1  UNL     1      38.700  53.224   4.926  1.00  0.00    -0.353 N 
ATOM      5  H1  UNL     1      39.382  53.564   5.604  1.00  0.00     0.166 HD
HETATM    6  C11 UNL     1      39.105  52.332   3.964  1.00  0.00     0.086 A 
HETATM    7  S1  UNL     1      40.631  51.619   3.664  1.00  0.00    -0.076 SA
HETATM    8  C12 UNL     1      40.224  50.666   2.335  1.00  0.00    -0.012 A 
HETATM    9  C13 UNL     1      41.131  49.748   1.539  1.00  0.00     0.057 C 
HETATM   10  C14 UNL     1      38.882  50.917   2.137  1.00  0.00    -0.035 A 
HETATM   11  C15 UNL     1      38.210  50.132   1.011  1.00  0.00     0.050 C 
HETATM   12  C16 UNL     1      38.291  51.801   2.996  1.00  0.00     0.016 A 
ENDROOT
BRANCH   1  13
HETATM   13  C4  UNL     1      35.926  51.911   2.091  1.00  0.00    -0.019 A 
HETATM   14  C3  UNL     1      35.256  52.847   1.349  1.00  0.00     0.052 A 
HETATM   15  C2  UNL     1      34.240  52.546   0.461  1.00  0.00     0.105 A 
HETATM   16  C19 UNL     1      33.902  51.215   0.336  1.00  0.00     0.135 A 
HETATM   17  C18 UNL     1      34.538  50.219   1.056  1.00  0.00     0.102 A 
HETATM   18  C17 UNL     1      35.556  50.590   1.935  1.00  0.00     0.052 A 
BRANCH  15  19
HETATM   19  O1  UNL     1      33.565  53.469  -0.284  1.00  0.00    -0.353 OA
HETATM   20  C1  UNL     1      32.555  54.320   0.205  1.00  0.00     0.210 C 
ENDBRANCH  15  19
BRANCH  16  21
HETATM   21  O3  UNL     1      32.878  50.850  -0.550  1.00  0.00    -0.351 OA
HETATM   22  C20 UNL     1      33.124  50.564  -1.915  1.00  0.00     0.210 C 
ENDBRANCH  16  21
BRANCH  17  23
HETATM   23  O2  UNL     1      34.190  48.882   0.922  1.00  0.00    -0.358 OA
ATOM     24  H2  UNL     1      33.309  48.644   0.654  1.00  0.00     0.217 HD
ENDBRANCH  17  23
ENDBRANCH   1  13
BRANCH   3  25
HETATM   25  C8  UNL     1      37.007  54.630   6.053  1.00  0.00     0.027 C 
HETATM   26  C9  UNL     1      38.128  54.871   7.067  1.00  0.00     0.016 C 
HETATM   27  C10 UNL     1      35.817  54.123   6.828  1.00  0.00     0.016 C 
ENDBRANCH   3  25
TORSDOF 5
ENDMDL
