MODEL 1
REMARK VINA RESULT: -7.764731245      0.000      0.000
REMARK  8 active torsions:
REMARK  status: ('A' for Active; 'I' for Inactive)
REMARK    1  A    between atoms: C4_4  and  C5_5 
REMARK    2  A    between atoms: C5_5  and  O2_7 
REMARK    3  A    between atoms: O2_7  and  C6_8 
REMARK    4  A    between atoms: C9_11  and  N1_12 
REMARK    5  A    between atoms: N1_12  and  N2_14 
REMARK    6  A    between atoms: N2_14  and  N3_15 
REMARK    7  A    between atoms: C11_19  and  C12_20 
REMARK    8  A    between atoms: C16_25  and  C17_26 
ROOT
HETATM    1  C6  UNL     1      36.616  52.315   4.120  1.00  0.00     0.086 A 
HETATM    2  C7  UNL     1      37.317  51.426   3.293  1.00  0.00     0.040 A 
HETATM    3  C8  UNL     1      38.684  51.412   3.194  1.00  0.00     0.035 A 
HETATM    4  C9  UNL     1      39.414  52.307   3.941  1.00  0.00     0.063 A 
HETATM    5  C10 UNL     1      38.769  53.198   4.768  1.00  0.00     0.042 A 
HETATM    6  C11 UNL     1      37.364  53.198   4.855  1.00  0.00    -0.014 A 
ENDROOT
BRANCH   1   7
HETATM    7  O2  UNL     1      35.251  52.303   4.190  1.00  0.00    -0.274 OA
BRANCH   7   8
HETATM    8  C5  UNL     1      34.392  51.526   3.454  1.00  0.00     0.305 C 
HETATM    9  O1  UNL     1      34.106  50.399   3.870  1.00  0.00    -0.258 OA
BRANCH   8  10
HETATM   10  C4  UNL     1      33.835  52.047   2.196  1.00  0.00     0.082 A 
HETATM   11  C3  UNL     1      33.712  51.396   0.995  1.00  0.00     0.033 A 
HETATM   12  C2  UNL     1      33.168  52.085  -0.019  1.00  0.00    -0.037 A 
HETATM   13  C1  UNL     1      32.965  51.503  -1.410  1.00  0.00     0.050 C 
HETATM   14  C16 UNL     1      32.782  53.373   0.228  1.00  0.00     0.088 A 
HETATM   15  S1  UNL     1      33.189  53.587   1.870  1.00  0.00    -0.077 SA
BRANCH  14  16
HETATM   16  C17 UNL     1      32.159  54.331  -0.719  1.00  0.00     0.217 C 
HETATM   17  O3  UNL     1      32.784  55.345  -1.109  1.00  0.00    -0.643 OA
HETATM   18  O4  UNL     1      30.892  54.108  -1.171  1.00  0.00    -0.643 OA
ENDBRANCH  14  16
ENDBRANCH   8  10
ENDBRANCH   7   8
ENDBRANCH   1   7
BRANCH   6  19
HETATM   19  C12 UNL     1      36.701  54.171   5.759  1.00  0.00    -0.021 C 
HETATM   20  C13 UNL     1      37.754  55.135   6.315  1.00  0.00     0.019 C 
HETATM   21  C14 UNL     1      35.605  54.941   5.091  1.00  0.00     0.019 C 
HETATM   22  C15 UNL     1      36.123  53.492   6.999  1.00  0.00     0.019 C 
ENDBRANCH   6  19
BRANCH   4  23
HETATM   23  N1  UNL     1      40.846  52.305   3.851  1.00  0.00    -0.217 N 
ATOM     24  H1  UNL     1      41.368  53.157   4.054  1.00  0.00     0.203 HD
BRANCH  23  25
HETATM   25  N2  UNL     1      41.446  51.283   3.530  1.00  0.00    -0.243 NA
BRANCH  25  26
HETATM   26  N3  UNL     1      42.273  50.416   3.214  1.00  0.00    -0.260 N 
ATOM     27  H32 UNL     1      42.251  50.018   4.153  1.00  0.00     0.193 HD
ATOM     28  H31 UNL     1      42.946  49.805   2.751  1.00  0.00     0.193 HD
ENDBRANCH  25  26
ENDBRANCH  23  25
ENDBRANCH   4  23
TORSDOF 8
ENDMDL
MODEL 2
REMARK VINA RESULT: -7.749285154      1.537      2.899
REMARK  8 active torsions:
REMARK  status: ('A' for Active; 'I' for Inactive)
REMARK    1  A    between atoms: C4_4  and  C5_5 
REMARK    2  A    between atoms: C5_5  and  O2_7 
REMARK    3  A    between atoms: O2_7  and  C6_8 
REMARK    4  A    between atoms: C9_11  and  N1_12 
REMARK    5  A    between atoms: N1_12  and  N2_14 
REMARK    6  A    between atoms: N2_14  and  N3_15 
REMARK    7  A    between atoms: C11_19  and  C12_20 
REMARK    8  A    between atoms: C16_25  and  C17_26 
ROOT
HETATM    1  C6  UNL     1      36.147  53.208   4.754  1.00  0.00     0.086 A 
HETATM    2  C7  UNL     1      36.602  54.014   5.807  1.00  0.00     0.040 A 
HETATM    3  C8  UNL     1      37.927  54.146   6.132  1.00  0.00     0.035 A 
HETATM    4  C9  UNL     1      38.865  53.462   5.394  1.00  0.00     0.063 A 
HETATM    5  C10 UNL     1      38.464  52.660   4.350  1.00  0.00     0.042 A 
HETATM    6  C11 UNL     1      37.099  52.535   4.032  1.00  0.00    -0.014 A 
ENDROOT
BRANCH   1   7
HETATM    7  O2  UNL     1      34.816  53.096   4.461  1.00  0.00    -0.274 OA
BRANCH   7   8
HETATM    8  C5  UNL     1      33.949  54.114   4.151  1.00  0.00     0.305 C 
HETATM    9  O1  UNL     1      33.803  55.036   4.959  1.00  0.00    -0.258 OA
BRANCH   8  10
HETATM   10  C4  UNL     1      33.220  54.086   2.874  1.00  0.00     0.082 A 
HETATM   11  C3  UNL     1      33.247  53.112   1.908  1.00  0.00     0.033 A 
HETATM   12  C2  UNL     1      32.489  53.312   0.819  1.00  0.00    -0.037 A 
HETATM   13  C1  UNL     1      32.412  52.326  -0.336  1.00  0.00     0.050 C 
HETATM   14  C16 UNL     1      31.757  54.466   0.763  1.00  0.00     0.088 A 
HETATM   15  S1  UNL     1      32.146  55.239   2.231  1.00  0.00    -0.077 SA
BRANCH  14  16
HETATM   16  C17 UNL     1      30.851  54.911  -0.324  1.00  0.00     0.217 C 
HETATM   17  O3  UNL     1      31.262  55.671  -1.232  1.00  0.00    -0.643 OA
HETATM   18  O4  UNL     1      29.552  54.492  -0.337  1.00  0.00    -0.643 OA
ENDBRANCH  14  16
ENDBRANCH   8  10
ENDBRANCH   7   8
ENDBRANCH   1   7
BRANCH   6  19
HETATM   19  C12 UNL     1      36.703  51.664   2.898  1.00  0.00    -0.021 C 
HETATM   20  C13 UNL     1      37.909  50.823   2.468  1.00  0.00     0.019 C 
HETATM   21  C14 UNL     1      35.545  50.770   3.220  1.00  0.00     0.019 C 
HETATM   22  C15 UNL     1      36.349  52.475   1.653  1.00  0.00     0.019 C 
ENDBRANCH   6  19
BRANCH   4  23
HETATM   23  N1  UNL     1      40.256  53.590   5.720  1.00  0.00    -0.217 N 
ATOM     24  H1  UNL     1      40.581  54.403   6.243  1.00  0.00     0.203 HD
BRANCH  23  25
HETATM   25  N2  UNL     1      41.057  52.726   5.372  1.00  0.00    -0.243 NA
BRANCH  25  26
HETATM   26  N3  UNL     1      41.711  51.850   4.791  1.00  0.00    -0.260 N 
ATOM     27  H32 UNL     1      40.903  51.228   4.765  1.00  0.00     0.193 HD
ATOM     28  H31 UNL     1      42.419  51.280   4.327  1.00  0.00     0.193 HD
ENDBRANCH  25  26
ENDBRANCH  23  25
ENDBRANCH   4  23
TORSDOF 8
ENDMDL
MODEL 3
REMARK VINA RESULT: -7.690370465      4.654      7.427
REMARK  8 active torsions:
REMARK  status: ('A' for Active; 'I' for Inactive)
REMARK    1  A    between atoms: C4_4  and  C5_5 
REMARK    2  A    between atoms: C5_5  and  O2_7 
REMARK    3  A    between atoms: O2_7  and  C6_8 
REMARK    4  A    between atoms: C9_11  and  N1_12 
REMARK    5  A    between atoms: N1_12  and  N2_14 
REMARK    6  A    between atoms: N2_14  and  N3_15 
REMARK    7  A    between atoms: C11_19  and  C12_20 
REMARK    8  A    between atoms: C16_25  and  C17_26 
ROOT
HETATM    1  C6  UNL     1      36.540  52.822   4.620  1.00  0.00     0.086 A 
HETATM    2  C7  UNL     1      36.596  53.613   5.775  1.00  0.00     0.040 A 
HETATM    3  C8  UNL     1      35.588  54.463   6.153  1.00  0.00     0.035 A 
HETATM    4  C9  UNL     1      34.463  54.550   5.368  1.00  0.00     0.063 A 
HETATM    5  C10 UNL     1      34.363  53.791   4.224  1.00  0.00     0.042 A 
HETATM    6  C11 UNL     1      35.408  52.925   3.852  1.00  0.00    -0.014 A 
ENDROOT
BRANCH   1   7
HETATM    7  O2  UNL     1      37.566  51.988   4.272  1.00  0.00    -0.274 OA
BRANCH   7   8
HETATM    8  C5  UNL     1      38.836  52.351   3.897  1.00  0.00     0.305 C 
HETATM    9  O1  UNL     1      39.253  53.468   4.220  1.00  0.00    -0.258 OA
BRANCH   8  10
HETATM   10  C4  UNL     1      39.665  51.412   3.126  1.00  0.00     0.082 A 
HETATM   11  C3  UNL     1      41.025  51.248   3.180  1.00  0.00     0.033 A 
HETATM   12  C2  UNL     1      41.560  50.320   2.372  1.00  0.00    -0.037 A 
HETATM   13  C1  UNL     1      43.050  50.020   2.317  1.00  0.00     0.050 C 
HETATM   14  C16 UNL     1      40.707  49.618   1.566  1.00  0.00     0.088 A 
HETATM   15  S1  UNL     1      39.183  50.273   1.957  1.00  0.00    -0.077 SA
BRANCH  14  16
HETATM   16  C17 UNL     1      41.051  48.550   0.596  1.00  0.00     0.217 C 
HETATM   17  O3  UNL     1      40.797  47.348   0.847  1.00  0.00    -0.643 OA
HETATM   18  O4  UNL     1      41.653  48.876  -0.584  1.00  0.00    -0.643 OA
ENDBRANCH  14  16
ENDBRANCH   8  10
ENDBRANCH   7   8
ENDBRANCH   1   7
BRANCH   6  19
HETATM   19  C12 UNL     1      35.266  52.119   2.614  1.00  0.00    -0.021 C 
HETATM   20  C13 UNL     1      33.817  52.205   2.124  1.00  0.00     0.019 C 
HETATM   21  C14 UNL     1      36.201  52.546   1.525  1.00  0.00     0.019 C 
HETATM   22  C15 UNL     1      35.484  50.630   2.876  1.00  0.00     0.019 C 
ENDBRANCH   6  19
BRANCH   4  23
HETATM   23  N1  UNL     1      33.398  55.433   5.749  1.00  0.00    -0.217 N 
ATOM     24  H1  UNL     1      33.083  56.156   5.101  1.00  0.00     0.203 HD
BRANCH  23  25
HETATM   25  N2  UNL     1      32.865  55.324   6.850  1.00  0.00    -0.243 NA
BRANCH  25  26
HETATM   26  N3  UNL     1      32.535  55.378   8.042  1.00  0.00    -0.260 N 
ATOM     27  H32 UNL     1      32.242  54.401   8.031  1.00  0.00     0.193 HD
ATOM     28  H31 UNL     1      32.334  55.638   9.008  1.00  0.00     0.193 HD
ENDBRANCH  25  26
ENDBRANCH  23  25
ENDBRANCH   4  23
TORSDOF 8
ENDMDL
MODEL 4
REMARK VINA RESULT: -7.657995093      4.656      7.366
REMARK  8 active torsions:
REMARK  status: ('A' for Active; 'I' for Inactive)
REMARK    1  A    between atoms: C4_4  and  C5_5 
REMARK    2  A    between atoms: C5_5  and  O2_7 
REMARK    3  A    between atoms: O2_7  and  C6_8 
REMARK    4  A    between atoms: C9_11  and  N1_12 
REMARK    5  A    between atoms: N1_12  and  N2_14 
REMARK    6  A    between atoms: N2_14  and  N3_15 
REMARK    7  A    between atoms: C11_19  and  C12_20 
REMARK    8  A    between atoms: C16_25  and  C17_26 
ROOT
HETATM    1  C6  UNL     1      36.149  53.097   4.747  1.00  0.00     0.086 A 
HETATM    2  C7  UNL     1      36.118  53.865   5.919  1.00  0.00     0.040 A 
HETATM    3  C8  UNL     1      35.085  54.710   6.235  1.00  0.00     0.035 A 
HETATM    4  C9  UNL     1      34.023  54.816   5.368  1.00  0.00     0.063 A 
HETATM    5  C10 UNL     1      34.011  54.080   4.205  1.00  0.00     0.042 A 
HETATM    6  C11 UNL     1      35.080  53.219   3.897  1.00  0.00    -0.014 A 
ENDROOT
BRANCH   1   7
HETATM    7  O2  UNL     1      37.199  52.267   4.462  1.00  0.00    -0.274 OA
BRANCH   7   8
HETATM    8  C5  UNL     1      38.470  52.637   4.100  1.00  0.00     0.305 C 
HETATM    9  O1  UNL     1      38.880  53.754   4.431  1.00  0.00    -0.258 OA
BRANCH   8  10
HETATM   10  C4  UNL     1      39.309  51.704   3.333  1.00  0.00     0.082 A 
HETATM   11  C3  UNL     1      40.660  51.493   3.450  1.00  0.00     0.033 A 
HETATM   12  C2  UNL     1      41.208  50.582   2.632  1.00  0.00    -0.037 A 
HETATM   13  C1  UNL     1      42.689  50.236   2.641  1.00  0.00     0.050 C 
HETATM   14  C16 UNL     1      40.378  49.942   1.754  1.00  0.00     0.088 A 
HETATM   15  S1  UNL     1      38.855  50.630   2.094  1.00  0.00    -0.077 SA
BRANCH  14  16
HETATM   16  C17 UNL     1      40.739  48.903   0.758  1.00  0.00     0.217 C 
HETATM   17  O3  UNL     1      41.313  49.213  -0.313  1.00  0.00    -0.643 OA
HETATM   18  O4  UNL     1      40.443  47.595   1.007  1.00  0.00    -0.643 OA
ENDBRANCH  14  16
ENDBRANCH   8  10
ENDBRANCH   7   8
ENDBRANCH   1   7
BRANCH   6  19
HETATM   19  C12 UNL     1      35.033  52.439   2.635  1.00  0.00    -0.021 C 
HETATM   20  C13 UNL     1      36.079  52.995   1.664  1.00  0.00     0.019 C 
HETATM   21  C14 UNL     1      35.256  50.973   2.842  1.00  0.00     0.019 C 
HETATM   22  C15 UNL     1      33.706  52.622   1.902  1.00  0.00     0.019 C 
ENDBRANCH   6  19
BRANCH   4  23
HETATM   23  N1  UNL     1      32.934  55.695   5.684  1.00  0.00    -0.217 N 
ATOM     24  H1  UNL     1      32.475  56.221   4.940  1.00  0.00     0.203 HD
BRANCH  23  25
HETATM   25  N2  UNL     1      32.552  55.817   6.844  1.00  0.00    -0.243 NA
BRANCH  25  26
HETATM   26  N3  UNL     1      32.158  56.208   7.952  1.00  0.00    -0.260 N 
ATOM     27  H32 UNL     1      31.729  57.035   7.534  1.00  0.00     0.193 HD
ATOM     28  H31 UNL     1      31.936  56.341   8.938  1.00  0.00     0.193 HD
ENDBRANCH  25  26
ENDBRANCH  23  25
ENDBRANCH   4  23
TORSDOF 8
ENDMDL
MODEL 5
REMARK VINA RESULT: -7.562642902      2.495      3.489
REMARK  8 active torsions:
REMARK  status: ('A' for Active; 'I' for Inactive)
REMARK    1  A    between atoms: C4_4  and  C5_5 
REMARK    2  A    between atoms: C5_5  and  O2_7 
REMARK    3  A    between atoms: O2_7  and  C6_8 
REMARK    4  A    between atoms: C9_11  and  N1_12 
REMARK    5  A    between atoms: N1_12  and  N2_14 
REMARK    6  A    between atoms: N2_14  and  N3_15 
REMARK    7  A    between atoms: C11_19  and  C12_20 
REMARK    8  A    between atoms: C16_25  and  C17_26 
ROOT
HETATM    1  C6  UNL     1      36.763  50.148   1.864  1.00  0.00     0.086 A 
HETATM    2  C7  UNL     1      37.000  48.977   1.132  1.00  0.00     0.040 A 
HETATM    3  C8  UNL     1      38.257  48.495   0.871  1.00  0.00     0.035 A 
HETATM    4  C9  UNL     1      39.346  49.187   1.348  1.00  0.00     0.063 A 
HETATM    5  C10 UNL     1      39.162  50.342   2.073  1.00  0.00     0.042 A 
HETATM    6  C11 UNL     1      37.864  50.821   2.330  1.00  0.00    -0.014 A 
ENDROOT
BRANCH   1   7
HETATM    7  O2  UNL     1      35.495  50.601   2.101  1.00  0.00    -0.274 OA
BRANCH   7   8
HETATM    8  C5  UNL     1      34.546  50.929   1.165  1.00  0.00     0.305 C 
HETATM    9  O1  UNL     1      34.325  50.138   0.243  1.00  0.00    -0.258 OA
BRANCH   8  10
HETATM   10  C4  UNL     1      33.819  52.203   1.279  1.00  0.00     0.082 A 
HETATM   11  C3  UNL     1      33.627  52.966   2.402  1.00  0.00     0.033 A 
HETATM   12  C2  UNL     1      32.923  54.098   2.257  1.00  0.00    -0.037 A 
HETATM   13  C1  UNL     1      32.626  55.050   3.405  1.00  0.00     0.050 C 
HETATM   14  C16 UNL     1      32.458  54.396   1.006  1.00  0.00     0.088 A 
HETATM   15  S1  UNL     1      33.016  53.087   0.067  1.00  0.00    -0.077 SA
BRANCH  14  16
HETATM   16  C17 UNL     1      31.664  55.579   0.592  1.00  0.00     0.217 C 
HETATM   17  O3  UNL     1      30.425  55.617   0.778  1.00  0.00    -0.643 OA
HETATM   18  O4  UNL     1      32.287  56.639  -0.000  1.00  0.00    -0.643 OA
ENDBRANCH  14  16
ENDBRANCH   8  10
ENDBRANCH   7   8
ENDBRANCH   1   7
BRANCH   6  19
HETATM   19  C12 UNL     1      37.702  52.069   3.117  1.00  0.00    -0.021 C 
HETATM   20  C13 UNL     1      39.036  52.415   3.786  1.00  0.00     0.019 C 
HETATM   21  C14 UNL     1      37.227  53.226   2.294  1.00  0.00     0.019 C 
HETATM   22  C15 UNL     1      36.735  51.883   4.284  1.00  0.00     0.019 C 
ENDBRANCH   6  19
BRANCH   4  23
HETATM   23  N1  UNL     1      40.669  48.697   1.086  1.00  0.00    -0.217 N 
ATOM     24  H1  UNL     1      41.472  49.312   1.213  1.00  0.00     0.203 HD
BRANCH  23  25
HETATM   25  N2  UNL     1      40.838  47.540   0.709  1.00  0.00    -0.243 NA
BRANCH  25  26
HETATM   26  N3  UNL     1      41.140  46.495   0.117  1.00  0.00    -0.260 N 
ATOM     27  H32 UNL     1      41.558  46.107   0.963  1.00  0.00     0.193 HD
ATOM     28  H31 UNL     1      41.290  45.737  -0.548  1.00  0.00     0.193 HD
ENDBRANCH  25  26
ENDBRANCH  23  25
ENDBRANCH   4  23
TORSDOF 8
ENDMDL
