MODEL 1
REMARK VINA RESULT: -6.375451808      0.000      0.000
REMARK  5 active torsions:
REMARK  status: ('A' for Active; 'I' for Inactive)
REMARK    1  A    between atoms: C3_5  and  C4_6 
REMARK    2  A    between atoms: C7_13  and  N4_14 
REMARK    3  A    between atoms: C8_18  and  C9_19 
REMARK    4  A    between atoms: C10_20  and  O1_21 
REMARK    5  A    between atoms: O1_21  and  N5_22 
ROOT
HETATM    1  C1  UNL     1     -12.877  -3.633 -36.618  1.00  0.00     0.069 C 
HETATM    2  C2  UNL     1     -13.898  -3.292 -37.690  1.00  0.00     0.023 A 
HETATM    3  N1  UNL     1     -15.148  -3.157 -37.388  1.00  0.00    -0.352 N 
ATOM      4  H1  UNL     1     -15.455  -3.281 -36.423  1.00  0.00     0.166 HD
HETATM    5  C3  UNL     1     -16.028  -2.859 -38.327  1.00  0.00     0.091 A 
HETATM    6  S1  UNL     1     -15.050  -2.763 -39.715  1.00  0.00    -0.070 SA
HETATM    7  C8  UNL     1     -13.540  -3.116 -39.003  1.00  0.00     0.031 A 
ENDROOT
BRANCH   5   8
HETATM    8  C4  UNL     1     -17.463  -2.671 -38.171  1.00  0.00     0.066 A 
HETATM    9  C5  UNL     1     -18.054  -1.505 -37.667  1.00  0.00     0.038 A 
HETATM   10  C6  UNL     1     -17.284  -0.316 -37.228  1.00  0.00     0.071 C 
HETATM   11  N2  UNL     1     -19.384  -1.666 -37.659  1.00  0.00    -0.303 N 
HETATM   12  N3  UNL     1     -19.689  -2.855 -38.122  1.00  0.00    -0.285 N 
ATOM     13  H2  UNL     1     -20.058  -0.970 -37.340  1.00  0.00     0.186 HD
HETATM   14  C7  UNL     1     -18.523  -3.497 -38.447  1.00  0.00     0.128 A 
ATOM     15  H3  UNL     1     -20.630  -3.235 -38.222  1.00  0.00     0.188 HD
BRANCH  14  16
HETATM   16  N4  UNL     1     -18.436  -4.684 -38.932  1.00  0.00    -0.384 N 
ATOM     17  H42 UNL     1     -17.599  -5.266 -38.925  1.00  0.00     0.157 HD
ATOM     18  H41 UNL     1     -19.194  -5.194 -39.386  1.00  0.00     0.157 HD
ENDBRANCH  14  16
ENDBRANCH   5   8
BRANCH   7  19
HETATM   19  C9  UNL     1     -12.192  -3.215 -39.596  1.00  0.00     0.047 C 
HETATM   20  C10 UNL     1     -11.923  -2.634 -40.748  1.00  0.00     0.168 C 
BRANCH  20  21
HETATM   21  O1  UNL     1     -10.669  -2.708 -41.331  1.00  0.00    -0.257 OA
BRANCH  21  22
HETATM   22  N5  UNL     1     -10.078  -3.911 -41.614  1.00  0.00    -0.306 N 
ATOM     23  H52 UNL     1      -9.115  -4.057 -41.311  1.00  0.00     0.184 HD
ATOM     24  H51 UNL     1     -10.575  -4.647 -42.114  1.00  0.00     0.184 HD
ENDBRANCH  21  22
ENDBRANCH  20  21
ENDBRANCH   7  19
TORSDOF 5
ENDMDL
MODEL 2
REMARK VINA RESULT: -6.366171753      0.707      1.877
REMARK  5 active torsions:
REMARK  status: ('A' for Active; 'I' for Inactive)
REMARK    1  A    between atoms: C3_5  and  C4_6 
REMARK    2  A    between atoms: C7_13  and  N4_14 
REMARK    3  A    between atoms: C8_18  and  C9_19 
REMARK    4  A    between atoms: C10_20  and  O1_21 
REMARK    5  A    between atoms: O1_21  and  N5_22 
ROOT
HETATM    1  C1  UNL     1     -12.696  -3.693 -36.587  1.00  0.00     0.069 C 
HETATM    2  C2  UNL     1     -13.743  -3.311 -37.620  1.00  0.00     0.023 A 
HETATM    3  N1  UNL     1     -14.979  -3.152 -37.276  1.00  0.00    -0.352 N 
ATOM      4  H1  UNL     1     -15.257  -3.283 -36.303  1.00  0.00     0.166 HD
HETATM    5  C3  UNL     1     -15.882  -2.819 -38.181  1.00  0.00     0.091 A 
HETATM    6  S1  UNL     1     -14.947  -2.725 -39.599  1.00  0.00    -0.070 SA
HETATM    7  C8  UNL     1     -13.423  -3.124 -38.941  1.00  0.00     0.031 A 
ENDROOT
BRANCH   5   8
HETATM    8  C4  UNL     1     -17.306  -2.598 -37.976  1.00  0.00     0.066 A 
HETATM    9  C5  UNL     1     -18.307  -3.487 -38.388  1.00  0.00     0.038 A 
HETATM   10  C6  UNL     1     -18.035  -4.766 -39.087  1.00  0.00     0.071 C 
HETATM   11  N2  UNL     1     -19.500  -2.980 -38.045  1.00  0.00    -0.303 N 
HETATM   12  N3  UNL     1     -19.333  -1.827 -37.442  1.00  0.00    -0.285 N 
ATOM     13  H2  UNL     1     -20.400  -3.424 -38.226  1.00  0.00     0.186 HD
HETATM   14  C7  UNL     1     -17.989  -1.566 -37.385  1.00  0.00     0.128 A 
ATOM     15  H3  UNL     1     -20.075  -1.229 -37.078  1.00  0.00     0.188 HD
BRANCH  14  16
HETATM   16  N4  UNL     1     -17.455  -0.522 -36.860  1.00  0.00    -0.384 N 
ATOM     17  H42 UNL     1     -17.726  -0.101 -35.972  1.00  0.00     0.157 HD
ATOM     18  H41 UNL     1     -16.692   0.019 -37.267  1.00  0.00     0.157 HD
ENDBRANCH  14  16
ENDBRANCH   5   8
BRANCH   7  19
HETATM   19  C9  UNL     1     -12.099  -3.246 -39.580  1.00  0.00     0.047 C 
HETATM   20  C10 UNL     1     -11.839  -2.621 -40.711  1.00  0.00     0.168 C 
BRANCH  20  21
HETATM   21  O1  UNL     1     -10.607  -2.715 -41.334  1.00  0.00    -0.257 OA
BRANCH  21  22
HETATM   22  N5  UNL     1     -10.045  -3.927 -41.638  1.00  0.00    -0.306 N 
ATOM     23  H52 UNL     1     -10.191  -4.701 -40.989  1.00  0.00     0.184 HD
ATOM     24  H51 UNL     1      -9.493  -4.065 -42.484  1.00  0.00     0.184 HD
ENDBRANCH  21  22
ENDBRANCH  20  21
ENDBRANCH   7  19
TORSDOF 5
ENDMDL
MODEL 3
REMARK VINA RESULT: -6.248781108      2.473      3.616
REMARK  5 active torsions:
REMARK  status: ('A' for Active; 'I' for Inactive)
REMARK    1  A    between atoms: C3_5  and  C4_6 
REMARK    2  A    between atoms: C7_13  and  N4_14 
REMARK    3  A    between atoms: C8_18  and  C9_19 
REMARK    4  A    between atoms: C10_20  and  O1_21 
REMARK    5  A    between atoms: O1_21  and  N5_22 
ROOT
HETATM    1  C1  UNL     1     -12.941  -1.999 -40.719  1.00  0.00     0.069 C 
HETATM    2  C2  UNL     1     -13.891  -2.551 -39.670  1.00  0.00     0.023 A 
HETATM    3  N1  UNL     1     -15.090  -2.909 -39.992  1.00  0.00    -0.352 N 
ATOM      4  H1  UNL     1     -15.406  -2.822 -40.958  1.00  0.00     0.166 HD
HETATM    5  C3  UNL     1     -15.909  -3.389 -39.072  1.00  0.00     0.091 A 
HETATM    6  S1  UNL     1     -14.944  -3.333 -37.673  1.00  0.00    -0.070 SA
HETATM    7  C8  UNL     1     -13.519  -2.688 -38.356  1.00  0.00     0.031 A 
ENDROOT
BRANCH   5   8
HETATM    8  C4  UNL     1     -17.281  -3.839 -39.252  1.00  0.00     0.066 A 
HETATM    9  C5  UNL     1     -17.638  -5.095 -39.759  1.00  0.00     0.038 A 
HETATM   10  C6  UNL     1     -16.655  -6.123 -40.176  1.00  0.00     0.071 C 
HETATM   11  N2  UNL     1     -18.975  -5.181 -39.793  1.00  0.00    -0.303 N 
HETATM   12  N3  UNL     1     -19.502  -4.067 -39.343  1.00  0.00    -0.285 N 
ATOM     13  H2  UNL     1     -19.504  -5.991 -40.118  1.00  0.00     0.186 HD
HETATM   14  C7  UNL     1     -18.480  -3.220 -39.002  1.00  0.00     0.128 A 
ATOM     15  H3  UNL     1     -20.499  -3.866 -39.262  1.00  0.00     0.188 HD
BRANCH  14  16
HETATM   16  N4  UNL     1     -18.622  -2.036 -38.524  1.00  0.00    -0.384 N 
ATOM     17  H42 UNL     1     -17.977  -1.259 -38.667  1.00  0.00     0.157 HD
ATOM     18  H41 UNL     1     -19.398  -1.723 -37.940  1.00  0.00     0.157 HD
ENDBRANCH  14  16
ENDBRANCH   5   8
BRANCH   7  19
HETATM   19  C9  UNL     1     -12.220  -2.353 -37.741  1.00  0.00     0.047 C 
HETATM   20  C10 UNL     1     -11.878  -2.865 -36.576  1.00  0.00     0.168 C 
BRANCH  20  21
HETATM   21  O1  UNL     1     -10.667  -2.571 -35.973  1.00  0.00    -0.257 OA
BRANCH  21  22
HETATM   22  N5  UNL     1     -10.401  -1.328 -35.461  1.00  0.00    -0.306 N 
ATOM     23  H52 UNL     1     -10.363  -0.539 -36.107  1.00  0.00     0.184 HD
ATOM     24  H51 UNL     1     -10.244  -1.182 -34.465  1.00  0.00     0.184 HD
ENDBRANCH  21  22
ENDBRANCH  20  21
ENDBRANCH   7  19
TORSDOF 5
ENDMDL
MODEL 4
REMARK VINA RESULT: -6.202179046      2.406      3.179
REMARK  5 active torsions:
REMARK  status: ('A' for Active; 'I' for Inactive)
REMARK    1  A    between atoms: C3_5  and  C4_6 
REMARK    2  A    between atoms: C7_13  and  N4_14 
REMARK    3  A    between atoms: C8_18  and  C9_19 
REMARK    4  A    between atoms: C10_20  and  O1_21 
REMARK    5  A    between atoms: O1_21  and  N5_22 
ROOT
HETATM    1  C1  UNL     1     -12.794  -1.943 -40.702  1.00  0.00     0.069 C 
HETATM    2  C2  UNL     1     -13.759  -2.517 -39.679  1.00  0.00     0.023 A 
HETATM    3  N1  UNL     1     -14.952  -2.872 -40.027  1.00  0.00    -0.352 N 
ATOM      4  H1  UNL     1     -15.252  -2.767 -40.996  1.00  0.00     0.166 HD
HETATM    5  C3  UNL     1     -15.784  -3.371 -39.129  1.00  0.00     0.091 A 
HETATM    6  S1  UNL     1     -14.841  -3.340 -37.714  1.00  0.00    -0.070 SA
HETATM    7  C8  UNL     1     -13.407  -2.678 -38.362  1.00  0.00     0.031 A 
ENDROOT
BRANCH   5   8
HETATM    8  C4  UNL     1     -17.152  -3.820 -39.340  1.00  0.00     0.066 A 
HETATM    9  C5  UNL     1     -18.285  -3.125 -38.899  1.00  0.00     0.038 A 
HETATM   10  C6  UNL     1     -18.227  -1.840 -38.162  1.00  0.00     0.071 C 
HETATM   11  N2  UNL     1     -19.378  -3.813 -39.257  1.00  0.00    -0.303 N 
HETATM   12  N3  UNL     1     -19.025  -4.903 -39.896  1.00  0.00    -0.285 N 
ATOM     13  H2  UNL     1     -20.339  -3.532 -39.062  1.00  0.00     0.186 HD
HETATM   14  C7  UNL     1     -17.657  -4.934 -39.962  1.00  0.00     0.128 A 
ATOM     15  H3  UNL     1     -19.659  -5.606 -40.276  1.00  0.00     0.188 HD
BRANCH  14  16
HETATM   16  N4  UNL     1     -16.958  -5.858 -40.518  1.00  0.00    -0.384 N 
ATOM     17  H42 UNL     1     -16.379  -5.742 -41.350  1.00  0.00     0.157 HD
ATOM     18  H41 UNL     1     -16.895  -6.825 -40.199  1.00  0.00     0.157 HD
ENDBRANCH  14  16
ENDBRANCH   5   8
BRANCH   7  19
HETATM   19  C9  UNL     1     -12.119  -2.353 -37.721  1.00  0.00     0.047 C 
HETATM   20  C10 UNL     1     -11.839  -2.800 -36.513  1.00  0.00     0.168 C 
BRANCH  20  21
HETATM   21  O1  UNL     1     -10.640  -2.512 -35.884  1.00  0.00    -0.257 OA
BRANCH  21  22
HETATM   22  N5  UNL     1     -10.355  -1.255 -35.417  1.00  0.00    -0.306 N 
ATOM     23  H52 UNL     1     -10.877  -0.469 -35.805  1.00  0.00     0.184 HD
ATOM     24  H51 UNL     1      -9.645  -1.098 -34.703  1.00  0.00     0.184 HD
ENDBRANCH  21  22
ENDBRANCH  20  21
ENDBRANCH   7  19
TORSDOF 5
ENDMDL
MODEL 5
REMARK VINA RESULT: -5.879095617      1.425      1.582
REMARK  5 active torsions:
REMARK  status: ('A' for Active; 'I' for Inactive)
REMARK    1  A    between atoms: C3_5  and  C4_6 
REMARK    2  A    between atoms: C7_13  and  N4_14 
REMARK    3  A    between atoms: C8_18  and  C9_19 
REMARK    4  A    between atoms: C10_20  and  O1_21 
REMARK    5  A    between atoms: O1_21  and  N5_22 
ROOT
HETATM    1  C1  UNL     1     -12.710  -3.653 -36.270  1.00  0.00     0.069 C 
HETATM    2  C2  UNL     1     -13.571  -3.332 -37.480  1.00  0.00     0.023 A 
HETATM    3  N1  UNL     1     -14.835  -3.605 -37.477  1.00  0.00    -0.352 N 
ATOM      4  H1  UNL     1     -15.260  -4.040 -36.659  1.00  0.00     0.166 HD
HETATM    5  C3  UNL     1     -15.576  -3.321 -38.534  1.00  0.00     0.091 A 
HETATM    6  S1  UNL     1     -14.438  -2.633 -39.594  1.00  0.00    -0.070 SA
HETATM    7  C8  UNL     1     -13.050  -2.749 -38.607  1.00  0.00     0.031 A 
ENDROOT
BRANCH   5   8
HETATM    8  C4  UNL     1     -17.002  -3.555 -38.707  1.00  0.00     0.066 A 
HETATM    9  C5  UNL     1     -17.971  -2.543 -38.713  1.00  0.00     0.038 A 
HETATM   10  C6  UNL     1     -17.658  -1.104 -38.543  1.00  0.00     0.071 C 
HETATM   11  N2  UNL     1     -19.176  -3.102 -38.893  1.00  0.00    -0.303 N 
HETATM   12  N3  UNL     1     -19.048  -4.403 -39.002  1.00  0.00    -0.285 N 
ATOM     13  H2  UNL     1     -20.059  -2.593 -38.939  1.00  0.00     0.186 HD
HETATM   14  C7  UNL     1     -17.718  -4.711 -38.891  1.00  0.00     0.128 A 
ATOM     15  H3  UNL     1     -19.807  -5.069 -39.145  1.00  0.00     0.188 HD
BRANCH  14  16
HETATM   16  N4  UNL     1     -17.219  -5.894 -38.951  1.00  0.00    -0.384 N 
ATOM     17  H42 UNL     1     -16.295  -6.164 -38.617  1.00  0.00     0.157 HD
ATOM     18  H41 UNL     1     -17.685  -6.713 -39.341  1.00  0.00     0.157 HD
ENDBRANCH  14  16
ENDBRANCH   5   8
BRANCH   7  19
HETATM   19  C9  UNL     1     -11.653  -2.345 -38.856  1.00  0.00     0.047 C 
HETATM   20  C10 UNL     1     -10.802  -3.182 -39.415  1.00  0.00     0.168 C 
BRANCH  20  21
HETATM   21  O1  UNL     1      -9.485  -2.833 -39.662  1.00  0.00    -0.257 OA
BRANCH  21  22
HETATM   22  N5  UNL     1      -8.641  -2.452 -38.653  1.00  0.00    -0.306 N 
ATOM     23  H52 UNL     1      -8.696  -2.951 -37.765  1.00  0.00     0.184 HD
ATOM     24  H51 UNL     1      -7.973  -1.691 -38.772  1.00  0.00     0.184 HD
ENDBRANCH  21  22
ENDBRANCH  20  21
ENDBRANCH   7  19
TORSDOF 5
ENDMDL
