MODEL 1
REMARK VINA RESULT: -5.084590273      0.000      0.000
REMARK  4 active torsions:
REMARK  status: ('A' for Active; 'I' for Inactive)
REMARK    1  A    between atoms: C2_2  and  N1_5 
REMARK    2  A    between atoms: N1_5  and  C5_7 
REMARK    3  A    between atoms: C6_10  and  N3_11 
REMARK    4  A    between atoms: C8_18  and  N5_19 
ROOT
HETATM    1  C5  UNL     1     -13.588  -3.264 -38.738  1.00  0.00     0.154 A 
HETATM    2  N2  UNL     1     -13.364  -2.475 -39.808  1.00  0.00    -0.175 N 
ATOM      3  H2  UNL     1     -13.969  -2.579 -40.623  1.00  0.00     0.186 HD
HETATM    4  C6  UNL     1     -12.382  -1.555 -39.853  1.00  0.00     0.678 A 
HETATM    5  N4  UNL     1     -11.568  -1.390 -38.804  1.00  0.00    -0.179 N 
ATOM      6  H4  UNL     1     -10.822  -0.694 -38.837  1.00  0.00     0.185 HD
HETATM    7  C7  UNL     1     -11.737  -2.144 -37.707  1.00  0.00     0.153 A 
HETATM    8  S1  UNL     1     -10.749  -1.951 -36.418  1.00  0.00    -0.057 SA
HETATM    9  C8  UNL     1     -12.753  -3.102 -37.647  1.00  0.00     0.185 A 
ENDROOT
BRANCH   1  10
HETATM   10  N1  UNL     1     -14.604  -4.227 -38.663  1.00  0.00    -0.366 N 
ATOM     11  H1  UNL     1     -14.299  -5.195 -38.568  1.00  0.00     0.162 HD
BRANCH  10  12
HETATM   12  C2  UNL     1     -16.022  -4.012 -38.704  1.00  0.00     0.021 C 
HETATM   13  C1  UNL     1     -16.728  -5.251 -38.246  1.00  0.00     0.037 C 
HETATM   14  C3  UNL     1     -16.421  -3.785 -40.168  1.00  0.00     0.037 C 
HETATM   15  C4  UNL     1     -16.477  -2.814 -37.939  1.00  0.00     0.037 C 
ENDBRANCH  10  12
ENDBRANCH   1  10
BRANCH   9  16
HETATM   16  N5  UNL     1     -12.868  -3.859 -36.456  1.00  0.00    -0.108 N 
HETATM   17  O1  UNL     1     -13.790  -3.635 -35.675  1.00  0.00    -0.532 OA
HETATM   18  O2  UNL     1     -11.933  -4.828 -36.214  1.00  0.00    -0.532 OA
ENDBRANCH   9  16
BRANCH   4  19
HETATM   19  N3  UNL     1     -12.205  -0.810 -40.918  1.00  0.00    -0.234 N 
ATOM     20  H32 UNL     1     -12.891  -0.853 -41.672  1.00  0.00     0.174 HD
ATOM     21  H31 UNL     1     -11.396  -0.194 -40.999  1.00  0.00     0.174 HD
ENDBRANCH   4  19
TORSDOF 4
ENDMDL
MODEL 2
REMARK VINA RESULT: -5.084259952      2.479      3.400
REMARK  4 active torsions:
REMARK  status: ('A' for Active; 'I' for Inactive)
REMARK    1  A    between atoms: C2_2  and  N1_5 
REMARK    2  A    between atoms: N1_5  and  C5_7 
REMARK    3  A    between atoms: C6_10  and  N3_11 
REMARK    4  A    between atoms: C8_18  and  N5_19 
ROOT
HETATM    1  C5  UNL     1     -13.459  -2.926 -38.771  1.00  0.00     0.154 A 
HETATM    2  N2  UNL     1     -13.514  -3.518 -37.562  1.00  0.00    -0.175 N 
ATOM      3  H2  UNL     1     -14.431  -3.734 -37.168  1.00  0.00     0.186 HD
HETATM    4  C6  UNL     1     -12.418  -3.839 -36.848  1.00  0.00     0.678 A 
HETATM    5  N4  UNL     1     -11.199  -3.570 -37.331  1.00  0.00    -0.179 N 
ATOM      6  H4  UNL     1     -10.368  -3.811 -36.790  1.00  0.00     0.185 HD
HETATM    7  C7  UNL     1     -11.076  -2.980 -38.530  1.00  0.00     0.153 A 
HETATM    8  S1  UNL     1      -9.592  -2.646 -39.131  1.00  0.00    -0.057 SA
HETATM    9  C8  UNL     1     -12.205  -2.643 -39.281  1.00  0.00     0.185 A 
ENDROOT
BRANCH   1  10
HETATM   10  N1  UNL     1     -14.583  -2.583 -39.537  1.00  0.00    -0.366 N 
ATOM     11  H1  UNL     1     -14.396  -2.131 -40.432  1.00  0.00     0.162 HD
BRANCH  10  12
HETATM   12  C2  UNL     1     -15.965  -2.792 -39.210  1.00  0.00     0.021 C 
HETATM   13  C1  UNL     1     -16.425  -4.092 -39.794  1.00  0.00     0.037 C 
HETATM   14  C3  UNL     1     -16.781  -1.683 -39.888  1.00  0.00     0.037 C 
HETATM   15  C4  UNL     1     -16.261  -2.718 -37.749  1.00  0.00     0.037 C 
ENDBRANCH  10  12
ENDBRANCH   1  10
BRANCH   9  16
HETATM   16  N5  UNL     1     -11.993  -2.023 -40.537  1.00  0.00    -0.108 N 
HETATM   17  O1  UNL     1     -12.339  -0.856 -40.709  1.00  0.00    -0.532 OA
HETATM   18  O2  UNL     1     -11.403  -2.757 -41.529  1.00  0.00    -0.532 OA
ENDBRANCH   9  16
BRANCH   4  19
HETATM   19  N3  UNL     1     -12.524  -4.416 -35.674  1.00  0.00    -0.234 N 
ATOM     20  H32 UNL     1     -13.333  -4.205 -35.090  1.00  0.00     0.174 HD
ATOM     21  H31 UNL     1     -11.811  -5.067 -35.345  1.00  0.00     0.174 HD
ENDBRANCH   4  19
TORSDOF 4
ENDMDL
MODEL 3
REMARK VINA RESULT: -5.066622781      2.766      3.625
REMARK  4 active torsions:
REMARK  status: ('A' for Active; 'I' for Inactive)
REMARK    1  A    between atoms: C2_2  and  N1_5 
REMARK    2  A    between atoms: N1_5  and  C5_7 
REMARK    3  A    between atoms: C6_10  and  N3_11 
REMARK    4  A    between atoms: C8_18  and  N5_19 
ROOT
HETATM    1  C5  UNL     1     -13.742  -2.560 -38.482  1.00  0.00     0.154 A 
HETATM    2  N2  UNL     1     -13.424  -3.271 -37.381  1.00  0.00    -0.175 N 
ATOM      3  H2  UNL     1     -14.078  -3.271 -36.598  1.00  0.00     0.186 HD
HETATM    4  C6  UNL     1     -12.286  -3.981 -37.266  1.00  0.00     0.678 A 
HETATM    5  N4  UNL     1     -11.404  -4.004 -38.273  1.00  0.00    -0.179 N 
ATOM      6  H4  UNL     1     -10.540  -4.541 -38.186  1.00  0.00     0.185 HD
HETATM    7  C7  UNL     1     -11.661  -3.316 -39.396  1.00  0.00     0.153 A 
HETATM    8  S1  UNL     1     -10.590  -3.336 -40.632  1.00  0.00    -0.057 SA
HETATM    9  C8  UNL     1     -12.838  -2.575 -39.528  1.00  0.00     0.185 A 
ENDROOT
BRANCH   1  10
HETATM   10  N1  UNL     1     -14.920  -1.813 -38.629  1.00  0.00    -0.366 N 
ATOM     11  H1  UNL     1     -14.801  -0.829 -38.869  1.00  0.00     0.162 HD
BRANCH  10  12
HETATM   12  C2  UNL     1     -16.273  -2.270 -38.482  1.00  0.00     0.021 C 
HETATM   13  C1  UNL     1     -16.377  -3.685 -38.962  1.00  0.00     0.037 C 
HETATM   14  C3  UNL     1     -17.158  -1.419 -39.403  1.00  0.00     0.037 C 
HETATM   15  C4  UNL     1     -16.816  -2.123 -37.100  1.00  0.00     0.037 C 
ENDBRANCH  10  12
ENDBRANCH   1  10
BRANCH   9  16
HETATM   16  N5  UNL     1     -13.037  -1.876 -40.744  1.00  0.00    -0.108 N 
HETATM   17  O1  UNL     1     -13.876  -2.274 -41.548  1.00  0.00    -0.532 OA
HETATM   18  O2  UNL     1     -12.275  -0.764 -40.982  1.00  0.00    -0.532 OA
ENDBRANCH   9  16
BRANCH   4  19
HETATM   19  N3  UNL     1     -12.022  -4.659 -36.174  1.00  0.00    -0.234 N 
ATOM     20  H32 UNL     1     -11.194  -5.255 -36.150  1.00  0.00     0.174 HD
ATOM     21  H31 UNL     1     -12.631  -4.597 -35.359  1.00  0.00     0.174 HD
ENDBRANCH   4  19
TORSDOF 4
ENDMDL
MODEL 4
REMARK VINA RESULT: -5.062797878      2.224      4.237
REMARK  4 active torsions:
REMARK  status: ('A' for Active; 'I' for Inactive)
REMARK    1  A    between atoms: C2_2  and  N1_5 
REMARK    2  A    between atoms: N1_5  and  C5_7 
REMARK    3  A    between atoms: C6_10  and  N3_11 
REMARK    4  A    between atoms: C8_18  and  N5_19 
ROOT
HETATM    1  C5  UNL     1     -12.447  -2.370 -38.981  1.00  0.00     0.154 A 
HETATM    2  N2  UNL     1     -13.229  -2.174 -40.061  1.00  0.00    -0.175 N 
ATOM      3  H2  UNL     1     -12.802  -1.796 -40.908  1.00  0.00     0.186 HD
HETATM    4  C6  UNL     1     -14.546  -2.454 -40.078  1.00  0.00     0.678 A 
HETATM    5  N4  UNL     1     -15.142  -2.949 -38.986  1.00  0.00    -0.179 N 
ATOM      6  H4  UNL     1     -16.140  -3.160 -38.997  1.00  0.00     0.185 HD
HETATM    7  C7  UNL     1     -14.418  -3.167 -37.877  1.00  0.00     0.153 A 
HETATM    8  S1  UNL     1     -15.134  -3.772 -36.537  1.00  0.00    -0.057 SA
HETATM    9  C8  UNL     1     -13.051  -2.881 -37.847  1.00  0.00     0.185 A 
ENDROOT
BRANCH   1  10
HETATM   10  N1  UNL     1     -11.074  -2.089 -38.936  1.00  0.00    -0.366 N 
ATOM     11  H1  UNL     1     -10.813  -1.181 -38.552  1.00  0.00     0.162 HD
BRANCH  10  12
HETATM   12  C2  UNL     1      -9.992  -2.929 -39.366  1.00  0.00     0.021 C 
HETATM   13  C1  UNL     1      -9.893  -2.890 -40.860  1.00  0.00     0.037 C 
HETATM   14  C3  UNL     1     -10.337  -4.374 -38.978  1.00  0.00     0.037 C 
HETATM   15  C4  UNL     1      -8.683  -2.608 -38.726  1.00  0.00     0.037 C 
ENDBRANCH  10  12
ENDBRANCH   1  10
BRANCH   9  16
HETATM   16  N5  UNL     1     -12.356  -3.137 -36.639  1.00  0.00    -0.108 N 
HETATM   17  O1  UNL     1     -11.811  -2.214 -36.039  1.00  0.00    -0.532 OA
HETATM   18  O2  UNL     1     -12.317  -4.425 -36.177  1.00  0.00    -0.532 OA
ENDBRANCH   9  16
BRANCH   4  19
HETATM   19  N3  UNL     1     -15.265  -2.247 -41.156  1.00  0.00    -0.234 N 
ATOM     20  H32 UNL     1     -14.960  -2.654 -42.040  1.00  0.00     0.174 HD
ATOM     21  H31 UNL     1     -16.118  -1.689 -41.118  1.00  0.00     0.174 HD
ENDBRANCH   4  19
TORSDOF 4
ENDMDL
MODEL 5
REMARK VINA RESULT: -5.059854835      0.097      1.064
REMARK  4 active torsions:
REMARK  status: ('A' for Active; 'I' for Inactive)
REMARK    1  A    between atoms: C2_2  and  N1_5 
REMARK    2  A    between atoms: N1_5  and  C5_7 
REMARK    3  A    between atoms: C6_10  and  N3_11 
REMARK    4  A    between atoms: C8_18  and  N5_19 
ROOT
HETATM    1  C5  UNL     1     -13.647  -3.283 -38.707  1.00  0.00     0.154 A 
HETATM    2  N2  UNL     1     -13.450  -2.517 -39.799  1.00  0.00    -0.175 N 
ATOM      3  H2  UNL     1     -14.087  -2.624 -40.589  1.00  0.00     0.186 HD
HETATM    4  C6  UNL     1     -12.453  -1.617 -39.898  1.00  0.00     0.678 A 
HETATM    5  N4  UNL     1     -11.596  -1.450 -38.883  1.00  0.00    -0.179 N 
ATOM      6  H4  UNL     1     -10.840  -0.769 -38.957  1.00  0.00     0.185 HD
HETATM    7  C7  UNL     1     -11.738  -2.182 -37.768  1.00  0.00     0.153 A 
HETATM    8  S1  UNL     1     -10.698  -1.986 -36.520  1.00  0.00    -0.057 SA
HETATM    9  C8  UNL     1     -12.769  -3.119 -37.652  1.00  0.00     0.185 A 
ENDROOT
BRANCH   1  10
HETATM   10  N1  UNL     1     -14.677  -4.226 -38.577  1.00  0.00    -0.366 N 
ATOM     11  H1  UNL     1     -14.396  -5.160 -38.279  1.00  0.00     0.162 HD
BRANCH  10  12
HETATM   12  C2  UNL     1     -16.079  -4.032 -38.813  1.00  0.00     0.021 C 
HETATM   13  C1  UNL     1     -16.569  -2.879 -37.992  1.00  0.00     0.037 C 
HETATM   14  C3  UNL     1     -16.817  -5.282 -38.313  1.00  0.00     0.037 C 
HETATM   15  C4  UNL     1     -16.436  -3.864 -40.252  1.00  0.00     0.037 C 
ENDBRANCH  10  12
ENDBRANCH   1  10
BRANCH   9  16
HETATM   16  N5  UNL     1     -12.852  -3.854 -36.444  1.00  0.00    -0.108 N 
HETATM   17  O1  UNL     1     -13.746  -3.606 -35.638  1.00  0.00    -0.532 OA
HETATM   18  O2  UNL     1     -11.919  -4.828 -36.214  1.00  0.00    -0.532 OA
ENDBRANCH   9  16
BRANCH   4  19
HETATM   19  N3  UNL     1     -12.303  -0.894 -40.982  1.00  0.00    -0.234 N 
ATOM     20  H32 UNL     1     -12.403  -1.342 -41.893  1.00  0.00     0.174 HD
ATOM     21  H31 UNL     1     -12.090   0.101 -40.922  1.00  0.00     0.174 HD
ENDBRANCH   4  19
TORSDOF 4
ENDMDL
