MODEL 1
REMARK VINA RESULT: -5.516042349      0.000      0.000
REMARK  4 active torsions:
REMARK  status: ('A' for Active; 'I' for Inactive)
REMARK    1  A    between atoms: C2_2  and  S1_4 
REMARK    2  A    between atoms: S1_4  and  C4_5 
REMARK    3  A    between atoms: C6_11  and  N3_12 
REMARK    4  A    between atoms: C7_17  and  N5_18 
ROOT
HETATM    1  C4  UNL     1     -15.644  -2.468 -38.839  1.00  0.00     0.114 A 
HETATM    2  N1  UNL     1     -14.592  -2.533 -39.626  1.00  0.00    -0.330 N 
ATOM      3  H1  UNL     1     -14.659  -2.219 -40.594  1.00  0.00     0.168 HD
HETATM    4  C5  UNL     1     -13.462  -3.001 -39.169  1.00  0.00     0.143 A 
HETATM    5  N2  UNL     1     -12.287  -3.132 -39.866  1.00  0.00    -0.175 N 
ATOM      6  H2  UNL     1     -12.244  -2.846 -40.845  1.00  0.00     0.186 HD
HETATM    7  C6  UNL     1     -11.210  -3.626 -39.278  1.00  0.00     0.679 A 
HETATM    8  N4  UNL     1     -11.136  -4.035 -38.009  1.00  0.00    -0.176 N 
ATOM      9  H4  UNL     1     -10.273  -4.407 -37.615  1.00  0.00     0.186 HD
HETATM   10  C7  UNL     1     -12.254  -3.931 -37.281  1.00  0.00     0.135 A 
HETATM   11  C8  UNL     1     -13.421  -3.411 -37.866  1.00  0.00     0.096 A 
HETATM   12  S2  UNL     1     -15.038  -3.092 -37.376  1.00  0.00    -0.058 SA
ENDROOT
BRANCH   1  13
HETATM   13  S1  UNL     1     -17.310  -1.911 -39.074  1.00  0.00    -0.101 SA
BRANCH  13  14
HETATM   14  C2  UNL     1     -17.858  -0.784 -37.788  1.00  0.00     0.046 C 
HETATM   15  C1  UNL     1     -18.463   0.480 -38.335  1.00  0.00     0.021 C 
HETATM   16  C3  UNL     1     -18.853  -1.421 -36.844  1.00  0.00     0.021 C 
ENDBRANCH  13  14
ENDBRANCH   1  13
BRANCH  10  17
HETATM   17  N5  UNL     1     -12.340  -4.279 -36.049  1.00  0.00    -0.384 N 
ATOM     18  H52 UNL     1     -11.869  -5.146 -35.789  1.00  0.00     0.157 HD
ATOM     19  H51 UNL     1     -12.843  -3.745 -35.341  1.00  0.00     0.157 HD
ENDBRANCH  10  17
BRANCH   7  20
HETATM   20  N3  UNL     1     -10.128  -3.722 -40.014  1.00  0.00    -0.234 N 
ATOM     21  H32 UNL     1      -9.346  -3.107 -39.791  1.00  0.00     0.174 HD
ATOM     22  H31 UNL     1     -10.143  -4.414 -40.763  1.00  0.00     0.174 HD
ENDBRANCH   7  20
TORSDOF 4
ENDMDL
MODEL 2
REMARK VINA RESULT: -5.491970981      2.668      3.773
REMARK  4 active torsions:
REMARK  status: ('A' for Active; 'I' for Inactive)
REMARK    1  A    between atoms: C2_2  and  S1_4 
REMARK    2  A    between atoms: S1_4  and  C4_5 
REMARK    3  A    between atoms: C6_11  and  N3_12 
REMARK    4  A    between atoms: C7_17  and  N5_18 
ROOT
HETATM    1  C4  UNL     1     -15.932  -3.659 -38.835  1.00  0.00     0.114 A 
HETATM    2  N1  UNL     1     -14.969  -3.604 -37.941  1.00  0.00    -0.330 N 
ATOM      3  H1  UNL     1     -15.108  -4.007 -37.015  1.00  0.00     0.168 HD
HETATM    4  C5  UNL     1     -13.834  -3.031 -38.238  1.00  0.00     0.143 A 
HETATM    5  N2  UNL     1     -12.744  -2.895 -37.415  1.00  0.00    -0.175 N 
ATOM      6  H2  UNL     1     -12.778  -3.265 -36.464  1.00  0.00     0.186 HD
HETATM    7  C6  UNL     1     -11.650  -2.288 -37.844  1.00  0.00     0.679 A 
HETATM    8  N4  UNL     1     -11.480  -1.763 -39.060  1.00  0.00    -0.176 N 
ATOM      9  H4  UNL     1     -10.609  -1.306 -39.330  1.00  0.00     0.186 HD
HETATM   10  C7  UNL     1     -12.512  -1.866 -39.906  1.00  0.00     0.135 A 
HETATM   11  C8  UNL     1     -13.693  -2.503 -39.490  1.00  0.00     0.096 A 
HETATM   12  S2  UNL     1     -15.229  -2.871 -40.171  1.00  0.00    -0.058 SA
ENDROOT
BRANCH   1  13
HETATM   13  S1  UNL     1     -17.572  -4.331 -38.822  1.00  0.00    -0.101 SA
BRANCH  13  14
HETATM   14  C2  UNL     1     -17.870  -5.473 -40.175  1.00  0.00     0.046 C 
HETATM   15  C1  UNL     1     -17.565  -6.902 -39.814  1.00  0.00     0.021 C 
HETATM   16  C3  UNL     1     -19.290  -5.403 -40.691  1.00  0.00     0.021 C 
ENDBRANCH  13  14
ENDBRANCH   1  13
BRANCH  10  17
HETATM   17  N5  UNL     1     -12.500  -1.413 -41.107  1.00  0.00    -0.384 N 
ATOM     18  H52 UNL     1     -11.722  -1.708 -41.695  1.00  0.00     0.157 HD
ATOM     19  H51 UNL     1     -13.212  -0.788 -41.485  1.00  0.00     0.157 HD
ENDBRANCH  10  17
BRANCH   7  20
HETATM   20  N3  UNL     1     -10.655  -2.195 -36.995  1.00  0.00    -0.234 N 
ATOM     21  H32 UNL     1     -10.221  -3.061 -36.676  1.00  0.00     0.174 HD
ATOM     22  H31 UNL     1     -10.378  -1.255 -36.712  1.00  0.00     0.174 HD
ENDBRANCH   7  20
TORSDOF 4
ENDMDL
MODEL 3
REMARK VINA RESULT: -5.282221336      1.694      2.082
REMARK  4 active torsions:
REMARK  status: ('A' for Active; 'I' for Inactive)
REMARK    1  A    between atoms: C2_2  and  S1_4 
REMARK    2  A    between atoms: S1_4  and  C4_5 
REMARK    3  A    between atoms: C6_11  and  N3_12 
REMARK    4  A    between atoms: C7_17  and  N5_18 
ROOT
HETATM    1  C4  UNL     1     -14.277  -2.912 -37.981  1.00  0.00     0.114 A 
HETATM    2  N1  UNL     1     -13.783  -3.270 -39.147  1.00  0.00    -0.330 N 
ATOM      3  H1  UNL     1     -14.408  -3.574 -39.894  1.00  0.00     0.168 HD
HETATM    4  C5  UNL     1     -12.495  -3.239 -39.349  1.00  0.00     0.143 A 
HETATM    5  N2  UNL     1     -11.837  -3.583 -40.503  1.00  0.00    -0.175 N 
ATOM      6  H2  UNL     1     -12.369  -3.901 -41.314  1.00  0.00     0.186 HD
HETATM    7  C6  UNL     1     -10.518  -3.506 -40.573  1.00  0.00     0.679 A 
HETATM    8  N4  UNL     1      -9.710  -3.107 -39.586  1.00  0.00    -0.176 N 
ATOM      9  H4  UNL     1      -8.698  -3.069 -39.704  1.00  0.00     0.186 HD
HETATM   10  C7  UNL     1     -10.298  -2.760 -38.436  1.00  0.00     0.135 A 
HETATM   11  C8  UNL     1     -11.697  -2.827 -38.319  1.00  0.00     0.096 A 
HETATM   12  S2  UNL     1     -12.873  -2.506 -37.107  1.00  0.00    -0.058 SA
ENDROOT
BRANCH   1  13
HETATM   13  S1  UNL     1     -15.922  -2.817 -37.330  1.00  0.00    -0.101 SA
BRANCH  13  14
HETATM   14  C2  UNL     1     -17.013  -1.805 -38.333  1.00  0.00     0.046 C 
HETATM   15  C1  UNL     1     -18.260  -2.532 -38.760  1.00  0.00     0.021 C 
HETATM   16  C3  UNL     1     -17.421  -0.525 -37.637  1.00  0.00     0.021 C 
ENDBRANCH  13  14
ENDBRANCH   1  13
BRANCH  10  17
HETATM   17  N5  UNL     1      -9.657  -2.355 -37.400  1.00  0.00    -0.384 N 
ATOM     18  H52 UNL     1      -9.091  -3.051 -36.917  1.00  0.00     0.157 HD
ATOM     19  H51 UNL     1      -9.691  -1.398 -37.049  1.00  0.00     0.157 HD
ENDBRANCH  10  17
BRANCH   7  20
HETATM   20  N3  UNL     1      -9.965  -3.856 -41.710  1.00  0.00    -0.234 N 
ATOM     21  H32 UNL     1     -10.110  -4.812 -42.033  1.00  0.00     0.174 HD
ATOM     22  H31 UNL     1      -9.427  -3.141 -42.198  1.00  0.00     0.174 HD
ENDBRANCH   7  20
TORSDOF 4
ENDMDL
MODEL 4
REMARK VINA RESULT: -5.280208536      1.613      1.942
REMARK  4 active torsions:
REMARK  status: ('A' for Active; 'I' for Inactive)
REMARK    1  A    between atoms: C2_2  and  S1_4 
REMARK    2  A    between atoms: S1_4  and  C4_5 
REMARK    3  A    between atoms: C6_11  and  N3_12 
REMARK    4  A    between atoms: C7_17  and  N5_18 
ROOT
HETATM    1  C4  UNL     1     -15.961  -2.689 -38.662  1.00  0.00     0.114 A 
HETATM    2  N1  UNL     1     -14.940  -2.534 -39.477  1.00  0.00    -0.330 N 
ATOM      3  H1  UNL     1     -15.090  -2.175 -40.419  1.00  0.00     0.168 HD
HETATM    4  C5  UNL     1     -13.735  -2.842 -39.082  1.00  0.00     0.143 A 
HETATM    5  N2  UNL     1     -12.580  -2.738 -39.815  1.00  0.00    -0.175 N 
ATOM      6  H2  UNL     1     -12.617  -2.388 -40.773  1.00  0.00     0.186 HD
HETATM    7  C6  UNL     1     -11.417  -3.088 -39.289  1.00  0.00     0.679 A 
HETATM    8  N4  UNL     1     -11.235  -3.558 -38.052  1.00  0.00    -0.176 N 
ATOM      9  H4  UNL     1     -10.309  -3.811 -37.706  1.00  0.00     0.186 HD
HETATM   10  C7  UNL     1     -12.328  -3.682 -37.292  1.00  0.00     0.135 A 
HETATM   11  C8  UNL     1     -13.583  -3.322 -37.811  1.00  0.00     0.096 A 
HETATM   12  S2  UNL     1     -15.212  -3.298 -37.259  1.00  0.00    -0.058 SA
ENDROOT
BRANCH   1  13
HETATM   13  S1  UNL     1     -17.702  -2.394 -38.816  1.00  0.00    -0.101 SA
BRANCH  13  14
HETATM   14  C2  UNL     1     -18.669  -3.906 -38.803  1.00  0.00     0.046 C 
HETATM   15  C1  UNL     1     -19.963  -3.780 -39.561  1.00  0.00     0.021 C 
HETATM   16  C3  UNL     1     -17.905  -5.089 -39.356  1.00  0.00     0.021 C 
ENDBRANCH  13  14
ENDBRANCH   1  13
BRANCH  10  17
HETATM   17  N5  UNL     1     -12.314  -4.116 -36.084  1.00  0.00    -0.384 N 
ATOM     18  H52 UNL     1     -11.630  -4.843 -35.872  1.00  0.00     0.157 HD
ATOM     19  H51 UNL     1     -12.937  -3.779 -35.351  1.00  0.00     0.157 HD
ENDBRANCH  10  17
BRANCH   7  20
HETATM   20  N3  UNL     1     -10.361  -2.962 -40.056  1.00  0.00    -0.234 N 
ATOM     21  H32 UNL     1     -10.312  -3.540 -40.895  1.00  0.00     0.174 HD
ATOM     22  H31 UNL     1      -9.656  -2.288 -39.759  1.00  0.00     0.174 HD
ENDBRANCH   7  20
TORSDOF 4
ENDMDL
MODEL 5
REMARK VINA RESULT: -5.273281746      1.954      2.876
REMARK  4 active torsions:
REMARK  status: ('A' for Active; 'I' for Inactive)
REMARK    1  A    between atoms: C2_2  and  S1_4 
REMARK    2  A    between atoms: S1_4  and  C4_5 
REMARK    3  A    between atoms: C6_11  and  N3_12 
REMARK    4  A    between atoms: C7_17  and  N5_18 
ROOT
HETATM    1  C4  UNL     1     -15.801  -3.641 -38.704  1.00  0.00     0.114 A 
HETATM    2  N1  UNL     1     -14.888  -3.599 -37.757  1.00  0.00    -0.330 N 
ATOM      3  H1  UNL     1     -15.078  -4.020 -36.848  1.00  0.00     0.168 HD
HETATM    4  C5  UNL     1     -13.741  -3.019 -37.980  1.00  0.00     0.143 A 
HETATM    5  N2  UNL     1     -12.698  -2.895 -37.096  1.00  0.00    -0.175 N 
ATOM      6  H2  UNL     1     -12.783  -3.282 -36.156  1.00  0.00     0.186 HD
HETATM    7  C6  UNL     1     -11.584  -2.278 -37.454  1.00  0.00     0.679 A 
HETATM    8  N4  UNL     1     -11.350  -1.730 -38.649  1.00  0.00    -0.176 N 
ATOM      9  H4  UNL     1     -10.467  -1.267 -38.862  1.00  0.00     0.186 HD
HETATM   10  C7  UNL     1     -12.332  -1.820 -39.552  1.00  0.00     0.135 A 
HETATM   11  C8  UNL     1     -13.533  -2.468 -39.214  1.00  0.00     0.096 A 
HETATM   12  S2  UNL     1     -15.028  -2.827 -39.984  1.00  0.00    -0.058 SA
ENDROOT
BRANCH   1  13
HETATM   13  S1  UNL     1     -17.437  -4.317 -38.793  1.00  0.00    -0.101 SA
BRANCH  13  14
HETATM   14  C2  UNL     1     -18.715  -3.057 -38.767  1.00  0.00     0.046 C 
HETATM   15  C1  UNL     1     -19.961  -3.501 -38.050  1.00  0.00     0.021 C 
HETATM   16  C3  UNL     1     -18.241  -1.762 -38.144  1.00  0.00     0.021 C 
ENDBRANCH  13  14
ENDBRANCH   1  13
BRANCH  10  17
HETATM   17  N5  UNL     1     -12.256  -1.346 -40.742  1.00  0.00    -0.384 N 
ATOM     18  H52 UNL     1     -11.423  -1.593 -41.276  1.00  0.00     0.157 HD
ATOM     19  H51 UNL     1     -12.969  -0.750 -41.163  1.00  0.00     0.157 HD
ENDBRANCH  10  17
BRANCH   7  20
HETATM   20  N3  UNL     1     -10.637  -2.198 -36.549  1.00  0.00    -0.234 N 
ATOM     21  H32 UNL     1     -10.365  -1.270 -36.227  1.00  0.00     0.174 HD
ATOM     22  H31 UNL     1     -10.237  -3.079 -36.226  1.00  0.00     0.174 HD
ENDBRANCH   7  20
TORSDOF 4
ENDMDL
