MODEL 1
REMARK VINA RESULT: -7.196731410      0.000      0.000
REMARK  4 active torsions:
REMARK  status: ('A' for Active; 'I' for Inactive)
REMARK       I    between atoms: C1_2  and  N7_18 
REMARK    1  A    between atoms: N2_3  and  N3_5 
REMARK    2  A    between atoms: N4_7  and  C2_9 
REMARK    3  A    between atoms: C4_15  and  O1_16 
REMARK    4  A    between atoms: N7_18  and  C5_20 
ROOT
HETATM    1  N3  UNL     1     -13.295  -2.154 -38.403  1.00  0.00    -0.240 N 
ATOM      2  H3  UNL     1     -13.790  -1.656 -37.663  1.00  0.00     0.208 HD
HETATM    3  N4  UNL     1     -12.054  -1.946 -38.500  1.00  0.00    -0.281 N 
ATOM      4  H4  UNL     1     -11.575  -1.308 -37.864  1.00  0.00     0.188 HD
ENDROOT
BRANCH   1   5
HETATM    5  N2  UNL     1     -14.042  -2.989 -39.201  1.00  0.00    -0.259 N 
HETATM    6  C1  UNL     1     -15.317  -3.069 -39.205  1.00  0.00     0.204 C 
HETATM    7  N1  UNL     1     -16.057  -2.237 -38.319  1.00  0.00    -0.062 NA
HETATM    8  N7  UNL     1     -15.938  -3.979 -40.087  1.00  0.00    -0.359 N 
ATOM      9  H7  UNL     1     -15.675  -3.962 -41.073  1.00  0.00     0.162 HD
ATOM     10  H2  UNL     1     -13.535  -3.596 -39.845  1.00  0.00     0.191 HD
BRANCH   8  11
HETATM   11  C5  UNL     1     -16.917  -4.920 -39.656  1.00  0.00     0.084 C 
HETATM   12  C6  UNL     1     -18.325  -4.529 -39.992  1.00  0.00     0.025 C 
HETATM   13  C7  UNL     1     -19.247  -5.688 -40.208  1.00  0.00     0.002 C 
HETATM   14  C8  UNL     1     -18.891  -6.936 -39.509  1.00  0.00     0.000 C 
HETATM   15  C9  UNL     1     -17.450  -7.268 -39.434  1.00  0.00     0.002 C 
HETATM   16  C10 UNL     1     -16.670  -6.283 -40.290  1.00  0.00     0.025 C 
ENDBRANCH   8  11
ENDBRANCH   1   5
BRANCH   3  17
HETATM   17  C2  UNL     1     -11.341  -2.634 -39.530  1.00  0.00     0.118 A 
HETATM   18  C3  UNL     1     -10.322  -3.528 -39.318  1.00  0.00     0.142 A 
HETATM   19  N5  UNL     1      -9.932  -3.940 -40.538  1.00  0.00    -0.307 N 
HETATM   20  N6  UNL     1     -10.670  -3.336 -41.480  1.00  0.00    -0.279 N 
ATOM     21  H5  UNL     1      -9.187  -4.611 -40.720  1.00  0.00     0.186 HD
HETATM   22  C4  UNL     1     -11.557  -2.516 -40.887  1.00  0.00     0.185 A 
ATOM     23  H6  UNL     1     -10.573  -3.475 -42.485  1.00  0.00     0.189 HD
BRANCH  22  24
HETATM   24  O1  UNL     1     -12.506  -1.708 -41.530  1.00  0.00    -0.343 OA
ATOM     25  H1  UNL     1     -12.595  -1.555 -42.464  1.00  0.00     0.219 HD
ENDBRANCH  22  24
ENDBRANCH   3  17
TORSDOF 4
ENDMDL
MODEL 2
REMARK VINA RESULT: -6.967482164      0.775      1.355
REMARK  4 active torsions:
REMARK  status: ('A' for Active; 'I' for Inactive)
REMARK       I    between atoms: C1_2  and  N7_18 
REMARK    1  A    between atoms: N2_3  and  N3_5 
REMARK    2  A    between atoms: N4_7  and  C2_9 
REMARK    3  A    between atoms: C4_15  and  O1_16 
REMARK    4  A    between atoms: N7_18  and  C5_20 
ROOT
HETATM    1  N3  UNL     1     -13.469  -2.094 -38.154  1.00  0.00    -0.240 N 
ATOM      2  H3  UNL     1     -14.017  -1.498 -37.533  1.00  0.00     0.208 HD
HETATM    3  N4  UNL     1     -12.332  -1.668 -38.499  1.00  0.00    -0.281 N 
ATOM      4  H4  UNL     1     -11.984  -0.767 -38.167  1.00  0.00     0.188 HD
ENDROOT
BRANCH   1   5
HETATM    5  N2  UNL     1     -14.038  -3.286 -38.537  1.00  0.00    -0.259 N 
HETATM    6  C1  UNL     1     -14.850  -3.443 -39.510  1.00  0.00     0.204 C 
HETATM    7  N1  UNL     1     -15.219  -2.308 -40.284  1.00  0.00    -0.062 NA
HETATM    8  N7  UNL     1     -15.349  -4.737 -39.777  1.00  0.00    -0.359 N 
ATOM      9  H7  UNL     1     -14.687  -5.508 -39.863  1.00  0.00     0.162 HD
ATOM     10  H2  UNL     1     -13.791  -4.116 -37.998  1.00  0.00     0.191 HD
BRANCH   8  11
HETATM   11  C5  UNL     1     -16.739  -5.007 -39.931  1.00  0.00     0.084 C 
HETATM   12  C6  UNL     1     -17.052  -6.449 -40.196  1.00  0.00     0.025 C 
HETATM   13  C7  UNL     1     -18.389  -6.888 -39.689  1.00  0.00     0.002 C 
HETATM   14  C8  UNL     1     -19.416  -5.837 -39.580  1.00  0.00     0.000 C 
HETATM   15  C9  UNL     1     -18.960  -4.507 -39.116  1.00  0.00     0.002 C 
HETATM   16  C10 UNL     1     -17.508  -4.608 -38.677  1.00  0.00     0.025 C 
ENDBRANCH   8  11
ENDBRANCH   1   5
BRANCH   3  17
HETATM   17  C2  UNL     1     -11.548  -2.487 -39.369  1.00  0.00     0.118 A 
HETATM   18  C3  UNL     1     -10.600  -3.390 -38.956  1.00  0.00     0.142 A 
HETATM   19  N5  UNL     1     -10.104  -3.943 -40.077  1.00  0.00    -0.307 N 
HETATM   20  N6  UNL     1     -10.709  -3.417 -41.151  1.00  0.00    -0.279 N 
ATOM     21  H5  UNL     1      -9.376  -4.656 -40.107  1.00  0.00     0.186 HD
HETATM   22  C4  UNL     1     -11.614  -2.507 -40.746  1.00  0.00     0.185 A 
ATOM     23  H6  UNL     1     -10.515  -3.666 -42.120  1.00  0.00     0.189 HD
BRANCH  22  24
HETATM   24  O1  UNL     1     -12.451  -1.739 -41.568  1.00  0.00    -0.343 OA
ATOM     25  H1  UNL     1     -13.167  -2.047 -42.112  1.00  0.00     0.219 HD
ENDBRANCH  22  24
ENDBRANCH   3  17
TORSDOF 4
ENDMDL
MODEL 3
REMARK VINA RESULT: -6.809075215      3.286      4.519
REMARK  4 active torsions:
REMARK  status: ('A' for Active; 'I' for Inactive)
REMARK       I    between atoms: C1_2  and  N7_18 
REMARK    1  A    between atoms: N2_3  and  N3_5 
REMARK    2  A    between atoms: N4_7  and  C2_9 
REMARK    3  A    between atoms: C4_15  and  O1_16 
REMARK    4  A    between atoms: N7_18  and  C5_20 
ROOT
HETATM    1  N3  UNL     1     -13.436  -3.684 -38.936  1.00  0.00    -0.240 N 
ATOM      2  H3  UNL     1     -13.856  -4.258 -39.666  1.00  0.00     0.208 HD
HETATM    3  N4  UNL     1     -12.188  -3.782 -38.778  1.00  0.00    -0.281 N 
ATOM      4  H4  UNL     1     -11.631  -4.410 -39.358  1.00  0.00     0.188 HD
ENDROOT
BRANCH   1   5
HETATM    5  N2  UNL     1     -14.283  -2.874 -38.215  1.00  0.00    -0.259 N 
HETATM    6  C1  UNL     1     -15.543  -3.040 -38.091  1.00  0.00     0.204 C 
HETATM    7  N1  UNL     1     -16.155  -4.147 -38.742  1.00  0.00    -0.062 NA
HETATM    8  N7  UNL     1     -16.277  -2.118 -37.313  1.00  0.00    -0.359 N 
ATOM      9  H7  UNL     1     -15.949  -1.902 -36.372  1.00  0.00     0.162 HD
ATOM     10  H2  UNL     1     -13.870  -2.072 -37.738  1.00  0.00     0.191 HD
BRANCH   8  11
HETATM   11  C5  UNL     1     -17.457  -1.478 -37.791  1.00  0.00     0.084 C 
HETATM   12  C6  UNL     1     -18.729  -2.097 -37.294  1.00  0.00     0.025 C 
HETATM   13  C7  UNL     1     -19.869  -1.137 -37.167  1.00  0.00     0.002 C 
HETATM   14  C8  UNL     1     -19.827   0.036 -38.058  1.00  0.00     0.000 C 
HETATM   15  C9  UNL     1     -18.498   0.646 -38.293  1.00  0.00     0.002 C 
HETATM   16  C10 UNL     1     -17.482  -0.013 -37.373  1.00  0.00     0.025 C 
ENDBRANCH   8  11
ENDBRANCH   1   5
BRANCH   3  17
HETATM   17  C2  UNL     1     -11.580  -2.985 -37.759  1.00  0.00     0.118 A 
HETATM   18  C3  UNL     1     -10.612  -2.036 -37.976  1.00  0.00     0.142 A 
HETATM   19  N5  UNL     1     -10.318  -1.526 -36.767  1.00  0.00    -0.307 N 
HETATM   20  N6  UNL     1     -11.063  -2.122 -35.827  1.00  0.00    -0.279 N 
ATOM     21  H5  UNL     1      -9.630  -0.794 -36.591  1.00  0.00     0.186 HD
HETATM   22  C4  UNL     1     -11.860  -3.036 -36.410  1.00  0.00     0.185 A 
ATOM     23  H6  UNL     1     -11.031  -1.917 -34.829  1.00  0.00     0.189 HD
BRANCH  22  24
HETATM   24  O1  UNL     1     -12.786  -3.869 -35.765  1.00  0.00    -0.343 OA
ATOM     25  H1  UNL     1     -13.438  -3.616 -35.121  1.00  0.00     0.219 HD
ENDBRANCH  22  24
ENDBRANCH   3  17
TORSDOF 4
ENDMDL
MODEL 4
REMARK VINA RESULT: -6.735801644      1.042      1.261
REMARK  4 active torsions:
REMARK  status: ('A' for Active; 'I' for Inactive)
REMARK       I    between atoms: C1_2  and  N7_18 
REMARK    1  A    between atoms: N2_3  and  N3_5 
REMARK    2  A    between atoms: N4_7  and  C2_9 
REMARK    3  A    between atoms: C4_15  and  O1_16 
REMARK    4  A    between atoms: N7_18  and  C5_20 
ROOT
HETATM    1  N3  UNL     1     -13.140  -1.775 -38.132  1.00  0.00    -0.240 N 
ATOM      2  H3  UNL     1     -13.639  -1.059 -37.604  1.00  0.00     0.208 HD
HETATM    3  N4  UNL     1     -12.019  -1.454 -38.613  1.00  0.00    -0.281 N 
ATOM      4  H4  UNL     1     -11.635  -0.518 -38.475  1.00  0.00     0.188 HD
ENDROOT
BRANCH   1   5
HETATM    5  N2  UNL     1     -13.753  -3.001 -38.252  1.00  0.00    -0.259 N 
HETATM    6  C1  UNL     1     -14.636  -3.308 -39.123  1.00  0.00     0.204 C 
HETATM    7  N1  UNL     1     -15.043  -2.321 -40.062  1.00  0.00    -0.062 NA
HETATM    8  N7  UNL     1     -15.171  -4.614 -39.116  1.00  0.00    -0.359 N 
ATOM      9  H7  UNL     1     -14.529  -5.406 -39.106  1.00  0.00     0.162 HD
ATOM     10  H2  UNL     1     -13.480  -3.727 -37.590  1.00  0.00     0.191 HD
BRANCH   8  11
HETATM   11  C5  UNL     1     -16.573  -4.870 -39.123  1.00  0.00     0.084 C 
HETATM   12  C6  UNL     1     -17.399  -3.744 -38.579  1.00  0.00     0.025 C 
HETATM   13  C7  UNL     1     -18.769  -3.647 -39.172  1.00  0.00     0.002 C 
HETATM   14  C8  UNL     1     -19.341  -4.905 -39.686  1.00  0.00     0.000 C 
HETATM   15  C9  UNL     1     -18.409  -5.829 -40.371  1.00  0.00     0.002 C 
HETATM   16  C10 UNL     1     -17.065  -5.139 -40.540  1.00  0.00     0.025 C 
ENDBRANCH   8  11
ENDBRANCH   1   5
BRANCH   3  17
HETATM   17  C2  UNL     1     -11.304  -2.443 -39.356  1.00  0.00     0.118 A 
HETATM   18  C3  UNL     1     -10.374  -3.304 -38.828  1.00  0.00     0.142 A 
HETATM   19  N5  UNL     1      -9.947  -4.061 -39.854  1.00  0.00    -0.307 N 
HETATM   20  N6  UNL     1     -10.576  -3.698 -40.980  1.00  0.00    -0.279 N 
ATOM     21  H5  UNL     1      -9.248  -4.800 -39.786  1.00  0.00     0.186 HD
HETATM   22  C4  UNL     1     -11.428  -2.693 -40.707  1.00  0.00     0.185 A 
ATOM     23  H6  UNL     1     -10.431  -4.117 -41.899  1.00  0.00     0.189 HD
BRANCH  22  24
HETATM   24  O1  UNL     1     -12.268  -2.040 -41.619  1.00  0.00    -0.343 OA
ATOM     25  H1  UNL     1     -12.929  -2.432 -42.177  1.00  0.00     0.219 HD
ENDBRANCH  22  24
ENDBRANCH   3  17
TORSDOF 4
ENDMDL
MODEL 5
REMARK VINA RESULT: -6.660410203      1.657      2.241
REMARK  4 active torsions:
REMARK  status: ('A' for Active; 'I' for Inactive)
REMARK       I    between atoms: C1_2  and  N7_18 
REMARK    1  A    between atoms: N2_3  and  N3_5 
REMARK    2  A    between atoms: N4_7  and  C2_9 
REMARK    3  A    between atoms: C4_15  and  O1_16 
REMARK    4  A    between atoms: N7_18  and  C5_20 
ROOT
HETATM    1  N3  UNL     1     -13.848  -1.896 -38.116  1.00  0.00    -0.240 N 
ATOM      2  H3  UNL     1     -14.396  -1.105 -37.776  1.00  0.00     0.208 HD
HETATM    3  N4  UNL     1     -12.615  -1.701 -38.297  1.00  0.00    -0.281 N 
ATOM      4  H4  UNL     1     -12.192  -0.791 -38.109  1.00  0.00     0.188 HD
ENDROOT
BRANCH   1   5
HETATM    5  N2  UNL     1     -14.524  -3.075 -38.333  1.00  0.00    -0.259 N 
HETATM    6  C1  UNL     1     -15.137  -3.392 -39.407  1.00  0.00     0.204 C 
HETATM    7  N1  UNL     1     -15.143  -2.470 -40.491  1.00  0.00    -0.062 NA
HETATM    8  N7  UNL     1     -15.784  -4.645 -39.475  1.00  0.00    -0.359 N 
ATOM      9  H7  UNL     1     -15.260  -5.481 -39.218  1.00  0.00     0.162 HD
ATOM     10  H2  UNL     1     -14.536  -3.754 -37.572  1.00  0.00     0.191 HD
BRANCH   8  11
HETATM   11  C5  UNL     1     -17.141  -4.787 -39.889  1.00  0.00     0.084 C 
HETATM   12  C6  UNL     1     -17.542  -6.202 -40.181  1.00  0.00     0.025 C 
HETATM   13  C7  UNL     1     -18.988  -6.491 -39.932  1.00  0.00     0.002 C 
HETATM   14  C8  UNL     1     -19.906  -5.343 -40.044  1.00  0.00     0.000 C 
HETATM   15  C9  UNL     1     -19.414  -4.046 -39.527  1.00  0.00     0.002 C 
HETATM   16  C10 UNL     1     -18.089  -4.267 -38.815  1.00  0.00     0.025 C 
ENDBRANCH   8  11
ENDBRANCH   1   5
BRANCH   3  17
HETATM   17  C2  UNL     1     -11.829  -2.796 -38.772  1.00  0.00     0.118 A 
HETATM   18  C3  UNL     1     -11.224  -2.853 -40.003  1.00  0.00     0.142 A 
HETATM   19  N5  UNL     1     -10.593  -4.040 -40.048  1.00  0.00    -0.307 N 
HETATM   20  N6  UNL     1     -10.788  -4.705 -38.901  1.00  0.00    -0.279 N 
ATOM     21  H5  UNL     1     -10.047  -4.384 -40.838  1.00  0.00     0.186 HD
HETATM   22  C4  UNL     1     -11.554  -3.959 -38.084  1.00  0.00     0.185 A 
ATOM     23  H6  UNL     1     -10.416  -5.629 -38.683  1.00  0.00     0.189 HD
BRANCH  22  24
HETATM   24  O1  UNL     1     -11.981  -4.305 -36.794  1.00  0.00    -0.343 OA
ATOM     25  H1  UNL     1     -11.499  -4.203 -35.981  1.00  0.00     0.219 HD
ENDBRANCH  22  24
ENDBRANCH   3  17
TORSDOF 4
ENDMDL
