MODEL 1
REMARK VINA RESULT: -6.126228963      0.000      0.000
REMARK  4 active torsions:
REMARK  status: ('A' for Active; 'I' for Inactive)
REMARK    1  A    between atoms: C2_4  and  N2_5 
REMARK    2  A    between atoms: N2_5  and  C3_7 
REMARK    3  A    between atoms: C8_13  and  N3_14 
REMARK    4  A    between atoms: N3_14  and  C9_16 
ROOT
HETATM    1  C1  UNL     1     -15.592  -2.949 -39.792  1.00  0.00     0.127 A 
HETATM    2  N1  UNL     1     -14.361  -2.674 -39.469  1.00  0.00    -0.344 N 
ATOM      3  H1  UNL     1     -13.702  -2.326 -40.166  1.00  0.00     0.167 HD
HETATM    4  C2  UNL     1     -13.983  -2.859 -38.202  1.00  0.00     0.146 A 
HETATM    5  S1  UNL     1     -15.402  -3.433 -37.454  1.00  0.00    -0.035 SA
HETATM    6  C8  UNL     1     -16.430  -3.411 -38.814  1.00  0.00     0.095 A 
ENDROOT
BRANCH   6   7
HETATM    7  N3  UNL     1     -17.822  -3.783 -38.912  1.00  0.00    -0.321 N 
ATOM      8  H3  UNL     1     -18.546  -3.079 -38.768  1.00  0.00     0.169 HD
BRANCH   7   9
HETATM    9  C9  UNL     1     -18.187  -5.109 -39.203  1.00  0.00     0.176 C 
HETATM   10  N4  UNL     1     -19.339  -5.511 -39.634  1.00  0.00    -0.361 N 
HETATM   11  C10 UNL     1     -19.359  -6.945 -39.826  1.00  0.00     0.142 C 
ATOM     12  H4  UNL     1     -20.132  -4.896 -39.815  1.00  0.00     0.162 HD
HETATM   13  C11 UNL     1     -17.885  -7.281 -39.885  1.00  0.00     0.142 C 
HETATM   14  N5  UNL     1     -17.313  -6.222 -39.061  1.00  0.00    -0.361 N 
ATOM     15  H5  UNL     1     -16.463  -6.270 -38.500  1.00  0.00     0.162 HD
ENDBRANCH   7   9
ENDBRANCH   6   7
BRANCH   4  16
HETATM   16  N2  UNL     1     -12.786  -2.624 -37.751  1.00  0.00    -0.366 N 
ATOM     17  H2  UNL     1     -12.676  -2.494 -36.745  1.00  0.00     0.162 HD
BRANCH  16  18
HETATM   18  C3  UNL     1     -11.625  -2.536 -38.556  1.00  0.00     0.083 C 
HETATM   19  C4  UNL     1     -11.013  -3.865 -38.937  1.00  0.00     0.025 C 
HETATM   20  C5  UNL     1      -9.707  -3.395 -39.596  1.00  0.00     0.002 C 
HETATM   21  C6  UNL     1      -9.201  -2.456 -38.492  1.00  0.00     0.002 C 
HETATM   22  C7  UNL     1     -10.478  -1.775 -37.990  1.00  0.00     0.025 C 
ENDBRANCH  16  18
ENDBRANCH   4  16
TORSDOF 4
ENDMDL
MODEL 2
REMARK VINA RESULT: -6.067820955      2.205      3.334
REMARK  4 active torsions:
REMARK  status: ('A' for Active; 'I' for Inactive)
REMARK    1  A    between atoms: C2_4  and  N2_5 
REMARK    2  A    between atoms: N2_5  and  C3_7 
REMARK    3  A    between atoms: C8_13  and  N3_14 
REMARK    4  A    between atoms: N3_14  and  C9_16 
ROOT
HETATM    1  C1  UNL     1     -15.645  -2.737 -39.754  1.00  0.00     0.127 A 
HETATM    2  N1  UNL     1     -14.382  -2.864 -39.463  1.00  0.00    -0.344 N 
ATOM      3  H1  UNL     1     -13.666  -2.763 -40.182  1.00  0.00     0.167 HD
HETATM    4  C2  UNL     1     -14.048  -3.130 -38.197  1.00  0.00     0.146 A 
HETATM    5  S1  UNL     1     -15.556  -3.200 -37.405  1.00  0.00    -0.035 SA
HETATM    6  C8  UNL     1     -16.559  -2.882 -38.746  1.00  0.00     0.095 A 
ENDROOT
BRANCH   6   7
HETATM    7  N3  UNL     1     -17.999  -2.791 -38.807  1.00  0.00    -0.321 N 
ATOM      8  H3  UNL     1     -18.547  -3.602 -39.094  1.00  0.00     0.169 HD
BRANCH   7   9
HETATM    9  C9  UNL     1     -18.652  -1.591 -38.475  1.00  0.00     0.176 C 
HETATM   10  N4  UNL     1     -19.901  -1.458 -38.165  1.00  0.00    -0.361 N 
HETATM   11  C10 UNL     1     -20.230  -0.077 -37.880  1.00  0.00     0.142 C 
ATOM     12  H4  UNL     1     -20.570  -2.227 -38.125  1.00  0.00     0.162 HD
HETATM   13  C11 UNL     1     -18.868   0.527 -37.616  1.00  0.00     0.142 C 
HETATM   14  N5  UNL     1     -18.009  -0.323 -38.431  1.00  0.00    -0.361 N 
ATOM     15  H5  UNL     1     -17.130  -0.063 -38.878  1.00  0.00     0.162 HD
ENDBRANCH   7   9
ENDBRANCH   6   7
BRANCH   4  16
HETATM   16  N2  UNL     1     -12.827  -3.280 -37.775  1.00  0.00    -0.366 N 
ATOM     17  H2  UNL     1     -12.691  -3.738 -36.874  1.00  0.00     0.162 HD
BRANCH  16  18
HETATM   18  C3  UNL     1     -11.675  -2.854 -38.477  1.00  0.00     0.083 C 
HETATM   19  C4  UNL     1     -10.849  -3.967 -39.080  1.00  0.00     0.025 C 
HETATM   20  C5  UNL     1      -9.618  -3.180 -39.555  1.00  0.00     0.002 C 
HETATM   21  C6  UNL     1      -9.297  -2.424 -38.258  1.00  0.00     0.002 C 
HETATM   22  C7  UNL     1     -10.679  -2.062 -37.704  1.00  0.00     0.025 C 
ENDBRANCH  16  18
ENDBRANCH   4  16
TORSDOF 4
ENDMDL
MODEL 3
REMARK VINA RESULT: -6.040229220      2.463      3.767
REMARK  4 active torsions:
REMARK  status: ('A' for Active; 'I' for Inactive)
REMARK    1  A    between atoms: C2_4  and  N2_5 
REMARK    2  A    between atoms: N2_5  and  C3_7 
REMARK    3  A    between atoms: C8_13  and  N3_14 
REMARK    4  A    between atoms: N3_14  and  C9_16 
ROOT
HETATM    1  C1  UNL     1     -15.610  -3.244 -37.335  1.00  0.00     0.127 A 
HETATM    2  N1  UNL     1     -14.357  -3.357 -37.669  1.00  0.00    -0.344 N 
ATOM      3  H1  UNL     1     -13.645  -3.564 -36.968  1.00  0.00     0.167 HD
HETATM    4  C2  UNL     1     -14.027  -3.194 -38.952  1.00  0.00     0.146 A 
HETATM    5  S1  UNL     1     -15.525  -2.875 -39.700  1.00  0.00    -0.035 SA
HETATM    6  C8  UNL     1     -16.519  -2.966 -38.319  1.00  0.00     0.095 A 
ENDROOT
BRANCH   6   7
HETATM    7  N3  UNL     1     -17.950  -2.793 -38.211  1.00  0.00    -0.321 N 
ATOM      8  H3  UNL     1     -18.568  -3.594 -38.342  1.00  0.00     0.169 HD
BRANCH   7   9
HETATM    9  C9  UNL     1     -18.496  -1.530 -37.928  1.00  0.00     0.176 C 
HETATM   10  N4  UNL     1     -18.141  -0.403 -38.457  1.00  0.00    -0.361 N 
HETATM   11  C10 UNL     1     -18.919   0.697 -37.929  1.00  0.00     0.142 C 
ATOM     12  H4  UNL     1     -17.406  -0.303 -39.157  1.00  0.00     0.162 HD
HETATM   13  C11 UNL     1     -20.118  -0.014 -37.339  1.00  0.00     0.142 C 
HETATM   14  N5  UNL     1     -19.546  -1.310 -36.994  1.00  0.00    -0.361 N 
ATOM     15  H5  UNL     1     -19.839  -1.930 -36.239  1.00  0.00     0.162 HD
ENDBRANCH   7   9
ENDBRANCH   6   7
BRANCH   4  16
HETATM   16  N2  UNL     1     -12.815  -3.280 -39.416  1.00  0.00    -0.366 N 
ATOM     17  H2  UNL     1     -12.701  -3.514 -40.403  1.00  0.00     0.162 HD
BRANCH  16  18
HETATM   18  C3  UNL     1     -11.644  -3.071 -38.650  1.00  0.00     0.083 C 
HETATM   19  C4  UNL     1     -11.320  -1.623 -38.363  1.00  0.00     0.025 C 
HETATM   20  C5  UNL     1      -9.929  -1.765 -37.727  1.00  0.00     0.002 C 
HETATM   21  C6  UNL     1      -9.260  -2.640 -38.797  1.00  0.00     0.002 C 
HETATM   22  C7  UNL     1     -10.374  -3.605 -39.215  1.00  0.00     0.025 C 
ENDBRANCH  16  18
ENDBRANCH   4  16
TORSDOF 4
ENDMDL
MODEL 4
REMARK VINA RESULT: -6.008765114      1.047      1.715
REMARK  4 active torsions:
REMARK  status: ('A' for Active; 'I' for Inactive)
REMARK    1  A    between atoms: C2_4  and  N2_5 
REMARK    2  A    between atoms: N2_5  and  C3_7 
REMARK    3  A    between atoms: C8_13  and  N3_14 
REMARK    4  A    between atoms: N3_14  and  C9_16 
ROOT
HETATM    1  C1  UNL     1     -15.600  -3.604 -37.616  1.00  0.00     0.127 A 
HETATM    2  N1  UNL     1     -14.401  -3.154 -37.853  1.00  0.00    -0.344 N 
ATOM      3  H1  UNL     1     -13.704  -3.103 -37.109  1.00  0.00     0.167 HD
HETATM    4  C2  UNL     1     -14.106  -2.763 -39.095  1.00  0.00     0.146 A 
HETATM    5  S1  UNL     1     -15.559  -3.038 -39.943  1.00  0.00    -0.035 SA
HETATM    6  C8  UNL     1     -16.490  -3.650 -38.654  1.00  0.00     0.095 A 
ENDROOT
BRANCH   6   7
HETATM    7  N3  UNL     1     -17.863  -4.100 -38.653  1.00  0.00    -0.321 N 
ATOM      8  H3  UNL     1     -18.588  -3.515 -38.236  1.00  0.00     0.169 HD
BRANCH   7   9
HETATM    9  C9  UNL     1     -18.208  -5.338 -39.221  1.00  0.00     0.176 C 
HETATM   10  N4  UNL     1     -17.504  -6.424 -39.183  1.00  0.00    -0.361 N 
HETATM   11  C10 UNL     1     -18.168  -7.508 -39.874  1.00  0.00     0.142 C 
ATOM     12  H4  UNL     1     -16.597  -6.504 -38.724  1.00  0.00     0.162 HD
HETATM   13  C11 UNL     1     -19.599  -7.021 -39.931  1.00  0.00     0.142 C 
HETATM   14  N5  UNL     1     -19.414  -5.575 -39.936  1.00  0.00    -0.361 N 
ATOM     15  H5  UNL     1     -20.024  -4.878 -40.364  1.00  0.00     0.162 HD
ENDBRANCH   7   9
ENDBRANCH   6   7
BRANCH   4  16
HETATM   16  N2  UNL     1     -12.950  -2.295 -39.463  1.00  0.00    -0.366 N 
ATOM     17  H2  UNL     1     -12.932  -1.626 -40.233  1.00  0.00     0.162 HD
BRANCH  16  18
HETATM   18  C3  UNL     1     -11.714  -2.649 -38.872  1.00  0.00     0.083 C 
HETATM   19  C4  UNL     1     -10.996  -1.518 -38.171  1.00  0.00     0.025 C 
HETATM   20  C5  UNL     1      -9.651  -2.190 -37.855  1.00  0.00     0.002 C 
HETATM   21  C6  UNL     1      -9.318  -2.738 -39.249  1.00  0.00     0.002 C 
HETATM   22  C7  UNL     1     -10.676  -3.208 -39.782  1.00  0.00     0.025 C 
ENDBRANCH  16  18
ENDBRANCH   4  16
TORSDOF 4
ENDMDL
MODEL 5
REMARK VINA RESULT: -5.985757958      1.209      1.584
REMARK  4 active torsions:
REMARK  status: ('A' for Active; 'I' for Inactive)
REMARK    1  A    between atoms: C2_4  and  N2_5 
REMARK    2  A    between atoms: N2_5  and  C3_7 
REMARK    3  A    between atoms: C8_13  and  N3_14 
REMARK    4  A    between atoms: N3_14  and  C9_16 
ROOT
HETATM    1  C1  UNL     1     -15.902  -3.512 -39.941  1.00  0.00     0.127 A 
HETATM    2  N1  UNL     1     -14.813  -2.810 -39.812  1.00  0.00    -0.344 N 
ATOM      3  H1  UNL     1     -14.378  -2.365 -40.620  1.00  0.00     0.167 HD
HETATM    4  C2  UNL     1     -14.280  -2.688 -38.593  1.00  0.00     0.146 A 
HETATM    5  S1  UNL     1     -15.346  -3.587 -37.612  1.00  0.00    -0.035 SA
HETATM    6  C8  UNL     1     -16.440  -4.085 -38.821  1.00  0.00     0.095 A 
ENDROOT
BRANCH   6   7
HETATM    7  N3  UNL     1     -17.626  -4.900 -38.698  1.00  0.00    -0.321 N 
ATOM      8  H3  UNL     1     -17.702  -5.572 -37.934  1.00  0.00     0.169 HD
BRANCH   7   9
HETATM    9  C9  UNL     1     -18.676  -4.774 -39.623  1.00  0.00     0.176 C 
HETATM   10  N4  UNL     1     -18.931  -5.574 -40.609  1.00  0.00    -0.361 N 
HETATM   11  C10 UNL     1     -20.091  -5.137 -41.357  1.00  0.00     0.142 C 
ATOM     12  H4  UNL     1     -18.385  -6.406 -40.830  1.00  0.00     0.162 HD
HETATM   13  C11 UNL     1     -20.768  -4.202 -40.379  1.00  0.00     0.142 C 
HETATM   14  N5  UNL     1     -19.632  -3.721 -39.602  1.00  0.00    -0.361 N 
ATOM     15  H5  UNL     1     -19.541  -2.817 -39.139  1.00  0.00     0.162 HD
ENDBRANCH   7   9
ENDBRANCH   6   7
BRANCH   4  16
HETATM   16  N2  UNL     1     -13.198  -2.017 -38.328  1.00  0.00    -0.366 N 
ATOM     17  H2  UNL     1     -13.264  -1.260 -37.647  1.00  0.00     0.162 HD
BRANCH  16  18
HETATM   18  C3  UNL     1     -11.935  -2.262 -38.918  1.00  0.00     0.083 C 
HETATM   19  C4  UNL     1     -11.477  -3.702 -38.866  1.00  0.00     0.025 C 
HETATM   20  C5  UNL     1     -10.036  -3.558 -39.380  1.00  0.00     0.002 C 
HETATM   21  C6  UNL     1      -9.559  -2.430 -38.455  1.00  0.00     0.002 C 
HETATM   22  C7  UNL     1     -10.780  -1.510 -38.355  1.00  0.00     0.025 C 
ENDBRANCH  16  18
ENDBRANCH   4  16
TORSDOF 4
ENDMDL
