MODEL 1
REMARK VINA RESULT: -6.462907040      0.000      0.000
REMARK  1 active torsions:
REMARK  status: ('A' for Active; 'I' for Inactive)
REMARK    1  A    between atoms: C2_2  and  C3_3 
ROOT
HETATM    1  C1  UNL     1     -11.643   4.287  38.077  1.00  0.00     0.057 C 
HETATM    2  C2  UNL     1     -11.156   2.886  38.470  1.00  0.00     0.225 C 
HETATM    3  C4  UNL     1     -10.087   3.106  39.526  1.00  0.00     0.075 C 
HETATM    4  C5  UNL     1     -10.639   3.447  40.865  1.00  0.00     0.172 C 
HETATM    5  O1  UNL     1     -11.581   2.466  41.169  1.00  0.00    -0.364 OA
HETATM    6  C6  UNL     1     -12.630   2.456  40.300  1.00  0.00     0.405 C 
HETATM    7  N1  UNL     1     -12.276   2.144  38.929  1.00  0.00    -0.037 N 
HETATM    8  C7  UNL     1     -12.148   0.713  38.835  1.00  0.00     0.276 C 
HETATM    9  C8  UNL     1     -13.481   2.507  38.165  1.00  0.00     0.276 C 
ENDROOT
BRANCH   2  10
HETATM   10  C3  UNL     1     -10.441   2.329  37.297  1.00  0.00     0.420 C 
HETATM   11  F1  UNL     1     -10.921   3.031  36.178  1.00  0.00    -0.168 F 
HETATM   12  F2  UNL     1      -9.079   2.594  37.322  1.00  0.00    -0.168 F 
HETATM   13  F3  UNL     1     -10.620   1.016  37.049  1.00  0.00    -0.168 F 
ENDBRANCH   2  10
TORSDOF 1
ENDMDL
MODEL 2
REMARK VINA RESULT: -6.401868085      2.375      3.521
REMARK  1 active torsions:
REMARK  status: ('A' for Active; 'I' for Inactive)
REMARK    1  A    between atoms: C2_2  and  C3_3 
ROOT
HETATM    1  C1  UNL     1     -12.040   1.289  38.651  1.00  0.00     0.057 C 
HETATM    2  C2  UNL     1     -11.227   2.524  38.243  1.00  0.00     0.225 C 
HETATM    3  C4  UNL     1     -10.207   2.026  37.234  1.00  0.00     0.075 C 
HETATM    4  C5  UNL     1     -10.781   1.781  35.884  1.00  0.00     0.172 C 
HETATM    5  O1  UNL     1     -11.457   2.944  35.520  1.00  0.00    -0.364 OA
HETATM    6  C6  UNL     1     -12.501   3.227  36.349  1.00  0.00     0.405 C 
HETATM    7  N1  UNL     1     -12.126   3.492  37.724  1.00  0.00    -0.037 N 
HETATM    8  C7  UNL     1     -11.669   4.855  37.789  1.00  0.00     0.276 C 
HETATM    9  C8  UNL     1     -13.406   3.445  38.451  1.00  0.00     0.276 C 
ENDROOT
BRANCH   2  10
HETATM   10  C3  UNL     1     -10.438   2.937  39.429  1.00  0.00     0.420 C 
HETATM   11  F1  UNL     1     -11.012   2.277  40.528  1.00  0.00    -0.168 F 
HETATM   12  F2  UNL     1      -9.128   2.478  39.388  1.00  0.00    -0.168 F 
HETATM   13  F3  UNL     1     -10.425   4.253  39.717  1.00  0.00    -0.168 F 
ENDBRANCH   2  10
TORSDOF 1
ENDMDL
MODEL 3
REMARK VINA RESULT: -6.234091586      2.694      3.755
REMARK  1 active torsions:
REMARK  status: ('A' for Active; 'I' for Inactive)
REMARK    1  A    between atoms: C2_2  and  C3_3 
ROOT
HETATM    1  C1  UNL     1     -13.482   2.872  38.336  1.00  0.00     0.057 C 
HETATM    2  C2  UNL     1     -12.195   2.301  38.947  1.00  0.00     0.225 C 
HETATM    3  C4  UNL     1     -11.977   0.963  38.264  1.00  0.00     0.075 C 
HETATM    4  C5  UNL     1     -11.438   1.084  36.883  1.00  0.00     0.172 C 
HETATM    5  O1  UNL     1     -10.310   1.899  36.965  1.00  0.00    -0.364 OA
HETATM    6  C6  UNL     1     -10.603   3.160  37.387  1.00  0.00     0.405 C 
HETATM    7  N1  UNL     1     -11.151   3.237  38.728  1.00  0.00    -0.037 N 
HETATM    8  C7  UNL     1     -10.046   3.155  39.647  1.00  0.00     0.276 C 
HETATM    9  C8  UNL     1     -11.666   4.614  38.816  1.00  0.00     0.276 C 
ENDROOT
BRANCH   2  10
HETATM   10  C3  UNL     1     -12.493   1.977  40.363  1.00  0.00     0.420 C 
HETATM   11  F1  UNL     1     -13.856   2.263  40.550  1.00  0.00    -0.168 F 
HETATM   12  F2  UNL     1     -12.377   0.621  40.638  1.00  0.00    -0.168 F 
HETATM   13  F3  UNL     1     -11.809   2.667  41.296  1.00  0.00    -0.168 F 
ENDBRANCH   2  10
TORSDOF 1
ENDMDL
MODEL 4
REMARK VINA RESULT: -6.084827450      2.921      3.909
REMARK  1 active torsions:
REMARK  status: ('A' for Active; 'I' for Inactive)
REMARK    1  A    between atoms: C2_2  and  C3_3 
ROOT
HETATM    1  C1  UNL     1     -12.069   4.478  38.812  1.00  0.00     0.057 C 
HETATM    2  C2  UNL     1     -12.666   3.214  38.178  1.00  0.00     0.225 C 
HETATM    3  C4  UNL     1     -13.383   3.685  36.926  1.00  0.00     0.075 C 
HETATM    4  C5  UNL     1     -12.465   3.990  35.796  1.00  0.00     0.172 C 
HETATM    5  O1  UNL     1     -11.652   2.870  35.629  1.00  0.00    -0.364 OA
HETATM    6  C6  UNL     1     -10.872   2.619  36.718  1.00  0.00     0.405 C 
HETATM    7  N1  UNL     1     -11.606   2.304  37.928  1.00  0.00    -0.037 N 
HETATM    8  C7  UNL     1     -11.989   0.919  37.848  1.00  0.00     0.276 C 
HETATM    9  C8  UNL     1     -10.588   2.396  38.988  1.00  0.00     0.276 C 
ENDROOT
BRANCH   2  10
HETATM   10  C3  UNL     1     -13.735   2.736  39.088  1.00  0.00     0.420 C 
HETATM   11  F1  UNL     1     -14.483   3.871  39.441  1.00  0.00    -0.168 F 
HETATM   12  F2  UNL     1     -14.643   1.898  38.455  1.00  0.00    -0.168 F 
HETATM   13  F3  UNL     1     -13.334   2.150  40.234  1.00  0.00    -0.168 F 
ENDBRANCH   2  10
TORSDOF 1
ENDMDL
MODEL 5
REMARK VINA RESULT: -6.003547642      2.577      3.528
REMARK  1 active torsions:
REMARK  status: ('A' for Active; 'I' for Inactive)
REMARK    1  A    between atoms: C2_2  and  C3_3 
ROOT
HETATM    1  C1  UNL     1     -11.677   4.662  37.387  1.00  0.00     0.057 C 
HETATM    2  C2  UNL     1     -12.206   3.236  37.592  1.00  0.00     0.225 C 
HETATM    3  C4  UNL     1     -12.071   2.553  36.242  1.00  0.00     0.075 C 
HETATM    4  C5  UNL     1     -10.677   2.144  35.922  1.00  0.00     0.172 C 
HETATM    5  O1  UNL     1     -10.219   1.404  37.010  1.00  0.00    -0.364 OA
HETATM    6  C6  UNL     1     -10.163   2.135  38.158  1.00  0.00     0.405 C 
HETATM    7  N1  UNL     1     -11.445   2.629  38.624  1.00  0.00    -0.037 N 
HETATM    8  C7  UNL     1     -12.095   1.545  39.314  1.00  0.00     0.276 C 
HETATM    9  C8  UNL     1     -11.085   3.621  39.651  1.00  0.00     0.276 C 
ENDROOT
BRANCH   2  10
HETATM   10  C3  UNL     1     -13.664   3.345  37.834  1.00  0.00     0.420 C 
HETATM   11  F1  UNL     1     -14.203   3.971  36.698  1.00  0.00    -0.168 F 
HETATM   12  F2  UNL     1     -14.293   2.108  37.887  1.00  0.00    -0.168 F 
HETATM   13  F3  UNL     1     -14.045   4.068  38.906  1.00  0.00    -0.168 F 
ENDBRANCH   2  10
TORSDOF 1
ENDMDL
