MODEL 1
REMARK VINA RESULT: -5.940334138      0.000      0.000
REMARK  0 active torsions:
REMARK  status: ('A' for Active; 'I' for Inactive)
ROOT
HETATM    1  C1  UNL     1     -12.586   4.006  36.151  1.00  0.00     0.272 C 
HETATM    2  N1  UNL     1     -12.023   3.112  37.191  1.00  0.00    -0.074 N 
HETATM    3  C2  UNL     1     -11.224   2.154  36.443  1.00  0.00     0.272 C 
HETATM    4  C3  UNL     1     -11.245   3.984  38.004  1.00  0.00     0.246 C 
HETATM    5  C4  UNL     1     -10.310   3.366  38.963  1.00  0.00     0.107 C 
HETATM    6  S1  UNL     1     -11.108   3.085  40.583  1.00  0.00    -0.091 SA
HETATM    7  C5  UNL     1     -12.472   1.954  40.175  1.00  0.00     0.293 C 
HETATM    8  F1  UNL     1     -13.153   1.688  41.350  1.00  0.00    -0.194 F 
HETATM    9  F2  UNL     1     -12.036   0.772  39.671  1.00  0.00    -0.194 F 
HETATM   10  C6  UNL     1     -13.375   2.723  39.234  1.00  0.00     0.119 C 
HETATM   11  C7  UNL     1     -13.130   2.469  37.801  1.00  0.00     0.243 C 
ENDROOT
TORSDOF 0
ENDMDL
MODEL 2
REMARK VINA RESULT: -5.861873580      2.873      3.862
REMARK  0 active torsions:
REMARK  status: ('A' for Active; 'I' for Inactive)
ROOT
HETATM    1  C1  UNL     1     -12.719   1.849  40.625  1.00  0.00     0.272 C 
HETATM    2  N1  UNL     1     -12.035   2.601  39.545  1.00  0.00    -0.074 N 
HETATM    3  C2  UNL     1     -11.025   3.383  40.241  1.00  0.00     0.272 C 
HETATM    4  C3  UNL     1     -11.488   1.581  38.716  1.00  0.00     0.246 C 
HETATM    5  C4  UNL     1     -10.492   1.987  37.706  1.00  0.00     0.107 C 
HETATM    6  S1  UNL     1     -11.289   2.410  36.117  1.00  0.00    -0.091 SA
HETATM    7  C5  UNL     1     -12.376   3.797  36.563  1.00  0.00     0.293 C 
HETATM    8  F1  UNL     1     -13.042   4.185  35.413  1.00  0.00    -0.194 F 
HETATM    9  F2  UNL     1     -11.687   4.871  37.026  1.00  0.00    -0.194 F 
HETATM   10  C6  UNL     1     -13.372   3.236  37.555  1.00  0.00     0.119 C 
HETATM   11  C7  UNL     1     -13.016   3.449  38.972  1.00  0.00     0.243 C 
ENDROOT
TORSDOF 0
ENDMDL
MODEL 3
REMARK VINA RESULT: -5.669263624      2.471      3.883
REMARK  0 active torsions:
REMARK  status: ('A' for Active; 'I' for Inactive)
ROOT
HETATM    1  C1  UNL     1     -10.618   3.501  40.797  1.00  0.00     0.272 C 
HETATM    2  N1  UNL     1     -11.360   2.888  39.669  1.00  0.00    -0.074 N 
HETATM    3  C2  UNL     1     -12.323   2.008  40.313  1.00  0.00     0.272 C 
HETATM    4  C3  UNL     1     -11.961   4.000  39.015  1.00  0.00     0.246 C 
HETATM    5  C4  UNL     1     -13.013   3.717  38.019  1.00  0.00     0.107 C 
HETATM    6  S1  UNL     1     -12.307   3.517  36.345  1.00  0.00    -0.091 SA
HETATM    7  C5  UNL     1     -11.188   2.098  36.540  1.00  0.00     0.293 C 
HETATM    8  F1  UNL     1     -10.589   1.873  35.313  1.00  0.00    -0.194 F 
HETATM    9  F2  UNL     1     -11.843   0.963  36.896  1.00  0.00    -0.194 F 
HETATM   10  C6  UNL     1     -10.139   2.537  37.539  1.00  0.00     0.119 C 
HETATM   11  C7  UNL     1     -10.410   2.135  38.933  1.00  0.00     0.243 C 
ENDROOT
TORSDOF 0
ENDMDL
MODEL 4
REMARK VINA RESULT: -5.635340376      1.837      2.723
REMARK  0 active torsions:
REMARK  status: ('A' for Active; 'I' for Inactive)
ROOT
HETATM    1  C1  UNL     1     -10.713   1.617  35.881  1.00  0.00     0.272 C 
HETATM    2  N1  UNL     1     -11.336   2.425  36.956  1.00  0.00    -0.074 N 
HETATM    3  C2  UNL     1     -12.119   3.423  36.244  1.00  0.00     0.272 C 
HETATM    4  C3  UNL     1     -12.133   1.485  37.669  1.00  0.00     0.246 C 
HETATM    5  C4  UNL     1     -13.119   2.018  38.628  1.00  0.00     0.107 C 
HETATM    6  S1  UNL     1     -12.397   2.193  40.298  1.00  0.00    -0.091 SA
HETATM    7  C5  UNL     1     -11.037   3.370  40.032  1.00  0.00     0.293 C 
HETATM    8  F1  UNL     1     -10.413   3.560  41.253  1.00  0.00    -0.194 F 
HETATM    9  F2  UNL     1     -11.472   4.579  39.596  1.00  0.00    -0.194 F 
HETATM   10  C6  UNL     1     -10.081   2.684  39.080  1.00  0.00     0.119 C 
HETATM   11  C7  UNL     1     -10.268   3.038  37.659  1.00  0.00     0.243 C 
ENDROOT
TORSDOF 0
ENDMDL
MODEL 5
REMARK VINA RESULT: -5.188743717      2.876      4.054
REMARK  0 active torsions:
REMARK  status: ('A' for Active; 'I' for Inactive)
ROOT
HETATM    1  C1  UNL     1     -11.645   2.601  40.619  1.00  0.00     0.272 C 
HETATM    2  N1  UNL     1     -12.048   2.441  39.201  1.00  0.00    -0.074 N 
HETATM    3  C2  UNL     1     -11.784   1.041  38.912  1.00  0.00     0.272 C 
HETATM    4  C3  UNL     1     -13.435   2.765  39.205  1.00  0.00     0.246 C 
HETATM    5  C4  UNL     1     -14.216   2.423  38.001  1.00  0.00     0.107 C 
HETATM    6  S1  UNL     1     -14.223   3.799  36.799  1.00  0.00    -0.091 SA
HETATM    7  C5  UNL     1     -12.460   4.002  36.402  1.00  0.00     0.293 C 
HETATM    8  F1  UNL     1     -12.359   5.043  35.495  1.00  0.00    -0.194 F 
HETATM    9  F2  UNL     1     -11.925   2.896  35.825  1.00  0.00    -0.194 F 
HETATM   10  C6  UNL     1     -11.790   4.398  37.700  1.00  0.00     0.119 C 
HETATM   11  C7  UNL     1     -11.187   3.278  38.448  1.00  0.00     0.243 C 
ENDROOT
TORSDOF 0
ENDMDL
