MODEL 1
REMARK VINA RESULT: -5.485109152      0.000      0.000
REMARK  1 active torsions:
REMARK  status: ('A' for Active; 'I' for Inactive)
REMARK    1  A    between atoms: C5_7  and  C6_9 
ROOT
HETATM    1  C1  UNL     1     -12.524   2.060  39.971  1.00  0.00     0.277 C 
HETATM    2  N1  UNL     1     -11.750   2.514  38.818  1.00  0.00    -0.019 N 
HETATM    3  C2  UNL     1     -10.556   3.162  39.386  1.00  0.00     0.277 C 
HETATM    4  C3  UNL     1     -11.292   1.337  38.160  1.00  0.00     0.252 C 
HETATM    5  C4  UNL     1     -10.573   1.703  36.909  1.00  0.00     0.107 C 
HETATM    6  S1  UNL     1     -11.768   2.957  36.287  1.00  0.00    -0.086 SA
HETATM    7  C5  UNL     1     -12.415   3.380  37.954  1.00  0.00     0.412 C 
HETATM    8  F1  UNL     1     -11.991   4.687  38.190  1.00  0.00    -0.189 F 
ENDROOT
BRANCH   7   9
HETATM    9  C6  UNL     1     -13.887   3.385  37.918  1.00  0.00     0.462 C 
HETATM   10  F2  UNL     1     -14.414   4.190  38.900  1.00  0.00    -0.165 F 
HETATM   11  F3  UNL     1     -14.465   2.129  37.901  1.00  0.00    -0.165 F 
HETATM   12  F4  UNL     1     -14.286   3.985  36.714  1.00  0.00    -0.165 F 
ENDBRANCH   7   9
TORSDOF 1
ENDMDL
MODEL 2
REMARK VINA RESULT: -5.428847392      2.025      2.962
REMARK  1 active torsions:
REMARK  status: ('A' for Active; 'I' for Inactive)
REMARK    1  A    between atoms: C5_7  and  C6_9 
ROOT
HETATM    1  C1  UNL     1     -11.763   4.475  39.051  1.00  0.00     0.277 C 
HETATM    2  N1  UNL     1     -11.921   3.293  38.208  1.00  0.00    -0.019 N 
HETATM    3  C2  UNL     1     -12.672   3.758  37.029  1.00  0.00     0.277 C 
HETATM    4  C3  UNL     1     -10.616   2.959  37.745  1.00  0.00     0.252 C 
HETATM    5  C4  UNL     1     -10.667   1.699  36.953  1.00  0.00     0.107 C 
HETATM    6  S1  UNL     1     -11.751   0.732  38.083  1.00  0.00    -0.086 SA
HETATM    7  C5  UNL     1     -12.565   2.212  38.805  1.00  0.00     0.412 C 
HETATM    8  F1  UNL     1     -13.885   2.156  38.362  1.00  0.00    -0.189 F 
ENDROOT
BRANCH   7   9
HETATM    9  C6  UNL     1     -12.578   2.094  40.273  1.00  0.00     0.462 C 
HETATM   10  F2  UNL     1     -13.799   2.446  40.797  1.00  0.00    -0.165 F 
HETATM   11  F3  UNL     1     -11.527   2.729  40.910  1.00  0.00    -0.165 F 
HETATM   12  F4  UNL     1     -12.431   0.736  40.595  1.00  0.00    -0.165 F 
ENDBRANCH   7   9
TORSDOF 1
ENDMDL
MODEL 3
REMARK VINA RESULT: -5.420200733      2.183      3.065
REMARK  1 active torsions:
REMARK  status: ('A' for Active; 'I' for Inactive)
REMARK    1  A    between atoms: C5_7  and  C6_9 
ROOT
HETATM    1  C1  UNL     1     -12.053   0.776  37.612  1.00  0.00     0.277 C 
HETATM    2  N1  UNL     1     -11.470   2.115  37.665  1.00  0.00    -0.019 N 
HETATM    3  C2  UNL     1     -10.162   1.992  37.001  1.00  0.00     0.277 C 
HETATM    4  C3  UNL     1     -12.273   2.931  36.819  1.00  0.00     0.252 C 
HETATM    5  C4  UNL     1     -11.810   4.344  36.889  1.00  0.00     0.107 C 
HETATM    6  S1  UNL     1     -11.612   4.456  38.716  1.00  0.00    -0.086 SA
HETATM    7  C5  UNL     1     -11.325   2.655  38.941  1.00  0.00     0.412 C 
HETATM    8  F1  UNL     1      -9.995   2.544  39.343  1.00  0.00    -0.189 F 
ENDROOT
BRANCH   7   9
HETATM    9  C6  UNL     1     -12.169   2.160  40.041  1.00  0.00     0.462 C 
HETATM   10  F2  UNL     1     -12.025   0.805  40.220  1.00  0.00    -0.165 F 
HETATM   11  F3  UNL     1     -13.497   2.543  39.963  1.00  0.00    -0.165 F 
HETATM   12  F4  UNL     1     -11.697   2.729  41.234  1.00  0.00    -0.165 F 
ENDBRANCH   7   9
TORSDOF 1
ENDMDL
MODEL 4
REMARK VINA RESULT: -5.355189584      1.696      2.826
REMARK  1 active torsions:
REMARK  status: ('A' for Active; 'I' for Inactive)
REMARK    1  A    between atoms: C5_7  and  C6_9 
ROOT
HETATM    1  C1  UNL     1     -12.366   3.782  36.704  1.00  0.00     0.277 C 
HETATM    2  N1  UNL     1     -11.725   3.056  37.797  1.00  0.00    -0.019 N 
HETATM    3  C2  UNL     1     -10.779   2.134  37.145  1.00  0.00     0.277 C 
HETATM    4  C3  UNL     1     -10.934   4.011  38.497  1.00  0.00     0.252 C 
HETATM    5  C4  UNL     1     -10.318   3.377  39.696  1.00  0.00     0.107 C 
HETATM    6  S1  UNL     1     -11.805   2.476  40.299  1.00  0.00    -0.086 SA
HETATM    7  C5  UNL     1     -12.587   2.360  38.640  1.00  0.00     0.412 C 
HETATM    8  F1  UNL     1     -12.559   1.004  38.317  1.00  0.00    -0.189 F 
ENDROOT
BRANCH   7   9
HETATM    9  C6  UNL     1     -13.998   2.769  38.738  1.00  0.00     0.462 C 
HETATM   10  F2  UNL     1     -14.770   2.153  37.782  1.00  0.00    -0.165 F 
HETATM   11  F3  UNL     1     -14.198   4.138  38.774  1.00  0.00    -0.165 F 
HETATM   12  F4  UNL     1     -14.500   2.296  39.960  1.00  0.00    -0.165 F 
ENDBRANCH   7   9
TORSDOF 1
ENDMDL
MODEL 5
REMARK VINA RESULT: -5.274234006      2.245      3.210
REMARK  1 active torsions:
REMARK  status: ('A' for Active; 'I' for Inactive)
REMARK    1  A    between atoms: C5_7  and  C6_9 
ROOT
HETATM    1  C1  UNL     1     -13.493   2.010  37.937  1.00  0.00     0.277 C 
HETATM    2  N1  UNL     1     -12.548   2.833  38.688  1.00  0.00    -0.019 N 
HETATM    3  C2  UNL     1     -13.267   4.087  38.969  1.00  0.00     0.277 C 
HETATM    4  C3  UNL     1     -12.368   2.186  39.944  1.00  0.00     0.252 C 
HETATM    5  C4  UNL     1     -11.338   2.906  40.742  1.00  0.00     0.107 C 
HETATM    6  S1  UNL     1     -10.099   3.145  39.402  1.00  0.00    -0.086 SA
HETATM    7  C5  UNL     1     -11.339   3.093  38.047  1.00  0.00     0.412 C 
HETATM    8  F1  UNL     1     -11.360   4.384  37.522  1.00  0.00    -0.189 F 
ENDROOT
BRANCH   7   9
HETATM    9  C6  UNL     1     -10.867   2.186  36.988  1.00  0.00     0.462 C 
HETATM   10  F2  UNL     1     -11.349   2.554  35.755  1.00  0.00    -0.165 F 
HETATM   11  F3  UNL     1     -11.066   0.843  37.252  1.00  0.00    -0.165 F 
HETATM   12  F4  UNL     1      -9.475   2.333  36.886  1.00  0.00    -0.165 F 
ENDBRANCH   7   9
TORSDOF 1
ENDMDL
