MODEL 1
REMARK VINA RESULT: -6.520408541      0.000      0.000
REMARK  2 active torsions:
REMARK  status: ('A' for Active; 'I' for Inactive)
REMARK    1  A    between atoms: C8_9  and  O1_10 
REMARK    2  A    between atoms: C8_9  and  C9_12 
ROOT
HETATM    1  C1  UNL     1     -14.390   2.590  37.960  1.00  0.00     0.276 C 
HETATM    2  N1  UNL     1     -12.999   2.481  38.404  1.00  0.00    -0.034 N 
HETATM    3  C2  UNL     1     -12.585   1.153  37.998  1.00  0.00     0.276 C 
HETATM    4  C3  UNL     1     -13.107   2.478  39.841  1.00  0.00     0.240 C 
HETATM    5  C4  UNL     1     -11.907   2.058  40.576  1.00  0.00     0.028 C 
HETATM    6  C5  UNL     1     -10.927   3.236  40.539  1.00  0.00     0.002 C 
HETATM    7  C6  UNL     1     -10.104   3.050  39.322  1.00  0.00     0.005 C 
HETATM    8  C7  UNL     1     -10.714   3.268  38.014  1.00  0.00     0.079 C 
HETATM    9  C8  UNL     1     -12.173   3.525  37.899  1.00  0.00     0.325 C 
ENDROOT
BRANCH   9  10
HETATM   10  O1  UNL     1     -12.560   4.711  38.558  1.00  0.00    -0.358 OA
ATOM     11  H1  UNL     1     -13.278   5.083  38.062  1.00  0.00     0.213 HD
ENDBRANCH   9  10
BRANCH   9  12
HETATM   12  C9  UNL     1     -12.365   3.817  36.428  1.00  0.00     0.446 C 
HETATM   13  F1  UNL     1     -11.805   5.093  36.231  1.00  0.00    -0.166 F 
HETATM   14  F2  UNL     1     -13.613   3.877  35.976  1.00  0.00    -0.166 F 
HETATM   15  F3  UNL     1     -11.611   2.972  35.627  1.00  0.00    -0.166 F 
ENDBRANCH   9  12
TORSDOF 2
ENDMDL
MODEL 2
REMARK VINA RESULT: -6.456741232      2.864      3.806
REMARK  2 active torsions:
REMARK  status: ('A' for Active; 'I' for Inactive)
REMARK    1  A    between atoms: C8_9  and  O1_10 
REMARK    2  A    between atoms: C8_9  and  C9_12 
ROOT
HETATM    1  C1  UNL     1     -14.241   3.696  38.867  1.00  0.00     0.276 C 
HETATM    2  N1  UNL     1     -12.884   3.454  38.374  1.00  0.00    -0.034 N 
HETATM    3  C2  UNL     1     -12.134   4.632  38.764  1.00  0.00     0.276 C 
HETATM    4  C3  UNL     1     -13.036   3.496  36.942  1.00  0.00     0.240 C 
HETATM    5  C4  UNL     1     -11.795   3.606  36.164  1.00  0.00     0.028 C 
HETATM    6  C5  UNL     1     -11.144   2.219  36.168  1.00  0.00     0.002 C 
HETATM    7  C6  UNL     1     -10.259   2.181  37.355  1.00  0.00     0.005 C 
HETATM    8  C7  UNL     1     -10.859   2.113  38.684  1.00  0.00     0.079 C 
HETATM    9  C8  UNL     1     -12.332   2.231  38.850  1.00  0.00     0.325 C 
ENDROOT
BRANCH   9  10
HETATM   10  O1  UNL     1     -13.027   1.186  38.206  1.00  0.00    -0.358 OA
ATOM     11  H1  UNL     1     -13.010   0.440  38.793  1.00  0.00     0.213 HD
ENDBRANCH   9  10
BRANCH   9  12
HETATM   12  C9  UNL     1     -12.540   1.986  40.328  1.00  0.00     0.446 C 
HETATM   13  F1  UNL     1     -12.243   0.624  40.519  1.00  0.00    -0.166 F 
HETATM   14  F2  UNL     1     -13.763   2.178  40.811  1.00  0.00    -0.166 F 
HETATM   15  F3  UNL     1     -11.612   2.663  41.105  1.00  0.00    -0.166 F 
ENDBRANCH   9  12
TORSDOF 2
ENDMDL
MODEL 3
REMARK VINA RESULT: -6.155519475      2.654      4.042
REMARK  2 active torsions:
REMARK  status: ('A' for Active; 'I' for Inactive)
REMARK    1  A    between atoms: C8_9  and  O1_10 
REMARK    2  A    between atoms: C8_9  and  C9_12 
ROOT
HETATM    1  C1  UNL     1     -10.116   2.521  38.692  1.00  0.00     0.276 C 
HETATM    2  N1  UNL     1     -11.460   2.490  38.113  1.00  0.00    -0.034 N 
HETATM    3  C2  UNL     1     -11.600   1.152  37.574  1.00  0.00     0.276 C 
HETATM    4  C3  UNL     1     -11.363   3.396  36.996  1.00  0.00     0.240 C 
HETATM    5  C4  UNL     1     -12.460   3.338  36.022  1.00  0.00     0.028 C 
HETATM    6  C5  UNL     1     -13.654   4.063  36.652  1.00  0.00     0.002 C 
HETATM    7  C6  UNL     1     -14.416   3.034  37.397  1.00  0.00     0.005 C 
HETATM    8  C7  UNL     1     -13.853   2.489  38.628  1.00  0.00     0.079 C 
HETATM    9  C8  UNL     1     -12.473   2.848  39.047  1.00  0.00     0.325 C 
ENDROOT
BRANCH   9  10
HETATM   10  O1  UNL     1     -12.334   4.229  39.297  1.00  0.00    -0.358 OA
ATOM     11  H1  UNL     1     -11.410   4.394  39.440  1.00  0.00     0.213 HD
ENDBRANCH   9  10
BRANCH   9  12
HETATM   12  C9  UNL     1     -12.334   2.190  40.401  1.00  0.00     0.446 C 
HETATM   13  F1  UNL     1     -13.596   2.328  41.008  1.00  0.00    -0.166 F 
HETATM   14  F2  UNL     1     -11.450   2.713  41.245  1.00  0.00    -0.166 F 
HETATM   15  F3  UNL     1     -12.138   0.821  40.299  1.00  0.00    -0.166 F 
ENDBRANCH   9  12
TORSDOF 2
ENDMDL
MODEL 4
REMARK VINA RESULT: -5.972181127      2.006      3.437
REMARK  2 active torsions:
REMARK  status: ('A' for Active; 'I' for Inactive)
REMARK    1  A    between atoms: C8_9  and  O1_10 
REMARK    2  A    between atoms: C8_9  and  C9_12 
ROOT
HETATM    1  C1  UNL     1     -11.586   2.481  39.823  1.00  0.00     0.276 C 
HETATM    2  N1  UNL     1     -12.224   3.186  38.710  1.00  0.00    -0.034 N 
HETATM    3  C2  UNL     1     -11.753   4.553  38.820  1.00  0.00     0.276 C 
HETATM    4  C3  UNL     1     -13.620   3.183  39.069  1.00  0.00     0.240 C 
HETATM    5  C4  UNL     1     -14.484   4.095  38.309  1.00  0.00     0.028 C 
HETATM    6  C5  UNL     1     -14.718   3.449  36.940  1.00  0.00     0.002 C 
HETATM    7  C6  UNL     1     -13.629   3.935  36.062  1.00  0.00     0.005 C 
HETATM    8  C7  UNL     1     -12.272   3.442  36.276  1.00  0.00     0.079 C 
HETATM    9  C8  UNL     1     -11.962   2.582  37.448  1.00  0.00     0.325 C 
ENDROOT
BRANCH   9  10
HETATM   10  O1  UNL     1     -12.672   1.363  37.419  1.00  0.00    -0.358 OA
ATOM     11  H1  UNL     1     -12.573   0.965  38.275  1.00  0.00     0.213 HD
ENDBRANCH   9  10
BRANCH   9  12
HETATM   12  C9  UNL     1     -10.516   2.197  37.229  1.00  0.00     0.446 C 
HETATM   13  F1  UNL     1     -10.439   0.840  37.595  1.00  0.00    -0.166 F 
HETATM   14  F2  UNL     1      -9.599   2.835  37.948  1.00  0.00    -0.166 F 
HETATM   15  F3  UNL     1     -10.167   2.222  35.887  1.00  0.00    -0.166 F 
ENDBRANCH   9  12
TORSDOF 2
ENDMDL
MODEL 5
REMARK VINA RESULT: -5.925479660      1.378      2.705
REMARK  2 active torsions:
REMARK  status: ('A' for Active; 'I' for Inactive)
REMARK    1  A    between atoms: C8_9  and  O1_10 
REMARK    2  A    between atoms: C8_9  and  C9_12 
ROOT
HETATM    1  C1  UNL     1     -10.180   2.591  37.932  1.00  0.00     0.276 C 
HETATM    2  N1  UNL     1     -11.442   2.960  38.575  1.00  0.00    -0.034 N 
HETATM    3  C2  UNL     1     -11.203   4.278  39.129  1.00  0.00     0.276 C 
HETATM    4  C3  UNL     1     -11.535   2.040  39.680  1.00  0.00     0.240 C 
HETATM    5  C4  UNL     1     -12.534   2.363  40.706  1.00  0.00     0.028 C 
HETATM    6  C5  UNL     1     -13.903   1.987  40.129  1.00  0.00     0.002 C 
HETATM    7  C6  UNL     1     -14.403   3.192  39.429  1.00  0.00     0.005 C 
HETATM    8  C7  UNL     1     -13.773   3.595  38.176  1.00  0.00     0.079 C 
HETATM    9  C8  UNL     1     -12.554   2.897  37.688  1.00  0.00     0.325 C 
ENDROOT
BRANCH   9  10
HETATM   10  O1  UNL     1     -12.793   1.532  37.423  1.00  0.00    -0.358 OA
ATOM     11  H1  UNL     1     -13.483   1.493  36.771  1.00  0.00     0.213 HD
ENDBRANCH   9  10
BRANCH   9  12
HETATM   12  C9  UNL     1     -12.309   3.521  36.333  1.00  0.00     0.446 C 
HETATM   13  F1  UNL     1     -13.584   3.647  35.751  1.00  0.00    -0.166 F 
HETATM   14  F2  UNL     1     -11.566   2.834  35.471  1.00  0.00    -0.166 F 
HETATM   15  F3  UNL     1     -11.836   4.821  36.436  1.00  0.00    -0.166 F 
ENDBRANCH   9  12
TORSDOF 2
ENDMDL
