MODEL 1
REMARK VINA RESULT: -5.991773076      0.000      0.000
REMARK  2 active torsions:
REMARK  status: ('A' for Active; 'I' for Inactive)
REMARK    1  A    between atoms: C3_3  and  C4_4 
REMARK    2  A    between atoms: C4_4  and  C5_5 
ROOT
HETATM    1  C1  UNL     1     -17.054   4.315  38.146  1.00  0.00     0.112 C 
HETATM    2  C2  UNL     1     -15.627   4.025  37.939  1.00  0.00    -0.110 C 
HETATM    3  C3  UNL     1     -14.451   3.801  37.777  1.00  0.00    -0.086 C 
ENDROOT
BRANCH   3   4
HETATM    4  C4  UNL     1     -13.026   3.522  37.597  1.00  0.00     0.148 C 
HETATM    5  C6  UNL     1     -12.195   4.333  38.588  1.00  0.00     0.064 C 
HETATM    6  C7  UNL     1     -11.170   3.345  39.061  1.00  0.00     0.274 C 
HETATM    7  N1  UNL     1     -11.657   2.029  38.825  1.00  0.00     0.086 N 
HETATM    8  C8  UNL     1     -11.940   1.276  40.026  1.00  0.00     0.310 C 
HETATM    9  C9  UNL     1     -12.789   2.097  37.948  1.00  0.00     0.303 C 
BRANCH   4  10
HETATM   10  C5  UNL     1     -12.604   3.839  36.162  1.00  0.00     0.407 C 
HETATM   11  F1  UNL     1     -13.686   3.967  35.339  1.00  0.00    -0.169 F 
HETATM   12  F2  UNL     1     -11.955   5.063  36.212  1.00  0.00    -0.169 F 
HETATM   13  F3  UNL     1     -11.774   2.886  35.664  1.00  0.00    -0.169 F 
ENDBRANCH   4  10
ENDBRANCH   3   4
TORSDOF 2
ENDMDL
MODEL 2
REMARK VINA RESULT: -5.776380916      2.290      2.953
REMARK  2 active torsions:
REMARK  status: ('A' for Active; 'I' for Inactive)
REMARK    1  A    between atoms: C3_3  and  C4_4 
REMARK    2  A    between atoms: C4_4  and  C5_5 
ROOT
HETATM    1  C1  UNL     1     -13.943   4.443  35.263  1.00  0.00     0.112 C 
HETATM    2  C2  UNL     1     -13.047   3.852  36.268  1.00  0.00    -0.110 C 
HETATM    3  C3  UNL     1     -12.325   3.359  37.101  1.00  0.00    -0.086 C 
ENDROOT
BRANCH   3   4
HETATM    4  C4  UNL     1     -11.448   2.748  38.101  1.00  0.00     0.148 C 
HETATM    5  C6  UNL     1     -11.031   3.779  39.146  1.00  0.00     0.064 C 
HETATM    6  C7  UNL     1     -11.147   3.023  40.435  1.00  0.00     0.274 C 
HETATM    7  N1  UNL     1     -12.022   1.918  40.244  1.00  0.00     0.086 N 
HETATM    8  C8  UNL     1     -13.265   2.010  40.978  1.00  0.00     0.310 C 
HETATM    9  C9  UNL     1     -12.236   1.726  38.839  1.00  0.00     0.303 C 
BRANCH   4  10
HETATM   10  C5  UNL     1     -10.216   2.146  37.424  1.00  0.00     0.407 C 
HETATM   11  F1  UNL     1      -9.065   2.524  38.053  1.00  0.00    -0.169 F 
HETATM   12  F2  UNL     1     -10.342   0.770  37.546  1.00  0.00    -0.169 F 
HETATM   13  F3  UNL     1     -10.145   2.498  36.114  1.00  0.00    -0.169 F 
ENDBRANCH   4  10
ENDBRANCH   3   4
TORSDOF 2
ENDMDL
MODEL 3
REMARK VINA RESULT: -5.751641211      3.003      3.764
REMARK  2 active torsions:
REMARK  status: ('A' for Active; 'I' for Inactive)
REMARK    1  A    between atoms: C3_3  and  C4_4 
REMARK    2  A    between atoms: C4_4  and  C5_5 
ROOT
HETATM    1  C1  UNL     1     -17.243   2.652  38.866  1.00  0.00     0.112 C 
HETATM    2  C2  UNL     1     -15.779   2.597  38.992  1.00  0.00    -0.110 C 
HETATM    3  C3  UNL     1     -14.577   2.536  39.089  1.00  0.00    -0.086 C 
ENDROOT
BRANCH   3   4
HETATM    4  C4  UNL     1     -13.118   2.467  39.190  1.00  0.00     0.148 C 
HETATM    5  C6  UNL     1     -12.553   1.533  38.123  1.00  0.00     0.064 C 
HETATM    6  C7  UNL     1     -11.352   2.277  37.621  1.00  0.00     0.274 C 
HETATM    7  N1  UNL     1     -11.503   3.657  37.931  1.00  0.00     0.086 N 
HETATM    8  C8  UNL     1     -11.664   4.512  36.775  1.00  0.00     0.310 C 
HETATM    9  C9  UNL     1     -12.572   3.813  38.873  1.00  0.00     0.303 C 
BRANCH   4  10
HETATM   10  C5  UNL     1     -12.708   1.993  40.585  1.00  0.00     0.407 C 
HETATM   11  F1  UNL     1     -13.762   2.022  41.453  1.00  0.00    -0.169 F 
HETATM   12  F2  UNL     1     -12.304   0.675  40.441  1.00  0.00    -0.169 F 
HETATM   13  F3  UNL     1     -11.695   2.744  41.089  1.00  0.00    -0.169 F 
ENDBRANCH   4  10
ENDBRANCH   3   4
TORSDOF 2
ENDMDL
MODEL 4
REMARK VINA RESULT: -5.515830147      2.888      3.906
REMARK  2 active torsions:
REMARK  status: ('A' for Active; 'I' for Inactive)
REMARK    1  A    between atoms: C3_3  and  C4_4 
REMARK    2  A    between atoms: C4_4  and  C5_5 
ROOT
HETATM    1  C1  UNL     1     -14.302   1.735  41.457  1.00  0.00     0.112 C 
HETATM    2  C2  UNL     1     -13.309   2.107  40.437  1.00  0.00    -0.110 C 
HETATM    3  C3  UNL     1     -12.505   2.410  39.588  1.00  0.00    -0.086 C 
ENDROOT
BRANCH   3   4
HETATM    4  C4  UNL     1     -11.537   2.792  38.559  1.00  0.00     0.148 C 
HETATM    5  C6  UNL     1     -11.412   1.691  37.510  1.00  0.00     0.064 C 
HETATM    6  C7  UNL     1     -11.381   2.453  36.219  1.00  0.00     0.274 C 
HETATM    7  N1  UNL     1     -11.959   3.736  36.428  1.00  0.00     0.086 N 
HETATM    8  C8  UNL     1     -13.208   3.946  35.730  1.00  0.00     0.310 C 
HETATM    9  C9  UNL     1     -12.078   3.973  37.837  1.00  0.00     0.303 C 
BRANCH   4  10
HETATM   10  C5  UNL     1     -10.178   3.080  39.196  1.00  0.00     0.407 C 
HETATM   11  F1  UNL     1      -9.184   2.355  38.603  1.00  0.00    -0.169 F 
HETATM   12  F2  UNL     1      -9.923   4.424  38.970  1.00  0.00    -0.169 F 
HETATM   13  F3  UNL     1     -10.186   2.820  40.529  1.00  0.00    -0.169 F 
ENDBRANCH   4  10
ENDBRANCH   3   4
TORSDOF 2
ENDMDL
MODEL 5
REMARK VINA RESULT: -5.446348582      2.184      2.933
REMARK  2 active torsions:
REMARK  status: ('A' for Active; 'I' for Inactive)
REMARK    1  A    between atoms: C3_3  and  C4_4 
REMARK    2  A    between atoms: C4_4  and  C5_5 
ROOT
HETATM    1  C1  UNL     1     -16.286   2.346  37.856  1.00  0.00     0.112 C 
HETATM    2  C2  UNL     1     -14.846   2.631  37.937  1.00  0.00    -0.110 C 
HETATM    3  C3  UNL     1     -13.660   2.849  38.009  1.00  0.00    -0.086 C 
ENDROOT
BRANCH   3   4
HETATM    4  C4  UNL     1     -12.221   3.106  38.082  1.00  0.00     0.148 C 
HETATM    5  C6  UNL     1     -11.502   1.927  38.731  1.00  0.00     0.064 C 
HETATM    6  C7  UNL     1     -10.282   1.760  37.876  1.00  0.00     0.274 C 
HETATM    7  N1  UNL     1     -10.522   2.361  36.609  1.00  0.00     0.086 N 
HETATM    8  C8  UNL     1     -10.585   1.424  35.509  1.00  0.00     0.310 C 
HETATM    9  C9  UNL     1     -11.697   3.178  36.693  1.00  0.00     0.303 C 
BRANCH   4  10
HETATM   10  C5  UNL     1     -11.954   4.392  38.865  1.00  0.00     0.407 C 
HETATM   11  F1  UNL     1     -11.228   4.147  39.995  1.00  0.00    -0.169 F 
HETATM   12  F2  UNL     1     -11.196   5.200  38.033  1.00  0.00    -0.169 F 
HETATM   13  F3  UNL     1     -13.111   5.018  39.204  1.00  0.00    -0.169 F 
ENDBRANCH   4  10
ENDBRANCH   3   4
TORSDOF 2
ENDMDL
