MODEL 1
REMARK VINA RESULT: -6.128825774      0.000      0.000
REMARK  1 active torsions:
REMARK  status: ('A' for Active; 'I' for Inactive)
REMARK    1  A    between atoms: C2_2  and  C3_3 
ROOT
HETATM    1  C1  UNL     1     -12.008   4.148  37.074  1.00  0.00     0.039 C 
HETATM    2  C2  UNL     1     -11.489   2.968  37.909  1.00  0.00     0.134 C 
HETATM    3  C4  UNL     1     -10.317   3.431  38.666  1.00  0.00     0.059 C 
HETATM    4  C5  UNL     1     -10.195   3.001  40.076  1.00  0.00     0.235 C 
HETATM    5  N1  UNL     1     -11.364   3.071  40.871  1.00  0.00    -0.065 N 
ATOM      6  H11 UNL     1     -11.802   3.990  40.818  1.00  0.00     0.278 HD
ATOM      7  H12 UNL     1     -11.144   3.062  41.867  1.00  0.00     0.278 HD
HETATM    8  C6  UNL     1     -12.287   2.013  40.515  1.00  0.00     0.341 C 
HETATM    9  S1  UNL     1     -12.830   2.372  38.862  1.00  0.00     0.058 S 
HETATM   10  O1  UNL     1     -14.131   3.423  38.854  1.00  0.00    -0.255 OA
ENDROOT
BRANCH   2  11
HETATM   11  C3  UNL     1     -11.148   1.890  36.871  1.00  0.00     0.406 C 
HETATM   12  F1  UNL     1     -11.379   2.310  35.598  1.00  0.00    -0.169 F 
HETATM   13  F2  UNL     1      -9.784   1.632  37.059  1.00  0.00    -0.169 F 
HETATM   14  F3  UNL     1     -11.815   0.746  37.221  1.00  0.00    -0.169 F 
ENDBRANCH   2  11
TORSDOF 1
ENDMDL
MODEL 2
REMARK VINA RESULT: -6.101632471      2.933      3.690
REMARK  1 active torsions:
REMARK  status: ('A' for Active; 'I' for Inactive)
REMARK    1  A    between atoms: C2_2  and  C3_3 
ROOT
HETATM    1  C1  UNL     1     -13.611   3.534  38.799  1.00  0.00     0.039 C 
HETATM    2  C2  UNL     1     -12.434   2.574  39.030  1.00  0.00     0.134 C 
HETATM    3  C4  UNL     1     -12.508   1.515  38.012  1.00  0.00     0.059 C 
HETATM    4  C5  UNL     1     -11.246   1.088  37.372  1.00  0.00     0.235 C 
HETATM    5  N1  UNL     1     -10.354   2.110  36.967  1.00  0.00    -0.065 N 
ATOM      6  H11 UNL     1     -10.821   2.814  36.395  1.00  0.00     0.278 HD
ATOM      7  H12 UNL     1      -9.681   1.773  36.278  1.00  0.00     0.278 HD
HETATM    8  C6  UNL     1      -9.698   2.699  38.116  1.00  0.00     0.341 C 
HETATM    9  S1  UNL     1     -10.970   3.532  39.033  1.00  0.00     0.058 S 
HETATM   10  O1  UNL     1     -11.226   5.084  38.464  1.00  0.00    -0.255 OA
ENDROOT
BRANCH   2  11
HETATM   11  C3  UNL     1     -12.646   2.053  40.458  1.00  0.00     0.406 C 
HETATM   12  F1  UNL     1     -13.930   2.206  40.877  1.00  0.00    -0.169 F 
HETATM   13  F2  UNL     1     -12.312   0.693  40.395  1.00  0.00    -0.169 F 
HETATM   14  F3  UNL     1     -11.711   2.648  41.263  1.00  0.00    -0.169 F 
ENDBRANCH   2  11
TORSDOF 1
ENDMDL
MODEL 3
REMARK VINA RESULT: -6.076562986      0.077      1.137
REMARK  1 active torsions:
REMARK  status: ('A' for Active; 'I' for Inactive)
REMARK    1  A    between atoms: C2_2  and  C3_3 
ROOT
HETATM    1  C1  UNL     1     -11.994   4.090  37.059  1.00  0.00     0.039 C 
HETATM    2  C2  UNL     1     -11.479   2.932  37.927  1.00  0.00     0.134 C 
HETATM    3  C4  UNL     1     -10.300   3.409  38.665  1.00  0.00     0.059 C 
HETATM    4  C5  UNL     1     -10.175   3.021  40.086  1.00  0.00     0.235 C 
HETATM    5  N1  UNL     1     -11.339   3.123  40.884  1.00  0.00    -0.065 N 
ATOM      6  H11 UNL     1     -11.771   4.043  40.805  1.00  0.00     0.278 HD
ATOM      7  H12 UNL     1     -11.115   3.142  41.879  1.00  0.00     0.278 HD
HETATM    8  C6  UNL     1     -12.271   2.061  40.564  1.00  0.00     0.341 C 
HETATM    9  S1  UNL     1     -12.819   2.374  38.904  1.00  0.00     0.058 S 
HETATM   10  O1  UNL     1     -14.113   3.433  38.870  1.00  0.00    -0.255 OA
ENDROOT
BRANCH   2  11
HETATM   11  C3  UNL     1     -11.151   1.821  36.920  1.00  0.00     0.406 C 
HETATM   12  F1  UNL     1     -11.880   0.695  37.139  1.00  0.00    -0.169 F 
HETATM   13  F2  UNL     1     -11.465   2.370  35.669  1.00  0.00    -0.169 F 
HETATM   14  F3  UNL     1      -9.795   1.632  36.934  1.00  0.00    -0.169 F 
ENDBRANCH   2  11
TORSDOF 1
ENDMDL
MODEL 4
REMARK VINA RESULT: -5.857919734      2.244      2.885
REMARK  1 active torsions:
REMARK  status: ('A' for Active; 'I' for Inactive)
REMARK    1  A    between atoms: C2_2  and  C3_3 
ROOT
HETATM    1  C1  UNL     1     -11.160   1.598  36.893  1.00  0.00     0.039 C 
HETATM    2  C2  UNL     1     -11.810   2.639  37.817  1.00  0.00     0.134 C 
HETATM    3  C4  UNL     1     -12.878   1.968  38.573  1.00  0.00     0.059 C 
HETATM    4  C5  UNL     1     -13.008   2.289  40.011  1.00  0.00     0.235 C 
HETATM    5  N1  UNL     1     -11.814   2.338  40.768  1.00  0.00    -0.065 N 
ATOM      6  H11 UNL     1     -11.253   1.495  40.643  1.00  0.00     0.278 HD
ATOM      7  H12 UNL     1     -11.996   2.253  41.768  1.00  0.00     0.278 HD
HETATM    8  C6  UNL     1     -11.061   3.536  40.458  1.00  0.00     0.341 C 
HETATM    9  S1  UNL     1     -10.533   3.360  38.771  1.00  0.00     0.058 S 
HETATM   10  O1  UNL     1      -9.098   2.508  38.660  1.00  0.00    -0.255 OA
ENDROOT
BRANCH   2  11
HETATM   11  C3  UNL     1     -12.335   3.719  36.862  1.00  0.00     0.406 C 
HETATM   12  F1  UNL     1     -13.677   3.902  36.978  1.00  0.00    -0.169 F 
HETATM   13  F2  UNL     1     -11.650   4.885  37.230  1.00  0.00    -0.169 F 
HETATM   14  F3  UNL     1     -11.912   3.401  35.598  1.00  0.00    -0.169 F 
ENDBRANCH   2  11
TORSDOF 1
ENDMDL
MODEL 5
REMARK VINA RESULT: -5.813467456      2.686      3.572
REMARK  1 active torsions:
REMARK  status: ('A' for Active; 'I' for Inactive)
REMARK    1  A    between atoms: C2_2  and  C3_3 
ROOT
HETATM    1  C1  UNL     1     -12.260   1.429  39.635  1.00  0.00     0.039 C 
HETATM    2  C2  UNL     1     -11.516   2.474  38.789  1.00  0.00     0.134 C 
HETATM    3  C4  UNL     1     -10.506   1.768  37.986  1.00  0.00     0.059 C 
HETATM    4  C5  UNL     1     -10.339   2.181  36.576  1.00  0.00     0.235 C 
HETATM    5  N1  UNL     1     -11.519   2.390  35.824  1.00  0.00    -0.065 N 
ATOM      6  H11 UNL     1     -12.153   1.593  35.887  1.00  0.00     0.278 HD
ATOM      7  H12 UNL     1     -11.338   2.363  34.821  1.00  0.00     0.278 HD
HETATM    8  C6  UNL     1     -12.165   3.624  36.221  1.00  0.00     0.341 C 
HETATM    9  S1  UNL     1     -12.718   3.373  37.891  1.00  0.00     0.058 S 
HETATM   10  O1  UNL     1     -14.223   2.644  37.939  1.00  0.00    -0.255 OA
ENDROOT
BRANCH   2  11
HETATM   11  C3  UNL     1     -10.904   3.430  39.822  1.00  0.00     0.406 C 
HETATM   12  F1  UNL     1      -9.552   3.512  39.710  1.00  0.00    -0.169 F 
HETATM   13  F2  UNL     1     -11.492   4.673  39.549  1.00  0.00    -0.169 F 
HETATM   14  F3  UNL     1     -11.350   3.050  41.059  1.00  0.00    -0.169 F 
ENDBRANCH   2  11
TORSDOF 1
ENDMDL
