MODEL 1
REMARK VINA RESULT: -5.993224527      0.000      0.000
REMARK  6 active torsions:
REMARK  status: ('A' for Active; 'I' for Inactive)
REMARK    1  A    between atoms: C2_2  and  C3_3 
REMARK    2  A    between atoms: C3_3  and  C4_4 
REMARK    3  A    between atoms: C4_4  and  N1_5 
REMARK    4  A    between atoms: C5_6  and  O1_7 
REMARK    5  A    between atoms: C6_9  and  C7_10 
REMARK    6  A    between atoms: C8_11  and  C9_12 
ROOT
HETATM    1  N1  UNL     1       4.286   7.053  -0.593  1.00  0.00    -0.302 N 
HETATM    2  C5  UNL     1       4.195   5.758  -0.998  1.00  0.00     0.181 A 
HETATM    3  C6  UNL     1       3.661   4.981   0.010  1.00  0.00     0.140 A 
HETATM    4  N2  UNL     1       3.433   5.834   1.029  1.00  0.00    -0.322 N 
ATOM      5  H2  UNL     1       3.037   5.579   1.934  1.00  0.00     0.169 HD
HETATM    6  C12 UNL     1       3.811   7.085   0.663  1.00  0.00     0.181 A 
HETATM    7  S1  UNL     1       3.687   8.369   1.662  1.00  0.00    -0.040 SA
ENDROOT
BRANCH   3   8
HETATM    8  C7  UNL     1       3.397   3.557  -0.009  1.00  0.00    -0.041 C 
HETATM    9  C8  UNL     1       3.196   2.368  -0.014  1.00  0.00    -0.056 C 
BRANCH   9  10
HETATM   10  C9  UNL     1       2.968   0.927  -0.001  1.00  0.00     0.159 C 
HETATM   11  C10 UNL     1       3.035   0.463   1.444  1.00  0.00     0.066 C 
HETATM   12  C11 UNL     1       1.603   0.552  -0.523  1.00  0.00     0.066 C 
HETATM   13  F1  UNL     1       3.908   0.260  -0.761  1.00  0.00    -0.230 F 
ENDBRANCH   9  10
ENDBRANCH   3   8
BRANCH   2  14
HETATM   14  O1  UNL     1       4.588   5.292  -2.254  1.00  0.00    -0.344 OA
ATOM     15  H1  UNL     1       4.620   4.375  -2.504  1.00  0.00     0.219 HD
ENDBRANCH   2  14
BRANCH   1  16
HETATM   16  C4  UNL     1       4.812   8.135  -1.385  1.00  0.00     0.133 C 
BRANCH  16  17
HETATM   17  C3  UNL     1       6.302   8.216  -1.432  1.00  0.00     0.020 C 
BRANCH  17  18
HETATM   18  C2  UNL     1       6.917   9.034  -0.351  1.00  0.00    -0.003 C 
HETATM   19  C1  UNL     1       6.222  10.398  -0.218  1.00  0.00     0.005 C 
ENDBRANCH  17  18
ENDBRANCH  16  17
ENDBRANCH   1  16
TORSDOF 6
ENDMDL
MODEL 2
REMARK VINA RESULT: -5.990800619      2.842      3.351
REMARK  6 active torsions:
REMARK  status: ('A' for Active; 'I' for Inactive)
REMARK    1  A    between atoms: C2_2  and  C3_3 
REMARK    2  A    between atoms: C3_3  and  C4_4 
REMARK    3  A    between atoms: C4_4  and  N1_5 
REMARK    4  A    between atoms: C5_6  and  O1_7 
REMARK    5  A    between atoms: C6_9  and  C7_10 
REMARK    6  A    between atoms: C8_11  and  C9_12 
ROOT
HETATM    1  N1  UNL     1       4.002   7.223   0.610  1.00  0.00    -0.302 N 
HETATM    2  C5  UNL     1       2.944   6.441   0.953  1.00  0.00     0.181 A 
HETATM    3  C6  UNL     1       2.623   5.593  -0.087  1.00  0.00     0.140 A 
HETATM    4  N2  UNL     1       3.507   5.881  -1.062  1.00  0.00    -0.322 N 
ATOM      5  H2  UNL     1       3.545   5.428  -1.976  1.00  0.00     0.169 HD
HETATM    6  C12 UNL     1       4.339   6.866  -0.640  1.00  0.00     0.181 A 
HETATM    7  S1  UNL     1       5.529   7.474  -1.575  1.00  0.00    -0.040 SA
ENDROOT
BRANCH   3   8
HETATM    8  C7  UNL     1       1.566   4.602  -0.134  1.00  0.00    -0.041 C 
HETATM    9  C8  UNL     1       0.683   3.784  -0.194  1.00  0.00    -0.056 C 
BRANCH   9  10
HETATM   10  C9  UNL     1      -0.383   2.793  -0.291  1.00  0.00     0.159 C 
HETATM   11  C10 UNL     1      -1.269   3.182  -1.461  1.00  0.00     0.066 C 
HETATM   12  C11 UNL     1       0.139   1.406  -0.574  1.00  0.00     0.066 C 
HETATM   13  F1  UNL     1      -1.125   2.735   0.872  1.00  0.00    -0.230 F 
ENDBRANCH   9  10
ENDBRANCH   3   8
BRANCH   2  14
HETATM   14  O1  UNL     1       2.285   6.495   2.184  1.00  0.00    -0.344 OA
ATOM     15  H1  UNL     1       2.362   5.839   2.866  1.00  0.00     0.219 HD
ENDBRANCH   2  14
BRANCH   1  16
HETATM   16  C4  UNL     1       4.594   8.234   1.450  1.00  0.00     0.133 C 
BRANCH  16  17
HETATM   17  C3  UNL     1       3.827   9.512   1.533  1.00  0.00     0.020 C 
BRANCH  17  18
HETATM   18  C2  UNL     1       4.233  10.549   0.544  1.00  0.00    -0.003 C 
HETATM   19  C1  UNL     1       5.756  10.564   0.344  1.00  0.00     0.005 C 
ENDBRANCH  17  18
ENDBRANCH  16  17
ENDBRANCH   1  16
TORSDOF 6
ENDMDL
MODEL 3
REMARK VINA RESULT: -5.770962981      2.040      2.452
REMARK  6 active torsions:
REMARK  status: ('A' for Active; 'I' for Inactive)
REMARK    1  A    between atoms: C2_2  and  C3_3 
REMARK    2  A    between atoms: C3_3  and  C4_4 
REMARK    3  A    between atoms: C4_4  and  N1_5 
REMARK    4  A    between atoms: C5_6  and  O1_7 
REMARK    5  A    between atoms: C6_9  and  C7_10 
REMARK    6  A    between atoms: C8_11  and  C9_12 
ROOT
HETATM    1  N1  UNL     1       3.730   7.128  -0.093  1.00  0.00    -0.302 N 
HETATM    2  C5  UNL     1       3.307   6.018   0.568  1.00  0.00     0.181 A 
HETATM    3  C6  UNL     1       3.741   4.882  -0.084  1.00  0.00     0.140 A 
HETATM    4  N2  UNL     1       4.432   5.331  -1.151  1.00  0.00    -0.322 N 
ATOM      5  H2  UNL     1       4.889   4.742  -1.847  1.00  0.00     0.169 HD
HETATM    6  C12 UNL     1       4.424   6.688  -1.155  1.00  0.00     0.181 A 
HETATM    7  S1  UNL     1       5.157   7.569  -2.316  1.00  0.00    -0.040 SA
ENDROOT
BRANCH   3   8
HETATM    8  C7  UNL     1       3.510   3.500   0.284  1.00  0.00    -0.041 C 
HETATM    9  C8  UNL     1       3.336   2.345   0.581  1.00  0.00    -0.056 C 
BRANCH   9  10
HETATM   10  C9  UNL     1       3.149   0.942   0.937  1.00  0.00     0.159 C 
HETATM   11  C10 UNL     1       3.524   0.106  -0.274  1.00  0.00     0.066 C 
HETATM   12  C11 UNL     1       4.045   0.507   2.070  1.00  0.00     0.066 C 
HETATM   13  F1  UNL     1       1.843   0.686   1.308  1.00  0.00    -0.230 F 
ENDBRANCH   9  10
ENDBRANCH   3   8
BRANCH   2  14
HETATM   14  O1  UNL     1       2.545   6.035   1.739  1.00  0.00    -0.344 OA
ATOM     15  H1  UNL     1       2.668   6.648   2.454  1.00  0.00     0.219 HD
ENDBRANCH   2  14
BRANCH   1  16
HETATM   16  C4  UNL     1       3.447   8.486   0.299  1.00  0.00     0.133 C 
BRANCH  16  17
HETATM   17  C3  UNL     1       4.490   9.125   1.155  1.00  0.00     0.020 C 
BRANCH  17  18
HETATM   18  C2  UNL     1       4.891  10.496   0.732  1.00  0.00    -0.003 C 
HETATM   19  C1  UNL     1       6.173  10.467  -0.113  1.00  0.00     0.005 C 
ENDBRANCH  17  18
ENDBRANCH  16  17
ENDBRANCH   1  16
TORSDOF 6
ENDMDL
MODEL 4
REMARK VINA RESULT: -5.765078552      2.430      2.679
REMARK  6 active torsions:
REMARK  status: ('A' for Active; 'I' for Inactive)
REMARK    1  A    between atoms: C2_2  and  C3_3 
REMARK    2  A    between atoms: C3_3  and  C4_4 
REMARK    3  A    between atoms: C4_4  and  N1_5 
REMARK    4  A    between atoms: C5_6  and  O1_7 
REMARK    5  A    between atoms: C6_9  and  C7_10 
REMARK    6  A    between atoms: C8_11  and  C9_12 
ROOT
HETATM    1  N1  UNL     1       4.331   6.803   0.108  1.00  0.00    -0.302 N 
HETATM    2  C5  UNL     1       3.578   5.890  -0.561  1.00  0.00     0.181 A 
HETATM    3  C6  UNL     1       2.376   5.697   0.089  1.00  0.00     0.140 A 
HETATM    4  N2  UNL     1       2.422   6.511   1.163  1.00  0.00    -0.322 N 
ATOM      5  H2  UNL     1       1.683   6.610   1.859  1.00  0.00     0.169 HD
HETATM    6  C12 UNL     1       3.603   7.178   1.173  1.00  0.00     0.181 A 
HETATM    7  S1  UNL     1       4.003   8.242   2.342  1.00  0.00    -0.040 SA
ENDROOT
BRANCH   3   8
HETATM    8  C7  UNL     1       1.292   4.813  -0.287  1.00  0.00    -0.041 C 
HETATM    9  C8  UNL     1       0.377   4.087  -0.586  1.00  0.00    -0.056 C 
BRANCH   9  10
HETATM   10  C9  UNL     1      -0.746   3.224  -0.938  1.00  0.00     0.159 C 
HETATM   11  C10 UNL     1      -1.662   3.144   0.270  1.00  0.00     0.066 C 
HETATM   12  C11 UNL     1      -1.565   3.775  -2.079  1.00  0.00     0.066 C 
HETATM   13  F1  UNL     1      -0.318   1.961  -1.298  1.00  0.00    -0.230 F 
ENDBRANCH   9  10
ENDBRANCH   3   8
BRANCH   2  14
HETATM   14  O1  UNL     1       3.972   5.246  -1.736  1.00  0.00    -0.344 OA
ATOM     15  H1  UNL     1       3.976   4.304  -1.860  1.00  0.00     0.219 HD
ENDBRANCH   2  14
BRANCH   1  16
HETATM   16  C4  UNL     1       5.650   7.235  -0.280  1.00  0.00     0.133 C 
BRANCH  16  17
HETATM   17  C3  UNL     1       5.686   8.454  -1.141  1.00  0.00     0.020 C 
BRANCH  17  18
HETATM   18  C2  UNL     1       6.647   9.502  -0.699  1.00  0.00    -0.003 C 
HETATM   19  C1  UNL     1       5.947  10.584   0.137  1.00  0.00     0.005 C 
ENDBRANCH  17  18
ENDBRANCH  16  17
ENDBRANCH   1  16
TORSDOF 6
ENDMDL
MODEL 5
REMARK VINA RESULT: -5.735477737      2.027      2.301
REMARK  6 active torsions:
REMARK  status: ('A' for Active; 'I' for Inactive)
REMARK    1  A    between atoms: C2_2  and  C3_3 
REMARK    2  A    between atoms: C3_3  and  C4_4 
REMARK    3  A    between atoms: C4_4  and  N1_5 
REMARK    4  A    between atoms: C5_6  and  O1_7 
REMARK    5  A    between atoms: C6_9  and  C7_10 
REMARK    6  A    between atoms: C8_11  and  C9_12 
ROOT
HETATM    1  N1  UNL     1       4.141   6.842   0.055  1.00  0.00    -0.302 N 
HETATM    2  C5  UNL     1       3.508   5.798  -0.543  1.00  0.00     0.181 A 
HETATM    3  C6  UNL     1       2.468   5.355   0.248  1.00  0.00     0.140 A 
HETATM    4  N2  UNL     1       2.488   6.153   1.334  1.00  0.00    -0.322 N 
ATOM      5  H2  UNL     1       1.843   6.092   2.122  1.00  0.00     0.169 HD
HETATM    6  C12 UNL     1       3.499   7.051   1.216  1.00  0.00     0.181 A 
HETATM    7  S1  UNL     1       3.824   8.167   2.361  1.00  0.00    -0.040 SA
ENDROOT
BRANCH   3   8
HETATM    8  C7  UNL     1       1.547   4.269  -0.017  1.00  0.00    -0.041 C 
HETATM    9  C8  UNL     1       0.765   3.378  -0.237  1.00  0.00    -0.056 C 
BRANCH   9  10
HETATM   10  C9  UNL     1      -0.199   2.317  -0.510  1.00  0.00     0.159 C 
HETATM   11  C10 UNL     1       0.572   1.014  -0.627  1.00  0.00     0.066 C 
HETATM   12  C11 UNL     1      -1.200   2.141   0.605  1.00  0.00     0.066 C 
HETATM   13  F1  UNL     1      -0.902   2.562  -1.673  1.00  0.00    -0.230 F 
ENDBRANCH   9  10
ENDBRANCH   3   8
BRANCH   2  14
HETATM   14  O1  UNL     1       3.868   5.257  -1.781  1.00  0.00    -0.344 OA
ATOM     15  H1  UNL     1       3.348   4.626  -2.265  1.00  0.00     0.219 HD
ENDBRANCH   2  14
BRANCH   1  16
HETATM   16  C4  UNL     1       5.281   7.540  -0.483  1.00  0.00     0.133 C 
BRANCH  16  17
HETATM   17  C3  UNL     1       4.952   8.681  -1.388  1.00  0.00     0.020 C 
BRANCH  17  18
HETATM   18  C2  UNL     1       4.652   9.963  -0.693  1.00  0.00    -0.003 C 
HETATM   19  C1  UNL     1       5.893  10.512   0.027  1.00  0.00     0.005 C 
ENDBRANCH  17  18
ENDBRANCH  16  17
ENDBRANCH   1  16
TORSDOF 6
ENDMDL
