MODEL 1
REMARK VINA RESULT: -7.045427091      0.000      0.000
REMARK  3 active torsions:
REMARK  status: ('A' for Active; 'I' for Inactive)
REMARK    1  A    between atoms: C5_5  and  N1_6 
REMARK    2  A    between atoms: N1_6  and  C6_8 
REMARK    3  A    between atoms: C6_8  and  C7_9 
ROOT
HETATM    1  C1  UNL     1       4.676   1.504   0.981  1.00  0.00     0.018 C 
HETATM    2  C2  UNL     1       4.122   2.534   0.671  1.00  0.00    -0.076 C 
HETATM    3  C3  UNL     1       3.484   3.765   0.297  1.00  0.00     0.037 A 
HETATM    4  C4  UNL     1       4.156   4.937   0.118  1.00  0.00     0.051 A 
HETATM    5  C5  UNL     1       3.384   6.040  -0.245  1.00  0.00     0.030 A 
HETATM    6  C10 UNL     1       2.038   5.976  -0.417  1.00  0.00     0.044 A 
HETATM    7  C11 UNL     1       1.332   4.775  -0.236  1.00  0.00     0.013 A 
HETATM    8  C12 UNL     1       0.004   4.567  -0.372  1.00  0.00     0.103 A 
HETATM    9  N2  UNL     1      -0.965   5.593  -0.745  1.00  0.00    -0.098 NA
HETATM   10  C13 UNL     1      -0.456   3.299  -0.141  1.00  0.00     0.183 A 
HETATM   11  F1  UNL     1      -1.757   2.847  -0.217  1.00  0.00    -0.196 F 
HETATM   12  S1  UNL     1       0.968   2.438   0.256  1.00  0.00    -0.056 SA
HETATM   13  C14 UNL     1       2.095   3.707   0.118  1.00  0.00     0.038 A 
ENDROOT
BRANCH   5  14
HETATM   14  N1  UNL     1       4.073   7.277  -0.437  1.00  0.00    -0.389 N 
ATOM     15  H1  UNL     1       3.739   7.965  -1.112  1.00  0.00     0.159 HD
BRANCH  14  16
HETATM   16  C6  UNL     1       5.253   7.523   0.353  1.00  0.00     0.124 C 
BRANCH  16  17
HETATM   17  C7  UNL     1       5.038   8.514   1.447  1.00  0.00     0.003 A 
HETATM   18  C8  UNL     1       3.838   9.381   1.470  1.00  0.00     0.007 A 
HETATM   19  C9  UNL     1       3.918   8.187   2.404  1.00  0.00     0.007 A 
ENDBRANCH  16  17
ENDBRANCH  14  16
ENDBRANCH   5  14
TORSDOF 3
ENDMDL
MODEL 2
REMARK VINA RESULT: -7.026968298      2.284      3.881
REMARK  3 active torsions:
REMARK  status: ('A' for Active; 'I' for Inactive)
REMARK    1  A    between atoms: C5_5  and  N1_6 
REMARK    2  A    between atoms: N1_6  and  C6_8 
REMARK    3  A    between atoms: C6_8  and  C7_9 
ROOT
HETATM    1  C1  UNL     1      -1.079   4.892  -1.346  1.00  0.00     0.018 C 
HETATM    2  C2  UNL     1       0.067   4.867  -0.953  1.00  0.00    -0.076 C 
HETATM    3  C3  UNL     1       1.422   4.860  -0.482  1.00  0.00     0.037 A 
HETATM    4  C4  UNL     1       2.156   5.991  -0.281  1.00  0.00     0.051 A 
HETATM    5  C5  UNL     1       3.459   5.806   0.180  1.00  0.00     0.030 A 
HETATM    6  C10 UNL     1       3.991   4.580   0.422  1.00  0.00     0.044 A 
HETATM    7  C11 UNL     1       3.247   3.405   0.219  1.00  0.00     0.013 A 
HETATM    8  C12 UNL     1       3.645   2.129   0.417  1.00  0.00     0.103 A 
HETATM    9  N2  UNL     1       4.966   1.734   0.894  1.00  0.00    -0.098 NA
HETATM   10  C13 UNL     1       2.734   1.143   0.148  1.00  0.00     0.183 A 
HETATM   11  F1  UNL     1       2.907  -0.220   0.272  1.00  0.00    -0.196 F 
HETATM   12  S1  UNL     1       1.359   2.018  -0.371  1.00  0.00    -0.056 SA
HETATM   13  C14 UNL     1       1.978   3.598  -0.230  1.00  0.00     0.038 A 
ENDROOT
BRANCH   5  14
HETATM   14  N1  UNL     1       4.242   6.981   0.396  1.00  0.00    -0.389 N 
ATOM     15  H1  UNL     1       5.047   6.969   1.022  1.00  0.00     0.159 HD
BRANCH  14  16
HETATM   16  C6  UNL     1       3.859   8.185  -0.297  1.00  0.00     0.124 C 
BRANCH  16  17
HETATM   17  C7  UNL     1       4.845   8.612  -1.333  1.00  0.00     0.003 A 
HETATM   18  C8  UNL     1       6.138   7.910  -1.494  1.00  0.00     0.007 A 
HETATM   19  C9  UNL     1       5.021   7.658  -2.489  1.00  0.00     0.007 A 
ENDBRANCH  16  17
ENDBRANCH  14  16
ENDBRANCH   5  14
TORSDOF 3
ENDMDL
MODEL 3
REMARK VINA RESULT: -6.986001611      2.080      3.593
REMARK  3 active torsions:
REMARK  status: ('A' for Active; 'I' for Inactive)
REMARK    1  A    between atoms: C5_5  and  N1_6 
REMARK    2  A    between atoms: N1_6  and  C6_8 
REMARK    3  A    between atoms: C6_8  and  C7_9 
ROOT
HETATM    1  C1  UNL     1      -1.418   3.777  -0.397  1.00  0.00     0.018 C 
HETATM    2  C2  UNL     1      -0.238   4.025  -0.278  1.00  0.00    -0.076 C 
HETATM    3  C3  UNL     1       1.154   4.339  -0.134  1.00  0.00     0.037 A 
HETATM    4  C4  UNL     1       1.657   5.601  -0.253  1.00  0.00     0.051 A 
HETATM    5  C5  UNL     1       3.036   5.733  -0.083  1.00  0.00     0.030 A 
HETATM    6  C10 UNL     1       3.852   4.680   0.184  1.00  0.00     0.044 A 
HETATM    7  C11 UNL     1       3.347   3.375   0.309  1.00  0.00     0.013 A 
HETATM    8  C12 UNL     1       4.037   2.242   0.570  1.00  0.00     0.103 A 
HETATM    9  N2  UNL     1       5.480   2.176   0.777  1.00  0.00    -0.098 NA
HETATM   10  C13 UNL     1       3.321   1.079   0.645  1.00  0.00     0.183 A 
HETATM   11  F1  UNL     1       3.799  -0.190   0.898  1.00  0.00    -0.196 F 
HETATM   12  S1  UNL     1       1.717   1.593   0.349  1.00  0.00    -0.056 SA
HETATM   13  C14 UNL     1       2.003   3.258   0.142  1.00  0.00     0.038 A 
ENDROOT
BRANCH   5  14
HETATM   14  N1  UNL     1       3.579   7.048  -0.204  1.00  0.00    -0.389 N 
ATOM     15  H1  UNL     1       3.044   7.800  -0.636  1.00  0.00     0.159 HD
BRANCH  14  16
HETATM   16  C6  UNL     1       4.908   7.279   0.304  1.00  0.00     0.124 C 
BRANCH  16  17
HETATM   17  C7  UNL     1       4.957   8.295   1.395  1.00  0.00     0.003 A 
HETATM   18  C8  UNL     1       3.935   9.361   1.496  1.00  0.00     0.007 A 
HETATM   19  C9  UNL     1       3.875   8.174   2.439  1.00  0.00     0.007 A 
ENDBRANCH  16  17
ENDBRANCH  14  16
ENDBRANCH   5  14
TORSDOF 3
ENDMDL
MODEL 4
REMARK VINA RESULT: -6.906349211      0.784      1.247
REMARK  3 active torsions:
REMARK  status: ('A' for Active; 'I' for Inactive)
REMARK    1  A    between atoms: C5_5  and  N1_6 
REMARK    2  A    between atoms: N1_6  and  C6_8 
REMARK    3  A    between atoms: C6_8  and  C7_9 
ROOT
HETATM    1  C1  UNL     1       4.988   1.811   0.756  1.00  0.00     0.018 C 
HETATM    2  C2  UNL     1       4.347   2.819   0.551  1.00  0.00    -0.076 C 
HETATM    3  C3  UNL     1       3.607   4.023   0.303  1.00  0.00     0.037 A 
HETATM    4  C4  UNL     1       4.178   5.259   0.244  1.00  0.00     0.051 A 
HETATM    5  C5  UNL     1       3.315   6.326  -0.007  1.00  0.00     0.030 A 
HETATM    6  C10 UNL     1       1.977   6.167  -0.184  1.00  0.00     0.044 A 
HETATM    7  C11 UNL     1       1.375   4.899  -0.127  1.00  0.00     0.013 A 
HETATM    8  C12 UNL     1       0.067   4.596  -0.283  1.00  0.00     0.103 A 
HETATM    9  N2  UNL     1      -0.986   5.570  -0.551  1.00  0.00    -0.098 NA
HETATM   10  C13 UNL     1      -0.284   3.278  -0.183  1.00  0.00     0.183 A 
HETATM   11  F1  UNL     1      -1.544   2.729  -0.305  1.00  0.00    -0.196 F 
HETATM   12  S1  UNL     1       1.209   2.503   0.127  1.00  0.00    -0.056 SA
HETATM   13  C14 UNL     1       2.226   3.868   0.118  1.00  0.00     0.038 A 
ENDROOT
BRANCH   5  14
HETATM   14  N1  UNL     1       3.897   7.628  -0.072  1.00  0.00    -0.389 N 
ATOM     15  H1  UNL     1       3.886   8.166  -0.938  1.00  0.00     0.159 HD
BRANCH  14  16
HETATM   16  C6  UNL     1       4.501   8.159   1.125  1.00  0.00     0.124 C 
BRANCH  16  17
HETATM   17  C7  UNL     1       5.898   8.640   0.919  1.00  0.00     0.003 A 
HETATM   18  C8  UNL     1       6.528   8.617  -0.419  1.00  0.00     0.007 A 
HETATM   19  C9  UNL     1       6.029   9.932   0.151  1.00  0.00     0.007 A 
ENDBRANCH  16  17
ENDBRANCH  14  16
ENDBRANCH   5  14
TORSDOF 3
ENDMDL
MODEL 5
REMARK VINA RESULT: -6.895599767      1.160      1.658
REMARK  3 active torsions:
REMARK  status: ('A' for Active; 'I' for Inactive)
REMARK    1  A    between atoms: C5_5  and  N1_6 
REMARK    2  A    between atoms: N1_6  and  C6_8 
REMARK    3  A    between atoms: C6_8  and  C7_9 
ROOT
HETATM    1  C1  UNL     1       4.910   1.585   1.184  1.00  0.00     0.018 C 
HETATM    2  C2  UNL     1       4.202   2.514   0.863  1.00  0.00    -0.076 C 
HETATM    3  C3  UNL     1       3.382   3.628   0.483  1.00  0.00     0.037 A 
HETATM    4  C4  UNL     1       3.795   4.925   0.549  1.00  0.00     0.051 A 
HETATM    5  C5  UNL     1       2.872   5.888   0.140  1.00  0.00     0.030 A 
HETATM    6  C10 UNL     1       1.626   5.576  -0.301  1.00  0.00     0.044 A 
HETATM    7  C11 UNL     1       1.186   4.244  -0.376  1.00  0.00     0.013 A 
HETATM    8  C12 UNL     1      -0.017   3.791  -0.792  1.00  0.00     0.103 A 
HETATM    9  N2  UNL     1      -1.110   4.640  -1.257  1.00  0.00    -0.098 NA
HETATM   10  C13 UNL     1      -0.214   2.437  -0.775  1.00  0.00     0.183 A 
HETATM   11  F1  UNL     1      -1.348   1.746  -1.150  1.00  0.00    -0.196 F 
HETATM   12  S1  UNL     1       1.273   1.838  -0.180  1.00  0.00    -0.056 SA
HETATM   13  C14 UNL     1       2.094   3.315   0.025  1.00  0.00     0.038 A 
ENDROOT
BRANCH   5  14
HETATM   14  N1  UNL     1       3.289   7.252   0.204  1.00  0.00    -0.389 N 
ATOM     15  H1  UNL     1       2.615   8.012   0.119  1.00  0.00     0.159 HD
BRANCH  14  16
HETATM   16  C6  UNL     1       4.693   7.522   0.389  1.00  0.00     0.124 C 
BRANCH  16  17
HETATM   17  C7  UNL     1       5.323   8.211  -0.775  1.00  0.00     0.003 A 
HETATM   18  C8  UNL     1       5.142   7.706  -2.154  1.00  0.00     0.007 A 
HETATM   19  C9  UNL     1       4.367   8.928  -1.695  1.00  0.00     0.007 A 
ENDBRANCH  16  17
ENDBRANCH  14  16
ENDBRANCH   5  14
TORSDOF 3
ENDMDL
