MODEL 1
REMARK VINA RESULT: -7.160661186      0.000      0.000
REMARK  4 active torsions:
REMARK  status: ('A' for Active; 'I' for Inactive)
REMARK    1  A    between atoms: O1_1  and  C1_3 
REMARK    2  A    between atoms: C1_3  and  N1_4 
REMARK    3  A    between atoms: C1_3  and  C10_14 
REMARK    4  A    between atoms: N1_4  and  C2_6 
ROOT
HETATM    1  N1  UNL     1       3.817   6.760   0.784  1.00  0.00    -0.388 N 
ATOM      2  H1  UNL     1       4.310   6.618   1.666  1.00  0.00     0.156 HD
ENDROOT
BRANCH   1   3
HETATM    3  C1  UNL     1       3.914   7.988   0.088  1.00  0.00     0.252 C 
BRANCH   3   4
HETATM    4  O1  UNL     1       3.486   9.136   0.660  1.00  0.00    -0.373 OA
ATOM      5  H1  UNL     1       2.796   9.648   0.256  1.00  0.00     0.212 HD
ENDBRANCH   3   4
BRANCH   3   6
HETATM    6  C10 UNL     1       5.264   8.143  -0.559  1.00  0.00     0.037 A 
HETATM    7  C11 UNL     1       6.282   8.957  -0.133  1.00  0.00     0.040 A 
HETATM    8  C12 UNL     1       7.336   8.830  -1.001  1.00  0.00     0.144 A 
HETATM    9  O2  UNL     1       6.984   7.983  -1.912  1.00  0.00    -0.310 OA
HETATM   10  C13 UNL     1       5.741   7.536  -1.694  1.00  0.00     0.154 A 
HETATM   11 CL1  UNL     1       4.981   6.390  -2.739  1.00  0.00    -0.056 Cl
ENDBRANCH   3   6
ENDBRANCH   1   3
BRANCH   1  12
HETATM   12  C2  UNL     1       3.034   5.752   0.238  1.00  0.00     0.089 C 
HETATM   13  C3  UNL     1       1.598   5.876   0.438  1.00  0.00     0.026 C 
HETATM   14  C4  UNL     1       0.577   5.278  -0.512  1.00  0.00     0.002 C 
HETATM   15  C5  UNL     1       0.110   3.898  -0.101  1.00  0.00     0.001 C 
HETATM   16  C6  UNL     1       0.689   2.674  -0.679  1.00  0.00     0.011 C 
HETATM   17  C7  UNL     1       2.073   2.228  -0.116  1.00  0.00     0.080 C 
HETATM   18  C8  UNL     1       2.746   3.431   0.150  1.00  0.00    -0.181 C 
HETATM   19  C9  UNL     1       3.676   4.365   0.629  1.00  0.00     0.104 C 
ENDBRANCH   1  12
TORSDOF 4
ENDMDL
MODEL 2
REMARK VINA RESULT: -7.159679893      2.056      3.260
REMARK  4 active torsions:
REMARK  status: ('A' for Active; 'I' for Inactive)
REMARK    1  A    between atoms: O1_1  and  C1_3 
REMARK    2  A    between atoms: C1_3  and  N1_4 
REMARK    3  A    between atoms: C1_3  and  C10_14 
REMARK    4  A    between atoms: N1_4  and  C2_6 
ROOT
HETATM    1  N1  UNL     1       3.461   6.647  -0.782  1.00  0.00    -0.388 N 
ATOM      2  H1  UNL     1       2.877   7.058  -1.511  1.00  0.00     0.156 HD
ENDROOT
BRANCH   1   3
HETATM    3  C1  UNL     1       4.609   7.322  -0.304  1.00  0.00     0.252 C 
BRANCH   3   4
HETATM    4  O1  UNL     1       5.688   7.489  -1.102  1.00  0.00    -0.373 OA
ATOM      5  H1  UNL     1       6.471   6.969  -0.968  1.00  0.00     0.212 HD
ENDBRANCH   3   4
BRANCH   3   6
HETATM    6  C10 UNL     1       4.235   8.587   0.420  1.00  0.00     0.037 A 
HETATM    7  C11 UNL     1       4.472   9.869  -0.005  1.00  0.00     0.040 A 
HETATM    8  C12 UNL     1       4.000  10.739   0.944  1.00  0.00     0.144 A 
HETATM    9  O2  UNL     1       3.499  10.030   1.902  1.00  0.00    -0.310 OA
HETATM   10  C13 UNL     1       3.614   8.722   1.637  1.00  0.00     0.154 A 
HETATM   11 CL1  UNL     1       3.039   7.511   2.726  1.00  0.00    -0.056 Cl
ENDBRANCH   3   6
ENDBRANCH   1   3
BRANCH   1  12
HETATM   12  C2  UNL     1       3.149   5.409  -0.235  1.00  0.00     0.089 C 
HETATM   13  C3  UNL     1       4.135   4.357  -0.425  1.00  0.00     0.026 C 
HETATM   14  C4  UNL     1       4.288   3.186   0.529  1.00  0.00     0.002 C 
HETATM   15  C5  UNL     1       3.495   1.966   0.115  1.00  0.00     0.001 C 
HETATM   16  C6  UNL     1       2.171   1.665   0.682  1.00  0.00     0.011 C 
HETATM   17  C7  UNL     1       0.969   2.477   0.107  1.00  0.00     0.080 C 
HETATM   18  C8  UNL     1       1.501   3.748  -0.158  1.00  0.00    -0.181 C 
HETATM   19  C9  UNL     1       1.665   5.056  -0.638  1.00  0.00     0.104 C 
ENDBRANCH   1  12
TORSDOF 4
ENDMDL
MODEL 3
REMARK VINA RESULT: -7.150771284      0.602      1.653
REMARK  4 active torsions:
REMARK  status: ('A' for Active; 'I' for Inactive)
REMARK    1  A    between atoms: O1_1  and  C1_3 
REMARK    2  A    between atoms: C1_3  and  N1_4 
REMARK    3  A    between atoms: C1_3  and  C10_14 
REMARK    4  A    between atoms: N1_4  and  C2_6 
ROOT
HETATM    1  N1  UNL     1       3.890   7.134   1.093  1.00  0.00    -0.388 N 
ATOM      2  H1  UNL     1       4.441   7.232   1.946  1.00  0.00     0.156 HD
ENDROOT
BRANCH   1   3
HETATM    3  C1  UNL     1       3.910   8.140   0.097  1.00  0.00     0.252 C 
BRANCH   3   4
HETATM    4  O1  UNL     1       3.381   9.360   0.345  1.00  0.00    -0.373 OA
ATOM      5  H1  UNL     1       3.770   9.930   0.998  1.00  0.00     0.212 HD
ENDBRANCH   3   4
BRANCH   3   6
HETATM    6  C10 UNL     1       5.260   8.228  -0.562  1.00  0.00     0.037 A 
HETATM    7  C11 UNL     1       6.291   9.057  -0.200  1.00  0.00     0.040 A 
HETATM    8  C12 UNL     1       7.339   8.852  -1.060  1.00  0.00     0.144 A 
HETATM    9  O2  UNL     1       6.973   7.944  -1.904  1.00  0.00    -0.310 OA
HETATM   10  C13 UNL     1       5.725   7.532  -1.650  1.00  0.00     0.154 A 
HETATM   11 CL1  UNL     1       4.945   6.323  -2.605  1.00  0.00    -0.056 Cl
ENDBRANCH   3   6
ENDBRANCH   1   3
BRANCH   1  12
HETATM   12  C2  UNL     1       3.103   6.011   0.879  1.00  0.00     0.089 C 
HETATM   13  C3  UNL     1       3.806   4.740   0.795  1.00  0.00     0.026 C 
HETATM   14  C4  UNL     1       3.161   3.414   1.152  1.00  0.00     0.002 C 
HETATM   15  C5  UNL     1       2.557   2.700  -0.038  1.00  0.00     0.001 C 
HETATM   16  C6  UNL     1       1.123   2.791  -0.358  1.00  0.00     0.011 C 
HETATM   17  C7  UNL     1       0.652   4.097  -1.070  1.00  0.00     0.080 C 
HETATM   18  C8  UNL     1       1.456   5.106  -0.516  1.00  0.00    -0.181 C 
HETATM   19  C9  UNL     1       2.099   6.332  -0.295  1.00  0.00     0.104 C 
ENDBRANCH   1  12
TORSDOF 4
ENDMDL
MODEL 4
REMARK VINA RESULT: -7.133114896      2.165      2.988
REMARK  4 active torsions:
REMARK  status: ('A' for Active; 'I' for Inactive)
REMARK    1  A    between atoms: O1_1  and  C1_3 
REMARK    2  A    between atoms: C1_3  and  N1_4 
REMARK    3  A    between atoms: C1_3  and  C10_14 
REMARK    4  A    between atoms: N1_4  and  C2_6 
ROOT
HETATM    1  N1  UNL     1       2.819   6.742  -0.652  1.00  0.00    -0.388 N 
ATOM      2  H1  UNL     1       1.935   7.238  -0.769  1.00  0.00     0.156 HD
ENDROOT
BRANCH   1   3
HETATM    3  C1  UNL     1       4.042   7.448  -0.562  1.00  0.00     0.252 C 
BRANCH   3   4
HETATM    4  O1  UNL     1       4.792   7.664  -1.667  1.00  0.00    -0.373 OA
ATOM      5  H1  UNL     1       5.264   8.480  -1.776  1.00  0.00     0.212 HD
ENDBRANCH   3   4
BRANCH   3   6
HETATM    6  C10 UNL     1       3.895   8.688   0.277  1.00  0.00     0.037 A 
HETATM    7  C11 UNL     1       4.123   9.978  -0.130  1.00  0.00     0.040 A 
HETATM    8  C12 UNL     1       3.900  10.817   0.931  1.00  0.00     0.144 A 
HETATM    9  O2  UNL     1       3.551  10.083   1.937  1.00  0.00    -0.310 OA
HETATM   10  C13 UNL     1       3.531   8.788   1.597  1.00  0.00     0.154 A 
HETATM   11 CL1  UNL     1       3.105   7.550   2.723  1.00  0.00    -0.056 Cl
ENDBRANCH   3   6
ENDBRANCH   1   3
BRANCH   1  12
HETATM   12  C2  UNL     1       2.851   5.356  -0.578  1.00  0.00     0.089 C 
HETATM   13  C3  UNL     1       1.620   4.707  -0.156  1.00  0.00     0.026 C 
HETATM   14  C4  UNL     1       1.253   3.290  -0.558  1.00  0.00     0.002 C 
HETATM   15  C5  UNL     1       1.677   2.249   0.455  1.00  0.00     0.001 C 
HETATM   16  C6  UNL     1       2.923   1.480   0.309  1.00  0.00     0.011 C 
HETATM   17  C7  UNL     1       4.241   2.213   0.708  1.00  0.00     0.080 C 
HETATM   18  C8  UNL     1       4.027   3.547   0.329  1.00  0.00    -0.181 C 
HETATM   19  C9  UNL     1       4.162   4.937   0.194  1.00  0.00     0.104 C 
ENDBRANCH   1  12
TORSDOF 4
ENDMDL
MODEL 5
REMARK VINA RESULT: -7.008891830      2.324      5.771
REMARK  4 active torsions:
REMARK  status: ('A' for Active; 'I' for Inactive)
REMARK    1  A    between atoms: O1_1  and  C1_3 
REMARK    2  A    between atoms: C1_3  and  N1_4 
REMARK    3  A    between atoms: C1_3  and  C10_14 
REMARK    4  A    between atoms: N1_4  and  C2_6 
ROOT
HETATM    1  N1  UNL     1       3.080   6.559   1.677  1.00  0.00    -0.388 N 
ATOM      2  H1  UNL     1       3.076   6.523   2.696  1.00  0.00     0.156 HD
ENDROOT
BRANCH   1   3
HETATM    3  C1  UNL     1       2.340   5.625   0.914  1.00  0.00     0.252 C 
BRANCH   3   4
HETATM    4  O1  UNL     1       1.637   6.027  -0.170  1.00  0.00    -0.373 OA
ATOM      5  H1  UNL     1       1.612   5.492  -0.953  1.00  0.00     0.212 HD
ENDBRANCH   3   4
BRANCH   3   6
HETATM    6  C10 UNL     1       3.148   4.385   0.639  1.00  0.00     0.037 A 
HETATM    7  C11 UNL     1       3.263   3.290   1.458  1.00  0.00     0.040 A 
HETATM    8  C12 UNL     1       4.103   2.385   0.862  1.00  0.00     0.144 A 
HETATM    9  O2  UNL     1       4.483   2.895  -0.264  1.00  0.00    -0.310 OA
HETATM   10  C13 UNL     1       3.935   4.103  -0.449  1.00  0.00     0.154 A 
HETATM   11 CL1  UNL     1       4.249   5.046  -1.861  1.00  0.00    -0.056 Cl
ENDBRANCH   3   6
ENDBRANCH   1   3
BRANCH   1  12
HETATM   12  C2  UNL     1       3.811   7.528   1.002  1.00  0.00     0.089 C 
HETATM   13  C3  UNL     1       5.220   7.235   0.788  1.00  0.00     0.026 C 
HETATM   14  C4  UNL     1       6.018   7.813  -0.366  1.00  0.00     0.002 C 
HETATM   15  C5  UNL     1       6.750   9.089  -0.010  1.00  0.00     0.001 C 
HETATM   16  C6  UNL     1       6.201  10.418  -0.322  1.00  0.00     0.011 C 
HETATM   17  C7  UNL     1       5.086  10.949   0.631  1.00  0.00     0.080 C 
HETATM   18  C8  UNL     1       4.361   9.803   0.993  1.00  0.00    -0.181 C 
HETATM   19  C9  UNL     1       3.480   8.929   1.647  1.00  0.00     0.104 C 
ENDBRANCH   1  12
TORSDOF 4
ENDMDL
