MODEL 1
REMARK VINA RESULT: -6.551037511      0.000      0.000
REMARK  4 active torsions:
REMARK  status: ('A' for Active; 'I' for Inactive)
REMARK    1  A    between atoms: C2_2  and  C3_3 
REMARK    2  A    between atoms: C2_2  and  C8_12 
REMARK    3  A    between atoms: C4_4  and  C5_5 
REMARK    4  A    between atoms: C7_9  and  O2_10 
ROOT
HETATM    1  C1  UNL     1       4.466   5.603  -2.200  1.00  0.00     0.017 C 
HETATM    2  C2  UNL     1       4.549   5.481  -0.662  1.00  0.00     0.050 C 
ENDROOT
BRANCH   2   3
HETATM    3  C3  UNL     1       3.495   4.578  -0.183  1.00  0.00     0.015 A 
HETATM    4  C4  UNL     1       3.640   3.305   0.314  1.00  0.00    -0.011 A 
HETATM    5  C6  UNL     1       2.381   2.850   0.658  1.00  0.00     0.153 A 
HETATM    6  O1  UNL     1       1.553   3.804   0.376  1.00  0.00    -0.299 OA
HETATM    7  C7  UNL     1       2.159   4.852  -0.125  1.00  0.00     0.190 A 
BRANCH   4   8
HETATM    8  C5  UNL     1       4.865   2.483   0.474  1.00  0.00     0.155 C 
HETATM    9 CL1  UNL     1       4.731   1.453   1.925  1.00  0.00    -0.125 Cl
ENDBRANCH   4   8
BRANCH   7  10
HETATM   10  O2  UNL     1       1.444   5.987  -0.494  1.00  0.00    -0.340 OA
ATOM     11  H2  UNL     1       1.274   6.794  -0.024  1.00  0.00     0.220 HD
ENDBRANCH   7  10
ENDBRANCH   2   3
BRANCH   2  12
HETATM   12  C8  UNL     1       4.471   6.871  -0.062  1.00  0.00     0.194 C 
HETATM   13  C9  UNL     1       5.842   7.202   0.513  1.00  0.00     0.034 C 
HETATM   14  C10 UNL     1       5.713   8.521   1.240  1.00  0.00     0.002 C 
HETATM   15  C11 UNL     1       5.766   9.696   0.279  1.00  0.00     0.002 C 
HETATM   16  C12 UNL     1       4.364  10.146  -0.087  1.00  0.00     0.027 C 
HETATM   17  C13 UNL     1       3.459   8.984  -0.394  1.00  0.00     0.232 C 
HETATM   18  N1  UNL     1       4.157   7.884  -1.018  1.00  0.00    -0.070 N 
ATOM     19  H12 UNL     1       4.988   8.201  -1.517  1.00  0.00     0.277 HD
ATOM     20  H11 UNL     1       3.635   7.507  -1.809  1.00  0.00     0.277 HD
ENDBRANCH   2  12
TORSDOF 4
ENDMDL
MODEL 2
REMARK VINA RESULT: -6.542424104      2.470      3.413
REMARK  4 active torsions:
REMARK  status: ('A' for Active; 'I' for Inactive)
REMARK    1  A    between atoms: C2_2  and  C3_3 
REMARK    2  A    between atoms: C2_2  and  C8_12 
REMARK    3  A    between atoms: C4_4  and  C5_5 
REMARK    4  A    between atoms: C7_9  and  O2_10 
ROOT
HETATM    1  C1  UNL     1       2.656   6.728   2.203  1.00  0.00     0.017 C 
HETATM    2  C2  UNL     1       2.500   6.719   0.666  1.00  0.00     0.050 C 
ENDROOT
BRANCH   2   3
HETATM    3  C3  UNL     1       2.250   5.348   0.205  1.00  0.00     0.015 A 
HETATM    4  C4  UNL     1       1.073   4.822  -0.270  1.00  0.00    -0.011 A 
HETATM    5  C6  UNL     1       1.314   3.503  -0.603  1.00  0.00     0.153 A 
HETATM    6  O1  UNL     1       2.560   3.275  -0.336  1.00  0.00    -0.299 OA
HETATM    7  C7  UNL     1       3.162   4.334   0.145  1.00  0.00     0.190 A 
BRANCH   4   8
HETATM    8  C5  UNL     1      -0.259   5.460  -0.419  1.00  0.00     0.155 C 
HETATM    9 CL1  UNL     1      -1.063   4.870  -1.899  1.00  0.00    -0.125 Cl
ENDBRANCH   4   8
BRANCH   7  10
HETATM   10  O2  UNL     1       4.508   4.298   0.497  1.00  0.00    -0.340 OA
ATOM     11  H2  UNL     1       4.939   3.962   1.274  1.00  0.00     0.220 HD
ENDBRANCH   7  10
ENDBRANCH   2   3
BRANCH   2  12
HETATM   12  C8  UNL     1       3.736   7.345   0.051  1.00  0.00     0.194 C 
HETATM   13  C9  UNL     1       3.335   8.705  -0.505  1.00  0.00     0.034 C 
HETATM   14  C10 UNL     1       4.532   9.254  -1.247  1.00  0.00     0.002 C 
HETATM   15  C11 UNL     1       5.541   9.874  -0.298  1.00  0.00     0.002 C 
HETATM   16  C12 UNL     1       6.634   8.877   0.042  1.00  0.00     0.027 C 
HETATM   17  C13 UNL     1       6.078   7.512   0.346  1.00  0.00     0.232 C 
HETATM   18  N1  UNL     1       4.787   7.568   0.992  1.00  0.00    -0.070 N 
ATOM     19  H12 UNL     1       4.659   8.442   1.501  1.00  0.00     0.277 HD
ATOM     20  H11 UNL     1       4.732   6.920   1.778  1.00  0.00     0.277 HD
ENDBRANCH   2  12
TORSDOF 4
ENDMDL
MODEL 3
REMARK VINA RESULT: -6.478615638      3.237      5.646
REMARK  4 active torsions:
REMARK  status: ('A' for Active; 'I' for Inactive)
REMARK    1  A    between atoms: C2_2  and  C3_3 
REMARK    2  A    between atoms: C2_2  and  C8_12 
REMARK    3  A    between atoms: C4_4  and  C5_5 
REMARK    4  A    between atoms: C7_9  and  O2_10 
ROOT
HETATM    1  C1  UNL     1       3.515   7.997   2.722  1.00  0.00     0.017 C 
HETATM    2  C2  UNL     1       4.389   7.777   1.468  1.00  0.00     0.050 C 
ENDROOT
BRANCH   2   3
HETATM    3  C3  UNL     1       4.842   9.074   0.949  1.00  0.00     0.015 A 
HETATM    4  C4  UNL     1       6.058   9.376   0.386  1.00  0.00    -0.011 A 
HETATM    5  C6  UNL     1       6.027  10.710   0.027  1.00  0.00     0.153 A 
HETATM    6  O1  UNL     1       4.859  11.157   0.363  1.00  0.00    -0.299 OA
HETATM    7  C7  UNL     1       4.116  10.229   0.914  1.00  0.00     0.190 A 
BRANCH   4   8
HETATM    8  C5  UNL     1       7.247   8.513   0.176  1.00  0.00     0.155 C 
HETATM    9 CL1  UNL     1       7.540   8.282  -1.569  1.00  0.00    -0.125 Cl
ENDBRANCH   4   8
BRANCH   7  10
HETATM   10  O2  UNL     1       2.823  10.507   1.346  1.00  0.00    -0.340 OA
ATOM     11  H2  UNL     1       2.378  10.287   2.156  1.00  0.00     0.220 HD
ENDBRANCH   7  10
ENDBRANCH   2   3
BRANCH   2  12
HETATM   12  C8  UNL     1       3.595   6.969   0.460  1.00  0.00     0.194 C 
HETATM   13  C9  UNL     1       4.572   6.058  -0.272  1.00  0.00     0.034 C 
HETATM   14  C10 UNL     1       3.799   5.370  -1.374  1.00  0.00     0.002 C 
HETATM   15  C11 UNL     1       3.004   4.190  -0.845  1.00  0.00     0.002 C 
HETATM   16  C12 UNL     1       1.571   4.601  -0.558  1.00  0.00     0.027 C 
HETATM   17  C13 UNL     1       1.496   5.922   0.159  1.00  0.00     0.232 C 
HETATM   18  N1  UNL     1       2.605   6.132   1.059  1.00  0.00    -0.070 N 
ATOM     19  H12 UNL     1       3.002   5.248   1.379  1.00  0.00     0.277 HD
ATOM     20  H11 UNL     1       2.296   6.499   1.959  1.00  0.00     0.277 HD
ENDBRANCH   2  12
TORSDOF 4
ENDMDL
MODEL 4
REMARK VINA RESULT: -6.389138835      3.690      5.898
REMARK  4 active torsions:
REMARK  status: ('A' for Active; 'I' for Inactive)
REMARK    1  A    between atoms: C2_2  and  C3_3 
REMARK    2  A    between atoms: C2_2  and  C8_12 
REMARK    3  A    between atoms: C4_4  and  C5_5 
REMARK    4  A    between atoms: C7_9  and  O2_10 
ROOT
HETATM    1  C1  UNL     1       5.111   6.885  -2.640  1.00  0.00     0.017 C 
HETATM    2  C2  UNL     1       4.416   7.425  -1.371  1.00  0.00     0.050 C 
ENDROOT
BRANCH   2   3
HETATM    3  C3  UNL     1       5.242   8.477  -0.767  1.00  0.00     0.015 A 
HETATM    4  C4  UNL     1       4.852   9.437   0.136  1.00  0.00    -0.011 A 
HETATM    5  C6  UNL     1       5.968  10.195   0.439  1.00  0.00     0.153 A 
HETATM    6  O1  UNL     1       6.948   9.704  -0.249  1.00  0.00    -0.299 OA
HETATM    7  C7  UNL     1       6.574   8.684  -0.981  1.00  0.00     0.190 A 
BRANCH   4   8
HETATM    8  C5  UNL     1       3.515   9.703   0.720  1.00  0.00     0.155 C 
HETATM    9 CL1  UNL     1       3.205  11.459   0.780  1.00  0.00    -0.125 Cl
ENDBRANCH   4   8
BRANCH   7  10
HETATM   10  O2  UNL     1       7.481   8.014  -1.796  1.00  0.00    -0.340 OA
ATOM     11  H2  UNL     1       8.097   8.341  -2.441  1.00  0.00     0.220 HD
ENDBRANCH   7  10
ENDBRANCH   2   3
BRANCH   2  12
HETATM   12  C8  UNL     1       4.144   6.262  -0.437  1.00  0.00     0.194 C 
HETATM   13  C9  UNL     1       2.737   6.438   0.119  1.00  0.00     0.034 C 
HETATM   14  C10 UNL     1       2.532   5.361   1.161  1.00  0.00     0.002 C 
HETATM   15  C11 UNL     1       2.178   4.029   0.525  1.00  0.00     0.002 C 
HETATM   16  C12 UNL     1       3.418   3.169   0.368  1.00  0.00     0.027 C 
HETATM   17  C13 UNL     1       4.585   3.953  -0.167  1.00  0.00     0.232 C 
HETATM   18  N1  UNL     1       4.184   4.991  -1.088  1.00  0.00    -0.070 N 
ATOM     19  H12 UNL     1       3.297   4.771  -1.540  1.00  0.00     0.277 HD
ATOM     20  H11 UNL     1       4.780   5.010  -1.916  1.00  0.00     0.277 HD
ENDBRANCH   2  12
TORSDOF 4
ENDMDL
MODEL 5
REMARK VINA RESULT: -6.255661322      2.988      5.709
REMARK  4 active torsions:
REMARK  status: ('A' for Active; 'I' for Inactive)
REMARK    1  A    between atoms: C2_2  and  C3_3 
REMARK    2  A    between atoms: C2_2  and  C8_12 
REMARK    3  A    between atoms: C4_4  and  C5_5 
REMARK    4  A    between atoms: C7_9  and  O2_10 
ROOT
HETATM    1  C1  UNL     1       4.544   6.177  -1.100  1.00  0.00     0.017 C 
HETATM    2  C2  UNL     1       3.186   6.527  -0.452  1.00  0.00     0.050 C 
ENDROOT
BRANCH   2   3
HETATM    3  C3  UNL     1       3.377   7.579   0.553  1.00  0.00     0.015 A 
HETATM    4  C4  UNL     1       3.910   8.832   0.368  1.00  0.00    -0.011 A 
HETATM    5  C6  UNL     1       3.872   9.482   1.587  1.00  0.00     0.153 A 
HETATM    6  O1  UNL     1       3.348   8.652   2.433  1.00  0.00    -0.299 OA
HETATM    7  C7  UNL     1       3.036   7.510   1.873  1.00  0.00     0.190 A 
BRANCH   4   8
HETATM    8  C5  UNL     1       4.462   9.456  -0.860  1.00  0.00     0.155 C 
HETATM    9 CL1  UNL     1       6.146   9.978  -0.582  1.00  0.00    -0.125 Cl
ENDBRANCH   4   8
BRANCH   7  10
HETATM   10  O2  UNL     1       2.460   6.481   2.612  1.00  0.00    -0.340 OA
ATOM     11  H2  UNL     1       2.299   6.401   3.545  1.00  0.00     0.220 HD
ENDBRANCH   7  10
ENDBRANCH   2   3
BRANCH   2  12
HETATM   12  C8  UNL     1       2.579   5.258   0.112  1.00  0.00     0.194 C 
HETATM   13  C9  UNL     1       1.417   4.862  -0.790  1.00  0.00     0.034 C 
HETATM   14  C10 UNL     1       0.726   3.687  -0.138  1.00  0.00     0.002 C 
HETATM   15  C11 UNL     1       1.458   2.386  -0.411  1.00  0.00     0.002 C 
HETATM   16  C12 UNL     1       2.387   2.047   0.741  1.00  0.00     0.027 C 
HETATM   17  C13 UNL     1       3.164   3.246   1.211  1.00  0.00     0.232 C 
HETATM   18  N1  UNL     1       3.487   4.156   0.137  1.00  0.00    -0.070 N 
ATOM     19  H12 UNL     1       3.525   3.678  -0.763  1.00  0.00     0.277 HD
ATOM     20  H11 UNL     1       4.457   4.469   0.188  1.00  0.00     0.277 HD
ENDBRANCH   2  12
TORSDOF 4
ENDMDL
