MODEL 1
REMARK VINA RESULT: -5.567209795      0.000      0.000
REMARK  4 active torsions:
REMARK  status: ('A' for Active; 'I' for Inactive)
REMARK    1  A    between atoms: C2_2  and  C3_3 
REMARK    2  A    between atoms: C3_3  and  N1_5 
REMARK    3  A    between atoms: N1_5  and  C5_7 
REMARK    4  A    between atoms: C7_12  and  C8_13 
ROOT
HETATM    1  C5  UNL     1       2.986   5.198  -0.178  1.00  0.00     0.146 A 
HETATM    2  N2  UNL     1       2.902   5.946   0.935  1.00  0.00    -0.326 N 
ATOM      3  H2  UNL     1       2.293   5.669   1.705  1.00  0.00     0.169 HD
HETATM    4  C6  UNL     1       3.614   7.029   1.007  1.00  0.00     0.124 A 
HETATM    5 CL1  UNL     1       3.604   8.123   2.427  1.00  0.00    -0.063 Cl
HETATM    6  C7  UNL     1       4.413   7.352  -0.055  1.00  0.00     0.067 A 
HETATM    7  S2  UNL     1       4.104   6.067  -1.129  1.00  0.00    -0.050 SA
ENDROOT
BRANCH   1   8
HETATM    8  N1  UNL     1       2.336   4.081  -0.406  1.00  0.00    -0.366 N 
ATOM      9  H1  UNL     1       2.908   3.255  -0.581  1.00  0.00     0.162 HD
BRANCH   8  10
HETATM   10  C3  UNL     1       0.950   3.889  -0.439  1.00  0.00     0.079 C 
HETATM   11  C4  UNL     1       0.526   2.429  -0.370  1.00  0.00     0.032 C 
BRANCH  10  12
HETATM   12  C2  UNL     1       0.176   4.547  -1.538  1.00  0.00     0.020 C 
HETATM   13  C1  UNL     1      -0.705   5.601  -0.835  1.00  0.00     0.007 C 
ENDBRANCH  10  12
ENDBRANCH   8  10
ENDBRANCH   1   8
BRANCH   6  14
HETATM   14  C8  UNL     1       5.314   8.507  -0.240  1.00  0.00     0.058 A 
HETATM   15  C9  UNL     1       5.179   9.873  -0.176  1.00  0.00     0.117 A 
HETATM   16  N3  UNL     1       6.450  10.241  -0.466  1.00  0.00    -0.335 N 
HETATM   17  S1  UNL     1       6.963   8.644  -0.626  1.00  0.00    -0.012 SA
ATOM     18  H3  UNL     1       6.919  11.143  -0.554  1.00  0.00     0.173 HD
ENDBRANCH   6  14
TORSDOF 4
ENDMDL
MODEL 2
REMARK VINA RESULT: -5.553112033      2.431      3.028
REMARK  4 active torsions:
REMARK  status: ('A' for Active; 'I' for Inactive)
REMARK    1  A    between atoms: C2_2  and  C3_3 
REMARK    2  A    between atoms: C3_3  and  N1_5 
REMARK    3  A    between atoms: N1_5  and  C5_7 
REMARK    4  A    between atoms: C7_12  and  C8_13 
ROOT
HETATM    1  C5  UNL     1       2.969   5.372   0.308  1.00  0.00     0.146 A 
HETATM    2  N2  UNL     1       3.648   5.604  -0.827  1.00  0.00    -0.326 N 
ATOM      3  H2  UNL     1       3.667   4.911  -1.575  1.00  0.00     0.169 HD
HETATM    4  C6  UNL     1       4.281   6.731  -0.949  1.00  0.00     0.124 A 
HETATM    5 CL1  UNL     1       5.228   7.179  -2.403  1.00  0.00    -0.063 Cl
HETATM    6  C7  UNL     1       4.221   7.624   0.087  1.00  0.00     0.067 A 
HETATM    7  S2  UNL     1       3.245   6.794   1.208  1.00  0.00    -0.050 SA
ENDROOT
BRANCH   1   8
HETATM    8  N1  UNL     1       2.281   4.288   0.586  1.00  0.00    -0.366 N 
ATOM      9  H1  UNL     1       1.327   4.433   0.916  1.00  0.00     0.162 HD
BRANCH   8  10
HETATM   10  C3  UNL     1       2.702   2.958   0.483  1.00  0.00     0.079 C 
HETATM   11  C4  UNL     1       1.562   1.957   0.358  1.00  0.00     0.032 C 
BRANCH  10  12
HETATM   12  C2  UNL     1       3.662   2.444   1.509  1.00  0.00     0.020 C 
HETATM   13  C1  UNL     1       4.980   2.208   0.744  1.00  0.00     0.007 C 
ENDBRANCH  10  12
ENDBRANCH   8  10
ENDBRANCH   1   8
BRANCH   6  14
HETATM   14  C8  UNL     1       4.835   8.960   0.216  1.00  0.00     0.058 A 
HETATM   15  C9  UNL     1       6.111   9.463   0.127  1.00  0.00     0.117 A 
HETATM   16  N3  UNL     1       5.857  10.772   0.366  1.00  0.00    -0.335 N 
HETATM   17  S1  UNL     1       4.203  10.502   0.543  1.00  0.00    -0.012 SA
ATOM     18  H3  UNL     1       6.444  11.605   0.418  1.00  0.00     0.173 HD
ENDBRANCH   6  14
TORSDOF 4
ENDMDL
MODEL 3
REMARK VINA RESULT: -5.532030942      1.987      2.050
REMARK  4 active torsions:
REMARK  status: ('A' for Active; 'I' for Inactive)
REMARK    1  A    between atoms: C2_2  and  C3_3 
REMARK    2  A    between atoms: C3_3  and  N1_5 
REMARK    3  A    between atoms: N1_5  and  C5_7 
REMARK    4  A    between atoms: C7_12  and  C8_13 
ROOT
HETATM    1  C5  UNL     1       3.014   5.108  -0.124  1.00  0.00     0.146 A 
HETATM    2  N2  UNL     1       3.784   5.511  -1.147  1.00  0.00    -0.326 N 
ATOM      3  H2  UNL     1       3.945   4.903  -1.951  1.00  0.00     0.169 HD
HETATM    4  C6  UNL     1       4.319   6.692  -1.090  1.00  0.00     0.124 A 
HETATM    5 CL1  UNL     1       5.368   7.363  -2.380  1.00  0.00    -0.063 Cl
HETATM    6  C7  UNL     1       4.069   7.465   0.010  1.00  0.00     0.067 A 
HETATM    7  S2  UNL     1       3.061   6.447   0.931  1.00  0.00    -0.050 SA
ENDROOT
BRANCH   1   8
HETATM    8  N1  UNL     1       2.404   3.949  -0.028  1.00  0.00    -0.366 N 
ATOM      9  H1  UNL     1       2.982   3.158   0.254  1.00  0.00     0.162 HD
BRANCH   8  10
HETATM   10  C3  UNL     1       1.053   3.671  -0.267  1.00  0.00     0.079 C 
HETATM   11  C4  UNL     1       0.749   2.190  -0.442  1.00  0.00     0.032 C 
BRANCH  10  12
HETATM   12  C2  UNL     1       0.366   4.420  -1.366  1.00  0.00     0.020 C 
HETATM   13  C1  UNL     1      -0.637   5.349  -0.652  1.00  0.00     0.007 C 
ENDBRANCH  10  12
ENDBRANCH   8  10
ENDBRANCH   1   8
BRANCH   6  14
HETATM   14  C8  UNL     1       4.540   8.827   0.333  1.00  0.00     0.058 A 
HETATM   15  C9  UNL     1       5.761   9.456   0.369  1.00  0.00     0.117 A 
HETATM   16  N3  UNL     1       5.367  10.694   0.754  1.00  0.00    -0.335 N 
HETATM   17  S1  UNL     1       3.743  10.247   0.816  1.00  0.00    -0.012 SA
ATOM     18  H3  UNL     1       5.865  11.566   0.938  1.00  0.00     0.173 HD
ENDBRANCH   6  14
TORSDOF 4
ENDMDL
MODEL 4
REMARK VINA RESULT: -5.528785801      1.453      2.263
REMARK  4 active torsions:
REMARK  status: ('A' for Active; 'I' for Inactive)
REMARK    1  A    between atoms: C2_2  and  C3_3 
REMARK    2  A    between atoms: C3_3  and  N1_5 
REMARK    3  A    between atoms: N1_5  and  C5_7 
REMARK    4  A    between atoms: C7_12  and  C8_13 
ROOT
HETATM    1  C5  UNL     1       2.908   5.191   0.075  1.00  0.00     0.146 A 
HETATM    2  N2  UNL     1       2.877   6.045   1.111  1.00  0.00    -0.326 N 
ATOM      3  H2  UNL     1       2.270   5.871   1.913  1.00  0.00     0.169 HD
HETATM    4  C6  UNL     1       3.638   7.095   1.069  1.00  0.00     0.124 A 
HETATM    5 CL1  UNL     1       3.703   8.320   2.377  1.00  0.00    -0.063 Cl
HETATM    6  C7  UNL     1       4.433   7.278  -0.030  1.00  0.00     0.067 A 
HETATM    7  S2  UNL     1       4.047   5.911  -0.971  1.00  0.00    -0.050 SA
ENDROOT
BRANCH   1   8
HETATM    8  N1  UNL     1       2.204   4.088  -0.036  1.00  0.00    -0.366 N 
ATOM      9  H1  UNL     1       1.247   4.198  -0.373  1.00  0.00     0.162 HD
BRANCH   8  10
HETATM   10  C3  UNL     1       2.610   2.781   0.252  1.00  0.00     0.079 C 
HETATM   11  C4  UNL     1       1.459   1.804   0.446  1.00  0.00     0.032 C 
BRANCH  10  12
HETATM   12  C2  UNL     1       3.586   2.579   1.369  1.00  0.00     0.020 C 
HETATM   13  C1  UNL     1       4.891   2.122   0.686  1.00  0.00     0.007 C 
ENDBRANCH  10  12
ENDBRANCH   8  10
ENDBRANCH   1   8
BRANCH   6  14
HETATM   14  C8  UNL     1       5.382   8.366  -0.337  1.00  0.00     0.058 A 
HETATM   15  C9  UNL     1       5.350   9.739  -0.273  1.00  0.00     0.117 A 
HETATM   16  N3  UNL     1       6.598  10.016  -0.721  1.00  0.00    -0.335 N 
HETATM   17  S1  UNL     1       6.976   8.386  -0.924  1.00  0.00    -0.012 SA
ATOM     18  H3  UNL     1       7.113  10.883  -0.877  1.00  0.00     0.173 HD
ENDBRANCH   6  14
TORSDOF 4
ENDMDL
MODEL 5
REMARK VINA RESULT: -5.434418595      2.546      3.191
REMARK  4 active torsions:
REMARK  status: ('A' for Active; 'I' for Inactive)
REMARK    1  A    between atoms: C2_2  and  C3_3 
REMARK    2  A    between atoms: C3_3  and  N1_5 
REMARK    3  A    between atoms: N1_5  and  C5_7 
REMARK    4  A    between atoms: C7_12  and  C8_13 
ROOT
HETATM    1  C5  UNL     1       3.324   5.134  -0.206  1.00  0.00     0.146 A 
HETATM    2  N2  UNL     1       4.046   5.726  -1.172  1.00  0.00    -0.326 N 
ATOM      3  H2  UNL     1       4.335   5.206  -2.001  1.00  0.00     0.169 HD
HETATM    4  C6  UNL     1       4.368   6.975  -1.026  1.00  0.00     0.124 A 
HETATM    5 CL1  UNL     1       5.326   7.894  -2.230  1.00  0.00    -0.063 Cl
HETATM    6  C7  UNL     1       3.953   7.624   0.105  1.00  0.00     0.067 A 
HETATM    7  S2  UNL     1       3.106   6.393   0.924  1.00  0.00    -0.050 SA
ENDROOT
BRANCH   1   8
HETATM    8  N1  UNL     1       2.920   3.885  -0.202  1.00  0.00    -0.366 N 
ATOM      9  H1  UNL     1       2.241   3.630  -0.919  1.00  0.00     0.162 HD
BRANCH   8  10
HETATM   10  C3  UNL     1       3.310   2.863   0.670  1.00  0.00     0.079 C 
HETATM   11  C4  UNL     1       4.807   2.589   0.670  1.00  0.00     0.032 C 
BRANCH  10  12
HETATM   12  C2  UNL     1       2.596   1.550   0.576  1.00  0.00     0.020 C 
HETATM   13  C1  UNL     1       3.621   0.579  -0.046  1.00  0.00     0.007 C 
ENDBRANCH  10  12
ENDBRANCH   8  10
ENDBRANCH   1   8
BRANCH   6  14
HETATM   14  C8  UNL     1       4.172   9.023   0.524  1.00  0.00     0.058 A 
HETATM   15  C9  UNL     1       3.440   9.966   1.204  1.00  0.00     0.117 A 
HETATM   16  N3  UNL     1       4.322  10.994   1.186  1.00  0.00    -0.335 N 
HETATM   17  S1  UNL     1       5.470  10.102   0.334  1.00  0.00    -0.012 SA
ATOM     18  H3  UNL     1       4.299  11.947   1.551  1.00  0.00     0.173 HD
ENDBRANCH   6  14
TORSDOF 4
ENDMDL
