MODEL 1
REMARK VINA RESULT: -6.330275823      0.000      0.000
REMARK  5 active torsions:
REMARK  status: ('A' for Active; 'I' for Inactive)
REMARK    1  A    between atoms: C2_2  and  C3_3 
REMARK    2  A    between atoms: C3_3  and  C4_4 
REMARK    3  A    between atoms: C3_3  and  C8_14 
REMARK    4  A    between atoms: C5_6  and  O2_7 
REMARK    5  A    between atoms: C6_9  and  O3_10 
ROOT
HETATM    1  C4  UNL     1       4.267   7.641  -0.118  1.00  0.00     0.105 A 
HETATM    2  O1  UNL     1       3.313   6.729  -0.254  1.00  0.00    -0.284 OA
HETATM    3  C5  UNL     1       3.534   5.931  -1.266  1.00  0.00     0.219 A 
HETATM    4  C6  UNL     1       4.713   6.287  -1.881  1.00  0.00     0.144 A 
HETATM    5  C7  UNL     1       5.190   7.389  -1.147  1.00  0.00     0.083 A 
HETATM    6 BR1  UNL     1       6.853   8.271  -1.489  1.00  0.00    -0.045 Br
ENDROOT
BRANCH   1   7
HETATM    7  C3  UNL     1       4.368   8.718   0.866  1.00  0.00    -0.020 C 
BRANCH   7   8
HETATM    8  C2  UNL     1       3.954   8.469   2.239  1.00  0.00    -0.000 C 
HETATM    9  C1  UNL     1       3.093   7.559   2.661  1.00  0.00     0.012 C 
ENDBRANCH   7   8
BRANCH   7  10
HETATM   10  C8  UNL     1       4.381  10.113   0.426  1.00  0.00     0.013 C 
HETATM   11  C9  UNL     1       5.669  10.860   0.511  1.00  0.00     0.015 C 
HETATM   12  C10 UNL     1       3.339  10.972   1.149  1.00  0.00     0.015 C 
ENDBRANCH   7  10
ENDBRANCH   1   7
BRANCH   3  13
HETATM   13  O2  UNL     1       2.731   4.860  -1.732  1.00  0.00    -0.339 OA
ATOM     14  H2  UNL     1       2.929   3.931  -1.726  1.00  0.00     0.220 HD
ENDBRANCH   3  13
BRANCH   4  15
HETATM   15  O3  UNL     1       5.296   5.681  -2.979  1.00  0.00    -0.355 OA
ATOM     16  H3  UNL     1       6.080   5.959  -3.436  1.00  0.00     0.218 HD
ENDBRANCH   4  15
TORSDOF 5
ENDMDL
MODEL 2
REMARK VINA RESULT: -6.328686035      2.173      3.934
REMARK  5 active torsions:
REMARK  status: ('A' for Active; 'I' for Inactive)
REMARK    1  A    between atoms: C2_2  and  C3_3 
REMARK    2  A    between atoms: C3_3  and  C4_4 
REMARK    3  A    between atoms: C3_3  and  C8_14 
REMARK    4  A    between atoms: C5_6  and  O2_7 
REMARK    5  A    between atoms: C6_9  and  O3_10 
ROOT
HETATM    1  C4  UNL     1       4.470   7.517   0.116  1.00  0.00     0.105 A 
HETATM    2  O1  UNL     1       4.157   6.235   0.254  1.00  0.00    -0.284 OA
HETATM    3  C5  UNL     1       3.362   6.029   1.272  1.00  0.00     0.219 A 
HETATM    4  C6  UNL     1       3.086   7.229   1.889  1.00  0.00     0.144 A 
HETATM    5  C7  UNL     1       3.798   8.191   1.150  1.00  0.00     0.083 A 
HETATM    6 BR1  UNL     1       3.735  10.073   1.492  1.00  0.00    -0.045 Br
ENDROOT
BRANCH   1   7
HETATM    7  C3  UNL     1       5.346   8.142  -0.874  1.00  0.00    -0.020 C 
BRANCH   7   8
HETATM    8  C2  UNL     1       5.324   7.662  -2.248  1.00  0.00    -0.000 C 
HETATM    9  C1  UNL     1       4.996   6.451  -2.666  1.00  0.00     0.012 C 
ENDBRANCH   7   8
BRANCH   7  10
HETATM   10  C8  UNL     1       6.554   8.846  -0.443  1.00  0.00     0.013 C 
HETATM   11  C9  UNL     1       6.554  10.336  -0.501  1.00  0.00     0.015 C 
HETATM   12  C10 UNL     1       7.807   8.387  -1.195  1.00  0.00     0.015 C 
ENDBRANCH   7  10
ENDBRANCH   1   7
BRANCH   3  13
HETATM   13  O2  UNL     1       2.837   4.798   1.741  1.00  0.00    -0.339 OA
ATOM     14  H2  UNL     1       2.960   4.393   2.592  1.00  0.00     0.220 HD
ENDBRANCH   3  13
BRANCH   4  15
HETATM   15  O3  UNL     1       2.278   7.431   2.992  1.00  0.00    -0.355 OA
ATOM     16  H3  UNL     1       1.382   7.138   3.106  1.00  0.00     0.218 HD
ENDBRANCH   4  15
TORSDOF 5
ENDMDL
MODEL 3
REMARK VINA RESULT: -6.303641737      1.951      2.729
REMARK  5 active torsions:
REMARK  status: ('A' for Active; 'I' for Inactive)
REMARK    1  A    between atoms: C2_2  and  C3_3 
REMARK    2  A    between atoms: C3_3  and  C4_4 
REMARK    3  A    between atoms: C3_3  and  C8_14 
REMARK    4  A    between atoms: C5_6  and  O2_7 
REMARK    5  A    between atoms: C6_9  and  O3_10 
ROOT
HETATM    1  C4  UNL     1       4.577   7.999  -0.621  1.00  0.00     0.105 A 
HETATM    2  O1  UNL     1       5.037   7.716  -1.833  1.00  0.00    -0.284 OA
HETATM    3  C5  UNL     1       4.760   6.488  -2.191  1.00  0.00     0.219 A 
HETATM    4  C6  UNL     1       4.058   5.865  -1.184  1.00  0.00     0.144 A 
HETATM    5  C7  UNL     1       3.938   6.832  -0.169  1.00  0.00     0.083 A 
HETATM    6 BR1  UNL     1       2.978   6.564   1.464  1.00  0.00    -0.045 Br
ENDROOT
BRANCH   1   7
HETATM    7  C3  UNL     1       4.705   9.243   0.136  1.00  0.00    -0.020 C 
BRANCH   7   8
HETATM    8  C2  UNL     1       3.605  10.196   0.132  1.00  0.00    -0.000 C 
HETATM    9  C1  UNL     1       3.268  11.031   1.100  1.00  0.00     0.012 C 
ENDBRANCH   7   8
BRANCH   7  10
HETATM   10  C8  UNL     1       6.031   9.771   0.458  1.00  0.00     0.013 C 
HETATM   11  C9  UNL     1       6.497  10.984  -0.273  1.00  0.00     0.015 C 
HETATM   12  C10 UNL     1       7.139   8.725   0.305  1.00  0.00     0.015 C 
ENDBRANCH   7  10
ENDBRANCH   1   7
BRANCH   3  13
HETATM   13  O2  UNL     1       5.106   5.826  -3.396  1.00  0.00    -0.339 OA
ATOM     14  H2  UNL     1       5.893   5.331  -3.590  1.00  0.00     0.220 HD
ENDBRANCH   3  13
BRANCH   4  15
HETATM   15  O3  UNL     1       3.576   4.569  -1.184  1.00  0.00    -0.355 OA
ATOM     16  H3  UNL     1       3.576   3.959  -0.457  1.00  0.00     0.218 HD
ENDBRANCH   4  15
TORSDOF 5
ENDMDL
MODEL 4
REMARK VINA RESULT: -6.282465323      2.298      3.508
REMARK  5 active torsions:
REMARK  status: ('A' for Active; 'I' for Inactive)
REMARK    1  A    between atoms: C2_2  and  C3_3 
REMARK    2  A    between atoms: C3_3  and  C4_4 
REMARK    3  A    between atoms: C3_3  and  C8_14 
REMARK    4  A    between atoms: C5_6  and  O2_7 
REMARK    5  A    between atoms: C6_9  and  O3_10 
ROOT
HETATM    1  C4  UNL     1       4.639   7.903   0.579  1.00  0.00     0.105 A 
HETATM    2  O1  UNL     1       4.164   8.179   1.787  1.00  0.00    -0.284 OA
HETATM    3  C5  UNL     1       3.234   7.337   2.155  1.00  0.00     0.219 A 
HETATM    4  C6  UNL     1       3.039   6.405   1.160  1.00  0.00     0.144 A 
HETATM    5  C7  UNL     1       3.940   6.765   0.141  1.00  0.00     0.083 A 
HETATM    6 BR1  UNL     1       4.183   5.777  -1.479  1.00  0.00    -0.045 Br
ENDROOT
BRANCH   1   7
HETATM    7  C3  UNL     1       5.657   8.619  -0.187  1.00  0.00    -0.020 C 
BRANCH   7   8
HETATM    8  C2  UNL     1       7.028   8.131  -0.181  1.00  0.00    -0.000 C 
HETATM    9  C1  UNL     1       7.970   8.381  -1.074  1.00  0.00     0.012 C 
ENDBRANCH   7   8
BRANCH   7  10
HETATM   10  C8  UNL     1       5.464  10.030  -0.524  1.00  0.00     0.013 C 
HETATM   11  C9  UNL     1       6.187  11.049   0.290  1.00  0.00     0.015 C 
HETATM   12  C10 UNL     1       3.989  10.444  -0.517  1.00  0.00     0.015 C 
ENDBRANCH   7  10
ENDBRANCH   1   7
BRANCH   3  13
HETATM   13  O2  UNL     1       2.486   7.325   3.360  1.00  0.00    -0.339 OA
ATOM     14  H2  UNL     1       2.055   6.589   3.777  1.00  0.00     0.220 HD
ENDBRANCH   3  13
BRANCH   4  15
HETATM   15  O3  UNL     1       2.151   5.346   1.174  1.00  0.00    -0.355 OA
ATOM     16  H3  UNL     1       2.208   4.559   1.703  1.00  0.00     0.218 HD
ENDBRANCH   4  15
TORSDOF 5
ENDMDL
MODEL 5
REMARK VINA RESULT: -6.242258133      2.771      4.731
REMARK  5 active torsions:
REMARK  status: ('A' for Active; 'I' for Inactive)
REMARK    1  A    between atoms: C2_2  and  C3_3 
REMARK    2  A    between atoms: C3_3  and  C4_4 
REMARK    3  A    between atoms: C3_3  and  C8_14 
REMARK    4  A    between atoms: C5_6  and  O2_7 
REMARK    5  A    between atoms: C6_9  and  O3_10 
ROOT
HETATM    1  C4  UNL     1       3.405   5.244  -0.322  1.00  0.00     0.105 A 
HETATM    2  O1  UNL     1       3.910   4.995  -1.524  1.00  0.00    -0.284 OA
HETATM    3  C5  UNL     1       4.585   6.012  -1.995  1.00  0.00     0.219 A 
HETATM    4  C6  UNL     1       4.567   7.038  -1.077  1.00  0.00     0.144 A 
HETATM    5  C7  UNL     1       3.808   6.550   0.002  1.00  0.00     0.083 A 
HETATM    6 BR1  UNL     1       3.505   7.514   1.627  1.00  0.00    -0.045 Br
ENDROOT
BRANCH   1   7
HETATM    7  C3  UNL     1       2.577   4.379   0.517  1.00  0.00    -0.020 C 
BRANCH   7   8
HETATM    8  C2  UNL     1       3.216   3.385   1.366  1.00  0.00    -0.000 C 
HETATM    9  C1  UNL     1       4.237   2.605   1.053  1.00  0.00     0.012 C 
ENDBRANCH   7   8
BRANCH   7  10
HETATM   10  C8  UNL     1       1.177   4.139   0.164  1.00  0.00     0.013 C 
HETATM   11  C9  UNL     1       0.861   2.943  -0.669  1.00  0.00     0.015 C 
HETATM   12  C10 UNL     1       0.530   5.335  -0.540  1.00  0.00     0.015 C 
ENDBRANCH   7  10
ENDBRANCH   1   7
BRANCH   3  13
HETATM   13  O2  UNL     1       5.243   6.125  -3.245  1.00  0.00    -0.339 OA
ATOM     14  H2  UNL     1       6.146   6.367  -3.415  1.00  0.00     0.220 HD
ENDBRANCH   3  13
BRANCH   4  15
HETATM   15  O3  UNL     1       5.174   8.274  -1.199  1.00  0.00    -0.355 OA
ATOM     16  H3  UNL     1       6.097   8.471  -1.093  1.00  0.00     0.218 HD
ENDBRANCH   4  15
TORSDOF 5
ENDMDL
