MODEL 1
REMARK VINA RESULT: -7.458884732      0.000      0.000
REMARK  5 active torsions:
REMARK  status: ('A' for Active; 'I' for Inactive)
REMARK    1  A    between atoms: N1_1  and  C1_5 
REMARK    2  A    between atoms: C3_7  and  C4_8 
REMARK    3  A    between atoms: C4_8  and  C5_9 
REMARK    4  A    between atoms: C6_10  and  C7_11 
REMARK    5  A    between atoms: C12_17  and  C13_18 
ROOT
HETATM    1  C1  UNL     1     -11.218  -3.823 -38.501  1.00  0.00     0.223 C 
HETATM    2  C2  UNL     1     -12.163  -4.674 -37.679  1.00  0.00     0.068 C 
HETATM    3  C3  UNL     1     -12.716  -3.611 -36.751  1.00  0.00     0.128 C 
HETATM    4  O1  UNL     1     -12.921  -2.539 -37.573  1.00  0.00    -0.369 OA
HETATM    5  C12 UNL     1     -11.881  -2.510 -38.510  1.00  0.00     0.259 C 
ENDROOT
BRANCH   3   6
HETATM    6  C4  UNL     1     -14.028  -4.062 -36.122  1.00  0.00     0.059 C 
BRANCH   6   7
HETATM    7  C5  UNL     1     -15.107  -3.321 -36.804  1.00  0.00    -0.028 C 
HETATM    8  C6  UNL     1     -15.957  -3.654 -37.713  1.00  0.00    -0.026 C 
BRANCH   8   9
HETATM    9  C7  UNL     1     -16.250  -4.850 -38.462  1.00  0.00     0.008 C 
HETATM   10  C8  UNL     1     -17.361  -5.729 -38.072  1.00  0.00     0.008 C 
HETATM   11  C9  UNL     1     -17.369  -6.746 -39.220  1.00  0.00     0.001 C 
HETATM   12  C10 UNL     1     -17.257  -5.828 -40.426  1.00  0.00     0.001 C 
HETATM   13  C11 UNL     1     -16.596  -4.552 -39.928  1.00  0.00     0.008 C 
ENDBRANCH   8   9
ENDBRANCH   6   7
ENDBRANCH   3   6
BRANCH   1  14
HETATM   14  N1  UNL     1     -10.922  -4.393 -39.779  1.00  0.00    -0.072 N 
ATOM     15  H13 UNL     1     -10.104  -3.948 -40.196  1.00  0.00     0.274 HD
ATOM     16  H12 UNL     1     -10.562  -5.343 -39.679  1.00  0.00     0.274 HD
ATOM     17  H11 UNL     1     -11.716  -4.369 -40.419  1.00  0.00     0.274 HD
ENDBRANCH   1  14
BRANCH   5  18
HETATM   18  C13 UNL     1     -12.463  -2.071 -39.809  1.00  0.00     0.415 C 
HETATM   19  F1  UNL     1     -12.531  -0.670 -39.772  1.00  0.00    -0.168 F 
HETATM   20  F2  UNL     1     -11.699  -2.384 -40.904  1.00  0.00    -0.168 F 
HETATM   21  F3  UNL     1     -13.766  -2.515 -39.914  1.00  0.00    -0.168 F 
ENDBRANCH   5  18
TORSDOF 5
ENDMDL
MODEL 2
REMARK VINA RESULT: -7.365926816      2.292      2.976
REMARK  5 active torsions:
REMARK  status: ('A' for Active; 'I' for Inactive)
REMARK    1  A    between atoms: N1_1  and  C1_5 
REMARK    2  A    between atoms: C3_7  and  C4_8 
REMARK    3  A    between atoms: C4_8  and  C5_9 
REMARK    4  A    between atoms: C6_10  and  C7_11 
REMARK    5  A    between atoms: C12_17  and  C13_18 
ROOT
HETATM    1  C1  UNL     1     -11.562  -4.354 -38.582  1.00  0.00     0.223 C 
HETATM    2  C2  UNL     1     -13.069  -4.252 -38.695  1.00  0.00     0.068 C 
HETATM    3  C3  UNL     1     -13.408  -3.927 -37.254  1.00  0.00     0.128 C 
HETATM    4  O1  UNL     1     -12.448  -3.024 -36.891  1.00  0.00    -0.369 OA
HETATM    5  C12 UNL     1     -11.248  -3.403 -37.504  1.00  0.00     0.259 C 
ENDROOT
BRANCH   3   6
HETATM    6  C4  UNL     1     -14.795  -3.307 -37.145  1.00  0.00     0.059 C 
BRANCH   6   7
HETATM    7  C5  UNL     1     -15.182  -2.880 -38.504  1.00  0.00    -0.028 C 
HETATM    8  C6  UNL     1     -16.278  -2.416 -38.995  1.00  0.00    -0.026 C 
BRANCH   8   9
HETATM    9  C7  UNL     1     -17.587  -2.104 -38.481  1.00  0.00     0.008 C 
HETATM   10  C8  UNL     1     -18.466  -3.165 -37.967  1.00  0.00     0.008 C 
HETATM   11  C9  UNL     1     -19.641  -2.351 -37.410  1.00  0.00     0.001 C 
HETATM   12  C10 UNL     1     -18.907  -1.265 -36.641  1.00  0.00     0.001 C 
HETATM   13  C11 UNL     1     -17.532  -1.146 -37.282  1.00  0.00     0.008 C 
ENDBRANCH   8   9
ENDBRANCH   6   7
ENDBRANCH   3   6
BRANCH   1  14
HETATM   14  N1  UNL     1     -10.893  -4.145 -39.828  1.00  0.00    -0.072 N 
ATOM     15  H13 UNL     1     -11.079  -3.209 -40.189  1.00  0.00     0.274 HD
ATOM     16  H12 UNL     1      -9.885  -4.075 -39.693  1.00  0.00     0.274 HD
ATOM     17  H11 UNL     1     -11.120  -4.855 -40.525  1.00  0.00     0.274 HD
ENDBRANCH   1  14
BRANCH   5  18
HETATM   18  C13 UNL     1     -10.540  -2.156 -37.908  1.00  0.00     0.415 C 
HETATM   19  F1  UNL     1     -10.370  -1.390 -36.746  1.00  0.00    -0.168 F 
HETATM   20  F2  UNL     1      -9.282  -2.360 -38.415  1.00  0.00    -0.168 F 
HETATM   21  F3  UNL     1     -11.346  -1.409 -38.745  1.00  0.00    -0.168 F 
ENDBRANCH   5  18
TORSDOF 5
ENDMDL
MODEL 3
REMARK VINA RESULT: -7.250181461      1.662      2.711
REMARK  5 active torsions:
REMARK  status: ('A' for Active; 'I' for Inactive)
REMARK    1  A    between atoms: N1_1  and  C1_5 
REMARK    2  A    between atoms: C3_7  and  C4_8 
REMARK    3  A    between atoms: C4_8  and  C5_9 
REMARK    4  A    between atoms: C6_10  and  C7_11 
REMARK    5  A    between atoms: C12_17  and  C13_18 
ROOT
HETATM    1  C1  UNL     1     -11.318  -3.712 -38.618  1.00  0.00     0.223 C 
HETATM    2  C2  UNL     1     -12.256  -4.427 -37.666  1.00  0.00     0.068 C 
HETATM    3  C3  UNL     1     -12.786  -3.235 -36.894  1.00  0.00     0.128 C 
HETATM    4  O1  UNL     1     -12.997  -2.291 -37.859  1.00  0.00    -0.369 OA
HETATM    5  C12 UNL     1     -11.972  -2.408 -38.806  1.00  0.00     0.259 C 
ENDROOT
BRANCH   3   6
HETATM    6  C4  UNL     1     -14.090  -3.578 -36.186  1.00  0.00     0.059 C 
BRANCH   6   7
HETATM    7  C5  UNL     1     -15.039  -4.019 -37.227  1.00  0.00    -0.028 C 
HETATM    8  C6  UNL     1     -16.010  -3.427 -37.832  1.00  0.00    -0.026 C 
BRANCH   8   9
HETATM    9  C7  UNL     1     -16.605  -2.116 -37.787  1.00  0.00     0.008 C 
HETATM   10  C8  UNL     1     -17.804  -1.806 -38.579  1.00  0.00     0.008 C 
HETATM   11  C9  UNL     1     -18.137  -0.389 -38.096  1.00  0.00     0.001 C 
HETATM   12  C10 UNL     1     -18.005  -0.553 -36.591  1.00  0.00     0.001 C 
HETATM   13  C11 UNL     1     -17.065  -1.730 -36.374  1.00  0.00     0.008 C 
ENDBRANCH   8   9
ENDBRANCH   6   7
ENDBRANCH   3   6
BRANCH   1  14
HETATM   14  N1  UNL     1     -11.048  -4.464 -39.804  1.00  0.00    -0.072 N 
ATOM     15  H13 UNL     1     -11.369  -3.964 -40.634  1.00  0.00     0.274 HD
ATOM     16  H12 UNL     1     -10.047  -4.488 -40.000  1.00  0.00     0.274 HD
ATOM     17  H11 UNL     1     -11.437  -5.407 -39.775  1.00  0.00     0.274 HD
ENDBRANCH   1  14
BRANCH   5  18
HETATM   18  C13 UNL     1     -12.572  -2.156 -40.146  1.00  0.00     0.415 C 
HETATM   19  F1  UNL     1     -12.662  -0.764 -40.296  1.00  0.00    -0.168 F 
HETATM   20  F2  UNL     1     -11.814  -2.602 -41.198  1.00  0.00    -0.168 F 
HETATM   21  F3  UNL     1     -13.869  -2.628 -40.176  1.00  0.00    -0.168 F 
ENDBRANCH   5  18
TORSDOF 5
ENDMDL
MODEL 4
REMARK VINA RESULT: -7.223970525      2.784      4.082
REMARK  5 active torsions:
REMARK  status: ('A' for Active; 'I' for Inactive)
REMARK    1  A    between atoms: N1_1  and  C1_5 
REMARK    2  A    between atoms: C3_7  and  C4_8 
REMARK    3  A    between atoms: C4_8  and  C5_9 
REMARK    4  A    between atoms: C6_10  and  C7_11 
REMARK    5  A    between atoms: C12_17  and  C13_18 
ROOT
HETATM    1  C1  UNL     1     -11.228  -2.260 -38.210  1.00  0.00     0.223 C 
HETATM    2  C2  UNL     1     -12.225  -1.519 -39.077  1.00  0.00     0.068 C 
HETATM    3  C3  UNL     1     -12.867  -2.696 -39.784  1.00  0.00     0.128 C 
HETATM    4  O1  UNL     1     -13.019  -3.625 -38.793  1.00  0.00    -0.369 OA
HETATM    5  C12 UNL     1     -11.906  -3.539 -37.948  1.00  0.00     0.259 C 
ENDROOT
BRANCH   3   6
HETATM    6  C4  UNL     1     -14.218  -2.312 -40.370  1.00  0.00     0.059 C 
BRANCH   6   7
HETATM    7  C5  UNL     1     -15.226  -3.180 -39.729  1.00  0.00    -0.028 C 
HETATM    8  C6  UNL     1     -16.184  -2.944 -38.901  1.00  0.00    -0.026 C 
BRANCH   8   9
HETATM    9  C7  UNL     1     -16.708  -1.777 -38.237  1.00  0.00     0.008 C 
HETATM   10  C8  UNL     1     -18.044  -1.260 -38.567  1.00  0.00     0.008 C 
HETATM   11  C9  UNL     1     -18.209  -0.144 -37.527  1.00  0.00     0.001 C 
HETATM   12  C10 UNL     1     -17.745  -0.849 -36.264  1.00  0.00     0.001 C 
HETATM   13  C11 UNL     1     -16.821  -1.970 -36.718  1.00  0.00     0.008 C 
ENDBRANCH   8   9
ENDBRANCH   6   7
ENDBRANCH   3   6
BRANCH   1  14
HETATM   14  N1  UNL     1     -10.821  -1.510 -37.062  1.00  0.00    -0.072 N 
ATOM     15  H13 UNL     1     -11.398  -1.740 -36.253  1.00  0.00     0.274 HD
ATOM     16  H12 UNL     1      -9.916  -1.832 -36.719  1.00  0.00     0.274 HD
ATOM     17  H11 UNL     1     -10.811  -0.503 -37.227  1.00  0.00     0.274 HD
ENDBRANCH   1  14
BRANCH   5  18
HETATM   18  C13 UNL     1     -12.386  -3.760 -36.555  1.00  0.00     0.415 C 
HETATM   19  F1  UNL     1     -12.240  -5.129 -36.287  1.00  0.00    -0.168 F 
HETATM   20  F2  UNL     1     -11.656  -3.106 -35.596  1.00  0.00    -0.168 F 
HETATM   21  F3  UNL     1     -13.739  -3.497 -36.477  1.00  0.00    -0.168 F 
ENDBRANCH   5  18
TORSDOF 5
ENDMDL
MODEL 5
REMARK VINA RESULT: -7.198893025      1.673      1.996
REMARK  5 active torsions:
REMARK  status: ('A' for Active; 'I' for Inactive)
REMARK    1  A    between atoms: N1_1  and  C1_5 
REMARK    2  A    between atoms: C3_7  and  C4_8 
REMARK    3  A    between atoms: C4_8  and  C5_9 
REMARK    4  A    between atoms: C6_10  and  C7_11 
REMARK    5  A    between atoms: C12_17  and  C13_18 
ROOT
HETATM    1  C1  UNL     1     -11.394  -4.386 -38.546  1.00  0.00     0.223 C 
HETATM    2  C2  UNL     1     -12.908  -4.411 -38.522  1.00  0.00     0.068 C 
HETATM    3  C3  UNL     1     -13.142  -4.069 -37.063  1.00  0.00     0.128 C 
HETATM    4  O1  UNL     1     -12.233  -3.080 -36.813  1.00  0.00    -0.369 OA
HETATM    5  C12 UNL     1     -11.066  -3.379 -37.526  1.00  0.00     0.259 C 
ENDROOT
BRANCH   3   6
HETATM    6  C4  UNL     1     -14.560  -3.562 -36.840  1.00  0.00     0.059 C 
BRANCH   6   7
HETATM    7  C5  UNL     1     -14.855  -2.618 -37.936  1.00  0.00    -0.028 C 
HETATM    8  C6  UNL     1     -15.740  -2.614 -38.872  1.00  0.00    -0.026 C 
BRANCH   8   9
HETATM    9  C7  UNL     1     -16.814  -3.484 -39.278  1.00  0.00     0.008 C 
HETATM   10  C8  UNL     1     -16.597  -4.930 -39.424  1.00  0.00     0.008 C 
HETATM   11  C9  UNL     1     -18.019  -5.429 -39.711  1.00  0.00     0.001 C 
HETATM   12  C10 UNL     1     -18.811  -4.686 -38.648  1.00  0.00     0.001 C 
HETATM   13  C11 UNL     1     -17.997  -3.449 -38.299  1.00  0.00     0.008 C 
ENDBRANCH   8   9
ENDBRANCH   6   7
ENDBRANCH   3   6
BRANCH   1  14
HETATM   14  N1  UNL     1     -10.861  -4.162 -39.854  1.00  0.00    -0.072 N 
ATOM     15  H13 UNL     1     -10.102  -4.814 -40.055  1.00  0.00     0.274 HD
ATOM     16  H12 UNL     1     -11.524  -4.454 -40.572  1.00  0.00     0.274 HD
ATOM     17  H11 UNL     1     -10.562  -3.198 -40.003  1.00  0.00     0.274 HD
ENDBRANCH   1  14
BRANCH   5  18
HETATM   18  C13 UNL     1     -10.505  -2.091 -38.024  1.00  0.00     0.415 C 
HETATM   19  F1  UNL     1     -10.337  -1.261 -36.905  1.00  0.00    -0.168 F 
HETATM   20  F2  UNL     1      -9.267  -2.201 -38.604  1.00  0.00    -0.168 F 
HETATM   21  F3  UNL     1     -11.428  -1.460 -38.833  1.00  0.00    -0.168 F 
ENDBRANCH   5  18
TORSDOF 5
ENDMDL
