MODEL 1
REMARK VINA RESULT: -6.721744712      0.000      0.000
REMARK  4 active torsions:
REMARK  status: ('A' for Active; 'I' for Inactive)
REMARK    1  A    between atoms: C2_2  and  N1_3 
REMARK    2  A    between atoms: C2_2  and  C8_10 
REMARK    3  A    between atoms: N1_3  and  C4_5 
REMARK    4  A    between atoms: C8_10  and  C11_13 
ROOT
HETATM    1  C1  UNL     1     -11.807  -4.987 -38.313  1.00  0.00     0.033 C 
HETATM    2  C2  UNL     1     -12.779  -3.828 -38.409  1.00  0.00     0.091 C 
ENDROOT
BRANCH   2   3
HETATM    3  N1  UNL     1     -13.621  -3.638 -37.307  1.00  0.00    -0.407 N 
HETATM    4  C3  UNL     1     -13.192  -3.915 -36.011  1.00  0.00     0.144 C 
BRANCH   3   5
HETATM    5  C4  UNL     1     -14.992  -3.742 -37.530  1.00  0.00     0.089 C 
HETATM    6  C5  UNL     1     -15.422  -4.491 -38.776  1.00  0.00     0.036 C 
HETATM    7  C6  UNL     1     -16.911  -4.750 -38.492  1.00  0.00     0.076 C 
HETATM    8  S1  UNL     1     -17.404  -3.041 -38.016  1.00  0.00    -0.167 SA
HETATM    9  C7  UNL     1     -15.709  -2.388 -37.688  1.00  0.00     0.098 C 
ENDBRANCH   3   5
ENDBRANCH   2   3
BRANCH   2  10
HETATM   10  C8  UNL     1     -12.088  -2.600 -38.956  1.00  0.00     0.070 C 
HETATM   11  C9  UNL     1     -10.597  -2.705 -38.981  1.00  0.00     0.026 C 
HETATM   12  C10 UNL     1     -12.384  -1.402 -38.008  1.00  0.00     0.026 C 
BRANCH  10  13
HETATM   13  C11 UNL     1     -12.639  -2.154 -40.277  1.00  0.00     0.396 C 
HETATM   14  F1  UNL     1     -12.497  -0.779 -40.425  1.00  0.00    -0.170 F 
HETATM   15  F2  UNL     1     -11.806  -2.767 -41.239  1.00  0.00    -0.170 F 
HETATM   16  F3  UNL     1     -13.915  -2.492 -40.551  1.00  0.00    -0.170 F 
ENDBRANCH  10  13
ENDBRANCH   2  10
TORSDOF 4
ENDMDL
MODEL 2
REMARK VINA RESULT: -6.597298835      2.456      3.463
REMARK  4 active torsions:
REMARK  status: ('A' for Active; 'I' for Inactive)
REMARK    1  A    between atoms: C2_2  and  N1_3 
REMARK    2  A    between atoms: C2_2  and  C8_10 
REMARK    3  A    between atoms: N1_3  and  C4_5 
REMARK    4  A    between atoms: C8_10  and  C11_13 
ROOT
HETATM    1  C1  UNL     1     -12.147  -1.003 -38.581  1.00  0.00     0.033 C 
HETATM    2  C2  UNL     1     -12.902  -2.308 -38.425  1.00  0.00     0.091 C 
ENDROOT
BRANCH   2   3
HETATM    3  N1  UNL     1     -13.758  -2.653 -39.477  1.00  0.00    -0.407 N 
HETATM    4  C3  UNL     1     -13.463  -2.309 -40.795  1.00  0.00     0.144 C 
BRANCH   3   5
HETATM    5  C4  UNL     1     -15.111  -2.797 -39.174  1.00  0.00     0.089 C 
HETATM    6  C5  UNL     1     -15.585  -2.180 -37.873  1.00  0.00     0.036 C 
HETATM    7  C6  UNL     1     -17.110  -2.175 -38.063  1.00  0.00     0.076 C 
HETATM    8  S1  UNL     1     -17.330  -3.925 -38.588  1.00  0.00    -0.167 SA
HETATM    9  C7  UNL     1     -15.572  -4.261 -39.038  1.00  0.00     0.098 C 
ENDBRANCH   3   5
ENDBRANCH   2   3
BRANCH   2  10
HETATM   10  C8  UNL     1     -11.985  -3.393 -37.911  1.00  0.00     0.070 C 
HETATM   11  C9  UNL     1     -10.535  -3.028 -37.946  1.00  0.00     0.026 C 
HETATM   12  C10 UNL     1     -12.104  -4.628 -38.851  1.00  0.00     0.026 C 
BRANCH  10  13
HETATM   13  C11 UNL     1     -12.394  -3.925 -36.570  1.00  0.00     0.396 C 
HETATM   14  F1  UNL     1     -11.951  -5.233 -36.409  1.00  0.00    -0.170 F 
HETATM   15  F2  UNL     1     -11.696  -3.128 -35.638  1.00  0.00    -0.170 F 
HETATM   16  F3  UNL     1     -13.708  -3.870 -36.268  1.00  0.00    -0.170 F 
ENDBRANCH  10  13
ENDBRANCH   2  10
TORSDOF 4
ENDMDL
MODEL 3
REMARK VINA RESULT: -6.545048384      0.651      1.157
REMARK  4 active torsions:
REMARK  status: ('A' for Active; 'I' for Inactive)
REMARK    1  A    between atoms: C2_2  and  N1_3 
REMARK    2  A    between atoms: C2_2  and  C8_10 
REMARK    3  A    between atoms: N1_3  and  C4_5 
REMARK    4  A    between atoms: C8_10  and  C11_13 
ROOT
HETATM    1  C1  UNL     1     -11.942  -4.903 -38.125  1.00  0.00     0.033 C 
HETATM    2  C2  UNL     1     -12.901  -3.790 -38.498  1.00  0.00     0.091 C 
ENDROOT
BRANCH   2   3
HETATM    3  N1  UNL     1     -13.929  -3.531 -37.583  1.00  0.00    -0.407 N 
HETATM    4  C3  UNL     1     -13.845  -3.955 -36.259  1.00  0.00     0.144 C 
BRANCH   3   5
HETATM    5  C4  UNL     1     -15.216  -3.391 -38.097  1.00  0.00     0.089 C 
HETATM    6  C5  UNL     1     -16.031  -2.222 -37.580  1.00  0.00     0.036 C 
HETATM    7  C6  UNL     1     -17.167  -2.147 -38.612  1.00  0.00     0.076 C 
HETATM    8  S1  UNL     1     -17.668  -3.918 -38.603  1.00  0.00    -0.167 SA
HETATM    9  C7  UNL     1     -16.139  -4.593 -37.818  1.00  0.00     0.098 C 
ENDBRANCH   3   5
ENDBRANCH   2   3
BRANCH   2  10
HETATM   10  C8  UNL     1     -12.145  -2.593 -39.027  1.00  0.00     0.070 C 
HETATM   11  C9  UNL     1     -10.659  -2.749 -38.985  1.00  0.00     0.026 C 
HETATM   12  C10 UNL     1     -12.441  -1.374 -38.106  1.00  0.00     0.026 C 
BRANCH  10  13
HETATM   13  C11 UNL     1     -12.621  -2.145 -40.376  1.00  0.00     0.396 C 
HETATM   14  F1  UNL     1     -12.517  -0.764 -40.496  1.00  0.00    -0.170 F 
HETATM   15  F2  UNL     1     -11.707  -2.716 -41.288  1.00  0.00    -0.170 F 
HETATM   16  F3  UNL     1     -13.865  -2.521 -40.739  1.00  0.00    -0.170 F 
ENDBRANCH  10  13
ENDBRANCH   2  10
TORSDOF 4
ENDMDL
MODEL 4
REMARK VINA RESULT: -6.522276724      2.456      3.278
REMARK  4 active torsions:
REMARK  status: ('A' for Active; 'I' for Inactive)
REMARK    1  A    between atoms: C2_2  and  N1_3 
REMARK    2  A    between atoms: C2_2  and  C8_10 
REMARK    3  A    between atoms: N1_3  and  C4_5 
REMARK    4  A    between atoms: C8_10  and  C11_13 
ROOT
HETATM    1  C1  UNL     1     -12.291  -1.098 -38.854  1.00  0.00     0.033 C 
HETATM    2  C2  UNL     1     -13.026  -2.349 -38.416  1.00  0.00     0.091 C 
ENDROOT
BRANCH   2   3
HETATM    3  N1  UNL     1     -14.012  -2.820 -39.291  1.00  0.00    -0.407 N 
HETATM    4  C3  UNL     1     -14.059  -2.410 -40.621  1.00  0.00     0.144 C 
BRANCH   3   5
HETATM    5  C4  UNL     1     -15.229  -3.203 -38.729  1.00  0.00     0.089 C 
HETATM    6  C5  UNL     1     -15.815  -4.516 -39.209  1.00  0.00     0.036 C 
HETATM    7  C6  UNL     1     -16.879  -4.798 -38.136  1.00  0.00     0.076 C 
HETATM    8  S1  UNL     1     -17.717  -3.160 -38.138  1.00  0.00    -0.167 SA
HETATM    9  C7  UNL     1     -16.379  -2.209 -38.982  1.00  0.00     0.098 C 
ENDBRANCH   3   5
ENDBRANCH   2   3
BRANCH   2  10
HETATM   10  C8  UNL     1     -12.057  -3.371 -37.871  1.00  0.00     0.070 C 
HETATM   11  C9  UNL     1     -10.623  -2.958 -37.966  1.00  0.00     0.026 C 
HETATM   12  C10 UNL     1     -12.155  -4.659 -38.738  1.00  0.00     0.026 C 
BRANCH  10  13
HETATM   13  C11 UNL     1     -12.411  -3.842 -36.492  1.00  0.00     0.396 C 
HETATM   14  F1  UNL     1     -12.056  -5.176 -36.326  1.00  0.00    -0.170 F 
HETATM   15  F2  UNL     1     -11.593  -3.080 -35.630  1.00  0.00    -0.170 F 
HETATM   16  F3  UNL     1     -13.693  -3.681 -36.104  1.00  0.00    -0.170 F 
ENDBRANCH  10  13
ENDBRANCH   2  10
TORSDOF 4
ENDMDL
MODEL 5
REMARK VINA RESULT: -6.340800748      0.940      1.218
REMARK  4 active torsions:
REMARK  status: ('A' for Active; 'I' for Inactive)
REMARK    1  A    between atoms: C2_2  and  N1_3 
REMARK    2  A    between atoms: C2_2  and  C8_10 
REMARK    3  A    between atoms: N1_3  and  C4_5 
REMARK    4  A    between atoms: C8_10  and  C11_13 
ROOT
HETATM    1  C1  UNL     1     -11.758  -5.319 -38.087  1.00  0.00     0.033 C 
HETATM    2  C2  UNL     1     -12.505  -4.031 -38.372  1.00  0.00     0.091 C 
ENDROOT
BRANCH   2   3
HETATM    3  N1  UNL     1     -13.465  -3.654 -37.425  1.00  0.00    -0.407 N 
HETATM    4  C3  UNL     1     -13.218  -3.765 -36.058  1.00  0.00     0.144 C 
BRANCH   3   5
HETATM    5  C4  UNL     1     -14.802  -3.732 -37.810  1.00  0.00     0.089 C 
HETATM    6  C5  UNL     1     -15.077  -3.773 -39.300  1.00  0.00     0.036 C 
HETATM    7  C6  UNL     1     -16.538  -4.250 -39.338  1.00  0.00     0.076 C 
HETATM    8  S1  UNL     1     -17.250  -3.062 -38.126  1.00  0.00    -0.167 SA
HETATM    9  C7  UNL     1     -15.661  -2.542 -37.342  1.00  0.00     0.098 C 
ENDBRANCH   3   5
ENDBRANCH   2   3
BRANCH   2  10
HETATM   10  C8  UNL     1     -11.551  -2.956 -38.837  1.00  0.00     0.070 C 
HETATM   11  C9  UNL     1     -10.300  -2.863 -38.023  1.00  0.00     0.026 C 
HETATM   12  C10 UNL     1     -12.241  -1.572 -38.661  1.00  0.00     0.026 C 
BRANCH  10  13
HETATM   13  C11 UNL     1     -11.257  -3.024 -40.306  1.00  0.00     0.396 C 
HETATM   14  F1  UNL     1     -12.074  -2.144 -41.007  1.00  0.00    -0.170 F 
HETATM   15  F2  UNL     1      -9.931  -2.554 -40.430  1.00  0.00    -0.170 F 
HETATM   16  F3  UNL     1     -11.327  -4.240 -40.886  1.00  0.00    -0.170 F 
ENDBRANCH  10  13
ENDBRANCH   2  10
TORSDOF 4
ENDMDL
