MODEL 1
REMARK VINA RESULT: -6.540424954      0.000      0.000
REMARK  4 active torsions:
REMARK  status: ('A' for Active; 'I' for Inactive)
REMARK    1  A    between atoms: C2_2  and  S1_4 
REMARK    2  A    between atoms: S1_4  and  C4_5 
REMARK    3  A    between atoms: N1_10  and  C9_12 
REMARK    4  A    between atoms: C9_12  and  C10_13 
ROOT
HETATM    1  C4  UNL     1     -13.521  -3.604 -38.363  1.00  0.00     0.145 C 
HETATM    2  C5  UNL     1     -13.405  -2.318 -39.192  1.00  0.00     0.036 C 
HETATM    3  C6  UNL     1     -14.376  -2.422 -40.344  1.00  0.00     0.010 C 
HETATM    4  C7  UNL     1     -15.748  -2.746 -39.864  1.00  0.00     0.076 C 
HETATM    5  C8  UNL     1     -15.814  -2.730 -38.382  1.00  0.00     0.073 C 
HETATM    6  N1  UNL     1     -16.678  -2.074 -37.686  1.00  0.00    -0.371 N 
ATOM      7  H1  UNL     1     -16.596  -2.163 -36.673  1.00  0.00     0.161 HD
HETATM    8  N2  UNL     1     -14.817  -3.524 -37.719  1.00  0.00    -0.367 N 
ATOM      9  H2  UNL     1     -15.011  -4.005 -36.841  1.00  0.00     0.162 HD
ENDROOT
BRANCH   6  10
HETATM   10  C9  UNL     1     -17.722  -1.248 -38.149  1.00  0.00     0.238 C 
BRANCH  10  11
HETATM   11  C10 UNL     1     -18.115  -0.216 -37.087  1.00  0.00     0.403 C 
HETATM   12  F1  UNL     1     -16.979   0.288 -36.503  1.00  0.00    -0.169 F 
HETATM   13  F2  UNL     1     -18.916   0.767 -37.598  1.00  0.00    -0.169 F 
HETATM   14  F3  UNL     1     -18.790  -0.918 -36.090  1.00  0.00    -0.169 F 
ENDBRANCH  10  11
ENDBRANCH   6  10
BRANCH   1  15
HETATM   15  S1  UNL     1     -12.185  -3.665 -37.135  1.00  0.00    -0.140 SA
BRANCH  15  16
HETATM   16  C2  UNL     1     -11.114  -2.239 -37.257  1.00  0.00     0.041 C 
HETATM   17  C1  UNL     1     -10.691  -1.706 -35.902  1.00  0.00     0.021 C 
HETATM   18  C3  UNL     1      -9.859  -2.640 -38.021  1.00  0.00     0.021 C 
ENDBRANCH  15  16
ENDBRANCH   1  15
TORSDOF 4
ENDMDL
MODEL 2
REMARK VINA RESULT: -6.538685292      3.827      4.668
REMARK  4 active torsions:
REMARK  status: ('A' for Active; 'I' for Inactive)
REMARK    1  A    between atoms: C2_2  and  S1_4 
REMARK    2  A    between atoms: S1_4  and  C4_5 
REMARK    3  A    between atoms: N1_10  and  C9_12 
REMARK    4  A    between atoms: C9_12  and  C10_13 
ROOT
HETATM    1  C4  UNL     1     -13.560  -2.449 -38.055  1.00  0.00     0.145 C 
HETATM    2  C5  UNL     1     -13.139  -3.749 -37.358  1.00  0.00     0.036 C 
HETATM    3  C6  UNL     1     -14.096  -3.992 -36.214  1.00  0.00     0.010 C 
HETATM    4  C7  UNL     1     -15.510  -3.950 -36.678  1.00  0.00     0.076 C 
HETATM    5  C8  UNL     1     -15.586  -3.831 -38.156  1.00  0.00     0.073 C 
HETATM    6  N1  UNL     1     -16.279  -4.597 -38.926  1.00  0.00    -0.371 N 
ATOM      7  H1  UNL     1     -16.230  -4.390 -39.923  1.00  0.00     0.161 HD
HETATM    8  N2  UNL     1     -14.808  -2.764 -38.721  1.00  0.00    -0.367 N 
ATOM      9  H2  UNL     1     -15.118  -2.255 -39.549  1.00  0.00     0.162 HD
ENDROOT
BRANCH   6  10
HETATM   10  C9  UNL     1     -17.097  -5.686 -38.563  1.00  0.00     0.238 C 
BRANCH  10  11
HETATM   11  C10 UNL     1     -17.405  -6.568 -39.778  1.00  0.00     0.403 C 
HETATM   12  F1  UNL     1     -18.214  -7.606 -39.390  1.00  0.00    -0.169 F 
HETATM   13  F2  UNL     1     -17.939  -5.850 -40.811  1.00  0.00    -0.169 F 
HETATM   14  F3  UNL     1     -16.193  -7.138 -40.164  1.00  0.00    -0.169 F 
ENDBRANCH  10  11
ENDBRANCH   6  10
BRANCH   1  15
HETATM   15  S1  UNL     1     -12.288  -1.954 -39.251  1.00  0.00    -0.140 SA
BRANCH  15  16
HETATM   16  C2  UNL     1     -11.040  -3.219 -39.445  1.00  0.00     0.041 C 
HETATM   17  C1  UNL     1     -10.712  -3.502 -40.898  1.00  0.00     0.021 C 
HETATM   18  C3  UNL     1      -9.765  -2.752 -38.755  1.00  0.00     0.021 C 
ENDBRANCH  15  16
ENDBRANCH   1  15
TORSDOF 4
ENDMDL
MODEL 3
REMARK VINA RESULT: -6.360789391      1.247      1.707
REMARK  4 active torsions:
REMARK  status: ('A' for Active; 'I' for Inactive)
REMARK    1  A    between atoms: C2_2  and  S1_4 
REMARK    2  A    between atoms: S1_4  and  C4_5 
REMARK    3  A    between atoms: N1_10  and  C9_12 
REMARK    4  A    between atoms: C9_12  and  C10_13 
ROOT
HETATM    1  C4  UNL     1     -12.699  -3.159 -39.530  1.00  0.00     0.145 C 
HETATM    2  C5  UNL     1     -12.895  -1.729 -40.048  1.00  0.00     0.036 C 
HETATM    3  C6  UNL     1     -13.855  -1.786 -41.213  1.00  0.00     0.010 C 
HETATM    4  C7  UNL     1     -15.106  -2.504 -40.843  1.00  0.00     0.076 C 
HETATM    5  C8  UNL     1     -15.128  -2.833 -39.396  1.00  0.00     0.073 C 
HETATM    6  N1  UNL     1     -16.093  -2.555 -38.588  1.00  0.00    -0.371 N 
ATOM      7  H1  UNL     1     -15.961  -2.846 -37.619  1.00  0.00     0.161 HD
HETATM    8  N2  UNL     1     -13.960  -3.512 -38.909  1.00  0.00    -0.367 N 
ATOM      9  H2  UNL     1     -14.015  -4.208 -38.164  1.00  0.00     0.162 HD
ENDROOT
BRANCH   6  10
HETATM   10  C9  UNL     1     -17.306  -1.900 -38.874  1.00  0.00     0.238 C 
BRANCH  10  11
HETATM   11  C10 UNL     1     -17.786  -1.085 -37.668  1.00  0.00     0.403 C 
HETATM   12  F1  UNL     1     -18.181   0.159 -38.091  1.00  0.00    -0.169 F 
HETATM   13  F2  UNL     1     -18.767  -1.732 -36.969  1.00  0.00    -0.169 F 
HETATM   14  F3  UNL     1     -16.668  -0.889 -36.859  1.00  0.00    -0.169 F 
ENDBRANCH  10  11
ENDBRANCH   6  10
BRANCH   1  15
HETATM   15  S1  UNL     1     -11.345  -3.194 -38.321  1.00  0.00    -0.140 SA
BRANCH  15  16
HETATM   16  C2  UNL     1     -11.911  -2.747 -36.686  1.00  0.00     0.041 C 
HETATM   17  C1  UNL     1     -12.447  -3.933 -35.906  1.00  0.00     0.021 C 
HETATM   18  C3  UNL     1     -10.739  -2.161 -35.910  1.00  0.00     0.021 C 
ENDBRANCH  15  16
ENDBRANCH   1  15
TORSDOF 4
ENDMDL
MODEL 4
REMARK VINA RESULT: -6.245153346      4.008      4.781
REMARK  4 active torsions:
REMARK  status: ('A' for Active; 'I' for Inactive)
REMARK    1  A    between atoms: C2_2  and  S1_4 
REMARK    2  A    between atoms: S1_4  and  C4_5 
REMARK    3  A    between atoms: N1_10  and  C9_12 
REMARK    4  A    between atoms: C9_12  and  C10_13 
ROOT
HETATM    1  C4  UNL     1     -14.248  -2.565 -39.069  1.00  0.00     0.145 C 
HETATM    2  C5  UNL     1     -13.989  -3.796 -38.191  1.00  0.00     0.036 C 
HETATM    3  C6  UNL     1     -15.027  -3.808 -37.093  1.00  0.00     0.010 C 
HETATM    4  C7  UNL     1     -16.403  -3.707 -37.654  1.00  0.00     0.076 C 
HETATM    5  C8  UNL     1     -16.383  -3.774 -39.136  1.00  0.00     0.073 C 
HETATM    6  N1  UNL     1     -17.100  -4.572 -39.851  1.00  0.00    -0.371 N 
ATOM      7  H1  UNL     1     -16.975  -4.500 -40.861  1.00  0.00     0.161 HD
HETATM    8  N2  UNL     1     -15.480  -2.858 -39.775  1.00  0.00    -0.367 N 
ATOM      9  H2  UNL     1     -15.694  -2.435 -40.678  1.00  0.00     0.162 HD
ENDROOT
BRANCH   6  10
HETATM   10  C9  UNL     1     -18.033  -5.532 -39.413  1.00  0.00     0.238 C 
BRANCH  10  11
HETATM   11  C10 UNL     1     -17.436  -6.942 -39.471  1.00  0.00     0.403 C 
HETATM   12  F1  UNL     1     -18.331  -7.788 -40.077  1.00  0.00    -0.169 F 
HETATM   13  F2  UNL     1     -16.212  -6.957 -40.079  1.00  0.00    -0.169 F 
HETATM   14  F3  UNL     1     -17.321  -7.372 -38.150  1.00  0.00    -0.169 F 
ENDBRANCH  10  11
ENDBRANCH   6  10
BRANCH   1  15
HETATM   15  S1  UNL     1     -12.871  -2.338 -40.229  1.00  0.00    -0.140 SA
BRANCH  15  16
HETATM   16  C2  UNL     1     -11.460  -3.338 -39.778  1.00  0.00     0.041 C 
HETATM   17  C1  UNL     1     -10.592  -3.699 -40.969  1.00  0.00     0.021 C 
HETATM   18  C3  UNL     1     -10.605  -2.554 -38.791  1.00  0.00     0.021 C 
ENDBRANCH  15  16
ENDBRANCH   1  15
TORSDOF 4
ENDMDL
MODEL 5
REMARK VINA RESULT: -6.207775563      3.663      6.179
REMARK  4 active torsions:
REMARK  status: ('A' for Active; 'I' for Inactive)
REMARK    1  A    between atoms: C2_2  and  S1_4 
REMARK    2  A    between atoms: S1_4  and  C4_5 
REMARK    3  A    between atoms: N1_10  and  C9_12 
REMARK    4  A    between atoms: C9_12  and  C10_13 
ROOT
HETATM    1  C4  UNL     1     -16.269  -2.331 -38.735  1.00  0.00     0.145 C 
HETATM    2  C5  UNL     1     -15.755  -3.234 -39.864  1.00  0.00     0.036 C 
HETATM    3  C6  UNL     1     -14.633  -2.506 -40.565  1.00  0.00     0.010 C 
HETATM    4  C7  UNL     1     -13.598  -2.052 -39.595  1.00  0.00     0.076 C 
HETATM    5  C8  UNL     1     -13.878  -2.569 -38.232  1.00  0.00     0.073 C 
HETATM    6  N1  UNL     1     -13.033  -3.201 -37.492  1.00  0.00    -0.371 N 
ATOM      7  H1  UNL     1     -13.374  -3.494 -36.576  1.00  0.00     0.161 HD
HETATM    8  N2  UNL     1     -15.207  -2.320 -37.748  1.00  0.00    -0.367 N 
ATOM      9  H2  UNL     1     -15.394  -2.144 -36.761  1.00  0.00     0.162 HD
ENDROOT
BRANCH   6  10
HETATM   10  C9  UNL     1     -11.698  -3.537 -37.788  1.00  0.00     0.238 C 
BRANCH  10  11
HETATM   11  C10 UNL     1     -10.728  -2.522 -37.174  1.00  0.00     0.403 C 
HETATM   12  F1  UNL     1     -10.998  -1.275 -37.681  1.00  0.00    -0.169 F 
HETATM   13  F2  UNL     1     -10.757  -2.546 -35.808  1.00  0.00    -0.169 F 
HETATM   14  F3  UNL     1      -9.458  -2.867 -37.634  1.00  0.00    -0.169 F 
ENDBRANCH  10  11
ENDBRANCH   6  10
BRANCH   1  15
HETATM   15  S1  UNL     1     -17.796  -3.025 -38.041  1.00  0.00    -0.140 SA
BRANCH  15  16
HETATM   16  C2  UNL     1     -19.029  -1.759 -37.771  1.00  0.00     0.041 C 
HETATM   17  C1  UNL     1     -19.681  -1.858 -36.405  1.00  0.00     0.021 C 
HETATM   18  C3  UNL     1     -18.356  -0.396 -37.876  1.00  0.00     0.021 C 
ENDBRANCH  15  16
ENDBRANCH   1  15
TORSDOF 4
ENDMDL
