MODEL 1
REMARK VINA RESULT: -7.558364911      0.000      0.000
REMARK  7 active torsions:
REMARK  status: ('A' for Active; 'I' for Inactive)
REMARK    1  A    between atoms: C5_7  and  C6_8 
REMARK       I    between atoms: C6_8  and  N1_10 
REMARK    2  A    between atoms: N1_10  and  C7_12 
REMARK    3  A    between atoms: C12_17  and  O3_18 
REMARK    4  A    between atoms: C12_17  and  C13_20 
REMARK    5  A    between atoms: C13_20  and  O5_22 
REMARK    6  A    between atoms: O5_22  and  C14_23 
REMARK    7  A    between atoms: C17_26  and  O6_28 
ROOT
HETATM    1  C7  UNL     1      16.306  -2.774  38.813  1.00  0.00     0.051 C 
HETATM    2  C8  UNL     1      16.109  -2.289  40.010  1.00  0.00     0.028 C 
HETATM    3  C9  UNL     1      14.823  -2.115  40.670  1.00  0.00     0.003 C 
HETATM    4  C10 UNL     1      13.734  -2.433  39.991  1.00  0.00     0.013 C 
HETATM    5  C11 UNL     1      13.878  -2.909  38.591  1.00  0.00     0.021 C 
HETATM    6  C12 UNL     1      12.949  -2.664  37.707  1.00  0.00     0.151 C 
HETATM    7  C17 UNL     1      15.116  -3.584  38.274  1.00  0.00     0.126 C 
HETATM    8  C18 UNL     1      15.358  -4.109  36.917  1.00  0.00     0.058 C 
ENDROOT
BRANCH   1   9
HETATM    9  N1  UNL     1      17.505  -2.934  38.113  1.00  0.00    -0.323 N 
HETATM   10  C6  UNL     1      18.296  -1.918  37.535  1.00  0.00     0.260 C 
HETATM   11  O2  UNL     1      18.015  -0.691  37.574  1.00  0.00    -0.267 OA
ATOM     12  H1  UNL     1      17.846  -3.890  38.009  1.00  0.00     0.169 HD
BRANCH  10  13
HETATM   13  C5  UNL     1      19.545  -2.323  36.828  1.00  0.00     0.084 A 
HETATM   14  C4  UNL     1      20.526  -3.216  37.408  1.00  0.00     0.209 A 
HETATM   15  C3  UNL     1      21.573  -3.331  36.373  1.00  0.00     0.091 A 
HETATM   16  O1  UNL     1      20.513  -3.783  38.542  1.00  0.00    -0.285 OA
HETATM   17  C2  UNL     1      21.239  -2.598  35.327  1.00  0.00    -0.035 A 
HETATM   18 CL1  UNL     1      23.017  -4.305  36.553  1.00  0.00    -0.079 Cl
HETATM   19  C1  UNL     1      22.031  -2.444  34.067  1.00  0.00     0.050 C 
HETATM   20  C19 UNL     1      19.952  -1.967  35.633  1.00  0.00     0.029 A 
ENDBRANCH  10  13
ENDBRANCH   1   9
BRANCH   7  21
HETATM   21  O6  UNL     1      15.225  -4.757  39.160  1.00  0.00    -0.379 OA
ATOM     22  H6  UNL     1      15.418  -5.415  38.504  1.00  0.00     0.211 HD
ENDBRANCH   7  21
BRANCH   6  23
HETATM   23  O3  UNL     1      13.134  -3.142  36.389  1.00  0.00    -0.355 OA
ATOM     24  H3  UNL     1      12.788  -2.627  35.670  1.00  0.00     0.218 HD
ENDBRANCH   6  23
BRANCH   6  25
HETATM   25  C13 UNL     1      11.737  -1.927  37.988  1.00  0.00     0.317 C 
HETATM   26  O4  UNL     1      11.598  -0.738  38.303  1.00  0.00    -0.257 OA
BRANCH  25  27
HETATM   27  O5  UNL     1      10.478  -2.594  37.912  1.00  0.00    -0.311 OA
BRANCH  27  28
HETATM   28  C14 UNL     1      10.096  -3.491  38.883  1.00  0.00     0.124 C 
HETATM   29  C15 UNL     1      10.305  -3.034  40.302  1.00  0.00     0.040 C 
HETATM   30  C16 UNL     1      10.939  -4.752  38.707  1.00  0.00     0.040 C 
ENDBRANCH  27  28
ENDBRANCH  25  27
ENDBRANCH   6  25
TORSDOF 7
ENDMDL
MODEL 2
REMARK VINA RESULT: -7.535318541      3.055      4.082
REMARK  7 active torsions:
REMARK  status: ('A' for Active; 'I' for Inactive)
REMARK    1  A    between atoms: C5_7  and  C6_8 
REMARK       I    between atoms: C6_8  and  N1_10 
REMARK    2  A    between atoms: N1_10  and  C7_12 
REMARK    3  A    between atoms: C12_17  and  O3_18 
REMARK    4  A    between atoms: C12_17  and  C13_20 
REMARK    5  A    between atoms: C13_20  and  O5_22 
REMARK    6  A    between atoms: O5_22  and  C14_23 
REMARK    7  A    between atoms: C17_26  and  O6_28 
ROOT
HETATM    1  C7  UNL     1      15.632  -4.263  38.094  1.00  0.00     0.051 C 
HETATM    2  C8  UNL     1      15.101  -4.352  36.905  1.00  0.00     0.028 C 
HETATM    3  C9  UNL     1      14.042  -3.510  36.366  1.00  0.00     0.003 C 
HETATM    4  C10 UNL     1      13.525  -2.587  37.160  1.00  0.00     0.013 C 
HETATM    5  C11 UNL     1      14.021  -2.486  38.557  1.00  0.00     0.021 C 
HETATM    6  C12 UNL     1      13.229  -2.092  39.517  1.00  0.00     0.151 C 
HETATM    7  C17 UNL     1      15.386  -2.907  38.778  1.00  0.00     0.126 C 
HETATM    8  C18 UNL     1      15.984  -2.837  40.125  1.00  0.00     0.058 C 
ENDROOT
BRANCH   1   9
HETATM    9  N1  UNL     1      16.621  -5.057  38.681  1.00  0.00    -0.323 N 
HETATM   10  C6  UNL     1      18.017  -4.935  38.522  1.00  0.00     0.260 C 
HETATM   11  O2  UNL     1      18.577  -4.064  37.805  1.00  0.00    -0.267 OA
ATOM     12  H1  UNL     1      16.297  -5.808  39.291  1.00  0.00     0.169 HD
BRANCH  10  13
HETATM   13  C5  UNL     1      18.890  -5.901  39.247  1.00  0.00     0.084 A 
HETATM   14  C4  UNL     1      18.824  -7.334  39.042  1.00  0.00     0.209 A 
HETATM   15  C3  UNL     1      19.850  -7.881  39.953  1.00  0.00     0.091 A 
HETATM   16  O1  UNL     1      18.067  -7.991  38.266  1.00  0.00    -0.285 OA
HETATM   17  C2  UNL     1      20.436  -6.892  40.601  1.00  0.00    -0.035 A 
HETATM   18 CL1  UNL     1      20.199  -9.590  40.111  1.00  0.00    -0.079 Cl
HETATM   19  C1  UNL     1      21.528  -7.024  41.614  1.00  0.00     0.050 C 
HETATM   20  C19 UNL     1      19.816  -5.646  40.141  1.00  0.00     0.029 A 
ENDBRANCH  10  13
ENDBRANCH   1   9
BRANCH   7  21
HETATM   21  O6  UNL     1      16.254  -2.070  37.932  1.00  0.00    -0.379 OA
ATOM     22  H6  UNL     1      15.691  -1.309  37.855  1.00  0.00     0.211 HD
ENDBRANCH   7  21
BRANCH   6  23
HETATM   23  O3  UNL     1      13.752  -2.011  40.828  1.00  0.00    -0.355 OA
ATOM     24  H3  UNL     1      14.048  -2.811  41.246  1.00  0.00     0.218 HD
ENDBRANCH   6  23
BRANCH   6  25
HETATM   25  C13 UNL     1      11.840  -1.737  39.327  1.00  0.00     0.317 C 
HETATM   26  O4  UNL     1      11.354  -0.764  38.734  1.00  0.00    -0.257 OA
BRANCH  25  27
HETATM   27  O5  UNL     1      10.821  -2.576  39.869  1.00  0.00    -0.311 OA
BRANCH  27  28
HETATM   28  C14 UNL     1      10.216  -3.539  39.096  1.00  0.00     0.124 C 
HETATM   29  C15 UNL     1      11.085  -4.712  38.728  1.00  0.00     0.040 C 
HETATM   30  C16 UNL     1       9.797  -2.883  37.781  1.00  0.00     0.040 C 
ENDBRANCH  27  28
ENDBRANCH  25  27
ENDBRANCH   6  25
TORSDOF 7
ENDMDL
MODEL 3
REMARK VINA RESULT: -7.449341698      1.092      1.636
REMARK  7 active torsions:
REMARK  status: ('A' for Active; 'I' for Inactive)
REMARK    1  A    between atoms: C5_7  and  C6_8 
REMARK       I    between atoms: C6_8  and  N1_10 
REMARK    2  A    between atoms: N1_10  and  C7_12 
REMARK    3  A    between atoms: C12_17  and  O3_18 
REMARK    4  A    between atoms: C12_17  and  C13_20 
REMARK    5  A    between atoms: C13_20  and  O5_22 
REMARK    6  A    between atoms: O5_22  and  C14_23 
REMARK    7  A    between atoms: C17_26  and  O6_28 
ROOT
HETATM    1  C7  UNL     1      16.181  -2.527  38.901  1.00  0.00     0.051 C 
HETATM    2  C8  UNL     1      15.943  -2.135  40.123  1.00  0.00     0.028 C 
HETATM    3  C9  UNL     1      14.644  -2.095  40.780  1.00  0.00     0.003 C 
HETATM    4  C10 UNL     1      13.584  -2.445  40.071  1.00  0.00     0.013 C 
HETATM    5  C11 UNL     1      13.769  -2.818  38.645  1.00  0.00     0.021 C 
HETATM    6  C12 UNL     1      12.831  -2.584  37.769  1.00  0.00     0.151 C 
HETATM    7  C17 UNL     1      15.054  -3.383  38.299  1.00  0.00     0.126 C 
HETATM    8  C18 UNL     1      15.341  -3.802  36.913  1.00  0.00     0.058 C 
ENDROOT
BRANCH   1   9
HETATM    9  N1  UNL     1      17.392  -2.557  38.204  1.00  0.00    -0.323 N 
HETATM   10  C6  UNL     1      18.451  -3.474  38.374  1.00  0.00     0.260 C 
HETATM   11  O2  UNL     1      18.444  -4.419  39.206  1.00  0.00    -0.267 OA
ATOM     12  H1  UNL     1      17.525  -1.836  37.494  1.00  0.00     0.169 HD
BRANCH  10  13
HETATM   13  C5  UNL     1      19.659  -3.314  37.515  1.00  0.00     0.084 A 
HETATM   14  C4  UNL     1      19.734  -2.359  36.429  1.00  0.00     0.209 A 
HETATM   15  C3  UNL     1      21.088  -2.547  35.869  1.00  0.00     0.091 A 
HETATM   16  O1  UNL     1      18.853  -1.539  36.029  1.00  0.00    -0.285 OA
HETATM   17  C2  UNL     1      21.716  -3.490  36.547  1.00  0.00    -0.035 A 
HETATM   18 CL1  UNL     1      21.717  -1.634  34.515  1.00  0.00    -0.079 Cl
HETATM   19  C1  UNL     1      23.107  -3.980  36.297  1.00  0.00     0.050 C 
HETATM   20  C19 UNL     1      20.796  -3.963  37.585  1.00  0.00     0.029 A 
ENDBRANCH  10  13
ENDBRANCH   1   9
BRANCH   7  21
HETATM   21  O6  UNL     1      15.241  -4.599  39.110  1.00  0.00    -0.379 OA
ATOM     22  H6  UNL     1      15.774  -4.230  39.804  1.00  0.00     0.211 HD
ENDBRANCH   7  21
BRANCH   6  23
HETATM   23  O3  UNL     1      13.057  -2.962  36.425  1.00  0.00    -0.355 OA
ATOM     24  H3  UNL     1      12.311  -3.227  35.900  1.00  0.00     0.218 HD
ENDBRANCH   6  23
BRANCH   6  25
HETATM   25  C13 UNL     1      11.568  -1.954  38.083  1.00  0.00     0.317 C 
HETATM   26  O4  UNL     1      11.338  -0.784  38.420  1.00  0.00    -0.257 OA
BRANCH  25  27
HETATM   27  O5  UNL     1      10.367  -2.721  38.019  1.00  0.00    -0.311 OA
BRANCH  27  28
HETATM   28  C14 UNL     1      10.082  -3.667  38.977  1.00  0.00     0.124 C 
HETATM   29  C15 UNL     1      10.304  -3.230  40.400  1.00  0.00     0.040 C 
HETATM   30  C16 UNL     1      11.008  -4.858  38.742  1.00  0.00     0.040 C 
ENDBRANCH  27  28
ENDBRANCH  25  27
ENDBRANCH   6  25
TORSDOF 7
ENDMDL
MODEL 4
REMARK VINA RESULT: -7.445645777      1.436      1.593
REMARK  7 active torsions:
REMARK  status: ('A' for Active; 'I' for Inactive)
REMARK    1  A    between atoms: C5_7  and  C6_8 
REMARK       I    between atoms: C6_8  and  N1_10 
REMARK    2  A    between atoms: N1_10  and  C7_12 
REMARK    3  A    between atoms: C12_17  and  O3_18 
REMARK    4  A    between atoms: C12_17  and  C13_20 
REMARK    5  A    between atoms: C13_20  and  O5_22 
REMARK    6  A    between atoms: O5_22  and  C14_23 
REMARK    7  A    between atoms: C17_26  and  O6_28 
ROOT
HETATM    1  C7  UNL     1      16.239  -2.351  38.845  1.00  0.00     0.051 C 
HETATM    2  C8  UNL     1      16.012  -2.030  40.090  1.00  0.00     0.028 C 
HETATM    3  C9  UNL     1      14.732  -2.106  40.782  1.00  0.00     0.003 C 
HETATM    4  C10 UNL     1      13.677  -2.493  40.085  1.00  0.00     0.013 C 
HETATM    5  C11 UNL     1      13.844  -2.789  38.639  1.00  0.00     0.021 C 
HETATM    6  C12 UNL     1      12.867  -2.578  37.800  1.00  0.00     0.151 C 
HETATM    7  C17 UNL     1      15.153  -3.252  38.234  1.00  0.00     0.126 C 
HETATM    8  C18 UNL     1      15.426  -3.588  36.823  1.00  0.00     0.058 C 
ENDROOT
BRANCH   1   9
HETATM    9  N1  UNL     1      17.428  -2.269  38.116  1.00  0.00    -0.323 N 
HETATM   10  C6  UNL     1      18.059  -1.100  37.644  1.00  0.00     0.260 C 
HETATM   11  O2  UNL     1      17.618   0.067  37.822  1.00  0.00    -0.267 OA
ATOM     12  H1  UNL     1      17.891  -3.153  37.902  1.00  0.00     0.169 HD
BRANCH  10  13
HETATM   13  C5  UNL     1      19.331  -1.251  36.881  1.00  0.00     0.084 A 
HETATM   14  C4  UNL     1      20.303  -0.186  36.747  1.00  0.00     0.209 A 
HETATM   15  C3  UNL     1      21.381  -0.775  35.927  1.00  0.00     0.091 A 
HETATM   16  O1  UNL     1      20.261   0.992  37.215  1.00  0.00    -0.285 OA
HETATM   17  C2  UNL     1      21.072  -2.023  35.626  1.00  0.00    -0.035 A 
HETATM   18 CL1  UNL     1      22.828   0.090  35.454  1.00  0.00    -0.079 Cl
HETATM   19  C1  UNL     1      21.900  -2.966  34.811  1.00  0.00     0.050 C 
HETATM   20  C19 UNL     1      19.772  -2.307  36.239  1.00  0.00     0.029 A 
ENDBRANCH  10  13
ENDBRANCH   1   9
BRANCH   7  21
HETATM   21  O6  UNL     1      15.441  -4.488  38.982  1.00  0.00    -0.379 OA
ATOM     22  H6  UNL     1      16.323  -4.645  38.666  1.00  0.00     0.211 HD
ENDBRANCH   7  21
BRANCH   6  23
HETATM   23  O3  UNL     1      13.078  -2.881  36.434  1.00  0.00    -0.355 OA
ATOM     24  H3  UNL     1      13.466  -3.719  36.213  1.00  0.00     0.218 HD
ENDBRANCH   6  23
BRANCH   6  25
HETATM   25  C13 UNL     1      11.576  -2.048  38.176  1.00  0.00     0.317 C 
HETATM   26  O4  UNL     1      11.283  -0.916  38.585  1.00  0.00    -0.257 OA
BRANCH  25  27
HETATM   27  O5  UNL     1      10.423  -2.884  38.091  1.00  0.00    -0.311 OA
BRANCH  27  28
HETATM   28  C14 UNL     1      10.204  -3.878  39.017  1.00  0.00     0.124 C 
HETATM   29  C15 UNL     1      10.411  -3.478  40.454  1.00  0.00     0.040 C 
HETATM   30  C16 UNL     1      11.198  -5.003  38.734  1.00  0.00     0.040 C 
ENDBRANCH  27  28
ENDBRANCH  25  27
ENDBRANCH   6  25
TORSDOF 7
ENDMDL
MODEL 5
REMARK VINA RESULT: -7.441961763      2.634      3.974
REMARK  7 active torsions:
REMARK  status: ('A' for Active; 'I' for Inactive)
REMARK    1  A    between atoms: C5_7  and  C6_8 
REMARK       I    between atoms: C6_8  and  N1_10 
REMARK    2  A    between atoms: N1_10  and  C7_12 
REMARK    3  A    between atoms: C12_17  and  O3_18 
REMARK    4  A    between atoms: C12_17  and  C13_20 
REMARK    5  A    between atoms: C13_20  and  O5_22 
REMARK    6  A    between atoms: O5_22  and  C14_23 
REMARK    7  A    between atoms: C17_26  and  O6_28 
ROOT
HETATM    1  C7  UNL     1      16.642  -3.734  38.315  1.00  0.00     0.051 C 
HETATM    2  C8  UNL     1      16.202  -4.296  37.221  1.00  0.00     0.028 C 
HETATM    3  C9  UNL     1      14.873  -4.145  36.647  1.00  0.00     0.003 C 
HETATM    4  C10 UNL     1      13.997  -3.404  37.306  1.00  0.00     0.013 C 
HETATM    5  C11 UNL     1      14.401  -2.805  38.604  1.00  0.00     0.021 C 
HETATM    6  C12 UNL     1      13.522  -2.614  39.550  1.00  0.00     0.151 C 
HETATM    7  C17 UNL     1      15.810  -2.520  38.760  1.00  0.00     0.126 C 
HETATM    8  C18 UNL     1      16.319  -1.911  40.004  1.00  0.00     0.058 C 
ENDROOT
BRANCH   1   9
HETATM    9  N1  UNL     1      17.887  -3.865  38.934  1.00  0.00    -0.323 N 
HETATM   10  C6  UNL     1      18.289  -4.873  39.835  1.00  0.00     0.260 C 
HETATM   11  O2  UNL     1      17.553  -5.822  40.213  1.00  0.00    -0.267 OA
ATOM     12  H1  UNL     1      18.583  -3.152  38.710  1.00  0.00     0.169 HD
BRANCH  10  13
HETATM   13  C5  UNL     1      19.677  -4.814  40.377  1.00  0.00     0.084 A 
HETATM   14  C4  UNL     1      20.760  -4.131  39.701  1.00  0.00     0.209 A 
HETATM   15  C3  UNL     1      21.926  -4.328  40.586  1.00  0.00     0.091 A 
HETATM   16  O1  UNL     1      20.739  -3.502  38.600  1.00  0.00    -0.285 OA
HETATM   17  C2  UNL     1      21.562  -5.034  41.641  1.00  0.00    -0.035 A 
HETATM   18 CL1  UNL     1      23.525  -3.700  40.244  1.00  0.00    -0.079 Cl
HETATM   19  C1  UNL     1      22.447  -5.449  42.773  1.00  0.00     0.050 C 
HETATM   20  C19 UNL     1      20.135  -5.332  41.492  1.00  0.00     0.029 A 
ENDBRANCH  10  13
ENDBRANCH   1   9
BRANCH   7  21
HETATM   21  O6  UNL     1      16.196  -1.581  37.692  1.00  0.00    -0.379 OA
ATOM     22  H6  UNL     1      17.068  -1.362  38.000  1.00  0.00     0.211 HD
ENDBRANCH   7  21
BRANCH   6  23
HETATM   23  O3  UNL     1      13.959  -2.037  40.765  1.00  0.00    -0.355 OA
ATOM     24  H3  UNL     1      14.147  -1.106  40.780  1.00  0.00     0.218 HD
ENDBRANCH   6  23
BRANCH   6  25
HETATM   25  C13 UNL     1      12.123  -2.961  39.439  1.00  0.00     0.317 C 
HETATM   26  O4  UNL     1      11.510  -3.914  39.937  1.00  0.00    -0.257 OA
BRANCH  25  27
HETATM   27  O5  UNL     1      11.257  -2.135  38.662  1.00  0.00    -0.311 OA
BRANCH  27  28
HETATM   28  C14 UNL     1      10.392  -2.687  37.745  1.00  0.00     0.124 C 
HETATM   29  C15 UNL     1      10.454  -2.097  36.362  1.00  0.00     0.040 C 
HETATM   30  C16 UNL     1       8.969  -2.452  38.250  1.00  0.00     0.040 C 
ENDBRANCH  27  28
ENDBRANCH  25  27
ENDBRANCH   6  25
TORSDOF 7
ENDMDL
