MODEL 1
REMARK VINA RESULT: -8.287950633      0.000      0.000
REMARK  8 active torsions:
REMARK  status: ('A' for Active; 'I' for Inactive)
REMARK    1  A    between atoms: C2_2  and  C4_4 
REMARK    2  A    between atoms: C2_2  and  C5_7 
REMARK    3  A    between atoms: C4_4  and  O1_5 
REMARK    4  A    between atoms: C5_7  and  C6_8 
REMARK    5  A    between atoms: C6_8  and  O2_9 
REMARK    6  A    between atoms: C8_12  and  O3_13 
REMARK    7  A    between atoms: C8_12  and  C9_15 
REMARK    8  A    between atoms: C9_15  and  C10_16 
ROOT
HETATM    1  C5  UNL     1      12.265  -2.596  38.792  1.00  0.00     0.093 C 
HETATM    2  C7  UNL     1      13.518  -2.859  39.529  1.00  0.00     0.079 C 
HETATM    3  C8  UNL     1      14.682  -3.357  38.693  1.00  0.00     0.065 C 
HETATM    4  C18 UNL     1      14.242  -4.156  37.525  1.00  0.00     0.064 C 
HETATM    5  C19 UNL     1      13.218  -3.363  36.779  1.00  0.00     0.172 C 
HETATM    6  O6  UNL     1      12.222  -2.822  37.464  1.00  0.00    -0.377 OA
ENDROOT
BRANCH   3   7
HETATM    7  O3  UNL     1      15.514  -4.186  39.484  1.00  0.00    -0.390 OA
ATOM      8  H3  UNL     1      15.351  -5.097  39.269  1.00  0.00     0.210 HD
ENDBRANCH   3   7
BRANCH   3   9
HETATM    9  C9  UNL     1      15.543  -2.203  38.252  1.00  0.00     0.072 C 
BRANCH   9  10
HETATM   10  C10 UNL     1      16.876  -2.113  38.919  1.00  0.00     0.156 C 
HETATM   11  C11 UNL     1      17.807  -3.204  38.355  1.00  0.00     0.208 C 
HETATM   12  O4  UNL     1      18.427  -2.755  37.173  1.00  0.00    -0.346 OA
HETATM   13  C12 UNL     1      19.085  -1.535  37.203  1.00  0.00     0.102 A 
HETATM   14  C13 UNL     1      20.204  -1.296  36.424  1.00  0.00     0.041 A 
HETATM   15  C17 UNL     1      18.588  -0.562  38.038  1.00  0.00     0.104 A 
HETATM   16  C14 UNL     1      20.858  -0.089  36.450  1.00  0.00     0.026 A 
HETATM   17  C15 UNL     1      20.352   0.889  37.294  1.00  0.00     0.036 A 
HETATM   18 CL1  UNL     1      21.155   2.433  37.357  1.00  0.00    -0.084 Cl
HETATM   19  C16 UNL     1      19.241   0.652  38.069  1.00  0.00     0.063 A 
HETATM   20  O5  UNL     1      17.472  -0.839  38.798  1.00  0.00    -0.341 OA
ENDBRANCH   9  10
ENDBRANCH   3   9
BRANCH   1  21
HETATM   21  C2  UNL     1      11.043  -3.249  39.413  1.00  0.00     0.007 C 
HETATM   22  C1  UNL     1      10.884  -4.691  39.081  1.00  0.00     0.020 C 
HETATM   23  C3  UNL     1       9.765  -2.530  38.962  1.00  0.00     0.020 C 
BRANCH  21  24
HETATM   24  C4  UNL     1      11.044  -3.119  40.922  1.00  0.00     0.176 C 
BRANCH  24  25
HETATM   25  O1  UNL     1      10.277  -4.209  41.397  1.00  0.00    -0.400 OA
ATOM     26  H1  UNL     1      10.689  -4.474  42.211  1.00  0.00     0.209 HD
ENDBRANCH  24  25
ENDBRANCH  21  24
ENDBRANCH   1  21
BRANCH   1  27
HETATM   27  C6  UNL     1      12.009  -1.080  38.940  1.00  0.00     0.203 C 
BRANCH  27  28
HETATM   28  O2  UNL     1      12.290  -0.390  37.790  1.00  0.00    -0.398 OA
ATOM     29  H2  UNL     1      12.027   0.522  37.842  1.00  0.00     0.209 HD
ENDBRANCH  27  28
ENDBRANCH   1  27
TORSDOF 8
ENDMDL
MODEL 2
REMARK VINA RESULT: -8.279822803      2.936      4.055
REMARK  8 active torsions:
REMARK  status: ('A' for Active; 'I' for Inactive)
REMARK    1  A    between atoms: C2_2  and  C4_4 
REMARK    2  A    between atoms: C2_2  and  C5_7 
REMARK    3  A    between atoms: C4_4  and  O1_5 
REMARK    4  A    between atoms: C5_7  and  C6_8 
REMARK    5  A    between atoms: C6_8  and  O2_9 
REMARK    6  A    between atoms: C8_12  and  O3_13 
REMARK    7  A    between atoms: C8_12  and  C9_15 
REMARK    8  A    between atoms: C9_15  and  C10_16 
ROOT
HETATM    1  C5  UNL     1      12.100  -2.594  39.507  1.00  0.00     0.093 C 
HETATM    2  C7  UNL     1      13.032  -3.520  38.831  1.00  0.00     0.079 C 
HETATM    3  C8  UNL     1      13.723  -2.972  37.596  1.00  0.00     0.065 C 
HETATM    4  C18 UNL     1      12.894  -1.979  36.873  1.00  0.00     0.064 C 
HETATM    5  C19 UNL     1      12.441  -0.949  37.856  1.00  0.00     0.172 C 
HETATM    6  O6  UNL     1      11.910  -1.361  38.997  1.00  0.00    -0.377 OA
ENDROOT
BRANCH   3   7
HETATM    7  O3  UNL     1      13.997  -4.031  36.697  1.00  0.00    -0.390 OA
ATOM      8  H3  UNL     1      13.511  -3.898  35.891  1.00  0.00     0.210 HD
ENDBRANCH   3   7
BRANCH   3   9
HETATM    9  C9  UNL     1      15.060  -2.381  37.962  1.00  0.00     0.072 C 
BRANCH   9  10
HETATM   10  C10 UNL     1      16.241  -3.040  37.329  1.00  0.00     0.156 C 
HETATM   11  C11 UNL     1      17.519  -2.259  37.691  1.00  0.00     0.208 C 
HETATM   12  O4  UNL     1      18.016  -2.684  38.939  1.00  0.00    -0.346 OA
HETATM   13  C12 UNL     1      18.215  -4.042  39.134  1.00  0.00     0.102 A 
HETATM   14  C13 UNL     1      19.228  -4.516  39.950  1.00  0.00     0.041 A 
HETATM   15  C17 UNL     1      17.369  -4.911  38.487  1.00  0.00     0.104 A 
HETATM   16  C14 UNL     1      19.429  -5.860  40.147  1.00  0.00     0.026 A 
HETATM   17  C15 UNL     1      18.572  -6.731  39.492  1.00  0.00     0.036 A 
HETATM   18 CL1  UNL     1      18.794  -8.444  39.716  1.00  0.00    -0.084 Cl
HETATM   19  C16 UNL     1      17.566  -6.262  38.681  1.00  0.00     0.063 A 
HETATM   20  O5  UNL     1      16.372  -4.400  37.684  1.00  0.00    -0.341 OA
ENDBRANCH   9  10
ENDBRANCH   3   9
BRANCH   1  21
HETATM   21  C2  UNL     1      10.734  -3.197  39.784  1.00  0.00     0.007 C 
HETATM   22  C1  UNL     1      10.557  -4.578  39.261  1.00  0.00     0.020 C 
HETATM   23  C3  UNL     1       9.630  -2.327  39.168  1.00  0.00     0.020 C 
BRANCH  21  24
HETATM   24  C4  UNL     1      10.422  -3.219  41.266  1.00  0.00     0.176 C 
BRANCH  24  25
HETATM   25  O1  UNL     1      10.040  -4.551  41.553  1.00  0.00    -0.400 OA
ATOM     26  H1  UNL     1      10.139  -4.647  42.493  1.00  0.00     0.209 HD
ENDBRANCH  24  25
ENDBRANCH  21  24
ENDBRANCH   1  21
BRANCH   1  27
HETATM   27  C6  UNL     1      12.705  -2.349  40.907  1.00  0.00     0.203 C 
BRANCH  27  28
HETATM   28  O2  UNL     1      12.745  -1.019  41.232  1.00  0.00    -0.398 OA
ATOM     29  H2  UNL     1      13.220  -0.858  42.039  1.00  0.00     0.209 HD
ENDBRANCH  27  28
ENDBRANCH   1  27
TORSDOF 8
ENDMDL
MODEL 3
REMARK VINA RESULT: -8.208803552      1.910      2.384
REMARK  8 active torsions:
REMARK  status: ('A' for Active; 'I' for Inactive)
REMARK    1  A    between atoms: C2_2  and  C4_4 
REMARK    2  A    between atoms: C2_2  and  C5_7 
REMARK    3  A    between atoms: C4_4  and  O1_5 
REMARK    4  A    between atoms: C5_7  and  C6_8 
REMARK    5  A    between atoms: C6_8  and  O2_9 
REMARK    6  A    between atoms: C8_12  and  O3_13 
REMARK    7  A    between atoms: C8_12  and  C9_15 
REMARK    8  A    between atoms: C9_15  and  C10_16 
ROOT
HETATM    1  C5  UNL     1      12.189  -2.606  38.848  1.00  0.00     0.093 C 
HETATM    2  C7  UNL     1      13.480  -3.024  39.431  1.00  0.00     0.079 C 
HETATM    3  C8  UNL     1      14.557  -3.412  38.435  1.00  0.00     0.065 C 
HETATM    4  C18 UNL     1      13.998  -3.993  37.192  1.00  0.00     0.064 C 
HETATM    5  C19 UNL     1      12.957  -3.058  36.668  1.00  0.00     0.172 C 
HETATM    6  O6  UNL     1      12.038  -2.608  37.509  1.00  0.00    -0.377 OA
ENDROOT
BRANCH   3   7
HETATM    7  O3  UNL     1      15.409  -4.384  39.012  1.00  0.00    -0.390 OA
ATOM      8  H3  UNL     1      15.842  -4.876  38.324  1.00  0.00     0.210 HD
ENDBRANCH   3   7
BRANCH   3   9
HETATM    9  C9  UNL     1      15.432  -2.227  38.120  1.00  0.00     0.072 C 
BRANCH   9  10
HETATM   10  C10 UNL     1      16.504  -2.479  37.113  1.00  0.00     0.156 C 
HETATM   11  C11 UNL     1      17.177  -1.145  36.734  1.00  0.00     0.208 C 
HETATM   12  O4  UNL     1      18.191  -0.828  37.659  1.00  0.00    -0.346 OA
HETATM   13  C12 UNL     1      19.154  -1.789  37.925  1.00  0.00     0.102 A 
HETATM   14  C13 UNL     1      20.457  -1.442  38.240  1.00  0.00     0.041 A 
HETATM   15  C17 UNL     1      18.774  -3.108  37.867  1.00  0.00     0.104 A 
HETATM   16  C14 UNL     1      21.414  -2.389  38.505  1.00  0.00     0.026 A 
HETATM   17  C15 UNL     1      21.023  -3.719  38.445  1.00  0.00     0.036 A 
HETATM   18 CL1  UNL     1      22.209  -4.951  38.774  1.00  0.00    -0.084 Cl
HETATM   19  C16 UNL     1      19.730  -4.065  38.132  1.00  0.00     0.063 A 
HETATM   20  O5  UNL     1      17.467  -3.414  37.550  1.00  0.00    -0.341 OA
ENDBRANCH   9  10
ENDBRANCH   3   9
BRANCH   1  21
HETATM   21  C2  UNL     1      10.989  -3.316  39.451  1.00  0.00     0.007 C 
HETATM   22  C1  UNL     1      10.925  -4.771  39.152  1.00  0.00     0.020 C 
HETATM   23  C3  UNL     1       9.684  -2.685  38.946  1.00  0.00     0.020 C 
BRANCH  21  24
HETATM   24  C4  UNL     1      10.937  -3.150  40.956  1.00  0.00     0.176 C 
BRANCH  24  25
HETATM   25  O1  UNL     1      10.226  -4.274  41.437  1.00  0.00    -0.400 OA
ATOM     26  H1  UNL     1      10.596  -4.463  42.291  1.00  0.00     0.209 HD
ENDBRANCH  24  25
ENDBRANCH  21  24
ENDBRANCH   1  21
BRANCH   1  27
HETATM   27  C6  UNL     1      12.009  -1.128  39.260  1.00  0.00     0.203 C 
BRANCH  27  28
HETATM   28  O2  UNL     1      11.993  -0.284  38.180  1.00  0.00    -0.398 OA
ATOM     29  H2  UNL     1      12.107   0.625  38.431  1.00  0.00     0.209 HD
ENDBRANCH  27  28
ENDBRANCH   1  27
TORSDOF 8
ENDMDL
MODEL 4
REMARK VINA RESULT: -7.957915582      3.653      5.250
REMARK  8 active torsions:
REMARK  status: ('A' for Active; 'I' for Inactive)
REMARK    1  A    between atoms: C2_2  and  C4_4 
REMARK    2  A    between atoms: C2_2  and  C5_7 
REMARK    3  A    between atoms: C4_4  and  O1_5 
REMARK    4  A    between atoms: C5_7  and  C6_8 
REMARK    5  A    between atoms: C6_8  and  O2_9 
REMARK    6  A    between atoms: C8_12  and  O3_13 
REMARK    7  A    between atoms: C8_12  and  C9_15 
REMARK    8  A    between atoms: C9_15  and  C10_16 
ROOT
HETATM    1  C5  UNL     1      12.333  -3.204  38.114  1.00  0.00     0.093 C 
HETATM    2  C7  UNL     1      13.538  -3.339  37.269  1.00  0.00     0.079 C 
HETATM    3  C8  UNL     1      14.861  -3.077  37.964  1.00  0.00     0.065 C 
HETATM    4  C18 UNL     1      14.741  -2.087  39.060  1.00  0.00     0.064 C 
HETATM    5  C19 UNL     1      13.628  -2.520  39.958  1.00  0.00     0.172 C 
HETATM    6  O6  UNL     1      12.470  -2.852  39.407  1.00  0.00    -0.377 OA
ENDROOT
BRANCH   3   7
HETATM    7  O3  UNL     1      15.793  -2.564  37.030  1.00  0.00    -0.390 OA
ATOM      8  H3  UNL     1      16.659  -2.903  37.226  1.00  0.00     0.210 HD
ENDBRANCH   3   7
BRANCH   3   9
HETATM    9  C9  UNL     1      15.450  -4.365  38.475  1.00  0.00     0.072 C 
BRANCH   9  10
HETATM   10  C10 UNL     1      16.751  -4.758  37.858  1.00  0.00     0.156 C 
HETATM   11  C11 UNL     1      17.873  -3.854  38.408  1.00  0.00     0.208 C 
HETATM   12  O4  UNL     1      18.357  -4.362  39.629  1.00  0.00    -0.346 OA
HETATM   13  C12 UNL     1      18.750  -5.691  39.673  1.00  0.00     0.102 A 
HETATM   14  C13 UNL     1      19.776  -6.116  40.499  1.00  0.00     0.041 A 
HETATM   15  C17 UNL     1      18.086  -6.581  38.863  1.00  0.00     0.104 A 
HETATM   16  C14 UNL     1      20.169  -7.430  40.547  1.00  0.00     0.026 A 
HETATM   17  C15 UNL     1      19.494  -8.324  39.728  1.00  0.00     0.036 A 
HETATM   18 CL1  UNL     1      19.963 -10.000  39.758  1.00  0.00    -0.084 Cl
HETATM   19  C16 UNL     1      18.476  -7.903  38.906  1.00  0.00     0.063 A 
HETATM   20  O5  UNL     1      17.069  -6.119  38.054  1.00  0.00    -0.341 OA
ENDBRANCH   9  10
ENDBRANCH   3   9
BRANCH   1  21
HETATM   21  C2  UNL     1      11.256  -2.323  37.505  1.00  0.00     0.007 C 
HETATM   22  C1  UNL     1      11.392  -0.878  37.829  1.00  0.00     0.020 C 
HETATM   23  C3  UNL     1       9.867  -2.772  37.978  1.00  0.00     0.020 C 
BRANCH  21  24
HETATM   24  C4  UNL     1      11.209  -2.457  35.997  1.00  0.00     0.176 C 
BRANCH  24  25
HETATM   25  O1  UNL     1      10.628  -1.255  35.528  1.00  0.00    -0.400 OA
ATOM     26  H1  UNL     1      10.041  -1.513  34.827  1.00  0.00     0.209 HD
ENDBRANCH  24  25
ENDBRANCH  21  24
ENDBRANCH   1  21
BRANCH   1  27
HETATM   27  C6  UNL     1      11.700  -4.613  38.156  1.00  0.00     0.203 C 
BRANCH  27  28
HETATM   28  O2  UNL     1      11.952  -5.262  39.337  1.00  0.00    -0.398 OA
ATOM     29  H2  UNL     1      12.567  -5.978  39.232  1.00  0.00     0.209 HD
ENDBRANCH  27  28
ENDBRANCH   1  27
TORSDOF 8
ENDMDL
MODEL 5
REMARK VINA RESULT: -7.902727632      1.768      2.188
REMARK  8 active torsions:
REMARK  status: ('A' for Active; 'I' for Inactive)
REMARK    1  A    between atoms: C2_2  and  C4_4 
REMARK    2  A    between atoms: C2_2  and  C5_7 
REMARK    3  A    between atoms: C4_4  and  O1_5 
REMARK    4  A    between atoms: C5_7  and  C6_8 
REMARK    5  A    between atoms: C6_8  and  O2_9 
REMARK    6  A    between atoms: C8_12  and  O3_13 
REMARK    7  A    between atoms: C8_12  and  C9_15 
REMARK    8  A    between atoms: C9_15  and  C10_16 
ROOT
HETATM    1  C5  UNL     1      12.590  -2.626  38.680  1.00  0.00     0.093 C 
HETATM    2  C7  UNL     1      13.865  -2.664  39.425  1.00  0.00     0.079 C 
HETATM    3  C8  UNL     1      15.070  -3.153  38.644  1.00  0.00     0.065 C 
HETATM    4  C18 UNL     1      14.707  -4.139  37.599  1.00  0.00     0.064 C 
HETATM    5  C19 UNL     1      13.608  -3.557  36.771  1.00  0.00     0.172 C 
HETATM    6  O6  UNL     1      12.566  -3.030  37.394  1.00  0.00    -0.377 OA
ENDROOT
BRANCH   3   7
HETATM    7  O3  UNL     1      15.982  -3.784  39.524  1.00  0.00    -0.390 OA
ATOM      8  H3  UNL     1      16.822  -3.341  39.483  1.00  0.00     0.210 HD
ENDBRANCH   3   7
BRANCH   3   9
HETATM    9  C9  UNL     1      15.812  -1.989  38.040  1.00  0.00     0.072 C 
BRANCH   9  10
HETATM   10  C10 UNL     1      16.960  -2.356  37.159  1.00  0.00     0.156 C 
HETATM   11  C11 UNL     1      17.377  -1.129  36.323  1.00  0.00     0.208 C 
HETATM   12  O4  UNL     1      18.265  -0.317  37.056  1.00  0.00    -0.346 OA
HETATM   13  C12 UNL     1      19.383  -0.915  37.618  1.00  0.00     0.102 A 
HETATM   14  C13 UNL     1      20.577  -0.228  37.761  1.00  0.00     0.041 A 
HETATM   15  C17 UNL     1      19.269  -2.220  38.032  1.00  0.00     0.104 A 
HETATM   16  C14 UNL     1      21.686  -0.815  38.317  1.00  0.00     0.026 A 
HETATM   17  C15 UNL     1      21.565  -2.133  38.733  1.00  0.00     0.036 A 
HETATM   18 CL1  UNL     1      22.950  -2.913  39.444  1.00  0.00    -0.084 Cl
HETATM   19  C16 UNL     1      20.380  -2.816  38.591  1.00  0.00     0.063 A 
HETATM   20  O5  UNL     1      18.064  -2.870  37.872  1.00  0.00    -0.341 OA
ENDBRANCH   9  10
ENDBRANCH   3   9
BRANCH   1  21
HETATM   21  C2  UNL     1      11.440  -3.306  39.401  1.00  0.00     0.007 C 
HETATM   22  C1  UNL     1      10.116  -3.130  38.747  1.00  0.00     0.020 C 
HETATM   23  C3  UNL     1      11.318  -2.774  40.835  1.00  0.00     0.020 C 
BRANCH  21  24
HETATM   24  C4  UNL     1      11.682  -4.793  39.563  1.00  0.00     0.176 C 
BRANCH  24  25
HETATM   25  O1  UNL     1      11.108  -5.397  38.420  1.00  0.00    -0.400 OA
ATOM     26  H1  UNL     1      10.818  -6.256  38.704  1.00  0.00     0.209 HD
ENDBRANCH  24  25
ENDBRANCH  21  24
ENDBRANCH   1  21
BRANCH   1  27
HETATM   27  C6  UNL     1      12.186  -1.135  38.630  1.00  0.00     0.203 C 
BRANCH  27  28
HETATM   28  O2  UNL     1      12.086  -0.665  37.346  1.00  0.00    -0.398 OA
ATOM     29  H2  UNL     1      12.810  -0.950  36.800  1.00  0.00     0.209 HD
ENDBRANCH  27  28
ENDBRANCH   1  27
TORSDOF 8
ENDMDL
