MODEL 1
REMARK VINA RESULT: -8.675849862      0.000      0.000
REMARK  5 active torsions:
REMARK  status: ('A' for Active; 'I' for Inactive)
REMARK    1  A    between atoms: C6_6  and  O1_8 
REMARK    2  A    between atoms: C8_10  and  N1_11 
REMARK       I    between atoms: N1_11  and  C9_12 
REMARK    3  A    between atoms: C9_12  and  C10_14 
REMARK    4  A    between atoms: C10_14  and  C11_15 
REMARK    5  A    between atoms: C17_23  and  C18_24 
ROOT
HETATM    1  C10 UNL     1      15.757  -4.505  39.036  1.00  0.00     0.157 C 
ENDROOT
BRANCH   1   2
HETATM    2  C9  UNL     1      15.585  -3.591  37.805  1.00  0.00     0.291 C 
HETATM    3  N1  UNL     1      14.329  -3.092  37.644  1.00  0.00    -0.406 NA
HETATM    4  O2  UNL     1      16.600  -3.416  37.113  1.00  0.00    -0.257 OA
BRANCH   3   5
HETATM    5  C8  UNL     1      13.057  -2.585  37.480  1.00  0.00     0.204 C 
HETATM    6  C2  UNL     1      12.311  -2.491  38.808  1.00  0.00     0.024 C 
HETATM    7  C1  UNL     1      11.894  -1.106  39.171  1.00  0.00     0.014 C 
HETATM    8  C3  UNL     1      11.115  -3.412  38.707  1.00  0.00    -0.009 C 
HETATM    9  C4  UNL     1      10.858  -4.158  40.006  1.00  0.00     0.010 C 
HETATM   10  C5  UNL     1      11.503  -4.340  37.594  1.00  0.00     0.045 C 
HETATM   11  C6  UNL     1      12.117  -3.408  36.587  1.00  0.00     0.087 C 
HETATM   12  C7  UNL     1      11.110  -2.471  35.940  1.00  0.00     0.049 C 
BRANCH  11  13
HETATM   13  O1  UNL     1      12.788  -4.088  35.575  1.00  0.00    -0.387 OA
ATOM     14  H1  UNL     1      13.491  -3.571  35.197  1.00  0.00     0.210 HD
ENDBRANCH  11  13
ENDBRANCH   3   5
ENDBRANCH   1   2
BRANCH   1  15
HETATM   15  C11 UNL     1      17.105  -5.061  39.007  1.00  0.00    -0.044 A 
HETATM   16  C12 UNL     1      18.139  -4.278  39.492  1.00  0.00     0.032 A 
HETATM   17  C13 UNL     1      19.432  -4.742  39.529  1.00  0.00     0.043 A 
HETATM   18 CL1  UNL     1      20.740  -3.722  40.138  1.00  0.00    -0.084 Cl
HETATM   19  C14 UNL     1      19.696  -6.020  39.067  1.00  0.00    -0.000 A 
HETATM   20  C15 UNL     1      18.669  -6.820  38.574  1.00  0.00     0.078 A 
HETATM   21  C19 UNL     1      20.960  -6.799  38.977  1.00  0.00     0.086 C 
HETATM   22  C16 UNL     1      17.385  -6.322  38.554  1.00  0.00     0.045 A 
HETATM   23  O3  UNL     1      19.184  -8.061  38.168  1.00  0.00    -0.334 OA
HETATM   24  C17 UNL     1      20.455  -8.231  38.789  1.00  0.00     0.234 C 
BRANCH  24  25
HETATM   25  C18 UNL     1      20.331  -8.924  40.079  1.00  0.00     0.204 C 
HETATM   26  O4  UNL     1      19.599  -9.924  40.224  1.00  0.00    -0.646 OA
HETATM   27  O5  UNL     1      21.063  -8.441  41.178  1.00  0.00    -0.646 OA
ENDBRANCH  24  25
ENDBRANCH   1  15
TORSDOF 5
ENDMDL
MODEL 2
REMARK VINA RESULT: -8.666345814      3.884      5.841
REMARK  5 active torsions:
REMARK  status: ('A' for Active; 'I' for Inactive)
REMARK    1  A    between atoms: C6_6  and  O1_8 
REMARK    2  A    between atoms: C8_10  and  N1_11 
REMARK       I    between atoms: N1_11  and  C9_12 
REMARK    3  A    between atoms: C9_12  and  C10_14 
REMARK    4  A    between atoms: C10_14  and  C11_15 
REMARK    5  A    between atoms: C17_23  and  C18_24 
ROOT
HETATM    1  C10 UNL     1      15.885  -1.921  37.802  1.00  0.00     0.157 C 
ENDROOT
BRANCH   1   2
HETATM    2  C9  UNL     1      15.506  -2.759  39.040  1.00  0.00     0.291 C 
HETATM    3  N1  UNL     1      14.175  -3.019  39.160  1.00  0.00    -0.406 NA
HETATM    4  O2  UNL     1      16.447  -3.100  39.774  1.00  0.00    -0.257 OA
BRANCH   3   5
HETATM    5  C8  UNL     1      12.828  -3.283  39.283  1.00  0.00     0.204 C 
HETATM    6  C2  UNL     1      12.166  -3.489  37.923  1.00  0.00     0.024 C 
HETATM    7  C1  UNL     1      11.544  -4.833  37.751  1.00  0.00     0.014 C 
HETATM    8  C3  UNL     1      11.141  -2.388  37.761  1.00  0.00    -0.009 C 
HETATM    9  C4  UNL     1      11.102  -1.850  36.339  1.00  0.00     0.010 C 
HETATM   10  C5  UNL     1      11.607  -1.353  38.741  1.00  0.00     0.045 C 
HETATM   11  C6  UNL     1      11.984  -2.180  39.939  1.00  0.00     0.087 C 
HETATM   12  C7  UNL     1      10.792  -2.819  40.630  1.00  0.00     0.049 C 
BRANCH  11  13
HETATM   13  O1  UNL     1      12.694  -1.447  40.886  1.00  0.00    -0.387 OA
ATOM     14  H1  UNL     1      13.625  -1.631  40.862  1.00  0.00     0.210 HD
ENDBRANCH  11  13
ENDBRANCH   3   5
ENDBRANCH   1   2
BRANCH   1  15
HETATM   15  C11 UNL     1      17.320  -1.665  37.845  1.00  0.00    -0.044 A 
HETATM   16  C12 UNL     1      18.170  -2.670  37.415  1.00  0.00     0.032 A 
HETATM   17  C13 UNL     1      19.533  -2.496  37.394  1.00  0.00     0.043 A 
HETATM   18 CL1  UNL     1      20.601  -3.796  36.856  1.00  0.00    -0.084 Cl
HETATM   19  C14 UNL     1      20.057  -1.286  37.816  1.00  0.00    -0.000 A 
HETATM   20  C15 UNL     1      19.218  -0.265  38.253  1.00  0.00     0.078 A 
HETATM   21  C19 UNL     1      21.457  -0.792  37.910  1.00  0.00     0.086 C 
HETATM   22  C16 UNL     1      17.857  -0.475  38.259  1.00  0.00     0.045 A 
HETATM   23  O3  UNL     1      19.980   0.852  38.628  1.00  0.00    -0.334 OA
HETATM   24  C17 UNL     1      21.269   0.721  38.033  1.00  0.00     0.234 C 
BRANCH  24  25
HETATM   25  C18 UNL     1      21.319   1.371  36.716  1.00  0.00     0.204 C 
HETATM   26  O4  UNL     1      20.858   2.515  36.526  1.00  0.00    -0.646 OA
HETATM   27  O5  UNL     1      21.905   0.678  35.642  1.00  0.00    -0.646 OA
ENDBRANCH  24  25
ENDBRANCH   1  15
TORSDOF 5
ENDMDL
MODEL 3
REMARK VINA RESULT: -8.456858660      2.210      3.033
REMARK  5 active torsions:
REMARK  status: ('A' for Active; 'I' for Inactive)
REMARK    1  A    between atoms: C6_6  and  O1_8 
REMARK    2  A    between atoms: C8_10  and  N1_11 
REMARK       I    between atoms: N1_11  and  C9_12 
REMARK    3  A    between atoms: C9_12  and  C10_14 
REMARK    4  A    between atoms: C10_14  and  C11_15 
REMARK    5  A    between atoms: C17_23  and  C18_24 
ROOT
HETATM    1  C10 UNL     1      16.259  -3.640  37.795  1.00  0.00     0.157 C 
ENDROOT
BRANCH   1   2
HETATM    2  C9  UNL     1      15.594  -2.782  38.892  1.00  0.00     0.291 C 
HETATM    3  N1  UNL     1      14.274  -3.046  39.092  1.00  0.00    -0.406 NA
HETATM    4  O2  UNL     1      16.332  -1.962  39.461  1.00  0.00    -0.257 OA
BRANCH   3   5
HETATM    5  C8  UNL     1      12.937  -3.313  39.296  1.00  0.00     0.204 C 
HETATM    6  C2  UNL     1      12.194  -3.519  37.979  1.00  0.00     0.024 C 
HETATM    7  C1  UNL     1      11.565  -4.864  37.844  1.00  0.00     0.014 C 
HETATM    8  C3  UNL     1      11.160  -2.420  37.881  1.00  0.00    -0.009 C 
HETATM    9  C4  UNL     1      11.033  -1.880  36.465  1.00  0.00     0.010 C 
HETATM   10  C5  UNL     1      11.682  -1.384  38.832  1.00  0.00     0.045 C 
HETATM   11  C6  UNL     1      12.133  -2.211  40.004  1.00  0.00     0.087 C 
HETATM   12  C7  UNL     1      10.986  -2.854  40.766  1.00  0.00     0.049 C 
BRANCH  11  13
HETATM   13  O1  UNL     1      12.898  -1.479  40.907  1.00  0.00    -0.387 OA
ATOM     14  H1  UNL     1      12.379  -1.138  41.626  1.00  0.00     0.210 HD
ENDBRANCH  11  13
ENDBRANCH   3   5
ENDBRANCH   1   2
BRANCH   1  15
HETATM   15  C11 UNL     1      16.934  -4.761  38.439  1.00  0.00    -0.044 A 
HETATM   16  C12 UNL     1      16.192  -5.560  39.292  1.00  0.00     0.032 A 
HETATM   17  C13 UNL     1      16.746  -6.654  39.912  1.00  0.00     0.043 A 
HETATM   18 CL1  UNL     1      15.787  -7.653  41.009  1.00  0.00    -0.084 Cl
HETATM   19  C14 UNL     1      18.076  -6.954  39.672  1.00  0.00    -0.000 A 
HETATM   20  C15 UNL     1      18.838  -6.160  38.819  1.00  0.00     0.078 A 
HETATM   21  C19 UNL     1      18.952  -8.047  40.175  1.00  0.00     0.086 C 
HETATM   22  C16 UNL     1      18.248  -5.072  38.214  1.00  0.00     0.045 A 
HETATM   23  O3  UNL     1      20.146  -6.662  38.740  1.00  0.00    -0.334 OA
HETATM   24  C17 UNL     1      20.123  -8.015  39.191  1.00  0.00     0.234 C 
BRANCH  24  25
HETATM   25  C18 UNL     1      19.905  -8.947  38.077  1.00  0.00     0.204 C 
HETATM   26  O4  UNL     1      18.770  -9.381  37.791  1.00  0.00    -0.646 OA
HETATM   27  O5  UNL     1      21.012  -9.358  37.314  1.00  0.00    -0.646 OA
ENDBRANCH  24  25
ENDBRANCH   1  15
TORSDOF 5
ENDMDL
MODEL 4
REMARK VINA RESULT: -8.453746587      3.497      8.577
REMARK  5 active torsions:
REMARK  status: ('A' for Active; 'I' for Inactive)
REMARK    1  A    between atoms: C6_6  and  O1_8 
REMARK    2  A    between atoms: C8_10  and  N1_11 
REMARK       I    between atoms: N1_11  and  C9_12 
REMARK    3  A    between atoms: C9_12  and  C10_14 
REMARK    4  A    between atoms: C10_14  and  C11_15 
REMARK    5  A    between atoms: C17_23  and  C18_24 
ROOT
HETATM    1  C10 UNL     1      16.846  -3.514  37.889  1.00  0.00     0.157 C 
ENDROOT
BRANCH   1   2
HETATM    2  C9  UNL     1      17.361  -2.128  37.451  1.00  0.00     0.291 C 
HETATM    3  N1  UNL     1      18.716  -1.996  37.475  1.00  0.00    -0.406 NA
HETATM    4  O2  UNL     1      16.492  -1.303  37.126  1.00  0.00    -0.257 OA
BRANCH   3   5
HETATM    5  C8  UNL     1      20.087  -1.860  37.499  1.00  0.00     0.204 C 
HETATM    6  C2  UNL     1      20.633  -1.391  36.153  1.00  0.00     0.024 C 
HETATM    7  C1  UNL     1      21.358  -0.089  36.215  1.00  0.00     0.014 C 
HETATM    8  C3  UNL     1      21.531  -2.492  35.634  1.00  0.00    -0.009 C 
HETATM    9  C4  UNL     1      21.385  -2.688  34.133  1.00  0.00     0.010 C 
HETATM   10  C5  UNL     1      21.067  -3.692  36.405  1.00  0.00     0.045 C 
HETATM   11  C6  UNL     1      20.884  -3.141  37.792  1.00  0.00     0.087 C 
HETATM   12  C7  UNL     1      22.191  -2.762  38.468  1.00  0.00     0.049 C 
BRANCH  11  13
HETATM   13  O1  UNL     1      20.203  -4.022  38.627  1.00  0.00    -0.387 OA
ATOM     14  H1  UNL     1      19.626  -3.573  39.233  1.00  0.00     0.210 HD
ENDBRANCH  11  13
ENDBRANCH   3   5
ENDBRANCH   1   2
BRANCH   1  15
HETATM   15  C11 UNL     1      15.433  -3.389  38.231  1.00  0.00    -0.044 A 
HETATM   16  C12 UNL     1      15.104  -2.692  39.380  1.00  0.00     0.032 A 
HETATM   17  C13 UNL     1      13.796  -2.502  39.754  1.00  0.00     0.043 A 
HETATM   18 CL1  UNL     1      13.397  -1.623  41.233  1.00  0.00    -0.084 Cl
HETATM   19  C14 UNL     1      12.792  -3.025  38.956  1.00  0.00    -0.000 A 
HETATM   20  C15 UNL     1      13.105  -3.730  37.797  1.00  0.00     0.078 A 
HETATM   21  C19 UNL     1      11.310  -2.992  39.079  1.00  0.00     0.086 C 
HETATM   22  C16 UNL     1      14.428  -3.900  37.454  1.00  0.00     0.045 A 
HETATM   23  O3  UNL     1      11.926  -4.159  37.166  1.00  0.00    -0.334 OA
HETATM   24  C17 UNL     1      10.850  -3.371  37.671  1.00  0.00     0.234 C 
BRANCH  24  25
HETATM   25  C18 UNL     1      10.628  -2.177  36.845  1.00  0.00     0.204 C 
HETATM   26  O4  UNL     1      10.273  -1.088  37.340  1.00  0.00    -0.646 OA
HETATM   27  O5  UNL     1      10.824  -2.269  35.456  1.00  0.00    -0.646 OA
ENDBRANCH  24  25
ENDBRANCH   1  15
TORSDOF 5
ENDMDL
MODEL 5
REMARK VINA RESULT: -8.451275106      3.625      4.920
REMARK  5 active torsions:
REMARK  status: ('A' for Active; 'I' for Inactive)
REMARK    1  A    between atoms: C6_6  and  O1_8 
REMARK    2  A    between atoms: C8_10  and  N1_11 
REMARK       I    between atoms: N1_11  and  C9_12 
REMARK    3  A    between atoms: C9_12  and  C10_14 
REMARK    4  A    between atoms: C10_14  and  C11_15 
REMARK    5  A    between atoms: C17_23  and  C18_24 
ROOT
HETATM    1  C10 UNL     1      15.777  -2.892  37.405  1.00  0.00     0.157 C 
ENDROOT
BRANCH   1   2
HETATM    2  C9  UNL     1      15.310  -2.610  38.849  1.00  0.00     0.291 C 
HETATM    3  N1  UNL     1      14.029  -2.987  39.111  1.00  0.00    -0.406 NA
HETATM    4  O2  UNL     1      16.149  -2.084  39.597  1.00  0.00    -0.257 OA
BRANCH   3   5
HETATM    5  C8  UNL     1      12.731  -3.367  39.378  1.00  0.00     0.204 C 
HETATM    6  C2  UNL     1      11.964  -3.696  38.100  1.00  0.00     0.024 C 
HETATM    7  C1  UNL     1      11.460  -5.098  38.042  1.00  0.00     0.014 C 
HETATM    8  C3  UNL     1      10.828  -2.703  38.000  1.00  0.00    -0.009 C 
HETATM    9  C4  UNL     1      10.600  -2.237  36.571  1.00  0.00     0.010 C 
HETATM   10  C5  UNL     1      11.285  -1.584  38.889  1.00  0.00     0.045 C 
HETATM   11  C6  UNL     1      11.853  -2.316  40.073  1.00  0.00     0.087 C 
HETATM   12  C7  UNL     1      10.799  -3.029  40.905  1.00  0.00     0.049 C 
BRANCH  11  13
HETATM   13  O1  UNL     1      12.577  -1.478  40.917  1.00  0.00    -0.387 OA
ATOM     14  H1  UNL     1      12.785  -1.893  41.746  1.00  0.00     0.210 HD
ENDBRANCH  11  13
ENDBRANCH   3   5
ENDBRANCH   1   2
BRANCH   1  15
HETATM   15  C11 UNL     1      17.234  -2.832  37.376  1.00  0.00    -0.044 A 
HETATM   16  C12 UNL     1      17.936  -3.919  37.866  1.00  0.00     0.032 A 
HETATM   17  C13 UNL     1      19.310  -3.954  37.845  1.00  0.00     0.043 A 
HETATM   18 CL1  UNL     1      20.188  -5.345  38.490  1.00  0.00    -0.084 Cl
HETATM   19  C14 UNL     1      19.996  -2.872  37.320  1.00  0.00    -0.000 A 
HETATM   20  C15 UNL     1      19.306  -1.769  36.825  1.00  0.00     0.078 A 
HETATM   21  C19 UNL     1      21.451  -2.608  37.154  1.00  0.00     0.086 C 
HETATM   22  C16 UNL     1      17.929  -1.770  36.862  1.00  0.00     0.045 A 
HETATM   23  O3  UNL     1      20.215  -0.809  36.354  1.00  0.00    -0.334 OA
HETATM   24  C17 UNL     1      21.467  -1.459  36.144  1.00  0.00     0.234 C 
BRANCH  24  25
HETATM   25  C18 UNL     1      21.584  -1.962  34.769  1.00  0.00     0.204 C 
HETATM   26  O4  UNL     1      21.415  -3.167  34.490  1.00  0.00    -0.646 OA
HETATM   27  O5  UNL     1      21.896  -1.056  33.741  1.00  0.00    -0.646 OA
ENDBRANCH  24  25
ENDBRANCH   1  15
TORSDOF 5
ENDMDL
