MODEL 1
REMARK VINA RESULT: -7.529660245      0.000      0.000
REMARK  8 active torsions:
REMARK  status: ('A' for Active; 'I' for Inactive)
REMARK    1  A    between atoms: C2_2  and  O1_3 
REMARK    2  A    between atoms: O1_3  and  C3_4 
REMARK    3  A    between atoms: C7_9  and  O2_10 
REMARK    4  A    between atoms: C8_12  and  O3_13 
REMARK    5  A    between atoms: O3_13  and  C9_14 
REMARK    6  A    between atoms: C9_14  and  C10_15 
REMARK       I    between atoms: C10_15  and  N1_17 
REMARK    7  A    between atoms: C12_19  and  O5_20 
REMARK    8  A    between atoms: C16_25  and  O6_26 
ROOT
HETATM    1  C10 UNL     1      15.545  -3.173  38.669  1.00  0.00     0.244 C 
HETATM    2  O4  UNL     1      16.030  -4.003  39.485  1.00  0.00    -0.271 OA
HETATM    3  N1  UNL     1      14.157  -3.141  38.361  1.00  0.00    -0.346 N 
HETATM    4  C11 UNL     1      13.188  -4.042  38.944  1.00  0.00     0.164 C 
HETATM    5  C12 UNL     1      11.947  -3.918  38.064  1.00  0.00     0.085 C 
HETATM    6  C13 UNL     1      10.758  -4.198  38.907  1.00  0.00     0.040 C 
HETATM    7  C14 UNL     1       9.564  -3.337  38.621  1.00  0.00     0.006 C 
HETATM    8  C15 UNL     1       9.877  -1.901  38.409  1.00  0.00     0.033 C 
HETATM    9  C16 UNL     1      11.365  -1.616  38.581  1.00  0.00     0.131 C 
HETATM   10  C17 UNL     1      12.071  -2.517  37.580  1.00  0.00     0.031 C 
HETATM   11  C18 UNL     1      11.380  -2.433  36.217  1.00  0.00     0.023 C 
HETATM   12  C19 UNL     1      13.526  -2.242  37.452  1.00  0.00     0.140 C 
ENDROOT
BRANCH   1  13
HETATM   13  C9  UNL     1      16.480  -2.218  38.030  1.00  0.00     0.278 C 
BRANCH  13  14
HETATM   14  O3  UNL     1      17.756  -2.268  38.634  1.00  0.00    -0.336 OA
BRANCH  14  15
HETATM   15  C8  UNL     1      18.888  -2.694  37.942  1.00  0.00     0.137 A 
HETATM   16  C3  UNL     1      19.558  -1.871  37.063  1.00  0.00     0.126 A 
HETATM   17  C4  UNL     1      20.678  -2.252  36.360  1.00  0.00     0.070 A 
HETATM   18 CL1  UNL     1      21.501  -1.172  35.253  1.00  0.00    -0.081 Cl
HETATM   19  C5  UNL     1      21.169  -3.530  36.533  1.00  0.00     0.030 A 
HETATM   20  C6  UNL     1      20.501  -4.376  37.418  1.00  0.00     0.041 A 
HETATM   21  C7  UNL     1      19.383  -3.980  38.113  1.00  0.00     0.102 A 
BRANCH  16  22
HETATM   22  O1  UNL     1      19.078  -0.573  36.875  1.00  0.00    -0.347 OA
BRANCH  22  23
HETATM   23  C2  UNL     1      19.476   0.414  37.819  1.00  0.00     0.171 C 
HETATM   24  C1  UNL     1      20.185   1.557  37.126  1.00  0.00     0.034 C 
ENDBRANCH  22  23
ENDBRANCH  16  22
BRANCH  21  25
HETATM   25  O2  UNL     1      18.732  -4.845  38.993  1.00  0.00    -0.358 OA
ATOM     26  H2  UNL     1      17.863  -5.179  38.804  1.00  0.00     0.217 HD
ENDBRANCH  21  25
ENDBRANCH  14  15
ENDBRANCH  13  14
ENDBRANCH   1  13
BRANCH   5  27
HETATM   27  O5  UNL     1      12.115  -4.788  36.998  1.00  0.00    -0.387 OA
ATOM     28  H5  UNL     1      11.405  -4.621  36.388  1.00  0.00     0.210 HD
ENDBRANCH   5  27
BRANCH   9  29
HETATM   29  O6  UNL     1      11.660  -0.287  38.425  1.00  0.00    -0.395 OA
ATOM     30  H6  UNL     1      12.428  -0.151  37.883  1.00  0.00     0.210 HD
ENDBRANCH   9  29
TORSDOF 8
ENDMDL
MODEL 2
REMARK VINA RESULT: -7.408118474      1.305      1.462
REMARK  8 active torsions:
REMARK  status: ('A' for Active; 'I' for Inactive)
REMARK    1  A    between atoms: C2_2  and  O1_3 
REMARK    2  A    between atoms: O1_3  and  C3_4 
REMARK    3  A    between atoms: C7_9  and  O2_10 
REMARK    4  A    between atoms: C8_12  and  O3_13 
REMARK    5  A    between atoms: O3_13  and  C9_14 
REMARK    6  A    between atoms: C9_14  and  C10_15 
REMARK       I    between atoms: C10_15  and  N1_17 
REMARK    7  A    between atoms: C12_19  and  O5_20 
REMARK    8  A    between atoms: C16_25  and  O6_26 
ROOT
HETATM    1  C10 UNL     1      15.600  -3.123  37.565  1.00  0.00     0.244 C 
HETATM    2  O4  UNL     1      16.088  -4.209  37.148  1.00  0.00    -0.271 OA
HETATM    3  N1  UNL     1      14.266  -3.031  38.046  1.00  0.00    -0.346 N 
HETATM    4  C11 UNL     1      13.358  -4.155  38.102  1.00  0.00     0.164 C 
HETATM    5  C12 UNL     1      11.975  -3.541  38.298  1.00  0.00     0.085 C 
HETATM    6  C13 UNL     1      11.141  -4.518  39.043  1.00  0.00     0.040 C 
HETATM    7  C14 UNL     1      10.222  -3.915  40.064  1.00  0.00     0.006 C 
HETATM    8  C15 UNL     1      10.834  -2.837  40.882  1.00  0.00     0.033 C 
HETATM    9  C16 UNL     1      12.299  -2.617  40.522  1.00  0.00     0.131 C 
HETATM   10  C17 UNL     1      12.310  -2.294  39.036  1.00  0.00     0.031 C 
HETATM   11  C18 UNL     1      11.229  -1.258  38.714  1.00  0.00     0.023 C 
HETATM   12  C19 UNL     1      13.636  -1.849  38.532  1.00  0.00     0.140 C 
ENDROOT
BRANCH   1  13
HETATM   13  C9  UNL     1      16.474  -1.927  37.536  1.00  0.00     0.278 C 
BRANCH  13  14
HETATM   14  O3  UNL     1      17.659  -2.140  38.276  1.00  0.00    -0.336 OA
BRANCH  14  15
HETATM   15  C8  UNL     1      18.891  -2.349  37.659  1.00  0.00     0.137 A 
HETATM   16  C3  UNL     1      19.601  -1.320  37.079  1.00  0.00     0.126 A 
HETATM   17  C4  UNL     1      20.818  -1.483  36.461  1.00  0.00     0.070 A 
HETATM   18 CL1  UNL     1      21.688  -0.146  35.737  1.00  0.00    -0.081 Cl
HETATM   19  C5  UNL     1      21.374  -2.745  36.409  1.00  0.00     0.030 A 
HETATM   20  C6  UNL     1      20.668  -3.798  36.990  1.00  0.00     0.041 A 
HETATM   21  C7  UNL     1      19.452  -3.618  37.605  1.00  0.00     0.102 A 
BRANCH  16  22
HETATM   22  O1  UNL     1      19.056  -0.034  37.122  1.00  0.00    -0.347 OA
BRANCH  22  23
HETATM   23  C2  UNL     1      19.106   0.655  38.365  1.00  0.00     0.171 C 
HETATM   24  C1  UNL     1      20.204   1.697  38.351  1.00  0.00     0.034 C 
ENDBRANCH  22  23
ENDBRANCH  16  22
BRANCH  21  25
HETATM   25  O2  UNL     1      18.764  -4.688  38.180  1.00  0.00    -0.358 OA
ATOM     26  H2  UNL     1      18.304  -5.323  37.645  1.00  0.00     0.217 HD
ENDBRANCH  21  25
ENDBRANCH  14  15
ENDBRANCH  13  14
ENDBRANCH   1  13
BRANCH   5  27
HETATM   27  O5  UNL     1      11.492  -3.213  37.040  1.00  0.00    -0.387 OA
ATOM     28  H5  UNL     1      10.554  -3.364  37.053  1.00  0.00     0.210 HD
ENDBRANCH   5  27
BRANCH   9  29
HETATM   29  O6  UNL     1      12.884  -1.650  41.297  1.00  0.00    -0.395 OA
ATOM     30  H6  UNL     1      12.280  -0.951  41.516  1.00  0.00     0.210 HD
ENDBRANCH   9  29
TORSDOF 8
ENDMDL
MODEL 3
REMARK VINA RESULT: -7.381198192      1.710      3.321
REMARK  8 active torsions:
REMARK  status: ('A' for Active; 'I' for Inactive)
REMARK    1  A    between atoms: C2_2  and  O1_3 
REMARK    2  A    between atoms: O1_3  and  C3_4 
REMARK    3  A    between atoms: C7_9  and  O2_10 
REMARK    4  A    between atoms: C8_12  and  O3_13 
REMARK    5  A    between atoms: O3_13  and  C9_14 
REMARK    6  A    between atoms: C9_14  and  C10_15 
REMARK       I    between atoms: C10_15  and  N1_17 
REMARK    7  A    between atoms: C12_19  and  O5_20 
REMARK    8  A    between atoms: C16_25  and  O6_26 
ROOT
HETATM    1  C10 UNL     1      14.943  -3.923  37.103  1.00  0.00     0.244 C 
HETATM    2  O4  UNL     1      15.138  -4.007  35.860  1.00  0.00    -0.271 OA
HETATM    3  N1  UNL     1      13.741  -3.392  37.645  1.00  0.00    -0.346 N 
HETATM    4  C11 UNL     1      12.646  -2.905  36.835  1.00  0.00     0.164 C 
HETATM    5  C12 UNL     1      11.773  -2.095  37.788  1.00  0.00     0.085 C 
HETATM    6  C13 UNL     1      10.374  -2.161  37.297  1.00  0.00     0.040 C 
HETATM    7  C14 UNL     1       9.333  -2.275  38.371  1.00  0.00     0.006 C 
HETATM    8  C15 UNL     1       9.676  -3.220  39.464  1.00  0.00     0.033 C 
HETATM    9  C16 UNL     1      11.013  -3.908  39.216  1.00  0.00     0.131 C 
HETATM   10  C17 UNL     1      12.031  -2.786  39.080  1.00  0.00     0.031 C 
HETATM   11  C18 UNL     1      11.839  -1.762  40.202  1.00  0.00     0.023 C 
HETATM   12  C19 UNL     1      13.439  -3.260  39.031  1.00  0.00     0.140 C 
ENDROOT
BRANCH   1  13
HETATM   13  C9  UNL     1      16.023  -4.403  37.996  1.00  0.00     0.278 C 
BRANCH  13  14
HETATM   14  O3  UNL     1      16.859  -3.341  38.408  1.00  0.00    -0.336 OA
BRANCH  14  15
HETATM   15  C8  UNL     1      17.991  -2.967  37.687  1.00  0.00     0.137 A 
HETATM   16  C3  UNL     1      19.122  -3.753  37.645  1.00  0.00     0.126 A 
HETATM   17  C4  UNL     1      20.260  -3.420  36.946  1.00  0.00     0.070 A 
HETATM   18 CL1  UNL     1      21.676  -4.451  36.919  1.00  0.00    -0.081 Cl
HETATM   19  C5  UNL     1      20.285  -2.233  36.243  1.00  0.00     0.030 A 
HETATM   20  C6  UNL     1      19.149  -1.425  36.276  1.00  0.00     0.041 A 
HETATM   21  C7  UNL     1      18.020  -1.772  36.979  1.00  0.00     0.102 A 
BRANCH  16  22
HETATM   22  O1  UNL     1      19.117  -4.959  38.349  1.00  0.00    -0.347 OA
BRANCH  22  23
HETATM   23  C2  UNL     1      19.574  -4.931  39.696  1.00  0.00     0.171 C 
HETATM   24  C1  UNL     1      18.531  -5.513  40.624  1.00  0.00     0.034 C 
ENDBRANCH  22  23
ENDBRANCH  16  22
BRANCH  21  25
HETATM   25  O2  UNL     1      16.894  -0.947  36.997  1.00  0.00    -0.358 OA
ATOM     26  H2  UNL     1      16.774  -0.292  37.674  1.00  0.00     0.217 HD
ENDBRANCH  21  25
ENDBRANCH  14  15
ENDBRANCH  13  14
ENDBRANCH   1  13
BRANCH   5  27
HETATM   27  O5  UNL     1      12.306  -0.815  37.840  1.00  0.00    -0.387 OA
ATOM     28  H5  UNL     1      12.174  -0.494  38.725  1.00  0.00     0.210 HD
ENDBRANCH   5  27
BRANCH   9  29
HETATM   29  O6  UNL     1      11.323  -4.811  40.199  1.00  0.00    -0.395 OA
ATOM     30  H6  UNL     1      12.191  -5.180  40.088  1.00  0.00     0.210 HD
ENDBRANCH   9  29
TORSDOF 8
ENDMDL
MODEL 4
REMARK VINA RESULT: -7.354545716      1.478      2.097
REMARK  8 active torsions:
REMARK  status: ('A' for Active; 'I' for Inactive)
REMARK    1  A    between atoms: C2_2  and  O1_3 
REMARK    2  A    between atoms: O1_3  and  C3_4 
REMARK    3  A    between atoms: C7_9  and  O2_10 
REMARK    4  A    between atoms: C8_12  and  O3_13 
REMARK    5  A    between atoms: O3_13  and  C9_14 
REMARK    6  A    between atoms: C9_14  and  C10_15 
REMARK       I    between atoms: C10_15  and  N1_17 
REMARK    7  A    between atoms: C12_19  and  O5_20 
REMARK    8  A    between atoms: C16_25  and  O6_26 
ROOT
HETATM    1  C10 UNL     1      15.747  -2.929  39.206  1.00  0.00     0.244 C 
HETATM    2  O4  UNL     1      16.243  -1.925  39.787  1.00  0.00    -0.271 OA
HETATM    3  N1  UNL     1      14.363  -3.013  38.895  1.00  0.00    -0.346 N 
HETATM    4  C11 UNL     1      13.408  -1.972  39.209  1.00  0.00     0.164 C 
HETATM    5  C12 UNL     1      12.039  -2.629  39.063  1.00  0.00     0.085 C 
HETATM    6  C13 UNL     1      11.067  -1.579  38.669  1.00  0.00     0.040 C 
HETATM    7  C14 UNL     1      10.038  -2.014  37.669  1.00  0.00     0.006 C 
HETATM    8  C15 UNL     1      10.571  -2.844  36.559  1.00  0.00     0.033 C 
HETATM    9  C16 UNL     1      12.080  -3.029  36.667  1.00  0.00     0.131 C 
HETATM   10  C17 UNL     1      12.318  -3.661  38.029  1.00  0.00     0.031 C 
HETATM   11  C18 UNL     1      11.340  -4.818  38.251  1.00  0.00     0.023 C 
HETATM   12  C19 UNL     1      13.720  -4.106  38.245  1.00  0.00     0.140 C 
ENDROOT
BRANCH   1  13
HETATM   13  C9  UNL     1      16.666  -4.036  38.854  1.00  0.00     0.278 C 
BRANCH  13  14
HETATM   14  O3  UNL     1      17.968  -3.799  39.349  1.00  0.00    -0.336 OA
BRANCH  14  15
HETATM   15  C8  UNL     1      19.107  -4.037  38.583  1.00  0.00     0.137 A 
HETATM   16  C3  UNL     1      19.423  -3.265  37.486  1.00  0.00     0.126 A 
HETATM   17  C4  UNL     1      20.536  -3.466  36.703  1.00  0.00     0.070 A 
HETATM   18 CL1  UNL     1      20.900  -2.459  35.317  1.00  0.00    -0.081 Cl
HETATM   19  C5  UNL     1      21.396  -4.497  37.022  1.00  0.00     0.030 A 
HETATM   20  C6  UNL     1      21.090  -5.289  38.129  1.00  0.00     0.041 A 
HETATM   21  C7  UNL     1      19.973  -5.074  38.901  1.00  0.00     0.102 A 
BRANCH  16  22
HETATM   22  O1  UNL     1      18.566  -2.215  37.146  1.00  0.00    -0.347 OA
BRANCH  22  23
HETATM   23  C2  UNL     1      18.864  -0.931  37.681  1.00  0.00     0.171 C 
HETATM   24  C1  UNL     1      17.807   0.072  37.273  1.00  0.00     0.034 C 
ENDBRANCH  22  23
ENDBRANCH  16  22
BRANCH  21  25
HETATM   25  O2  UNL     1      19.689  -5.880  40.005  1.00  0.00    -0.358 OA
ATOM     26  H2  UNL     1      19.602  -5.511  40.876  1.00  0.00     0.217 HD
ENDBRANCH  21  25
ENDBRANCH  14  15
ENDBRANCH  13  14
ENDBRANCH   1  13
BRANCH   5  27
HETATM   27  O5  UNL     1      11.756  -3.253  40.269  1.00  0.00    -0.387 OA
ATOM     28  H5  UNL     1      11.099  -2.725  40.708  1.00  0.00     0.210 HD
ENDBRANCH   5  27
BRANCH   9  29
HETATM   29  O6  UNL     1      12.589  -3.762  35.627  1.00  0.00    -0.395 OA
ATOM     30  H6  UNL     1      12.834  -3.218  34.889  1.00  0.00     0.210 HD
ENDBRANCH   9  29
TORSDOF 8
ENDMDL
MODEL 5
REMARK VINA RESULT: -7.339625126      1.939      2.490
REMARK  8 active torsions:
REMARK  status: ('A' for Active; 'I' for Inactive)
REMARK    1  A    between atoms: C2_2  and  O1_3 
REMARK    2  A    between atoms: O1_3  and  C3_4 
REMARK    3  A    between atoms: C7_9  and  O2_10 
REMARK    4  A    between atoms: C8_12  and  O3_13 
REMARK    5  A    between atoms: O3_13  and  C9_14 
REMARK    6  A    between atoms: C9_14  and  C10_15 
REMARK       I    between atoms: C10_15  and  N1_17 
REMARK    7  A    between atoms: C12_19  and  O5_20 
REMARK    8  A    between atoms: C16_25  and  O6_26 
ROOT
HETATM    1  C10 UNL     1      15.180  -2.345  39.644  1.00  0.00     0.244 C 
HETATM    2  O4  UNL     1      15.381  -2.221  40.883  1.00  0.00    -0.271 OA
HETATM    3  N1  UNL     1      13.901  -2.669  39.117  1.00  0.00    -0.346 N 
HETATM    4  C11 UNL     1      12.729  -2.883  39.938  1.00  0.00     0.164 C 
HETATM    5  C12 UNL     1      11.720  -3.571  39.022  1.00  0.00     0.085 C 
HETATM    6  C13 UNL     1      10.358  -3.205  39.484  1.00  0.00     0.040 C 
HETATM    7  C14 UNL     1       9.363  -2.963  38.388  1.00  0.00     0.006 C 
HETATM    8  C15 UNL     1       9.887  -2.174  37.244  1.00  0.00     0.033 C 
HETATM    9  C16 UNL     1      11.331  -1.741  37.471  1.00  0.00     0.131 C 
HETATM   10  C17 UNL     1      12.112  -3.027  37.694  1.00  0.00     0.031 C 
HETATM   11  C18 UNL     1      11.731  -4.065  36.635  1.00  0.00     0.023 C 
HETATM   12  C19 UNL     1      13.585  -2.831  37.737  1.00  0.00     0.140 C 
ENDROOT
BRANCH   1  13
HETATM   13  C9  UNL     1      16.337  -2.141  38.741  1.00  0.00     0.278 C 
BRANCH  13  14
HETATM   14  O3  UNL     1      16.927  -3.371  38.378  1.00  0.00    -0.336 OA
BRANCH  14  15
HETATM   15  C8  UNL     1      17.904  -3.985  39.161  1.00  0.00     0.137 A 
HETATM   16  C3  UNL     1      19.185  -3.485  39.254  1.00  0.00     0.126 A 
HETATM   17  C4  UNL     1      20.177  -4.060  40.014  1.00  0.00     0.070 A 
HETATM   18 CL1  UNL     1      21.793  -3.391  40.104  1.00  0.00    -0.081 Cl
HETATM   19  C5  UNL     1      19.888  -5.203  40.731  1.00  0.00     0.030 A 
HETATM   20  C6  UNL     1      18.596  -5.722  40.647  1.00  0.00     0.041 A 
HETATM   21  C7  UNL     1      17.616  -5.136  39.882  1.00  0.00     0.102 A 
BRANCH  16  22
HETATM   22  O1  UNL     1      19.498  -2.328  38.537  1.00  0.00    -0.347 OA
BRANCH  22  23
HETATM   23  C2  UNL     1      19.957  -2.492  37.201  1.00  0.00     0.171 C 
HETATM   24  C1  UNL     1      19.203  -1.575  36.263  1.00  0.00     0.034 C 
ENDBRANCH  22  23
ENDBRANCH  16  22
BRANCH  21  25
HETATM   25  O2  UNL     1      16.330  -5.674  39.815  1.00  0.00    -0.358 OA
ATOM     26  H2  UNL     1      15.666  -5.448  40.456  1.00  0.00     0.217 HD
ENDBRANCH  21  25
ENDBRANCH  14  15
ENDBRANCH  13  14
ENDBRANCH   1  13
BRANCH   5  27
HETATM   27  O5  UNL     1      11.996  -4.929  39.059  1.00  0.00    -0.387 OA
ATOM     28  H5  UNL     1      11.706  -5.296  38.232  1.00  0.00     0.210 HD
ENDBRANCH   5  27
BRANCH   9  29
HETATM   29  O6  UNL     1      11.813  -0.980  36.439  1.00  0.00    -0.395 OA
ATOM     30  H6  UNL     1      12.579  -0.477  36.690  1.00  0.00     0.210 HD
ENDBRANCH   9  29
TORSDOF 8
ENDMDL
