MODEL 1
REMARK VINA RESULT: -6.648228525      0.000      0.000
REMARK  0 active torsions:
REMARK  status: ('A' for Active; 'I' for Inactive)
ROOT
HETATM    1  C1  UNL     1      14.787  -4.002  35.958  1.00  0.00     0.049 C 
HETATM    2  C2  UNL     1      14.121  -3.742  37.263  1.00  0.00     0.256 C 
HETATM    3  N1  UNL     1      14.192  -2.384  37.707  1.00  0.00    -0.063 N 
ATOM      4  H11 UNL     1      13.482  -1.799  37.266  1.00  0.00     0.278 HD
ATOM      5  H12 UNL     1      15.019  -1.906  37.350  1.00  0.00     0.278 HD
HETATM    6  C3  UNL     1      14.117  -2.339  39.158  1.00  0.00     0.246 C 
HETATM    7  C4  UNL     1      12.788  -1.887  39.659  1.00  0.00     0.006 C 
HETATM    8  C5  UNL     1      12.950  -1.557  41.145  1.00  0.00     0.021 C 
HETATM    9  C6  UNL     1      12.269  -0.648  38.989  1.00  0.00     0.021 C 
HETATM   10  C7  UNL     1      11.782  -2.975  39.480  1.00  0.00    -0.018 A 
HETATM   11  C8  UNL     1      10.742  -3.162  40.290  1.00  0.00     0.096 A 
HETATM   12  N2  UNL     1      10.032  -4.269  39.804  1.00  0.00    -0.374 N 
ATOM     13  H2  UNL     1       9.183  -4.667  40.205  1.00  0.00     0.164 HD
HETATM   14  C9  UNL     1      10.716  -4.732  38.650  1.00  0.00     0.103 A 
HETATM   15  C10 UNL     1      11.792  -3.970  38.414  1.00  0.00     0.036 A 
HETATM   16  C11 UNL     1      12.712  -4.179  37.300  1.00  0.00     0.191 C 
HETATM   17  O1  UNL     1      12.226  -4.781  36.314  1.00  0.00    -0.290 OA
ENDROOT
TORSDOF 0
ENDMDL
MODEL 2
REMARK VINA RESULT: -6.634325593      1.689      3.890
REMARK  0 active torsions:
REMARK  status: ('A' for Active; 'I' for Inactive)
ROOT
HETATM    1  C1  UNL     1      10.989  -2.947  40.541  1.00  0.00     0.049 C 
HETATM    2  C2  UNL     1      12.043  -2.837  39.497  1.00  0.00     0.256 C 
HETATM    3  N1  UNL     1      13.380  -2.978  39.986  1.00  0.00    -0.063 N 
ATOM      4  H11 UNL     1      13.646  -3.956  40.102  1.00  0.00     0.278 HD
ATOM      5  H12 UNL     1      13.467  -2.685  40.959  1.00  0.00     0.278 HD
HETATM    6  C3  UNL     1      14.298  -2.261  39.115  1.00  0.00     0.246 C 
HETATM    7  C4  UNL     1      15.082  -3.164  38.226  1.00  0.00     0.006 C 
HETATM    8  C5  UNL     1      16.224  -2.336  37.630  1.00  0.00     0.021 C 
HETATM    9  C6  UNL     1      15.709  -4.330  38.934  1.00  0.00     0.021 C 
HETATM   10  C7  UNL     1      14.206  -3.690  37.137  1.00  0.00    -0.018 A 
HETATM   11  C8  UNL     1      14.644  -3.995  35.918  1.00  0.00     0.096 A 
HETATM   12  N2  UNL     1      13.540  -4.453  35.184  1.00  0.00    -0.374 N 
ATOM     13  H2  UNL     1      13.546  -4.764  34.213  1.00  0.00     0.164 HD
HETATM   14  C9  UNL     1      12.413  -4.401  36.046  1.00  0.00     0.103 A 
HETATM   15  C10 UNL     1      12.775  -3.942  37.251  1.00  0.00     0.036 A 
HETATM   16  C11 UNL     1      11.851  -3.768  38.369  1.00  0.00     0.191 C 
HETATM   17  O1  UNL     1      10.825  -4.487  38.329  1.00  0.00    -0.290 OA
ENDROOT
TORSDOF 0
ENDMDL
MODEL 3
REMARK VINA RESULT: -6.578554717      2.228      3.560
REMARK  0 active torsions:
REMARK  status: ('A' for Active; 'I' for Inactive)
ROOT
HETATM    1  C1  UNL     1      10.955  -2.502  36.360  1.00  0.00     0.049 C 
HETATM    2  C2  UNL     1      11.979  -2.841  37.385  1.00  0.00     0.256 C 
HETATM    3  N1  UNL     1      13.308  -2.975  36.874  1.00  0.00    -0.063 N 
ATOM      4  H11 UNL     1      13.769  -2.072  36.762  1.00  0.00     0.278 HD
ATOM      5  H12 UNL     1      13.317  -3.267  35.897  1.00  0.00     0.278 HD
HETATM    6  C3  UNL     1      14.070  -3.877  37.723  1.00  0.00     0.246 C 
HETATM    7  C4  UNL     1      15.038  -3.168  38.606  1.00  0.00     0.006 C 
HETATM    8  C5  UNL     1      15.992  -4.222  39.175  1.00  0.00     0.021 C 
HETATM    9  C6  UNL     1      15.883  -2.149  37.897  1.00  0.00     0.021 C 
HETATM   10  C7  UNL     1      14.307  -2.484  39.714  1.00  0.00    -0.018 A 
HETATM   11  C8  UNL     1      14.817  -2.292  40.928  1.00  0.00     0.096 A 
HETATM   12  N2  UNL     1      13.845  -1.624  41.685  1.00  0.00    -0.374 N 
ATOM     13  H2  UNL     1      13.930  -1.332  42.658  1.00  0.00     0.164 HD
HETATM   14  C9  UNL     1      12.718  -1.430  40.842  1.00  0.00     0.103 A 
HETATM   15  C10 UNL     1      12.958  -1.939  39.628  1.00  0.00     0.036 A 
HETATM   16  C11 UNL     1      12.002  -1.904  38.525  1.00  0.00     0.191 C 
HETATM   17  O1  UNL     1      11.148  -0.988  38.589  1.00  0.00    -0.290 OA
ENDROOT
TORSDOF 0
ENDMDL
MODEL 4
REMARK VINA RESULT: -6.570114398      1.768      3.148
REMARK  0 active torsions:
REMARK  status: ('A' for Active; 'I' for Inactive)
ROOT
HETATM    1  C1  UNL     1      10.385  -1.817  35.636  1.00  0.00     0.049 C 
HETATM    2  C2  UNL     1      11.362  -1.803  36.757  1.00  0.00     0.256 C 
HETATM    3  N1  UNL     1      10.773  -1.850  38.060  1.00  0.00    -0.063 N 
ATOM      4  H11 UNL     1      10.524  -2.801  38.334  1.00  0.00     0.278 HD
ATOM      5  H12 UNL     1       9.839  -1.443  38.074  1.00  0.00     0.278 HD
HETATM    6  C3  UNL     1      11.661  -1.218  39.022  1.00  0.00     0.246 C 
HETATM    7  C4  UNL     1      12.382  -2.198  39.881  1.00  0.00     0.006 C 
HETATM    8  C5  UNL     1      12.996  -1.418  41.047  1.00  0.00     0.021 C 
HETATM    9  C6  UNL     1      11.500  -3.256  40.479  1.00  0.00     0.021 C 
HETATM   10  C7  UNL     1      13.456  -2.872  39.092  1.00  0.00    -0.018 A 
HETATM   11  C8  UNL     1      14.598  -3.307  39.617  1.00  0.00     0.096 A 
HETATM   12  N2  UNL     1      15.343  -3.877  38.575  1.00  0.00    -0.374 N 
ATOM     13  H2  UNL     1      16.268  -4.301  38.653  1.00  0.00     0.164 HD
HETATM   14  C9  UNL     1      14.570  -3.754  37.391  1.00  0.00     0.103 A 
HETATM   15  C10 UNL     1      13.407  -3.146  37.660  1.00  0.00     0.036 A 
HETATM   16  C11 UNL     1      12.382  -2.865  36.660  1.00  0.00     0.191 C 
HETATM   17  O1  UNL     1      12.403  -3.610  35.652  1.00  0.00    -0.290 OA
ENDROOT
TORSDOF 0
ENDMDL
MODEL 5
REMARK VINA RESULT: -6.512171873      1.956      4.503
REMARK  0 active torsions:
REMARK  status: ('A' for Active; 'I' for Inactive)
ROOT
HETATM    1  C1  UNL     1      10.086  -3.778  41.259  1.00  0.00     0.049 C 
HETATM    2  C2  UNL     1      11.073  -3.908  40.154  1.00  0.00     0.256 C 
HETATM    3  N1  UNL     1      10.517  -3.779  38.842  1.00  0.00    -0.063 N 
ATOM      4  H11 UNL     1      10.394  -2.803  38.572  1.00  0.00     0.278 HD
ATOM      5  H12 UNL     1       9.539  -4.066  38.809  1.00  0.00     0.278 HD
HETATM    6  C3  UNL     1      11.335  -4.513  37.890  1.00  0.00     0.246 C 
HETATM    7  C4  UNL     1      12.188  -3.626  37.050  1.00  0.00     0.006 C 
HETATM    8  C5  UNL     1      12.719  -4.471  35.888  1.00  0.00     0.021 C 
HETATM    9  C6  UNL     1      11.456  -2.462  36.446  1.00  0.00     0.021 C 
HETATM   10  C7  UNL     1      13.324  -3.098  37.862  1.00  0.00    -0.018 A 
HETATM   11  C8  UNL     1      14.521  -2.807  37.358  1.00  0.00     0.096 A 
HETATM   12  N2  UNL     1      15.314  -2.342  38.417  1.00  0.00    -0.374 N 
ATOM     13  H2  UNL     1      16.286  -2.037  38.358  1.00  0.00     0.164 HD
HETATM   14  C9  UNL     1      14.511  -2.374  39.588  1.00  0.00     0.103 A 
HETATM   15  C10 UNL     1      13.286  -2.828  39.294  1.00  0.00     0.036 A 
HETATM   16  C11 UNL     1      12.217  -2.984  40.276  1.00  0.00     0.191 C 
HETATM   17  O1  UNL     1      12.314  -2.253  41.290  1.00  0.00    -0.290 OA
ENDROOT
TORSDOF 0
ENDMDL
