MODEL 1
REMARK VINA RESULT: -5.570506885      0.000      0.000
REMARK  2 active torsions:
REMARK  status: ('A' for Active; 'I' for Inactive)
REMARK    1  A    between atoms: O1_2  and  C2_3 
REMARK    2  A    between atoms: C11_14  and  N2_15 
ROOT
HETATM    1  C2  UNL     1      15.576  -3.972  38.965  1.00  0.00     0.083 A 
HETATM    2  C3  UNL     1      15.733  -4.037  37.657  1.00  0.00     0.120 A 
HETATM    3  N1  UNL     1      14.765  -3.598  36.736  1.00  0.00    -0.386 N 
ATOM      4  H1  UNL     1      14.944  -3.725  35.740  1.00  0.00     0.159 HD
HETATM    5  C4  UNL     1      13.548  -2.984  37.135  1.00  0.00     0.145 A 
HETATM    6  C5  UNL     1      13.398  -2.952  38.595  1.00  0.00    -0.031 A 
HETATM    7  C6  UNL     1      14.310  -3.390  39.403  1.00  0.00     0.047 A 
HETATM    8  C7  UNL     1      12.101  -2.416  39.086  1.00  0.00     0.012 C 
HETATM    9  C8  UNL     1      10.995  -2.781  38.417  1.00  0.00    -0.081 C 
HETATM   10  C9  UNL     1       9.665  -2.291  38.830  1.00  0.00     0.043 C 
HETATM   11  C10 UNL     1      11.110  -3.721  37.290  1.00  0.00     0.069 C 
HETATM   12  C11 UNL     1      12.316  -3.500  36.473  1.00  0.00     0.214 C 
ENDROOT
BRANCH  12  13
HETATM   13  N2  UNL     1      12.648  -4.693  35.679  1.00  0.00    -0.072 N 
ATOM     14  H23 UNL     1      12.104  -4.746  34.818  1.00  0.00     0.274 HD
ATOM     15  H22 UNL     1      13.576  -4.631  35.261  1.00  0.00     0.274 HD
ATOM     16  H21 UNL     1      12.539  -5.527  36.255  1.00  0.00     0.274 HD
ENDBRANCH  12  13
BRANCH   1  17
HETATM   17  O1  UNL     1      16.525  -4.410  39.849  1.00  0.00    -0.355 OA
HETATM   18  C1  UNL     1      16.870  -5.782  39.929  1.00  0.00     0.210 C 
ENDBRANCH   1  17
TORSDOF 2
ENDMDL
MODEL 2
REMARK VINA RESULT: -5.567686322      2.290      4.680
REMARK  2 active torsions:
REMARK  status: ('A' for Active; 'I' for Inactive)
REMARK    1  A    between atoms: O1_2  and  C2_3 
REMARK    2  A    between atoms: C11_14  and  N2_15 
ROOT
HETATM    1  C2  UNL     1      11.637  -2.520  38.554  1.00  0.00     0.083 A 
HETATM    2  C3  UNL     1      11.632  -3.591  37.782  1.00  0.00     0.120 A 
HETATM    3  N1  UNL     1      12.791  -4.317  37.455  1.00  0.00    -0.386 N 
ATOM      4  H1  UNL     1      12.708  -5.106  36.815  1.00  0.00     0.159 HD
HETATM    5  C4  UNL     1      14.071  -3.998  37.980  1.00  0.00     0.145 A 
HETATM    6  C5  UNL     1      14.041  -2.790  38.813  1.00  0.00    -0.031 A 
HETATM    7  C6  UNL     1      12.950  -2.140  39.068  1.00  0.00     0.047 A 
HETATM    8  C7  UNL     1      15.365  -2.336  39.316  1.00  0.00     0.012 C 
HETATM    9  C8  UNL     1      16.400  -2.402  38.462  1.00  0.00    -0.081 C 
HETATM   10  C9  UNL     1      17.751  -1.977  38.877  1.00  0.00     0.043 C 
HETATM   11  C10 UNL     1      16.168  -2.856  37.081  1.00  0.00     0.069 C 
HETATM   12  C11 UNL     1      15.183  -3.947  36.988  1.00  0.00     0.214 C 
ENDROOT
BRANCH  12  13
HETATM   13  N2  UNL     1      14.633  -4.056  35.629  1.00  0.00    -0.072 N 
ATOM     14  H23 UNL     1      15.364  -4.161  34.925  1.00  0.00     0.274 HD
ATOM     15  H22 UNL     1      14.156  -4.944  35.476  1.00  0.00     0.274 HD
ATOM     16  H21 UNL     1      14.029  -3.256  35.441  1.00  0.00     0.274 HD
ENDBRANCH  12  13
BRANCH   1  17
HETATM   17  O1  UNL     1      10.501  -1.820  38.858  1.00  0.00    -0.355 OA
HETATM   18  C1  UNL     1       9.218  -2.368  38.613  1.00  0.00     0.210 C 
ENDBRANCH   1  17
TORSDOF 2
ENDMDL
MODEL 3
REMARK VINA RESULT: -5.486322294      2.491      3.350
REMARK  2 active torsions:
REMARK  status: ('A' for Active; 'I' for Inactive)
REMARK    1  A    between atoms: O1_2  and  C2_3 
REMARK    2  A    between atoms: C11_14  and  N2_15 
ROOT
HETATM    1  C2  UNL     1      16.136  -2.167  38.090  1.00  0.00     0.083 A 
HETATM    2  C3  UNL     1      16.169  -2.354  39.397  1.00  0.00     0.120 A 
HETATM    3  N1  UNL     1      15.042  -2.705  40.160  1.00  0.00    -0.386 N 
ATOM      4  H1  UNL     1      15.142  -2.786  41.171  1.00  0.00     0.159 HD
HETATM    5  C4  UNL     1      13.769  -2.952  39.581  1.00  0.00     0.145 A 
HETATM    6  C5  UNL     1      13.765  -2.711  38.133  1.00  0.00    -0.031 A 
HETATM    7  C6  UNL     1      14.826  -2.366  37.476  1.00  0.00     0.047 A 
HETATM    8  C7  UNL     1      12.440  -2.851  37.472  1.00  0.00     0.012 C 
HETATM    9  C8  UNL     1      11.375  -2.358  38.126  1.00  0.00    -0.081 C 
HETATM   10  C9  UNL     1      10.020  -2.458  37.548  1.00  0.00     0.043 C 
HETATM   11  C10 UNL     1      11.573  -1.665  39.409  1.00  0.00     0.069 C 
HETATM   12  C11 UNL     1      12.614  -2.284  40.246  1.00  0.00     0.214 C 
ENDROOT
BRANCH  12  13
HETATM   13  N2  UNL     1      13.111  -1.344  41.263  1.00  0.00    -0.072 N 
ATOM     14  H23 UNL     1      12.455  -0.583  41.436  1.00  0.00     0.274 HD
ATOM     15  H22 UNL     1      13.110  -1.752  42.198  1.00  0.00     0.274 HD
ATOM     16  H21 UNL     1      14.033  -1.004  40.991  1.00  0.00     0.274 HD
ENDBRANCH  12  13
BRANCH   1  17
HETATM   17  O1  UNL     1      17.241  -1.819  37.362  1.00  0.00    -0.355 OA
HETATM   18  C1  UNL     1      17.537  -0.460  37.089  1.00  0.00     0.210 C 
ENDBRANCH   1  17
TORSDOF 2
ENDMDL
MODEL 4
REMARK VINA RESULT: -5.333786214      2.571      5.235
REMARK  2 active torsions:
REMARK  status: ('A' for Active; 'I' for Inactive)
REMARK    1  A    between atoms: O1_2  and  C2_3 
REMARK    2  A    between atoms: C11_14  and  N2_15 
ROOT
HETATM    1  C2  UNL     1      11.714  -3.184  38.351  1.00  0.00     0.083 A 
HETATM    2  C3  UNL     1      11.940  -2.111  39.084  1.00  0.00     0.120 A 
HETATM    3  N1  UNL     1      13.229  -1.646  39.401  1.00  0.00    -0.386 N 
ATOM      4  H1  UNL     1      13.318  -0.834  40.012  1.00  0.00     0.159 HD
HETATM    5  C4  UNL     1      14.410  -2.258  38.907  1.00  0.00     0.145 A 
HETATM    6  C5  UNL     1      14.119  -3.461  38.117  1.00  0.00    -0.031 A 
HETATM    7  C6  UNL     1      12.913  -3.863  37.870  1.00  0.00     0.047 A 
HETATM    8  C7  UNL     1      15.313  -4.215  37.650  1.00  0.00     0.012 C 
HETATM    9  C8  UNL     1      16.332  -4.346  38.516  1.00  0.00    -0.081 C 
HETATM   10  C9  UNL     1      17.558  -5.073  38.136  1.00  0.00     0.043 C 
HETATM   11  C10 UNL     1      16.197  -3.800  39.876  1.00  0.00     0.069 C 
HETATM   12  C11 UNL     1      15.477  -2.516  39.916  1.00  0.00     0.214 C 
ENDROOT
BRANCH  12  13
HETATM   13  N2  UNL     1      14.956  -2.237  41.263  1.00  0.00    -0.072 N 
ATOM     14  H23 UNL     1      15.115  -1.270  41.544  1.00  0.00     0.274 HD
ATOM     15  H22 UNL     1      13.937  -2.230  41.288  1.00  0.00     0.274 HD
ATOM     16  H21 UNL     1      15.354  -2.902  41.926  1.00  0.00     0.274 HD
ENDBRANCH  12  13
BRANCH   1  17
HETATM   17  O1  UNL     1      10.453  -3.628  38.056  1.00  0.00    -0.355 OA
HETATM   18  C1  UNL     1       9.324  -2.791  38.235  1.00  0.00     0.210 C 
ENDBRANCH   1  17
TORSDOF 2
ENDMDL
MODEL 5
REMARK VINA RESULT: -5.294297163      2.725      3.867
REMARK  2 active torsions:
REMARK  status: ('A' for Active; 'I' for Inactive)
REMARK    1  A    between atoms: O1_2  and  C2_3 
REMARK    2  A    between atoms: C11_14  and  N2_15 
ROOT
HETATM    1  C2  UNL     1      17.488  -1.686  37.936  1.00  0.00     0.083 A 
HETATM    2  C3  UNL     1      17.203  -1.792  39.221  1.00  0.00     0.120 A 
HETATM    3  N1  UNL     1      16.127  -2.549  39.717  1.00  0.00    -0.386 N 
ATOM      4  H1  UNL     1      15.947  -2.542  40.721  1.00  0.00     0.159 HD
HETATM    5  C4  UNL     1      15.282  -3.323  38.879  1.00  0.00     0.145 A 
HETATM    6  C5  UNL     1      15.614  -3.162  37.458  1.00  0.00    -0.031 A 
HETATM    7  C6  UNL     1      16.603  -2.433  37.048  1.00  0.00     0.047 A 
HETATM    8  C7  UNL     1      14.706  -3.864  36.513  1.00  0.00     0.012 C 
HETATM    9  C8  UNL     1      13.391  -3.831  36.789  1.00  0.00    -0.081 C 
HETATM   10  C9  UNL     1      12.417  -4.506  35.909  1.00  0.00     0.043 C 
HETATM   11  C10 UNL     1      12.917  -3.070  37.955  1.00  0.00     0.069 C 
HETATM   12  C11 UNL     1      13.818  -3.169  39.117  1.00  0.00     0.214 C 
ENDROOT
BRANCH  12  13
HETATM   13  N2  UNL     1      13.589  -2.070  40.066  1.00  0.00    -0.072 N 
ATOM     14  H23 UNL     1      13.551  -1.162  39.603  1.00  0.00     0.274 HD
ATOM     15  H22 UNL     1      12.642  -2.079  40.445  1.00  0.00     0.274 HD
ATOM     16  H21 UNL     1      14.297  -2.099  40.799  1.00  0.00     0.274 HD
ENDBRANCH  12  13
BRANCH   1  17
HETATM   17  O1  UNL     1      18.536  -0.939  37.468  1.00  0.00    -0.355 OA
HETATM   18  C1  UNL     1      18.760   0.378  37.938  1.00  0.00     0.210 C 
ENDBRANCH   1  17
TORSDOF 2
ENDMDL
