MODEL 1
REMARK VINA RESULT: -6.358538166      0.000      0.000
REMARK  5 active torsions:
REMARK  status: ('A' for Active; 'I' for Inactive)
REMARK    1  A    between atoms: N1_2  and  C3_4 
REMARK    2  A    between atoms: C3_4  and  C4_5 
REMARK    3  A    between atoms: C4_5  and  C5_6 
REMARK    4  A    between atoms: C8_9  and  N2_10 
REMARK    5  A    between atoms: N2_10  and  C9_12 
ROOT
HETATM    1  C5  UNL     1      -2.591   7.200  13.002  1.00  0.00    -0.013 C 
HETATM    2  C6  UNL     1      -1.377   6.388  13.345  1.00  0.00     0.007 C 
HETATM    3  C7  UNL     1      -1.688   5.300  14.383  1.00  0.00     0.025 C 
HETATM    4  C8  UNL     1      -3.099   4.864  14.267  1.00  0.00     0.077 C 
HETATM    5  C17 UNL     1      -3.543   4.939  12.812  1.00  0.00     0.025 C 
HETATM    6  C18 UNL     1      -3.608   6.331  12.279  1.00  0.00     0.007 C 
ENDROOT
BRANCH   4   7
HETATM    7  N2  UNL     1      -3.384   3.630  14.866  1.00  0.00    -0.411 N 
ATOM      8  H2  UNL     1      -2.621   3.039  15.197  1.00  0.00     0.154 HD
BRANCH   7   9
HETATM    9  C9  UNL     1      -4.713   3.200  15.015  1.00  0.00     0.110 C 
HETATM   10  C10 UNL     1      -5.788   4.247  15.144  1.00  0.00     0.027 C 
HETATM   11  C11 UNL     1      -6.822   3.696  16.156  1.00  0.00     0.009 C 
HETATM   12  C12 UNL     1      -6.480   2.246  16.138  1.00  0.00     0.023 C 
HETATM   13  C13 UNL     1      -6.699   1.474  17.385  1.00  0.00     0.037 C 
HETATM   14  C16 UNL     1      -4.955   2.395  16.236  1.00  0.00     0.248 C 
HETATM   15  C14 UNL     1      -5.455   0.573  17.413  1.00  0.00     0.273 C 
HETATM   16  N3  UNL     1      -4.568   1.073  16.356  1.00  0.00     0.091 N 
HETATM   17  C15 UNL     1      -4.684   0.199  15.244  1.00  0.00     0.310 C 
ENDBRANCH   7   9
ENDBRANCH   4   7
BRANCH   1  18
HETATM   18  C4  UNL     1      -2.268   8.434  12.269  1.00  0.00     0.034 C 
BRANCH  18  19
HETATM   19  C3  UNL     1      -1.359   9.421  12.859  1.00  0.00     0.271 C 
BRANCH  19  20
HETATM   20  N1  UNL     1      -1.715   9.932  14.167  1.00  0.00     0.080 N 
HETATM   21  C1  UNL     1      -0.632   9.614  15.120  1.00  0.00     0.309 C 
HETATM   22  C2  UNL     1      -1.801  11.408  14.115  1.00  0.00     0.309 C 
ENDBRANCH  19  20
ENDBRANCH  18  19
ENDBRANCH   1  18
TORSDOF 5
ENDMDL
MODEL 2
REMARK VINA RESULT: -6.354224142      2.763      3.751
REMARK  5 active torsions:
REMARK  status: ('A' for Active; 'I' for Inactive)
REMARK    1  A    between atoms: N1_2  and  C3_4 
REMARK    2  A    between atoms: C3_4  and  C4_5 
REMARK    3  A    between atoms: C4_5  and  C5_6 
REMARK    4  A    between atoms: C8_9  and  N2_10 
REMARK    5  A    between atoms: N2_10  and  C9_12 
ROOT
HETATM    1  C5  UNL     1      -0.972   4.853  11.402  1.00  0.00    -0.013 C 
HETATM    2  C6  UNL     1      -2.373   4.356  11.200  1.00  0.00     0.007 C 
HETATM    3  C7  UNL     1      -2.911   3.631  12.442  1.00  0.00     0.025 C 
HETATM    4  C8  UNL     1      -2.282   4.174  13.669  1.00  0.00     0.077 C 
HETATM    5  C17 UNL     1      -1.998   5.659  13.488  1.00  0.00     0.025 C 
HETATM    6  C18 UNL     1      -0.957   5.946  12.458  1.00  0.00     0.007 C 
ENDROOT
BRANCH   4   7
HETATM    7  N2  UNL     1      -2.967   3.886  14.856  1.00  0.00    -0.411 N 
ATOM      8  H2  UNL     1      -2.473   3.926  15.748  1.00  0.00     0.154 HD
BRANCH   7   9
HETATM    9  C9  UNL     1      -4.328   3.541  14.829  1.00  0.00     0.110 C 
HETATM   10  C10 UNL     1      -5.343   4.654  14.854  1.00  0.00     0.027 C 
HETATM   11  C11 UNL     1      -6.527   4.152  15.716  1.00  0.00     0.009 C 
HETATM   12  C12 UNL     1      -6.277   2.683  15.699  1.00  0.00     0.023 C 
HETATM   13  C13 UNL     1      -6.699   1.902  16.887  1.00  0.00     0.037 C 
HETATM   14  C16 UNL     1      -4.771   2.730  15.987  1.00  0.00     0.248 C 
HETATM   15  C14 UNL     1      -5.526   0.920  17.042  1.00  0.00     0.273 C 
HETATM   16  N3  UNL     1      -4.486   1.382  16.116  1.00  0.00     0.091 N 
HETATM   17  C15 UNL     1      -4.517   0.541  14.974  1.00  0.00     0.310 C 
ENDBRANCH   7   9
ENDBRANCH   4   7
BRANCH   1  18
HETATM   18  C4  UNL     1      -0.320   5.259  10.147  1.00  0.00     0.034 C 
BRANCH  18  19
HETATM   19  C3  UNL     1       1.124   5.507  10.118  1.00  0.00     0.271 C 
BRANCH  19  20
HETATM   20  N1  UNL     1       1.978   4.438  10.592  1.00  0.00     0.080 N 
HETATM   21  C1  UNL     1       2.697   3.850   9.442  1.00  0.00     0.309 C 
HETATM   22  C2  UNL     1       3.015   4.993  11.488  1.00  0.00     0.309 C 
ENDBRANCH  19  20
ENDBRANCH  18  19
ENDBRANCH   1  18
TORSDOF 5
ENDMDL
MODEL 3
REMARK VINA RESULT: -6.332070248      1.663      7.678
REMARK  5 active torsions:
REMARK  status: ('A' for Active; 'I' for Inactive)
REMARK    1  A    between atoms: N1_2  and  C3_4 
REMARK    2  A    between atoms: C3_4  and  C4_5 
REMARK    3  A    between atoms: C4_5  and  C5_6 
REMARK    4  A    between atoms: C8_9  and  N2_10 
REMARK    5  A    between atoms: N2_10  and  C9_12 
ROOT
HETATM    1  C5  UNL     1      -4.959   2.884  14.824  1.00  0.00    -0.013 C 
HETATM    2  C6  UNL     1      -3.628   3.286  15.386  1.00  0.00     0.007 C 
HETATM    3  C7  UNL     1      -2.966   4.397  14.558  1.00  0.00     0.025 C 
HETATM    4  C8  UNL     1      -3.996   5.240  13.909  1.00  0.00     0.077 C 
HETATM    5  C17 UNL     1      -5.226   5.330  14.803  1.00  0.00     0.025 C 
HETATM    6  C18 UNL     1      -5.947   4.032  14.958  1.00  0.00     0.007 C 
ENDROOT
BRANCH   4   7
HETATM    7  N2  UNL     1      -3.542   6.491  13.471  1.00  0.00    -0.411 N 
ATOM      8  H2  UNL     1      -4.062   6.996  12.754  1.00  0.00     0.154 HD
BRANCH   7   9
HETATM    9  C9  UNL     1      -2.375   7.055  14.013  1.00  0.00     0.110 C 
HETATM   10  C10 UNL     1      -2.495   7.848  15.288  1.00  0.00     0.027 C 
HETATM   11  C11 UNL     1      -1.500   9.028  15.168  1.00  0.00     0.009 C 
HETATM   12  C12 UNL     1      -0.612   8.531  14.079  1.00  0.00     0.023 C 
HETATM   13  C13 UNL     1       0.009   9.539  13.187  1.00  0.00     0.037 C 
HETATM   14  C16 UNL     1      -1.712   8.041  13.128  1.00  0.00     0.248 C 
HETATM   15  C14 UNL     1      -0.104   8.851  11.817  1.00  0.00     0.273 C 
HETATM   16  N3  UNL     1      -0.962   7.678  12.024  1.00  0.00     0.091 N 
HETATM   17  C15 UNL     1      -0.126   6.534  12.083  1.00  0.00     0.310 C 
ENDBRANCH   7   9
ENDBRANCH   4   7
BRANCH   1  18
HETATM   18  C4  UNL     1      -5.465   1.624  15.390  1.00  0.00     0.034 C 
BRANCH  18  19
HETATM   19  C3  UNL     1      -5.106   1.238  16.758  1.00  0.00     0.271 C 
BRANCH  19  20
HETATM   20  N1  UNL     1      -6.194   1.103  17.703  1.00  0.00     0.080 N 
HETATM   21  C1  UNL     1      -6.256   2.317  18.544  1.00  0.00     0.309 C 
HETATM   22  C2  UNL     1      -7.479   1.040  16.973  1.00  0.00     0.309 C 
ENDBRANCH  19  20
ENDBRANCH  18  19
ENDBRANCH   1  18
TORSDOF 5
ENDMDL
MODEL 4
REMARK VINA RESULT: -6.327360230      3.462      7.735
REMARK  5 active torsions:
REMARK  status: ('A' for Active; 'I' for Inactive)
REMARK    1  A    between atoms: N1_2  and  C3_4 
REMARK    2  A    between atoms: C3_4  and  C4_5 
REMARK    3  A    between atoms: C4_5  and  C5_6 
REMARK    4  A    between atoms: C8_9  and  N2_10 
REMARK    5  A    between atoms: N2_10  and  C9_12 
ROOT
HETATM    1  C5  UNL     1      -4.698   2.699  13.682  1.00  0.00    -0.013 C 
HETATM    2  C6  UNL     1      -4.190   2.138  12.388  1.00  0.00     0.007 C 
HETATM    3  C7  UNL     1      -4.433   3.094  11.211  1.00  0.00     0.025 C 
HETATM    4  C8  UNL     1      -4.438   4.499  11.680  1.00  0.00     0.077 C 
HETATM    5  C17 UNL     1      -3.466   4.657  12.842  1.00  0.00     0.025 C 
HETATM    6  C18 UNL     1      -3.884   3.922  14.073  1.00  0.00     0.007 C 
ENDROOT
BRANCH   4   7
HETATM    7  N2  UNL     1      -4.250   5.455  10.674  1.00  0.00    -0.411 N 
ATOM      8  H2  UNL     1      -3.561   5.290   9.940  1.00  0.00     0.154 HD
BRANCH   7   9
HETATM    9  C9  UNL     1      -5.005   6.640  10.667  1.00  0.00     0.110 C 
HETATM   10  C10 UNL     1      -5.821   6.970  11.889  1.00  0.00     0.027 C 
HETATM   11  C11 UNL     1      -7.133   7.618  11.383  1.00  0.00     0.009 C 
HETATM   12  C12 UNL     1      -6.734   8.004  10.000  1.00  0.00     0.023 C 
HETATM   13  C13 UNL     1      -7.788   8.010   8.958  1.00  0.00     0.037 C 
HETATM   14  C16 UNL     1      -6.045   6.689   9.612  1.00  0.00     0.248 C 
HETATM   15  C14 UNL     1      -7.038   7.416   7.756  1.00  0.00     0.273 C 
HETATM   16  N3  UNL     1      -5.757   6.926   8.280  1.00  0.00     0.091 N 
HETATM   17  C15 UNL     1      -4.756   7.868   7.931  1.00  0.00     0.310 C 
ENDBRANCH   7   9
ENDBRANCH   4   7
BRANCH   1  18
HETATM   18  C4  UNL     1      -4.773   1.694  14.754  1.00  0.00     0.034 C 
BRANCH  18  19
HETATM   19  C3  UNL     1      -4.441   2.066  16.133  1.00  0.00     0.271 C 
BRANCH  19  20
HETATM   20  N1  UNL     1      -5.491   1.912  17.118  1.00  0.00     0.080 N 
HETATM   21  C1  UNL     1      -6.642   2.756  16.734  1.00  0.00     0.309 C 
HETATM   22  C2  UNL     1      -5.979   0.516  17.107  1.00  0.00     0.309 C 
ENDBRANCH  19  20
ENDBRANCH  18  19
ENDBRANCH   1  18
TORSDOF 5
ENDMDL
MODEL 5
REMARK VINA RESULT: -6.252233729      3.393      4.431
REMARK  5 active torsions:
REMARK  status: ('A' for Active; 'I' for Inactive)
REMARK    1  A    between atoms: N1_2  and  C3_4 
REMARK    2  A    between atoms: C3_4  and  C4_5 
REMARK    3  A    between atoms: C4_5  and  C5_6 
REMARK    4  A    between atoms: C8_9  and  N2_10 
REMARK    5  A    between atoms: N2_10  and  C9_12 
ROOT
HETATM    1  C5  UNL     1      -0.352   4.644  11.345  1.00  0.00    -0.013 C 
HETATM    2  C6  UNL     1      -1.788   4.319  11.058  1.00  0.00     0.007 C 
HETATM    3  C7  UNL     1      -2.506   3.745  12.289  1.00  0.00     0.025 C 
HETATM    4  C8  UNL     1      -1.900   4.275  13.533  1.00  0.00     0.077 C 
HETATM    5  C17 UNL     1      -1.410   5.698  13.301  1.00  0.00     0.025 C 
HETATM    6  C18 UNL     1      -0.268   5.788  12.343  1.00  0.00     0.007 C 
ENDROOT
BRANCH   4   7
HETATM    7  N2  UNL     1      -2.699   4.148  14.676  1.00  0.00    -0.411 N 
ATOM      8  H2  UNL     1      -2.280   4.243  15.600  1.00  0.00     0.154 HD
BRANCH   7   9
HETATM    9  C9  UNL     1      -4.075   3.890  14.558  1.00  0.00     0.110 C 
HETATM   10  C10 UNL     1      -5.019   5.064  14.532  1.00  0.00     0.027 C 
HETATM   11  C11 UNL     1      -6.284   4.629  15.311  1.00  0.00     0.009 C 
HETATM   12  C12 UNL     1      -6.125   3.148  15.292  1.00  0.00     0.023 C 
HETATM   13  C13 UNL     1      -6.669   2.385  16.441  1.00  0.00     0.037 C 
HETATM   14  C16 UNL     1      -4.640   3.098  15.676  1.00  0.00     0.248 C 
HETATM   15  C14 UNL     1      -5.573   1.330  16.658  1.00  0.00     0.273 C 
HETATM   16  N3  UNL     1      -4.448   1.734  15.805  1.00  0.00     0.091 N 
HETATM   17  C15 UNL     1      -4.458   0.906  14.653  1.00  0.00     0.310 C 
ENDBRANCH   7   9
ENDBRANCH   4   7
BRANCH   1  18
HETATM   18  C4  UNL     1       0.436   4.888  10.127  1.00  0.00     0.034 C 
BRANCH  18  19
HETATM   19  C3  UNL     1       1.791   4.343  10.009  1.00  0.00     0.271 C 
BRANCH  19  20
HETATM   20  N1  UNL     1       2.353   4.277   8.676  1.00  0.00     0.080 N 
HETATM   21  C1  UNL     1       3.019   2.970   8.497  1.00  0.00     0.309 C 
HETATM   22  C2  UNL     1       1.263   4.327   7.677  1.00  0.00     0.309 C 
ENDBRANCH  19  20
ENDBRANCH  18  19
ENDBRANCH   1  18
TORSDOF 5
ENDMDL
