MODEL 1
REMARK VINA RESULT: -6.554967848      0.000      0.000
REMARK  5 active torsions:
REMARK  status: ('A' for Active; 'I' for Inactive)
REMARK    1  A    between atoms: C2_2  and  N1_3 
REMARK    2  A    between atoms: N1_3  and  C3_4 
REMARK       I    between atoms: N1_3  and  C16_20 
REMARK    3  A    between atoms: C3_4  and  C4_5 
REMARK    4  A    between atoms: C4_5  and  N2_6 
REMARK    5  A    between atoms: N2_6  and  C5_8 
ROOT
HETATM    1  C5  UNL     1      -2.857   4.237  11.829  1.00  0.00     0.079 C 
HETATM    2  C6  UNL     1      -2.469   5.558  12.350  1.00  0.00     0.029 C 
HETATM    3  C7  UNL     1      -2.850   6.722  11.433  1.00  0.00    -0.010 C 
HETATM    4  C8  UNL     1      -2.506   6.454  10.000  1.00  0.00     0.007 C 
HETATM    5  C9  UNL     1      -3.229   5.352   9.342  1.00  0.00     0.032 C 
HETATM    6  C10 UNL     1      -4.496   4.894  10.019  1.00  0.00     0.124 C 
HETATM    7  C11 UNL     1      -4.269   4.161  11.297  1.00  0.00     0.056 C 
HETATM    8  O1  UNL     1      -5.449   5.820  10.159  1.00  0.00    -0.376 OA
HETATM    9  C12 UNL     1      -5.297   6.974  10.765  1.00  0.00     0.054 C 
HETATM   10  C13 UNL     1      -6.588   7.210  11.582  1.00  0.00     0.045 C 
HETATM   11  C14 UNL     1      -5.325   8.090   9.705  1.00  0.00     0.045 C 
HETATM   12  C15 UNL     1      -4.197   7.258  11.690  1.00  0.00     0.042 C 
ENDROOT
BRANCH   1  13
HETATM   13  N2  UNL     1      -2.804   3.257  12.894  1.00  0.00    -0.415 N 
ATOM     14  H2  UNL     1      -1.924   2.871  13.239  1.00  0.00     0.153 HD
BRANCH  13  15
HETATM   15  C4  UNL     1      -4.073   2.870  13.428  1.00  0.00     0.134 C 
BRANCH  15  16
HETATM   16  C3  UNL     1      -4.032   3.234  14.915  1.00  0.00     0.145 C 
BRANCH  16  17
HETATM   17  N1  UNL     1      -5.104   2.638  15.661  1.00  0.00    -0.351 N 
HETATM   18  C16 UNL     1      -4.846   1.419  16.344  1.00  0.00     0.215 C 
HETATM   19  C17 UNL     1      -5.905   0.740  17.133  1.00  0.00     0.117 C 
HETATM   20  O2  UNL     1      -3.710   0.861  16.316  1.00  0.00    -0.274 OA
BRANCH  17  21
HETATM   21  C2  UNL     1      -6.403   3.274  15.688  1.00  0.00     0.121 C 
HETATM   22  C1  UNL     1      -6.304   4.749  15.352  1.00  0.00     0.026 C 
ENDBRANCH  17  21
ENDBRANCH  16  17
ENDBRANCH  15  16
ENDBRANCH  13  15
ENDBRANCH   1  13
TORSDOF 5
ENDMDL
MODEL 2
REMARK VINA RESULT: -6.475316179      1.927      2.937
REMARK  5 active torsions:
REMARK  status: ('A' for Active; 'I' for Inactive)
REMARK    1  A    between atoms: C2_2  and  N1_3 
REMARK    2  A    between atoms: N1_3  and  C3_4 
REMARK       I    between atoms: N1_3  and  C16_20 
REMARK    3  A    between atoms: C3_4  and  C4_5 
REMARK    4  A    between atoms: C4_5  and  N2_6 
REMARK    5  A    between atoms: N2_6  and  C5_8 
ROOT
HETATM    1  C5  UNL     1      -3.642   4.229  12.768  1.00  0.00     0.079 C 
HETATM    2  C6  UNL     1      -4.390   5.437  12.384  1.00  0.00     0.029 C 
HETATM    3  C7  UNL     1      -3.611   6.739  12.582  1.00  0.00    -0.010 C 
HETATM    4  C8  UNL     1      -2.918   6.791  13.909  1.00  0.00     0.007 C 
HETATM    5  C9  UNL     1      -1.846   5.805  14.133  1.00  0.00     0.032 C 
HETATM    6  C10 UNL     1      -1.287   5.143  12.899  1.00  0.00     0.124 C 
HETATM    7  C11 UNL     1      -2.222   4.179  12.253  1.00  0.00     0.056 C 
HETATM    8  O1  UNL     1      -0.740   5.961  11.997  1.00  0.00    -0.376 OA
HETATM    9  C12 UNL     1      -1.351   6.974  11.428  1.00  0.00     0.054 C 
HETATM   10  C13 UNL     1      -0.927   6.960   9.940  1.00  0.00     0.045 C 
HETATM   11  C14 UNL     1      -0.742   8.280  11.970  1.00  0.00     0.045 C 
HETATM   12  C15 UNL     1      -2.808   7.129  11.412  1.00  0.00     0.042 C 
ENDROOT
BRANCH   1  13
HETATM   13  N2  UNL     1      -4.285   3.058  12.212  1.00  0.00    -0.415 N 
ATOM     14  H2  UNL     1      -4.476   2.960  11.214  1.00  0.00     0.153 HD
BRANCH  13  15
HETATM   15  C4  UNL     1      -4.635   2.047  13.162  1.00  0.00     0.134 C 
BRANCH  15  16
HETATM   16  C3  UNL     1      -4.305   2.630  14.539  1.00  0.00     0.145 C 
BRANCH  16  17
HETATM   17  N1  UNL     1      -5.251   2.244  15.546  1.00  0.00    -0.351 N 
HETATM   18  C16 UNL     1      -4.953   1.103  16.339  1.00  0.00     0.215 C 
HETATM   19  C17 UNL     1      -5.885   0.638  17.398  1.00  0.00     0.117 C 
HETATM   20  O2  UNL     1      -3.890   0.436  16.184  1.00  0.00    -0.274 OA
BRANCH  17  21
HETATM   21  C2  UNL     1      -6.469   3.003  15.718  1.00  0.00     0.121 C 
HETATM   22  C1  UNL     1      -6.254   4.473  15.413  1.00  0.00     0.026 C 
ENDBRANCH  17  21
ENDBRANCH  16  17
ENDBRANCH  15  16
ENDBRANCH  13  15
ENDBRANCH   1  13
TORSDOF 5
ENDMDL
MODEL 3
REMARK VINA RESULT: -6.287059583      2.194      6.246
REMARK  5 active torsions:
REMARK  status: ('A' for Active; 'I' for Inactive)
REMARK    1  A    between atoms: C2_2  and  N1_3 
REMARK    2  A    between atoms: N1_3  and  C3_4 
REMARK       I    between atoms: N1_3  and  C16_20 
REMARK    3  A    between atoms: C3_4  and  C4_5 
REMARK    4  A    between atoms: C4_5  and  N2_6 
REMARK    5  A    between atoms: N2_6  and  C5_8 
ROOT
HETATM    1  C5  UNL     1      -4.580   1.643  13.514  1.00  0.00     0.079 C 
HETATM    2  C6  UNL     1      -4.291   0.479  14.367  1.00  0.00     0.029 C 
HETATM    3  C7  UNL     1      -4.345   0.780  15.866  1.00  0.00    -0.010 C 
HETATM    4  C8  UNL     1      -3.628   2.046  16.219  1.00  0.00     0.007 C 
HETATM    5  C9  UNL     1      -4.191   3.296  15.677  1.00  0.00     0.032 C 
HETATM    6  C10 UNL     1      -5.616   3.225  15.193  1.00  0.00     0.124 C 
HETATM    7  C11 UNL     1      -5.789   2.445  13.934  1.00  0.00     0.056 C 
HETATM    8  O1  UNL     1      -6.525   2.873  16.105  1.00  0.00    -0.376 OA
HETATM    9  C12 UNL     1      -6.494   1.769  16.815  1.00  0.00     0.054 C 
HETATM   10  C13 UNL     1      -7.949   1.250  16.878  1.00  0.00     0.045 C 
HETATM   11  C14 UNL     1      -6.172   2.136  18.276  1.00  0.00     0.045 C 
HETATM   12  C15 UNL     1      -5.683   0.604  16.454  1.00  0.00     0.042 C 
ENDROOT
BRANCH   1  13
HETATM   13  N2  UNL     1      -4.872   1.200  12.167  1.00  0.00    -0.415 N 
ATOM     14  H2  UNL     1      -4.857   0.216  11.899  1.00  0.00     0.153 HD
BRANCH  13  15
HETATM   15  C4  UNL     1      -5.183   2.243  11.238  1.00  0.00     0.134 C 
BRANCH  15  16
HETATM   16  C3  UNL     1      -3.841   2.848  10.818  1.00  0.00     0.145 C 
BRANCH  16  17
HETATM   17  N1  UNL     1      -3.474   3.986  11.611  1.00  0.00    -0.351 N 
HETATM   18  C16 UNL     1      -2.222   3.955  12.283  1.00  0.00     0.215 C 
HETATM   19  C17 UNL     1      -1.773   5.093  13.126  1.00  0.00     0.117 C 
HETATM   20  O2  UNL     1      -1.436   2.968  12.195  1.00  0.00    -0.274 OA
BRANCH  17  21
HETATM   21  C2  UNL     1      -4.375   5.111  11.716  1.00  0.00     0.121 C 
HETATM   22  C1  UNL     1      -4.536   5.819  10.385  1.00  0.00     0.026 C 
ENDBRANCH  17  21
ENDBRANCH  16  17
ENDBRANCH  15  16
ENDBRANCH  13  15
ENDBRANCH   1  13
TORSDOF 5
ENDMDL
MODEL 4
REMARK VINA RESULT: -6.281895555      1.570      2.740
REMARK  5 active torsions:
REMARK  status: ('A' for Active; 'I' for Inactive)
REMARK    1  A    between atoms: C2_2  and  N1_3 
REMARK    2  A    between atoms: N1_3  and  C3_4 
REMARK       I    between atoms: N1_3  and  C16_20 
REMARK    3  A    between atoms: C3_4  and  C4_5 
REMARK    4  A    between atoms: C4_5  and  N2_6 
REMARK    5  A    between atoms: N2_6  and  C5_8 
ROOT
HETATM    1  C5  UNL     1      -3.576   3.310  12.373  1.00  0.00     0.079 C 
HETATM    2  C6  UNL     1      -4.459   3.564  11.224  1.00  0.00     0.029 C 
HETATM    3  C7  UNL     1      -4.286   4.951  10.602  1.00  0.00    -0.010 C 
HETATM    4  C8  UNL     1      -4.226   6.034  11.635  1.00  0.00     0.007 C 
HETATM    5  C9  UNL     1      -3.073   6.009  12.552  1.00  0.00     0.032 C 
HETATM    6  C10 UNL     1      -1.893   5.181  12.110  1.00  0.00     0.124 C 
HETATM    7  C11 UNL     1      -2.134   3.710  12.158  1.00  0.00     0.056 C 
HETATM    8  O1  UNL     1      -1.332   5.538  10.952  1.00  0.00    -0.376 OA
HETATM    9  C12 UNL     1      -1.962   5.629   9.804  1.00  0.00     0.054 C 
HETATM   10  C13 UNL     1      -1.008   5.044   8.736  1.00  0.00     0.045 C 
HETATM   11  C14 UNL     1      -2.072   7.116   9.422  1.00  0.00     0.045 C 
HETATM   12  C15 UNL     1      -3.260   5.001   9.547  1.00  0.00     0.042 C 
ENDROOT
BRANCH   1  13
HETATM   13  N2  UNL     1      -3.533   1.891  12.653  1.00  0.00    -0.415 N 
ATOM     14  H2  UNL     1      -2.882   1.260  12.186  1.00  0.00     0.153 HD
BRANCH  13  15
HETATM   15  C4  UNL     1      -4.471   1.436  13.633  1.00  0.00     0.134 C 
BRANCH  15  16
HETATM   16  C3  UNL     1      -4.308   2.369  14.837  1.00  0.00     0.145 C 
BRANCH  16  17
HETATM   17  N1  UNL     1      -5.486   2.429  15.654  1.00  0.00    -0.351 N 
HETATM   18  C16 UNL     1      -5.600   1.509  16.731  1.00  0.00     0.215 C 
HETATM   19  C17 UNL     1      -6.791   1.506  17.619  1.00  0.00     0.117 C 
HETATM   20  O2  UNL     1      -4.700   0.656  16.983  1.00  0.00    -0.274 OA
BRANCH  17  21
HETATM   21  C2  UNL     1      -6.516   3.400  15.361  1.00  0.00     0.121 C 
HETATM   22  C1  UNL     1      -5.921   4.734  14.953  1.00  0.00     0.026 C 
ENDBRANCH  17  21
ENDBRANCH  16  17
ENDBRANCH  15  16
ENDBRANCH  13  15
ENDBRANCH   1  13
TORSDOF 5
ENDMDL
MODEL 5
REMARK VINA RESULT: -6.176420916      1.587      2.342
REMARK  5 active torsions:
REMARK  status: ('A' for Active; 'I' for Inactive)
REMARK    1  A    between atoms: C2_2  and  N1_3 
REMARK    2  A    between atoms: N1_3  and  C3_4 
REMARK       I    between atoms: N1_3  and  C16_20 
REMARK    3  A    between atoms: C3_4  and  C4_5 
REMARK    4  A    between atoms: C4_5  and  N2_6 
REMARK    5  A    between atoms: N2_6  and  C5_8 
ROOT
HETATM    1  C5  UNL     1      -2.867   3.756  11.965  1.00  0.00     0.079 C 
HETATM    2  C6  UNL     1      -1.427   3.972  12.176  1.00  0.00     0.029 C 
HETATM    3  C7  UNL     1      -0.964   5.401  11.884  1.00  0.00    -0.010 C 
HETATM    4  C8  UNL     1      -1.527   5.931  10.601  1.00  0.00     0.007 C 
HETATM    5  C9  UNL     1      -2.988   6.109  10.544  1.00  0.00     0.032 C 
HETATM    6  C10 UNL     1      -3.703   6.142  11.871  1.00  0.00     0.124 C 
HETATM    7  C11 UNL     1      -3.756   4.822  12.562  1.00  0.00     0.056 C 
HETATM    8  O1  UNL     1      -3.328   7.110  12.711  1.00  0.00    -0.376 OA
HETATM    9  C12 UNL     1      -2.102   7.310  13.133  1.00  0.00     0.054 C 
HETATM   10  C13 UNL     1      -2.210   7.663  14.635  1.00  0.00     0.045 C 
HETATM   11  C14 UNL     1      -1.568   8.603  12.490  1.00  0.00     0.045 C 
HETATM   12  C15 UNL     1      -1.047   6.297  13.050  1.00  0.00     0.042 C 
ENDROOT
BRANCH   1  13
HETATM   13  N2  UNL     1      -3.276   2.524  12.605  1.00  0.00    -0.415 N 
ATOM     14  H2  UNL     1      -2.707   1.677  12.576  1.00  0.00     0.153 HD
BRANCH  13  15
HETATM   15  C4  UNL     1      -4.534   2.579  13.283  1.00  0.00     0.134 C 
BRANCH  15  16
HETATM   16  C3  UNL     1      -4.207   2.808  14.761  1.00  0.00     0.145 C 
BRANCH  16  17
HETATM   17  N1  UNL     1      -5.224   2.304  15.639  1.00  0.00    -0.351 N 
HETATM   18  C16 UNL     1      -4.942   1.125  16.381  1.00  0.00     0.215 C 
HETATM   19  C17 UNL     1      -5.945   0.539  17.306  1.00  0.00     0.117 C 
HETATM   20  O2  UNL     1      -3.832   0.524  16.291  1.00  0.00    -0.274 OA
BRANCH  17  21
HETATM   21  C2  UNL     1      -6.495   2.987  15.736  1.00  0.00     0.121 C 
HETATM   22  C1  UNL     1      -6.329   4.488  15.593  1.00  0.00     0.026 C 
ENDBRANCH  17  21
ENDBRANCH  16  17
ENDBRANCH  15  16
ENDBRANCH  13  15
ENDBRANCH   1  13
TORSDOF 5
ENDMDL
