MODEL 1
REMARK VINA RESULT: -6.148501539      0.000      0.000
REMARK  10 active torsions:
REMARK  status: ('A' for Active; 'I' for Inactive)
REMARK    1  A    between atoms: C2_2  and  C3_3 
REMARK    2  A    between atoms: C3_3  and  C4_4 
REMARK    3  A    between atoms: C5_5  and  O1_6 
REMARK    4  A    between atoms: C6_8  and  O2_9 
REMARK    5  A    between atoms: O2_9  and  C7_10 
REMARK    6  A    between atoms: C14_18  and  O4_19 
REMARK    7  A    between atoms: C17_23  and  O5_24 
REMARK    8  A    between atoms: O5_24  and  C18_25 
REMARK    9  A    between atoms: C18_25  and  C19_27 
REMARK   10  A    between atoms: C19_27  and  C20_28 
ROOT
HETATM    1  C4  UNL     1      23.361  21.439  -0.758  1.00  0.00     0.050 C 
HETATM    2  C5  UNL     1      22.670  20.338   0.012  1.00  0.00     0.155 C 
HETATM    3  C6  UNL     1      23.224  18.964  -0.232  1.00  0.00     0.172 C 
HETATM    4  C9  UNL     1      24.692  18.893  -0.438  1.00  0.00     0.017 C 
HETATM    5  C10 UNL     1      25.501  19.563   0.627  1.00  0.00     0.021 C 
HETATM    6  C11 UNL     1      25.080  17.399  -0.356  1.00  0.00     0.015 C 
HETATM    7  C12 UNL     1      26.431  17.360  -1.081  1.00  0.00     0.004 C 
HETATM    8  C13 UNL     1      26.581  18.704  -1.766  1.00  0.00     0.039 C 
HETATM    9  C14 UNL     1      25.134  19.140  -1.837  1.00  0.00     0.073 C 
HETATM   10  C15 UNL     1      24.920  20.431  -2.461  1.00  0.00     0.047 C 
HETATM   11  C16 UNL     1      26.016  21.460  -2.288  1.00  0.00     0.016 C 
HETATM   12  C17 UNL     1      23.610  21.113  -2.176  1.00  0.00     0.145 C 
ENDROOT
BRANCH  12  13
HETATM   13  O5  UNL     1      22.514  20.396  -2.738  1.00  0.00    -0.315 OA
BRANCH  13  14
HETATM   14  C18 UNL     1      21.398  20.986  -3.290  1.00  0.00     0.259 C 
HETATM   15  O6  UNL     1      21.533  22.085  -3.877  1.00  0.00    -0.265 OA
BRANCH  14  16
HETATM   16  C19 UNL     1      20.043  20.395  -3.232  1.00  0.00     0.115 C 
BRANCH  16  17
HETATM   17  C20 UNL     1      19.172  21.117  -2.234  1.00  0.00    -0.013 C 
HETATM   18  C21 UNL     1      18.659  22.427  -2.732  1.00  0.00     0.010 C 
HETATM   19  C22 UNL     1      17.982  20.225  -1.925  1.00  0.00     0.010 C 
ENDBRANCH  16  17
ENDBRANCH  14  16
ENDBRANCH  13  14
ENDBRANCH  12  13
BRANCH   1  20
HETATM   20  C3  UNL     1      22.414  22.615  -0.677  1.00  0.00     0.036 C 
BRANCH  20  21
HETATM   21  C2  UNL     1      22.941  23.885  -1.166  1.00  0.00    -0.036 C 
HETATM   22  C1  UNL     1      24.146  24.275  -0.717  1.00  0.00     0.007 C 
ENDBRANCH  20  21
ENDBRANCH   1  20
BRANCH   2  23
HETATM   23  O1  UNL     1      21.296  20.337  -0.195  1.00  0.00    -0.392 OA
ATOM     24  H1  UNL     1      20.905  21.183  -0.006  1.00  0.00     0.210 HD
ENDBRANCH   2  23
BRANCH   9  25
HETATM   25  O4  UNL     1      24.500  18.144  -2.625  1.00  0.00    -0.389 OA
ATOM     26  H4  UNL     1      24.972  17.338  -2.452  1.00  0.00     0.210 HD
ENDBRANCH   9  25
BRANCH   3  27
HETATM   27  O2  UNL     1      22.868  18.197   0.930  1.00  0.00    -0.313 OA
BRANCH  27  28
HETATM   28  C7  UNL     1      21.966  17.178   0.798  1.00  0.00     0.255 C 
HETATM   29  C8  UNL     1      22.258  15.768   1.207  1.00  0.00     0.126 C 
HETATM   30  O3  UNL     1      20.836  17.415   0.314  1.00  0.00    -0.266 OA
ENDBRANCH  27  28
ENDBRANCH   3  27
TORSDOF 10
ENDMDL
MODEL 2
REMARK VINA RESULT: -5.614990952      1.879      4.760
REMARK  10 active torsions:
REMARK  status: ('A' for Active; 'I' for Inactive)
REMARK    1  A    between atoms: C2_2  and  C3_3 
REMARK    2  A    between atoms: C3_3  and  C4_4 
REMARK    3  A    between atoms: C5_5  and  O1_6 
REMARK    4  A    between atoms: C6_8  and  O2_9 
REMARK    5  A    between atoms: O2_9  and  C7_10 
REMARK    6  A    between atoms: C14_18  and  O4_19 
REMARK    7  A    between atoms: C17_23  and  O5_24 
REMARK    8  A    between atoms: O5_24  and  C18_25 
REMARK    9  A    between atoms: C18_25  and  C19_27 
REMARK   10  A    between atoms: C19_27  and  C20_28 
ROOT
HETATM    1  C4  UNL     1      22.616  20.524  -2.372  1.00  0.00     0.050 C 
HETATM    2  C5  UNL     1      23.984  19.899  -2.509  1.00  0.00     0.155 C 
HETATM    3  C6  UNL     1      24.385  19.020  -1.361  1.00  0.00     0.172 C 
HETATM    4  C9  UNL     1      23.288  18.234  -0.742  1.00  0.00     0.017 C 
HETATM    5  C10 UNL     1      22.476  17.433  -1.709  1.00  0.00     0.021 C 
HETATM    6  C11 UNL     1      23.956  17.191   0.183  1.00  0.00     0.015 C 
HETATM    7  C12 UNL     1      22.820  16.814   1.143  1.00  0.00     0.004 C 
HETATM    8  C13 UNL     1      21.721  17.834   0.917  1.00  0.00     0.039 C 
HETATM    9  C14 UNL     1      22.516  18.964   0.301  1.00  0.00     0.073 C 
HETATM   10  C15 UNL     1      21.735  20.136  -0.044  1.00  0.00     0.047 C 
HETATM   11  C16 UNL     1      20.301  19.899  -0.464  1.00  0.00     0.016 C 
HETATM   12  C17 UNL     1      22.346  21.088  -1.036  1.00  0.00     0.145 C 
ENDROOT
BRANCH  12  13
HETATM   13  O5  UNL     1      23.505  21.726  -0.504  1.00  0.00    -0.315 OA
BRANCH  13  14
HETATM   14  C18 UNL     1      23.767  23.075  -0.604  1.00  0.00     0.259 C 
HETATM   15  O6  UNL     1      22.799  23.871  -0.622  1.00  0.00    -0.265 OA
BRANCH  14  16
HETATM   16  C19 UNL     1      25.130  23.642  -0.689  1.00  0.00     0.115 C 
BRANCH  16  17
HETATM   17  C20 UNL     1      25.691  23.517  -2.084  1.00  0.00    -0.013 C 
HETATM   18  C21 UNL     1      25.362  24.680  -2.962  1.00  0.00     0.010 C 
HETATM   19  C22 UNL     1      27.202  23.417  -1.970  1.00  0.00     0.010 C 
ENDBRANCH  16  17
ENDBRANCH  14  16
ENDBRANCH  13  14
ENDBRANCH  12  13
BRANCH   1  20
HETATM   20  C3  UNL     1      22.601  21.639  -3.395  1.00  0.00     0.036 C 
BRANCH  20  21
HETATM   21  C2  UNL     1      21.403  22.473  -3.402  1.00  0.00    -0.036 C 
HETATM   22  C1  UNL     1      21.564  23.794  -3.585  1.00  0.00     0.007 C 
ENDBRANCH  20  21
ENDBRANCH   1  20
BRANCH   2  23
HETATM   23  O1  UNL     1      24.972  20.847  -2.746  1.00  0.00    -0.392 OA
ATOM     24  H1  UNL     1      25.615  20.544  -3.377  1.00  0.00     0.210 HD
ENDBRANCH   2  23
BRANCH   9  25
HETATM   25  O4  UNL     1      23.458  19.323   1.299  1.00  0.00    -0.389 OA
ATOM     26  H4  UNL     1      23.303  20.242   1.484  1.00  0.00     0.210 HD
ENDBRANCH   9  25
BRANCH   3  27
HETATM   27  O2  UNL     1      25.372  18.121  -1.894  1.00  0.00    -0.313 OA
BRANCH  27  28
HETATM   28  C7  UNL     1      26.641  18.157  -1.386  1.00  0.00     0.255 C 
HETATM   29  C8  UNL     1      27.366  19.430  -1.086  1.00  0.00     0.126 C 
HETATM   30  O3  UNL     1      27.242  17.083  -1.156  1.00  0.00    -0.266 OA
ENDBRANCH  27  28
ENDBRANCH   3  27
TORSDOF 10
ENDMDL
MODEL 3
REMARK VINA RESULT: -5.603104209      1.571      3.599
REMARK  10 active torsions:
REMARK  status: ('A' for Active; 'I' for Inactive)
REMARK    1  A    between atoms: C2_2  and  C3_3 
REMARK    2  A    between atoms: C3_3  and  C4_4 
REMARK    3  A    between atoms: C5_5  and  O1_6 
REMARK    4  A    between atoms: C6_8  and  O2_9 
REMARK    5  A    between atoms: O2_9  and  C7_10 
REMARK    6  A    between atoms: C14_18  and  O4_19 
REMARK    7  A    between atoms: C17_23  and  O5_24 
REMARK    8  A    between atoms: O5_24  and  C18_25 
REMARK    9  A    between atoms: C18_25  and  C19_27 
REMARK   10  A    between atoms: C19_27  and  C20_28 
ROOT
HETATM    1  C4  UNL     1      22.690  20.590  -0.537  1.00  0.00     0.050 C 
HETATM    2  C5  UNL     1      23.321  19.605  -1.493  1.00  0.00     0.155 C 
HETATM    3  C6  UNL     1      24.420  20.175  -2.340  1.00  0.00     0.172 C 
HETATM    4  C9  UNL     1      25.276  21.193  -1.679  1.00  0.00     0.017 C 
HETATM    5  C10 UNL     1      25.845  20.765  -0.364  1.00  0.00     0.021 C 
HETATM    6  C11 UNL     1      26.501  21.407  -2.597  1.00  0.00     0.015 C 
HETATM    7  C12 UNL     1      27.022  22.779  -2.151  1.00  0.00     0.004 C 
HETATM    8  C13 UNL     1      25.942  23.373  -1.267  1.00  0.00     0.039 C 
HETATM    9  C14 UNL     1      24.740  22.580  -1.730  1.00  0.00     0.073 C 
HETATM   10  C15 UNL     1      23.498  22.917  -1.062  1.00  0.00     0.047 C 
HETATM   11  C16 UNL     1      23.602  23.368   0.379  1.00  0.00     0.016 C 
HETATM   12  C17 UNL     1      22.390  21.903  -1.140  1.00  0.00     0.145 C 
ENDROOT
BRANCH  12  13
HETATM   13  O5  UNL     1      21.908  21.757  -2.473  1.00  0.00    -0.315 OA
BRANCH  13  14
HETATM   14  C18 UNL     1      20.994  22.601  -3.068  1.00  0.00     0.259 C 
HETATM   15  O6  UNL     1      21.424  23.558  -3.753  1.00  0.00    -0.265 OA
BRANCH  14  16
HETATM   16  C19 UNL     1      19.529  22.441  -2.945  1.00  0.00     0.115 C 
BRANCH  16  17
HETATM   17  C20 UNL     1      19.164  21.052  -2.482  1.00  0.00    -0.013 C 
HETATM   18  C21 UNL     1      17.878  20.998  -1.726  1.00  0.00     0.010 C 
HETATM   19  C22 UNL     1      19.033  20.171  -3.712  1.00  0.00     0.010 C 
ENDBRANCH  16  17
ENDBRANCH  14  16
ENDBRANCH  13  14
ENDBRANCH  12  13
BRANCH   1  20
HETATM   20  C3  UNL     1      21.397  19.933  -0.108  1.00  0.00     0.036 C 
BRANCH  20  21
HETATM   21  C2  UNL     1      21.497  19.022   1.027  1.00  0.00    -0.036 C 
HETATM   22  C1  UNL     1      21.223  17.724   0.813  1.00  0.00     0.007 C 
ENDBRANCH  20  21
ENDBRANCH   1  20
BRANCH   2  23
HETATM   23  O1  UNL     1      22.377  18.981  -2.301  1.00  0.00    -0.392 OA
ATOM     24  H1  UNL     1      22.729  18.754  -3.154  1.00  0.00     0.210 HD
ENDBRANCH   2  23
BRANCH   9  25
HETATM   25  O4  UNL     1      24.614  22.896  -3.108  1.00  0.00    -0.389 OA
ATOM     26  H4  UNL     1      23.917  23.538  -3.165  1.00  0.00     0.210 HD
ENDBRANCH   9  25
BRANCH   3  27
HETATM   27  O2  UNL     1      25.229  19.052  -2.725  1.00  0.00    -0.313 OA
BRANCH  27  28
HETATM   28  C7  UNL     1      25.190  17.917  -1.963  1.00  0.00     0.255 C 
HETATM   29  C8  UNL     1      26.046  17.716  -0.752  1.00  0.00     0.126 C 
HETATM   30  O3  UNL     1      24.408  16.991  -2.277  1.00  0.00    -0.266 OA
ENDBRANCH  27  28
ENDBRANCH   3  27
TORSDOF 10
ENDMDL
MODEL 4
REMARK VINA RESULT: -5.479944958      1.858      5.442
REMARK  10 active torsions:
REMARK  status: ('A' for Active; 'I' for Inactive)
REMARK    1  A    between atoms: C2_2  and  C3_3 
REMARK    2  A    between atoms: C3_3  and  C4_4 
REMARK    3  A    between atoms: C5_5  and  O1_6 
REMARK    4  A    between atoms: C6_8  and  O2_9 
REMARK    5  A    between atoms: O2_9  and  C7_10 
REMARK    6  A    between atoms: C14_18  and  O4_19 
REMARK    7  A    between atoms: C17_23  and  O5_24 
REMARK    8  A    between atoms: O5_24  and  C18_25 
REMARK    9  A    between atoms: C18_25  and  C19_27 
REMARK   10  A    between atoms: C19_27  and  C20_28 
ROOT
HETATM    1  C4  UNL     1      22.888  20.582  -2.484  1.00  0.00     0.050 C 
HETATM    2  C5  UNL     1      22.317  19.802  -1.324  1.00  0.00     0.155 C 
HETATM    3  C6  UNL     1      20.913  20.176  -0.951  1.00  0.00     0.172 C 
HETATM    4  C9  UNL     1      20.025  20.544  -2.083  1.00  0.00     0.017 C 
HETATM    5  C10 UNL     1      19.985  19.540  -3.190  1.00  0.00     0.021 C 
HETATM    6  C11 UNL     1      18.585  20.584  -1.523  1.00  0.00     0.015 C 
HETATM    7  C12 UNL     1      17.848  21.453  -2.550  1.00  0.00     0.004 C 
HETATM    8  C13 UNL     1      18.920  22.078  -3.421  1.00  0.00     0.039 C 
HETATM    9  C14 UNL     1      20.118  21.968  -2.505  1.00  0.00     0.073 C 
HETATM   10  C15 UNL     1      21.352  22.496  -3.054  1.00  0.00     0.047 C 
HETATM   11  C16 UNL     1      21.529  22.388  -4.553  1.00  0.00     0.016 C 
HETATM   12  C17 UNL     1      22.631  22.034  -2.412  1.00  0.00     0.145 C 
ENDROOT
BRANCH  12  13
HETATM   13  O5  UNL     1      22.747  22.511  -1.074  1.00  0.00    -0.315 OA
BRANCH  13  14
HETATM   14  C18 UNL     1      23.544  23.567  -0.690  1.00  0.00     0.259 C 
HETATM   15  O6  UNL     1      22.991  24.643  -0.359  1.00  0.00    -0.265 OA
BRANCH  14  16
HETATM   16  C19 UNL     1      25.021  23.507  -0.642  1.00  0.00     0.115 C 
BRANCH  16  17
HETATM   17  C20 UNL     1      25.642  24.654  -1.400  1.00  0.00    -0.013 C 
HETATM   18  C21 UNL     1      27.111  24.791  -1.171  1.00  0.00     0.010 C 
HETATM   19  C22 UNL     1      25.411  24.412  -2.881  1.00  0.00     0.010 C 
ENDBRANCH  16  17
ENDBRANCH  14  16
ENDBRANCH  13  14
ENDBRANCH  12  13
BRANCH   1  20
HETATM   20  C3  UNL     1      24.379  20.337  -2.414  1.00  0.00     0.036 C 
BRANCH  20  21
HETATM   21  C2  UNL     1      24.817  18.998  -2.795  1.00  0.00    -0.036 C 
HETATM   22  C1  UNL     1      25.614  18.336  -1.940  1.00  0.00     0.007 C 
ENDBRANCH  20  21
ENDBRANCH   1  20
BRANCH   2  23
HETATM   23  O1  UNL     1      23.136  19.857  -0.201  1.00  0.00    -0.392 OA
ATOM     24  H1  UNL     1      22.744  20.360   0.503  1.00  0.00     0.210 HD
ENDBRANCH   2  23
BRANCH   9  25
HETATM   25  O4  UNL     1      19.765  22.733  -1.363  1.00  0.00    -0.389 OA
ATOM     26  H4  UNL     1      19.155  23.392  -1.671  1.00  0.00     0.210 HD
ENDBRANCH   9  25
BRANCH   3  27
HETATM   27  O2  UNL     1      20.375  19.025  -0.279  1.00  0.00    -0.313 OA
BRANCH  27  28
HETATM   28  C7  UNL     1      20.967  18.597   0.876  1.00  0.00     0.255 C 
HETATM   29  C8  UNL     1      21.624  17.259   1.013  1.00  0.00     0.126 C 
HETATM   30  O3  UNL     1      20.970  19.346   1.879  1.00  0.00    -0.266 OA
ENDBRANCH  27  28
ENDBRANCH   3  27
TORSDOF 10
ENDMDL
MODEL 5
REMARK VINA RESULT: -5.221336653      5.318      7.841
REMARK  10 active torsions:
REMARK  status: ('A' for Active; 'I' for Inactive)
REMARK    1  A    between atoms: C2_2  and  C3_3 
REMARK    2  A    between atoms: C3_3  and  C4_4 
REMARK    3  A    between atoms: C5_5  and  O1_6 
REMARK    4  A    between atoms: C6_8  and  O2_9 
REMARK    5  A    between atoms: O2_9  and  C7_10 
REMARK    6  A    between atoms: C14_18  and  O4_19 
REMARK    7  A    between atoms: C17_23  and  O5_24 
REMARK    8  A    between atoms: O5_24  and  C18_25 
REMARK    9  A    between atoms: C18_25  and  C19_27 
REMARK   10  A    between atoms: C19_27  and  C20_28 
ROOT
HETATM    1  C4  UNL     1      31.206  18.606   0.201  1.00  0.00     0.050 C 
HETATM    2  C5  UNL     1      31.118  17.480   1.204  1.00  0.00     0.155 C 
HETATM    3  C6  UNL     1      30.805  16.139   0.610  1.00  0.00     0.172 C 
HETATM    4  C9  UNL     1      31.399  15.875  -0.725  1.00  0.00     0.017 C 
HETATM    5  C10 UNL     1      32.873  16.112  -0.806  1.00  0.00     0.021 C 
HETATM    6  C11 UNL     1      31.218  14.365  -1.001  1.00  0.00     0.015 C 
HETATM    7  C12 UNL     1      31.348  14.282  -2.527  1.00  0.00     0.004 C 
HETATM    8  C13 UNL     1      31.290  15.710  -3.033  1.00  0.00     0.039 C 
HETATM    9  C14 UNL     1      30.598  16.387  -1.871  1.00  0.00     0.073 C 
HETATM   10  C15 UNL     1      30.379  17.810  -2.041  1.00  0.00     0.047 C 
HETATM   11  C16 UNL     1      31.408  18.563  -2.856  1.00  0.00     0.016 C 
HETATM   12  C17 UNL     1      30.116  18.608  -0.794  1.00  0.00     0.145 C 
ENDROOT
BRANCH  12  13
HETATM   13  O5  UNL     1      28.874  18.249  -0.195  1.00  0.00    -0.315 OA
BRANCH  13  14
HETATM   14  C18 UNL     1      27.642  18.429  -0.788  1.00  0.00     0.259 C 
HETATM   15  O6  UNL     1      26.995  17.414  -1.138  1.00  0.00    -0.265 OA
BRANCH  14  16
HETATM   16  C19 UNL     1      27.036  19.755  -1.035  1.00  0.00     0.115 C 
BRANCH  16  17
HETATM   17  C20 UNL     1      25.535  19.659  -1.155  1.00  0.00    -0.013 C 
HETATM   18  C21 UNL     1      24.824  19.810   0.149  1.00  0.00     0.010 C 
HETATM   19  C22 UNL     1      25.071  20.768  -2.083  1.00  0.00     0.010 C 
ENDBRANCH  16  17
ENDBRANCH  14  16
ENDBRANCH  13  14
ENDBRANCH  12  13
BRANCH   1  20
HETATM   20  C3  UNL     1      31.122  19.867   1.033  1.00  0.00     0.036 C 
BRANCH  20  21
HETATM   21  C2  UNL     1      32.383  20.334   1.600  1.00  0.00    -0.036 C 
HETATM   22  C1  UNL     1      32.397  20.661   2.903  1.00  0.00     0.007 C 
ENDBRANCH  20  21
ENDBRANCH   1  20
BRANCH   2  23
HETATM   23  O1  UNL     1      30.225  17.763   2.232  1.00  0.00    -0.392 OA
ATOM     24  H1  UNL     1      29.921  18.662   2.205  1.00  0.00     0.210 HD
ENDBRANCH   2  23
BRANCH   9  25
HETATM   25  O4  UNL     1      29.337  15.741  -1.781  1.00  0.00    -0.389 OA
ATOM     26  H4  UNL     1      28.783  16.163  -2.426  1.00  0.00     0.210 HD
ENDBRANCH   9  25
BRANCH   3  27
HETATM   27  O2  UNL     1      31.306  15.176   1.552  1.00  0.00    -0.313 OA
BRANCH  27  28
HETATM   28  C7  UNL     1      30.417  14.498   2.340  1.00  0.00     0.255 C 
HETATM   29  C8  UNL     1      30.743  14.027   3.722  1.00  0.00     0.126 C 
HETATM   30  O3  UNL     1      29.271  14.250   1.901  1.00  0.00    -0.266 OA
ENDBRANCH  27  28
ENDBRANCH   3  27
TORSDOF 10
ENDMDL
