MODEL 1
REMARK VINA RESULT: -7.449766769      0.000      0.000
REMARK  13 active torsions:
REMARK  status: ('A' for Active; 'I' for Inactive)
REMARK    1  A    between atoms: C2_2  and  C3_3 
REMARK    2  A    between atoms: C2_2  and  C15_22 
REMARK    3  A    between atoms: C3_3  and  C4_4 
REMARK    4  A    between atoms: C4_4  and  C5_5 
REMARK    5  A    between atoms: C6_7  and  C8_9 
REMARK    6  A    between atoms: C8_9  and  O2_11 
REMARK    7  A    between atoms: C8_9  and  C10_13 
REMARK    8  A    between atoms: C10_13  and  O3_14 
REMARK    9  A    between atoms: C13_18  and  O4_20 
REMARK   10  A    between atoms: C15_22  and  O5_23 
REMARK   11  A    between atoms: C16_25  and  C17_26 
REMARK   12  A    between atoms: C17_26  and  O7_28 
REMARK   13  A    between atoms: O7_28  and  C18_29 
ROOT
HETATM    1  C5  UNL     1      22.077  18.530  -1.149  1.00  0.00     0.161 C 
HETATM    2  O1  UNL     1      23.380  18.945  -1.147  1.00  0.00    -0.365 OA
HETATM    3  C6  UNL     1      24.337  17.918  -1.161  1.00  0.00     0.108 C 
HETATM    4  C7  UNL     1      24.412  17.246  -2.513  1.00  0.00     0.054 C 
HETATM    5  C11 UNL     1      24.059  16.968  -0.057  1.00  0.00     0.012 C 
HETATM    6  C12 UNL     1      22.880  17.020   0.547  1.00  0.00     0.012 C 
HETATM    7  C13 UNL     1      21.782  17.959   0.218  1.00  0.00     0.098 C 
HETATM    8  C14 UNL     1      21.634  19.038   1.275  1.00  0.00     0.053 C 
ENDROOT
BRANCH   1   9
HETATM    9  C4  UNL     1      21.188  19.712  -1.515  1.00  0.00     0.036 C 
BRANCH   9  10
HETATM   10  C3  UNL     1      21.836  20.654  -2.446  1.00  0.00     0.013 C 
BRANCH  10  11
HETATM   11  C2  UNL     1      21.885  22.090  -1.997  1.00  0.00     0.038 C 
HETATM   12  C1  UNL     1      21.429  22.981  -3.165  1.00  0.00     0.017 C 
BRANCH  11  13
HETATM   13  C15 UNL     1      23.186  22.582  -1.536  1.00  0.00     0.052 C 
HETATM   14  C16 UNL     1      23.640  23.750  -1.917  1.00  0.00     0.114 C 
BRANCH  13  15
HETATM   15  O5  UNL     1      24.001  21.842  -0.676  1.00  0.00    -0.364 OA
ATOM     16  H5  UNL     1      24.511  21.099  -0.975  1.00  0.00     0.217 HD
ENDBRANCH  13  15
BRANCH  14  17
HETATM   17  C17 UNL     1      24.908  24.344  -1.529  1.00  0.00     0.286 C 
HETATM   18  O6  UNL     1      25.345  24.156  -0.375  1.00  0.00    -0.260 OA
BRANCH  17  19
HETATM   19  O7  UNL     1      25.673  25.119  -2.369  1.00  0.00    -0.308 OA
BRANCH  19  20
HETATM   20  C18 UNL     1      26.764  24.641  -3.112  1.00  0.00     0.060 C 
HETATM   21  C19 UNL     1      28.028  25.294  -2.577  1.00  0.00     0.046 C 
HETATM   22  C20 UNL     1      26.668  24.990  -4.576  1.00  0.00     0.046 C 
HETATM   23  C21 UNL     1      26.933  23.144  -2.995  1.00  0.00     0.046 C 
ENDBRANCH  19  20
ENDBRANCH  17  19
ENDBRANCH  14  17
ENDBRANCH  11  13
ENDBRANCH  10  11
ENDBRANCH   9  10
ENDBRANCH   1   9
BRANCH   7  24
HETATM   24  O4  UNL     1      20.616  17.142   0.203  1.00  0.00    -0.384 OA
ATOM     25  H4  UNL     1      20.592  16.555   0.949  1.00  0.00     0.211 HD
ENDBRANCH   7  24
BRANCH   3  26
HETATM   26  C8  UNL     1      25.716  18.555  -0.955  1.00  0.00     0.109 C 
HETATM   27  C9  UNL     1      26.062  19.575  -1.980  1.00  0.00     0.051 C 
BRANCH  26  28
HETATM   28  O2  UNL     1      26.649  17.466  -1.131  1.00  0.00    -0.385 OA
ATOM     29  H2  UNL     1      27.439  17.879  -1.459  1.00  0.00     0.210 HD
ENDBRANCH  26  28
BRANCH  26  30
HETATM   30  C10 UNL     1      25.969  19.061   0.416  1.00  0.00     0.204 C 
BRANCH  30  31
HETATM   31  O3  UNL     1      25.023  19.925   0.924  1.00  0.00    -0.398 OA
ATOM     32  H3  UNL     1      25.257  20.846   0.919  1.00  0.00     0.209 HD
ENDBRANCH  30  31
ENDBRANCH  26  30
ENDBRANCH   3  26
TORSDOF 13
ENDMDL
MODEL 2
REMARK VINA RESULT: -7.409500594      0.713      1.057
REMARK  13 active torsions:
REMARK  status: ('A' for Active; 'I' for Inactive)
REMARK    1  A    between atoms: C2_2  and  C3_3 
REMARK    2  A    between atoms: C2_2  and  C15_22 
REMARK    3  A    between atoms: C3_3  and  C4_4 
REMARK    4  A    between atoms: C4_4  and  C5_5 
REMARK    5  A    between atoms: C6_7  and  C8_9 
REMARK    6  A    between atoms: C8_9  and  O2_11 
REMARK    7  A    between atoms: C8_9  and  C10_13 
REMARK    8  A    between atoms: C10_13  and  O3_14 
REMARK    9  A    between atoms: C13_18  and  O4_20 
REMARK   10  A    between atoms: C15_22  and  O5_23 
REMARK   11  A    between atoms: C16_25  and  C17_26 
REMARK   12  A    between atoms: C17_26  and  O7_28 
REMARK   13  A    between atoms: O7_28  and  C18_29 
ROOT
HETATM    1  C5  UNL     1      22.094  18.779  -1.233  1.00  0.00     0.161 C 
HETATM    2  O1  UNL     1      23.388  19.216  -1.168  1.00  0.00    -0.365 OA
HETATM    3  C6  UNL     1      24.354  18.212  -0.997  1.00  0.00     0.108 C 
HETATM    4  C7  UNL     1      24.548  17.407  -2.261  1.00  0.00     0.054 C 
HETATM    5  C11 UNL     1      23.995  17.374   0.173  1.00  0.00     0.012 C 
HETATM    6  C12 UNL     1      22.769  17.466   0.669  1.00  0.00     0.012 C 
HETATM    7  C13 UNL     1      21.692  18.345   0.157  1.00  0.00     0.098 C 
HETATM    8  C14 UNL     1      21.445  19.523   1.080  1.00  0.00     0.053 C 
ENDROOT
BRANCH   1   9
HETATM    9  C4  UNL     1      21.228  19.901  -1.791  1.00  0.00     0.036 C 
BRANCH   9  10
HETATM   10  C3  UNL     1      21.999  20.907  -2.543  1.00  0.00     0.013 C 
BRANCH  10  11
HETATM   11  C2  UNL     1      22.049  22.283  -1.934  1.00  0.00     0.038 C 
HETATM   12  C1  UNL     1      21.526  23.292  -2.970  1.00  0.00     0.017 C 
BRANCH  11  13
HETATM   13  C15 UNL     1      23.363  22.745  -1.479  1.00  0.00     0.052 C 
HETATM   14  C16 UNL     1      23.943  23.781  -2.030  1.00  0.00     0.114 C 
BRANCH  13  15
HETATM   15  O5  UNL     1      24.058  22.114  -0.445  1.00  0.00    -0.364 OA
ATOM     16  H5  UNL     1      24.624  22.591   0.151  1.00  0.00     0.217 HD
ENDBRANCH  13  15
BRANCH  14  17
HETATM   17  C17 UNL     1      25.237  24.332  -1.666  1.00  0.00     0.286 C 
HETATM   18  O6  UNL     1      25.770  23.988  -0.591  1.00  0.00    -0.260 OA
BRANCH  17  19
HETATM   19  O7  UNL     1      25.927  25.231  -2.447  1.00  0.00    -0.308 OA
BRANCH  19  20
HETATM   20  C18 UNL     1      26.980  24.886  -3.308  1.00  0.00     0.060 C 
HETATM   21  C19 UNL     1      28.223  25.645  -2.869  1.00  0.00     0.046 C 
HETATM   22  C20 UNL     1      26.709  25.267  -4.742  1.00  0.00     0.046 C 
HETATM   23  C21 UNL     1      27.302  23.410  -3.266  1.00  0.00     0.046 C 
ENDBRANCH  19  20
ENDBRANCH  17  19
ENDBRANCH  14  17
ENDBRANCH  11  13
ENDBRANCH  10  11
ENDBRANCH   9  10
ENDBRANCH   1   9
BRANCH   7  24
HETATM   24  O4  UNL     1      20.540  17.509   0.131  1.00  0.00    -0.384 OA
ATOM     25  H4  UNL     1      20.060  17.550   0.949  1.00  0.00     0.211 HD
ENDBRANCH   7  24
BRANCH   3  26
HETATM   26  C8  UNL     1      25.705  18.893  -0.745  1.00  0.00     0.109 C 
HETATM   27  C9  UNL     1      26.824  17.938  -0.529  1.00  0.00     0.051 C 
BRANCH  26  28
HETATM   28  O2  UNL     1      25.526  19.603   0.500  1.00  0.00    -0.385 OA
ATOM     29  H2  UNL     1      26.310  20.132   0.588  1.00  0.00     0.210 HD
ENDBRANCH  26  28
BRANCH  26  30
HETATM   30  C10 UNL     1      26.068  19.936  -1.735  1.00  0.00     0.204 C 
BRANCH  30  31
HETATM   31  O3  UNL     1      26.614  21.091  -1.220  1.00  0.00    -0.398 OA
ATOM     32  H3  UNL     1      27.532  21.241  -1.416  1.00  0.00     0.209 HD
ENDBRANCH  30  31
ENDBRANCH  26  30
ENDBRANCH   3  26
TORSDOF 13
ENDMDL
MODEL 3
REMARK VINA RESULT: -7.041516191      1.928      2.859
REMARK  13 active torsions:
REMARK  status: ('A' for Active; 'I' for Inactive)
REMARK    1  A    between atoms: C2_2  and  C3_3 
REMARK    2  A    between atoms: C2_2  and  C15_22 
REMARK    3  A    between atoms: C3_3  and  C4_4 
REMARK    4  A    between atoms: C4_4  and  C5_5 
REMARK    5  A    between atoms: C6_7  and  C8_9 
REMARK    6  A    between atoms: C8_9  and  O2_11 
REMARK    7  A    between atoms: C8_9  and  C10_13 
REMARK    8  A    between atoms: C10_13  and  O3_14 
REMARK    9  A    between atoms: C13_18  and  O4_20 
REMARK   10  A    between atoms: C15_22  and  O5_23 
REMARK   11  A    between atoms: C16_25  and  C17_26 
REMARK   12  A    between atoms: C17_26  and  O7_28 
REMARK   13  A    between atoms: O7_28  and  C18_29 
ROOT
HETATM    1  C5  UNL     1      22.341  18.522  -1.032  1.00  0.00     0.161 C 
HETATM    2  O1  UNL     1      23.527  19.172  -0.830  1.00  0.00    -0.365 OA
HETATM    3  C6  UNL     1      24.678  18.440  -1.161  1.00  0.00     0.108 C 
HETATM    4  C7  UNL     1      24.846  18.317  -2.658  1.00  0.00     0.054 C 
HETATM    5  C11 UNL     1      24.644  17.127  -0.472  1.00  0.00     0.012 C 
HETATM    6  C12 UNL     1      23.503  16.717   0.060  1.00  0.00     0.012 C 
HETATM    7  C13 UNL     1      22.220  17.459   0.035  1.00  0.00     0.098 C 
HETATM    8  C14 UNL     1      21.885  18.042   1.394  1.00  0.00     0.053 C 
ENDROOT
BRANCH   1   9
HETATM    9  C4  UNL     1      21.212  19.543  -0.999  1.00  0.00     0.036 C 
BRANCH   9  10
HETATM   10  C3  UNL     1      20.656  19.832  -2.333  1.00  0.00     0.013 C 
BRANCH  10  11
HETATM   11  C2  UNL     1      19.621  20.924  -2.389  1.00  0.00     0.038 C 
HETATM   12  C1  UNL     1      18.611  20.582  -3.497  1.00  0.00     0.017 C 
BRANCH  11  13
HETATM   13  C15 UNL     1      20.120  22.280  -2.637  1.00  0.00     0.052 C 
HETATM   14  C16 UNL     1      21.391  22.501  -2.859  1.00  0.00     0.114 C 
BRANCH  13  15
HETATM   15  O5  UNL     1      19.278  23.394  -2.650  1.00  0.00    -0.364 OA
ATOM     16  H5  UNL     1      18.638  23.553  -1.966  1.00  0.00     0.217 HD
ENDBRANCH  13  15
BRANCH  14  17
HETATM   17  C17 UNL     1      22.003  23.793  -3.118  1.00  0.00     0.286 C 
HETATM   18  O6  UNL     1      21.352  24.669  -3.723  1.00  0.00    -0.260 OA
BRANCH  17  19
HETATM   19  O7  UNL     1      23.283  24.119  -2.733  1.00  0.00    -0.308 OA
BRANCH  19  20
HETATM   20  C18 UNL     1      23.775  23.979  -1.426  1.00  0.00     0.060 C 
HETATM   21  C19 UNL     1      25.201  24.506  -1.394  1.00  0.00     0.046 C 
HETATM   22  C20 UNL     1      23.822  22.541  -0.973  1.00  0.00     0.046 C 
HETATM   23  C21 UNL     1      22.970  24.764  -0.417  1.00  0.00     0.046 C 
ENDBRANCH  19  20
ENDBRANCH  17  19
ENDBRANCH  14  17
ENDBRANCH  11  13
ENDBRANCH  10  11
ENDBRANCH   9  10
ENDBRANCH   1   9
BRANCH   7  24
HETATM   24  O4  UNL     1      21.253  16.474  -0.315  1.00  0.00    -0.384 OA
ATOM     25  H4  UNL     1      20.388  16.708   0.001  1.00  0.00     0.211 HD
ENDBRANCH   7  24
BRANCH   3  26
HETATM   26  C8  UNL     1      25.898  19.238  -0.687  1.00  0.00     0.109 C 
HETATM   27  C9  UNL     1      27.076  18.391  -0.363  1.00  0.00     0.051 C 
BRANCH  26  28
HETATM   28  O2  UNL     1      25.475  19.843   0.555  1.00  0.00    -0.385 OA
ATOM     29  H2  UNL     1      26.262  19.875   1.086  1.00  0.00     0.210 HD
ENDBRANCH  26  28
BRANCH  26  30
HETATM   30  C10 UNL     1      26.275  20.376  -1.561  1.00  0.00     0.204 C 
BRANCH  30  31
HETATM   31  O3  UNL     1      27.524  20.915  -1.344  1.00  0.00    -0.398 OA
ATOM     32  H3  UNL     1      27.925  21.349  -2.089  1.00  0.00     0.209 HD
ENDBRANCH  30  31
ENDBRANCH  26  30
ENDBRANCH   3  26
TORSDOF 13
ENDMDL
MODEL 4
REMARK VINA RESULT: -6.933508061      1.457      3.219
REMARK  13 active torsions:
REMARK  status: ('A' for Active; 'I' for Inactive)
REMARK    1  A    between atoms: C2_2  and  C3_3 
REMARK    2  A    between atoms: C2_2  and  C15_22 
REMARK    3  A    between atoms: C3_3  and  C4_4 
REMARK    4  A    between atoms: C4_4  and  C5_5 
REMARK    5  A    between atoms: C6_7  and  C8_9 
REMARK    6  A    between atoms: C8_9  and  O2_11 
REMARK    7  A    between atoms: C8_9  and  C10_13 
REMARK    8  A    between atoms: C10_13  and  O3_14 
REMARK    9  A    between atoms: C13_18  and  O4_20 
REMARK   10  A    between atoms: C15_22  and  O5_23 
REMARK   11  A    between atoms: C16_25  and  C17_26 
REMARK   12  A    between atoms: C17_26  and  O7_28 
REMARK   13  A    between atoms: O7_28  and  C18_29 
ROOT
HETATM    1  C5  UNL     1      23.153  20.486  -1.074  1.00  0.00     0.161 C 
HETATM    2  O1  UNL     1      22.544  19.262  -1.056  1.00  0.00    -0.365 OA
HETATM    3  C6  UNL     1      22.593  18.585   0.173  1.00  0.00     0.108 C 
HETATM    4  C7  UNL     1      21.666  19.212   1.189  1.00  0.00     0.054 C 
HETATM    5  C11 UNL     1      23.999  18.510   0.641  1.00  0.00     0.012 C 
HETATM    6  C12 UNL     1      24.904  19.287   0.064  1.00  0.00     0.012 C 
HETATM    7  C13 UNL     1      24.645  20.251  -1.031  1.00  0.00     0.098 C 
HETATM    8  C14 UNL     1      25.189  19.751  -2.356  1.00  0.00     0.053 C 
ENDROOT
BRANCH   1   9
HETATM    9  C4  UNL     1      22.696  21.241  -2.316  1.00  0.00     0.036 C 
BRANCH   9  10
HETATM   10  C3  UNL     1      21.530  22.107  -2.068  1.00  0.00     0.013 C 
BRANCH  10  11
HETATM   11  C2  UNL     1      21.768  23.586  -2.223  1.00  0.00     0.038 C 
HETATM   12  C1  UNL     1      21.802  23.918  -3.724  1.00  0.00     0.017 C 
BRANCH  11  13
HETATM   13  C15 UNL     1      22.993  24.113  -1.616  1.00  0.00     0.052 C 
HETATM   14  C16 UNL     1      24.136  24.066  -2.253  1.00  0.00     0.114 C 
BRANCH  13  15
HETATM   15  O5  UNL     1      23.007  24.689  -0.344  1.00  0.00    -0.364 OA
ATOM     16  H5  UNL     1      23.566  25.426  -0.126  1.00  0.00     0.217 HD
ENDBRANCH  13  15
BRANCH  14  17
HETATM   17  C17 UNL     1      25.412  24.555  -1.759  1.00  0.00     0.286 C 
HETATM   18  O6  UNL     1      25.805  24.208  -0.626  1.00  0.00    -0.260 OA
BRANCH  17  19
HETATM   19  O7  UNL     1      26.232  25.397  -2.475  1.00  0.00    -0.308 OA
BRANCH  19  20
HETATM   20  C18 UNL     1      27.183  24.967  -3.412  1.00  0.00     0.060 C 
HETATM   21  C19 UNL     1      28.421  25.837  -3.270  1.00  0.00     0.046 C 
HETATM   22  C20 UNL     1      26.701  25.108  -4.835  1.00  0.00     0.046 C 
HETATM   23  C21 UNL     1      27.600  23.531  -3.197  1.00  0.00     0.046 C 
ENDBRANCH  19  20
ENDBRANCH  17  19
ENDBRANCH  14  17
ENDBRANCH  11  13
ENDBRANCH  10  11
ENDBRANCH   9  10
ENDBRANCH   1   9
BRANCH   7  24
HETATM   24  O4  UNL     1      25.349  21.424  -0.638  1.00  0.00    -0.384 OA
ATOM     25  H4  UNL     1      25.575  21.963  -1.387  1.00  0.00     0.211 HD
ENDBRANCH   7  24
BRANCH   3  26
HETATM   26  C8  UNL     1      22.048  17.169  -0.046  1.00  0.00     0.109 C 
HETATM   27  C9  UNL     1      22.249  16.658  -1.428  1.00  0.00     0.051 C 
BRANCH  26  28
HETATM   28  O2  UNL     1      20.621  17.298   0.139  1.00  0.00    -0.385 OA
ATOM     29  H2  UNL     1      20.242  16.832  -0.597  1.00  0.00     0.210 HD
ENDBRANCH  26  28
BRANCH  26  30
HETATM   30  C10 UNL     1      22.479  16.174   0.966  1.00  0.00     0.204 C 
BRANCH  30  31
HETATM   31  O3  UNL     1      21.529  15.253   1.349  1.00  0.00    -0.398 OA
ATOM     32  H3  UNL     1      20.748  15.607   1.760  1.00  0.00     0.209 HD
ENDBRANCH  30  31
ENDBRANCH  26  30
ENDBRANCH   3  26
TORSDOF 13
ENDMDL
MODEL 5
REMARK VINA RESULT: -6.874328709      1.574      2.292
REMARK  13 active torsions:
REMARK  status: ('A' for Active; 'I' for Inactive)
REMARK    1  A    between atoms: C2_2  and  C3_3 
REMARK    2  A    between atoms: C2_2  and  C15_22 
REMARK    3  A    between atoms: C3_3  and  C4_4 
REMARK    4  A    between atoms: C4_4  and  C5_5 
REMARK    5  A    between atoms: C6_7  and  C8_9 
REMARK    6  A    between atoms: C8_9  and  O2_11 
REMARK    7  A    between atoms: C8_9  and  C10_13 
REMARK    8  A    between atoms: C10_13  and  O3_14 
REMARK    9  A    between atoms: C13_18  and  O4_20 
REMARK   10  A    between atoms: C15_22  and  O5_23 
REMARK   11  A    between atoms: C16_25  and  C17_26 
REMARK   12  A    between atoms: C17_26  and  O7_28 
REMARK   13  A    between atoms: O7_28  and  C18_29 
ROOT
HETATM    1  C5  UNL     1      22.393  20.461  -2.165  1.00  0.00     0.161 C 
HETATM    2  O1  UNL     1      23.522  20.278  -1.415  1.00  0.00    -0.365 OA
HETATM    3  C6  UNL     1      24.229  19.092  -1.671  1.00  0.00     0.108 C 
HETATM    4  C7  UNL     1      24.955  19.153  -2.995  1.00  0.00     0.054 C 
HETATM    5  C11 UNL     1      23.306  17.935  -1.570  1.00  0.00     0.012 C 
HETATM    6  C12 UNL     1      22.000  18.161  -1.567  1.00  0.00     0.012 C 
HETATM    7  C13 UNL     1      21.352  19.490  -1.659  1.00  0.00     0.098 C 
HETATM    8  C14 UNL     1      20.763  19.918  -0.327  1.00  0.00     0.053 C 
ENDROOT
BRANCH   1   9
HETATM    9  C4  UNL     1      21.965  21.918  -2.056  1.00  0.00     0.036 C 
BRANCH   9  10
HETATM   10  C3  UNL     1      23.083  22.863  -2.234  1.00  0.00     0.013 C 
BRANCH  10  11
HETATM   11  C2  UNL     1      23.747  23.336  -0.969  1.00  0.00     0.038 C 
HETATM   12  C1  UNL     1      23.159  24.708  -0.595  1.00  0.00     0.017 C 
BRANCH  11  13
HETATM   13  C15 UNL     1      25.206  23.468  -1.011  1.00  0.00     0.052 C 
HETATM   14  C16 UNL     1      25.776  24.644  -1.095  1.00  0.00     0.114 C 
BRANCH  13  15
HETATM   15  O5  UNL     1      26.056  22.361  -0.963  1.00  0.00    -0.364 OA
ATOM     16  H5  UNL     1      26.106  21.793  -0.203  1.00  0.00     0.217 HD
ENDBRANCH  13  15
BRANCH  14  17
HETATM   17  C17 UNL     1      27.205  24.901  -1.143  1.00  0.00     0.286 C 
HETATM   18  O6  UNL     1      27.915  24.601  -0.162  1.00  0.00    -0.260 OA
BRANCH  17  19
HETATM   19  O7  UNL     1      27.839  25.469  -2.224  1.00  0.00    -0.308 OA
BRANCH  19  20
HETATM   20  C18 UNL     1      27.985  24.846  -3.473  1.00  0.00     0.060 C 
HETATM   21  C19 UNL     1      29.102  25.548  -4.229  1.00  0.00     0.046 C 
HETATM   22  C20 UNL     1      26.742  24.947  -4.322  1.00  0.00     0.046 C 
HETATM   23  C21 UNL     1      28.355  23.386  -3.352  1.00  0.00     0.046 C 
ENDBRANCH  19  20
ENDBRANCH  17  19
ENDBRANCH  14  17
ENDBRANCH  11  13
ENDBRANCH  10  11
ENDBRANCH   9  10
ENDBRANCH   1   9
BRANCH   7  24
HETATM   24  O4  UNL     1      20.305  19.305  -2.606  1.00  0.00    -0.384 OA
ATOM     25  H4  UNL     1      19.866  18.471  -2.483  1.00  0.00     0.211 HD
ENDBRANCH   7  24
BRANCH   3  26
HETATM   26  C8  UNL     1      25.333  18.962  -0.616  1.00  0.00     0.109 C 
HETATM   27  C9  UNL     1      25.014  19.643   0.668  1.00  0.00     0.051 C 
BRANCH  26  28
HETATM   28  O2  UNL     1      26.461  19.664  -1.183  1.00  0.00    -0.385 OA
ATOM     29  H2  UNL     1      27.205  19.100  -1.009  1.00  0.00     0.210 HD
ENDBRANCH  26  28
BRANCH  26  30
HETATM   30  C10 UNL     1      25.815  17.578  -0.388  1.00  0.00     0.204 C 
BRANCH  30  31
HETATM   31  O3  UNL     1      27.171  17.382  -0.526  1.00  0.00    -0.398 OA
ATOM     32  H3  UNL     1      27.449  16.485  -0.672  1.00  0.00     0.209 HD
ENDBRANCH  30  31
ENDBRANCH  26  30
ENDBRANCH   3  26
TORSDOF 13
ENDMDL
