MODEL 1
REMARK VINA RESULT: -7.025034093      0.000      0.000
REMARK  11 active torsions:
REMARK  status: ('A' for Active; 'I' for Inactive)
REMARK    1  A    between atoms: C2_2  and  C4_4 
REMARK    2  A    between atoms: C4_4  and  C5_5 
REMARK    3  A    between atoms: C5_5  and  O1_9 
REMARK    4  A    between atoms: O1_9  and  C7_10 
REMARK    5  A    between atoms: C7_10  and  C8_11 
REMARK    6  A    between atoms: C15_18  and  C16_19 
REMARK    7  A    between atoms: C16_19  and  O2_20 
REMARK    8  A    between atoms: C16_19  and  C17_22 
REMARK    9  A    between atoms: C17_22  and  O3_23 
REMARK   10  A    between atoms: C17_22  and  C18_25 
REMARK   11  A    between atoms: C18_25  and  O4_27 
ROOT
HETATM    1  C8  UNL     1      23.114  20.778  -1.127  1.00  0.00     0.022 C 
HETATM    2  C9  UNL     1      22.957  22.080  -0.461  1.00  0.00     0.020 C 
HETATM    3  C10 UNL     1      24.066  23.076  -0.734  1.00  0.00     0.034 C 
HETATM    4  C11 UNL     1      25.007  22.620  -1.788  1.00  0.00    -0.087 C 
HETATM    5  C12 UNL     1      25.606  23.622  -2.691  1.00  0.00     0.043 C 
HETATM    6  C13 UNL     1      25.310  21.305  -1.919  1.00  0.00    -0.016 C 
HETATM    7  C14 UNL     1      24.625  20.486  -0.944  1.00  0.00     0.053 C 
HETATM    8  C15 UNL     1      24.690  19.040  -0.927  1.00  0.00     0.162 C 
HETATM    9  O5  UNL     1      23.380  18.574  -0.971  1.00  0.00    -0.371 OA
HETATM   10  C20 UNL     1      22.625  19.587  -0.326  1.00  0.00     0.065 C 
HETATM   11  C21 UNL     1      22.922  19.672   1.114  1.00  0.00     0.046 C 
HETATM   12  C22 UNL     1      21.172  19.286  -0.510  1.00  0.00     0.046 C 
ENDROOT
BRANCH   1  13
HETATM   13  C7  UNL     1      22.677  20.742  -2.522  1.00  0.00     0.190 C 
BRANCH  13  14
HETATM   14  O1  UNL     1      21.403  20.941  -2.929  1.00  0.00    -0.338 OA
BRANCH  14  15
HETATM   15  C5  UNL     1      20.681  22.182  -2.969  1.00  0.00     0.117 C 
HETATM   16  N1  UNL     1      21.445  23.101  -3.314  1.00  0.00    -0.379 N 
HETATM   17  C6  UNL     1      21.425  24.458  -3.545  1.00  0.00     0.148 C 
ATOM     18  H1  UNL     1      22.382  22.732  -3.478  1.00  0.00     0.160 HD
BRANCH  15  19
HETATM   19  C4  UNL     1      19.256  22.180  -2.623  1.00  0.00     0.116 C 
BRANCH  19  20
HETATM   20  C2  UNL     1      18.624  20.863  -2.764  1.00  0.00    -0.086 C 
HETATM   21  C1  UNL     1      17.792  20.398  -1.808  1.00  0.00     0.014 C 
HETATM   22  C3  UNL     1      18.884  19.973  -3.913  1.00  0.00     0.043 C 
ENDBRANCH  19  20
ENDBRANCH  15  19
ENDBRANCH  14  15
ENDBRANCH  13  14
ENDBRANCH   1  13
BRANCH   8  23
HETATM   23  C16 UNL     1      25.677  18.347  -1.761  1.00  0.00     0.179 C 
BRANCH  23  24
HETATM   24  O2  UNL     1      25.158  17.406  -2.638  1.00  0.00    -0.390 OA
ATOM     25  H2  UNL     1      25.076  17.694  -3.540  1.00  0.00     0.210 HD
ENDBRANCH  23  24
BRANCH  23  26
HETATM   26  C17 UNL     1      26.892  17.776  -1.086  1.00  0.00     0.177 C 
BRANCH  26  27
HETATM   27  O3  UNL     1      26.464  16.852  -0.087  1.00  0.00    -0.390 OA
ATOM     28  H3  UNL     1      25.974  17.328   0.573  1.00  0.00     0.210 HD
ENDBRANCH  26  27
BRANCH  26  29
HETATM   29  C18 UNL     1      27.815  18.732  -0.417  1.00  0.00     0.145 C 
HETATM   30  C19 UNL     1      28.449  19.776  -1.241  1.00  0.00     0.042 C 
BRANCH  29  31
HETATM   31  O4  UNL     1      27.350  19.156   0.831  1.00  0.00    -0.393 OA
ATOM     32  H4  UNL     1      27.328  20.102   0.918  1.00  0.00     0.210 HD
ENDBRANCH  29  31
ENDBRANCH  26  29
ENDBRANCH  23  26
ENDBRANCH   8  23
TORSDOF 11
ENDMDL
MODEL 2
REMARK VINA RESULT: -7.001977883      4.161      6.756
REMARK  11 active torsions:
REMARK  status: ('A' for Active; 'I' for Inactive)
REMARK    1  A    between atoms: C2_2  and  C4_4 
REMARK    2  A    between atoms: C4_4  and  C5_5 
REMARK    3  A    between atoms: C5_5  and  O1_9 
REMARK    4  A    between atoms: O1_9  and  C7_10 
REMARK    5  A    between atoms: C7_10  and  C8_11 
REMARK    6  A    between atoms: C15_18  and  C16_19 
REMARK    7  A    between atoms: C16_19  and  O2_20 
REMARK    8  A    between atoms: C16_19  and  C17_22 
REMARK    9  A    between atoms: C17_22  and  O3_23 
REMARK   10  A    between atoms: C17_22  and  C18_25 
REMARK   11  A    between atoms: C18_25  and  O4_27 
ROOT
HETATM    1  C8  UNL     1      26.247  23.397  -1.725  1.00  0.00     0.022 C 
HETATM    2  C9  UNL     1      25.297  23.445  -0.603  1.00  0.00     0.020 C 
HETATM    3  C10 UNL     1      23.925  23.989  -0.949  1.00  0.00     0.034 C 
HETATM    4  C11 UNL     1      23.732  24.185  -2.408  1.00  0.00    -0.087 C 
HETATM    5  C12 UNL     1      22.395  23.953  -2.988  1.00  0.00     0.043 C 
HETATM    6  C13 UNL     1      24.767  24.570  -3.195  1.00  0.00    -0.016 C 
HETATM    7  C14 UNL     1      25.989  24.746  -2.443  1.00  0.00     0.053 C 
HETATM    8  C15 UNL     1      27.267  25.052  -3.052  1.00  0.00     0.162 C 
HETATM    9  O5  UNL     1      28.162  24.073  -2.634  1.00  0.00    -0.371 OA
HETATM   10  C20 UNL     1      27.688  23.687  -1.354  1.00  0.00     0.065 C 
HETATM   11  C21 UNL     1      27.846  24.758  -0.356  1.00  0.00     0.046 C 
HETATM   12  C22 UNL     1      28.455  22.484  -0.907  1.00  0.00     0.046 C 
ENDROOT
BRANCH   1  13
HETATM   13  C7  UNL     1      26.109  22.233  -2.600  1.00  0.00     0.190 C 
BRANCH  13  14
HETATM   14  O1  UNL     1      26.092  20.951  -2.169  1.00  0.00    -0.338 OA
BRANCH  14  15
HETATM   15  C5  UNL     1      25.006  20.016  -2.248  1.00  0.00     0.117 C 
HETATM   16  N1  UNL     1      25.431  18.862  -2.059  1.00  0.00    -0.379 N 
HETATM   17  C6  UNL     1      24.971  17.565  -1.999  1.00  0.00     0.148 C 
ATOM     18  H1  UNL     1      26.438  18.884  -1.896  1.00  0.00     0.160 HD
BRANCH  15  19
HETATM   19  C4  UNL     1      23.657  20.522  -2.520  1.00  0.00     0.116 C 
BRANCH  19  20
HETATM   20  C2  UNL     1      22.773  20.483  -1.349  1.00  0.00    -0.086 C 
HETATM   21  C1  UNL     1      21.436  20.591  -1.498  1.00  0.00     0.014 C 
HETATM   22  C3  UNL     1      23.284  20.365   0.032  1.00  0.00     0.043 C 
ENDBRANCH  19  20
ENDBRANCH  15  19
ENDBRANCH  14  15
ENDBRANCH  13  14
ENDBRANCH   1  13
BRANCH   8  23
HETATM   23  C16 UNL     1      27.321  25.455  -4.461  1.00  0.00     0.179 C 
BRANCH  23  24
HETATM   24  O2  UNL     1      27.966  24.565  -5.308  1.00  0.00    -0.390 OA
ATOM     25  H2  UNL     1      28.911  24.529  -5.215  1.00  0.00     0.210 HD
ENDBRANCH  23  24
BRANCH  23  26
HETATM   26  C17 UNL     1      27.772  26.853  -4.777  1.00  0.00     0.177 C 
BRANCH  26  27
HETATM   27  O3  UNL     1      26.948  27.768  -4.057  1.00  0.00    -0.390 OA
ATOM     28  H3  UNL     1      26.045  27.480  -4.126  1.00  0.00     0.210 HD
ENDBRANCH  26  27
BRANCH  26  29
HETATM   29  C18 UNL     1      27.736  27.277  -6.203  1.00  0.00     0.145 C 
HETATM   30  C19 UNL     1      27.542  28.708  -6.495  1.00  0.00     0.042 C 
BRANCH  29  31
HETATM   31  O4  UNL     1      28.694  26.630  -6.989  1.00  0.00    -0.393 OA
ATOM     32  H4  UNL     1      29.233  27.232  -7.488  1.00  0.00     0.210 HD
ENDBRANCH  29  31
ENDBRANCH  26  29
ENDBRANCH  23  26
ENDBRANCH   8  23
TORSDOF 11
ENDMDL
MODEL 3
REMARK VINA RESULT: -6.866359615      2.978      5.473
REMARK  11 active torsions:
REMARK  status: ('A' for Active; 'I' for Inactive)
REMARK    1  A    between atoms: C2_2  and  C4_4 
REMARK    2  A    between atoms: C4_4  and  C5_5 
REMARK    3  A    between atoms: C5_5  and  O1_9 
REMARK    4  A    between atoms: O1_9  and  C7_10 
REMARK    5  A    between atoms: C7_10  and  C8_11 
REMARK    6  A    between atoms: C15_18  and  C16_19 
REMARK    7  A    between atoms: C16_19  and  O2_20 
REMARK    8  A    between atoms: C16_19  and  C17_22 
REMARK    9  A    between atoms: C17_22  and  O3_23 
REMARK   10  A    between atoms: C17_22  and  C18_25 
REMARK   11  A    between atoms: C18_25  and  O4_27 
ROOT
HETATM    1  C8  UNL     1      23.455  20.700  -1.570  1.00  0.00     0.022 C 
HETATM    2  C9  UNL     1      23.728  19.541  -2.433  1.00  0.00     0.020 C 
HETATM    3  C10 UNL     1      25.198  19.244  -2.658  1.00  0.00     0.034 C 
HETATM    4  C11 UNL     1      26.092  20.060  -1.799  1.00  0.00    -0.087 C 
HETATM    5  C12 UNL     1      27.346  19.462  -1.302  1.00  0.00     0.043 C 
HETATM    6  C13 UNL     1      25.761  21.335  -1.475  1.00  0.00    -0.016 C 
HETATM    7  C14 UNL     1      24.499  21.737  -2.057  1.00  0.00     0.053 C 
HETATM    8  C15 UNL     1      23.863  23.009  -1.786  1.00  0.00     0.162 C 
HETATM    9  O5  UNL     1      22.581  22.732  -1.323  1.00  0.00    -0.371 OA
HETATM   10  C20 UNL     1      22.234  21.511  -1.958  1.00  0.00     0.065 C 
HETATM   11  C21 UNL     1      22.058  21.670  -3.411  1.00  0.00     0.046 C 
HETATM   12  C22 UNL     1      20.957  21.011  -1.361  1.00  0.00     0.046 C 
ENDROOT
BRANCH   1  13
HETATM   13  C7  UNL     1      23.525  20.430  -0.134  1.00  0.00     0.190 C 
BRANCH  13  14
HETATM   14  O1  UNL     1      23.541  19.193   0.410  1.00  0.00    -0.338 OA
BRANCH  14  15
HETATM   15  C5  UNL     1      22.476  18.229   0.425  1.00  0.00     0.117 C 
HETATM   16  N1  UNL     1      21.501  18.691   1.044  1.00  0.00    -0.379 N 
HETATM   17  C6  UNL     1      20.225  18.333   1.420  1.00  0.00     0.148 C 
ATOM     18  H1  UNL     1      21.713  19.631   1.377  1.00  0.00     0.160 HD
BRANCH  15  19
HETATM   19  C4  UNL     1      22.682  16.940  -0.243  1.00  0.00     0.116 C 
BRANCH  19  20
HETATM   20  C2  UNL     1      22.165  15.799   0.521  1.00  0.00    -0.086 C 
HETATM   21  C1  UNL     1      21.165  15.040   0.024  1.00  0.00     0.014 C 
HETATM   22  C3  UNL     1      22.668  15.444   1.863  1.00  0.00     0.043 C 
ENDBRANCH  19  20
ENDBRANCH  15  19
ENDBRANCH  14  15
ENDBRANCH  13  14
ENDBRANCH   1  13
BRANCH   8  23
HETATM   23  C16 UNL     1      24.613  24.064  -1.097  1.00  0.00     0.179 C 
BRANCH  23  24
HETATM   24  O2  UNL     1      23.881  24.814  -0.188  1.00  0.00    -0.390 OA
ATOM     25  H2  UNL     1      24.397  25.323   0.427  1.00  0.00     0.210 HD
ENDBRANCH  23  24
BRANCH  23  26
HETATM   26  C17 UNL     1      25.459  24.985  -1.930  1.00  0.00     0.177 C 
BRANCH  26  27
HETATM   27  O3  UNL     1      24.918  25.029  -3.249  1.00  0.00    -0.390 OA
ATOM     28  H3  UNL     1      24.577  24.169  -3.464  1.00  0.00     0.210 HD
ENDBRANCH  26  27
BRANCH  26  29
HETATM   29  C18 UNL     1      26.901  24.646  -2.071  1.00  0.00     0.145 C 
HETATM   30  C19 UNL     1      27.361  24.095  -3.357  1.00  0.00     0.042 C 
BRANCH  29  31
HETATM   31  O4  UNL     1      27.744  25.600  -1.493  1.00  0.00    -0.393 OA
ATOM     32  H4  UNL     1      28.654  25.492  -1.745  1.00  0.00     0.210 HD
ENDBRANCH  29  31
ENDBRANCH  26  29
ENDBRANCH  23  26
ENDBRANCH   8  23
TORSDOF 11
ENDMDL
MODEL 4
REMARK VINA RESULT: -6.860138512      1.976      4.054
REMARK  11 active torsions:
REMARK  status: ('A' for Active; 'I' for Inactive)
REMARK    1  A    between atoms: C2_2  and  C4_4 
REMARK    2  A    between atoms: C4_4  and  C5_5 
REMARK    3  A    between atoms: C5_5  and  O1_9 
REMARK    4  A    between atoms: O1_9  and  C7_10 
REMARK    5  A    between atoms: C7_10  and  C8_11 
REMARK    6  A    between atoms: C15_18  and  C16_19 
REMARK    7  A    between atoms: C16_19  and  O2_20 
REMARK    8  A    between atoms: C16_19  and  C17_22 
REMARK    9  A    between atoms: C17_22  and  O3_23 
REMARK   10  A    between atoms: C17_22  and  C18_25 
REMARK   11  A    between atoms: C18_25  and  O4_27 
ROOT
HETATM    1  C8  UNL     1      23.618  19.156  -1.424  1.00  0.00     0.022 C 
HETATM    2  C9  UNL     1      23.534  17.864  -0.724  1.00  0.00     0.020 C 
HETATM    3  C10 UNL     1      22.779  17.898   0.590  1.00  0.00     0.034 C 
HETATM    4  C11 UNL     1      22.091  19.191   0.830  1.00  0.00    -0.087 C 
HETATM    5  C12 UNL     1      20.797  19.189   1.540  1.00  0.00     0.043 C 
HETATM    6  C13 UNL     1      22.640  20.354   0.402  1.00  0.00    -0.016 C 
HETATM    7  C14 UNL     1      23.905  20.147  -0.268  1.00  0.00     0.053 C 
HETATM    8  C15 UNL     1      24.652  21.208  -0.912  1.00  0.00     0.162 C 
HETATM    9  O5  UNL     1      24.866  20.812  -2.228  1.00  0.00    -0.371 OA
HETATM   10  C20 UNL     1      24.918  19.396  -2.165  1.00  0.00     0.065 C 
HETATM   11  C21 UNL     1      26.112  18.913  -1.453  1.00  0.00     0.046 C 
HETATM   12  C22 UNL     1      24.930  18.860  -3.562  1.00  0.00     0.046 C 
ENDROOT
BRANCH   1  13
HETATM   13  C7  UNL     1      22.439  19.506  -2.216  1.00  0.00     0.190 C 
BRANCH  13  14
HETATM   14  O1  UNL     1      22.114  20.765  -2.586  1.00  0.00    -0.338 OA
BRANCH  14  15
HETATM   15  C5  UNL     1      20.874  21.452  -2.356  1.00  0.00     0.117 C 
HETATM   16  N1  UNL     1      20.908  22.571  -2.899  1.00  0.00    -0.379 N 
HETATM   17  C6  UNL     1      20.115  23.685  -3.070  1.00  0.00     0.148 C 
ATOM     18  H1  UNL     1      21.805  22.706  -3.365  1.00  0.00     0.160 HD
BRANCH  15  19
HETATM   19  C4  UNL     1      19.831  20.783  -1.573  1.00  0.00     0.116 C 
BRANCH  19  20
HETATM   20  C2  UNL     1      18.654  20.411  -2.368  1.00  0.00    -0.086 C 
HETATM   21  C1  UNL     1      17.432  20.358  -1.797  1.00  0.00     0.014 C 
HETATM   22  C3  UNL     1      18.741  20.043  -3.796  1.00  0.00     0.043 C 
ENDBRANCH  19  20
ENDBRANCH  15  19
ENDBRANCH  14  15
ENDBRANCH  13  14
ENDBRANCH   1  13
BRANCH   8  23
HETATM   23  C16 UNL     1      24.272  22.606  -0.683  1.00  0.00     0.179 C 
BRANCH  23  24
HETATM   24  O2  UNL     1      23.213  23.066  -1.453  1.00  0.00    -0.390 OA
ATOM     25  H2  UNL     1      22.820  23.879  -1.157  1.00  0.00     0.210 HD
ENDBRANCH  23  24
BRANCH  23  26
HETATM   26  C17 UNL     1      25.362  23.639  -0.675  1.00  0.00     0.177 C 
BRANCH  26  27
HETATM   27  O3  UNL     1      24.820  24.874  -1.140  1.00  0.00    -0.390 OA
ATOM     28  H3  UNL     1      24.924  25.525  -0.456  1.00  0.00     0.210 HD
ENDBRANCH  26  27
BRANCH  26  29
HETATM   29  C18 UNL     1      26.570  23.365  -1.499  1.00  0.00     0.145 C 
HETATM   30  C19 UNL     1      26.564  23.805  -2.905  1.00  0.00     0.042 C 
BRANCH  29  31
HETATM   31  O4  UNL     1      27.765  23.588  -0.808  1.00  0.00    -0.393 OA
ATOM     32  H4  UNL     1      28.165  22.787  -0.491  1.00  0.00     0.210 HD
ENDBRANCH  29  31
ENDBRANCH  26  29
ENDBRANCH  23  26
ENDBRANCH   8  23
TORSDOF 11
ENDMDL
MODEL 5
REMARK VINA RESULT: -6.832602342      2.376      4.704
REMARK  11 active torsions:
REMARK  status: ('A' for Active; 'I' for Inactive)
REMARK    1  A    between atoms: C2_2  and  C4_4 
REMARK    2  A    between atoms: C4_4  and  C5_5 
REMARK    3  A    between atoms: C5_5  and  O1_9 
REMARK    4  A    between atoms: O1_9  and  C7_10 
REMARK    5  A    between atoms: C7_10  and  C8_11 
REMARK    6  A    between atoms: C15_18  and  C16_19 
REMARK    7  A    between atoms: C16_19  and  O2_20 
REMARK    8  A    between atoms: C16_19  and  C17_22 
REMARK    9  A    between atoms: C17_22  and  O3_23 
REMARK   10  A    between atoms: C17_22  and  C18_25 
REMARK   11  A    between atoms: C18_25  and  O4_27 
ROOT
HETATM    1  C8  UNL     1      23.057  20.343  -1.644  1.00  0.00     0.022 C 
HETATM    2  C9  UNL     1      22.665  20.804  -2.985  1.00  0.00     0.020 C 
HETATM    3  C10 UNL     1      21.177  20.755  -3.269  1.00  0.00     0.034 C 
HETATM    4  C11 UNL     1      20.368  20.437  -2.065  1.00  0.00    -0.087 C 
HETATM    5  C12 UNL     1      19.037  21.056  -1.916  1.00  0.00     0.043 C 
HETATM    6  C13 UNL     1      20.846  19.594  -1.117  1.00  0.00    -0.016 C 
HETATM    7  C14 UNL     1      22.163  19.093  -1.444  1.00  0.00     0.053 C 
HETATM    8  C15 UNL     1      22.945  18.259  -0.555  1.00  0.00     0.162 C 
HETATM    9  O5  UNL     1      24.169  18.893  -0.375  1.00  0.00    -0.371 OA
HETATM   10  C20 UNL     1      24.379  19.603  -1.585  1.00  0.00     0.065 C 
HETATM   11  C21 UNL     1      24.613  18.702  -2.726  1.00  0.00     0.046 C 
HETATM   12  C22 UNL     1      25.567  20.494  -1.413  1.00  0.00     0.046 C 
ENDROOT
BRANCH   1  13
HETATM   13  C7  UNL     1      22.916  21.339  -0.583  1.00  0.00     0.190 C 
BRANCH  13  14
HETATM   14  O1  UNL     1      23.842  22.280  -0.291  1.00  0.00    -0.338 OA
BRANCH  14  15
HETATM   15  C5  UNL     1      23.922  23.619  -0.803  1.00  0.00     0.117 C 
HETATM   16  N1  UNL     1      25.103  23.893  -1.080  1.00  0.00    -0.379 N 
HETATM   17  C6  UNL     1      25.855  24.933  -1.580  1.00  0.00     0.148 C 
ATOM     18  H1  UNL     1      25.704  23.096  -0.872  1.00  0.00     0.160 HD
BRANCH  15  19
HETATM   19  C4  UNL     1      22.689  24.406  -0.916  1.00  0.00     0.116 C 
BRANCH  19  20
HETATM   20  C2  UNL     1      22.029  24.271  -2.220  1.00  0.00    -0.086 C 
HETATM   21  C1  UNL     1      22.756  24.260  -3.357  1.00  0.00     0.014 C 
HETATM   22  C3  UNL     1      20.562  24.181  -2.364  1.00  0.00     0.043 C 
ENDBRANCH  19  20
ENDBRANCH  15  19
ENDBRANCH  14  15
ENDBRANCH  13  14
ENDBRANCH   1  13
BRANCH   8  23
HETATM   23  C16 UNL     1      22.313  17.668   0.629  1.00  0.00     0.179 C 
BRANCH  23  24
HETATM   24  O2  UNL     1      21.852  18.576   1.571  1.00  0.00    -0.390 OA
ATOM     25  H2  UNL     1      22.361  18.624   2.372  1.00  0.00     0.210 HD
ENDBRANCH  23  24
BRANCH  23  26
HETATM   26  C17 UNL     1      23.036  16.553   1.330  1.00  0.00     0.177 C 
BRANCH  26  27
HETATM   27  O3  UNL     1      24.138  16.147   0.520  1.00  0.00    -0.390 OA
ATOM     28  H3  UNL     1      23.802  15.839  -0.314  1.00  0.00     0.210 HD
ENDBRANCH  26  27
BRANCH  26  29
HETATM   29  C18 UNL     1      22.259  15.323   1.641  1.00  0.00     0.145 C 
HETATM   30  C19 UNL     1      21.291  14.843   0.639  1.00  0.00     0.042 C 
BRANCH  29  31
HETATM   31  O4  UNL     1      23.030  14.329   2.251  1.00  0.00    -0.393 OA
ATOM     32  H4  UNL     1      23.402  13.714   1.630  1.00  0.00     0.210 HD
ENDBRANCH  29  31
ENDBRANCH  26  29
ENDBRANCH  23  26
ENDBRANCH   8  23
TORSDOF 11
ENDMDL
