MODEL 1
REMARK VINA RESULT: -6.667189702      0.000      0.000
REMARK  5 active torsions:
REMARK  status: ('A' for Active; 'I' for Inactive)
REMARK    1  A    between atoms: N1_5  and  C5_6 
REMARK    2  A    between atoms: C5_6  and  C6_10 
REMARK    3  A    between atoms: C6_10  and  S1_11 
REMARK    4  A    between atoms: S1_11  and  C7_12 
REMARK    5  A    between atoms: C12_17  and  N3_18 
ROOT
HETATM    1  C1  UNL     1      -4.652 -26.144  26.247  1.00  0.00     0.012 C 
HETATM    2  C2  UNL     1      -5.308 -24.980  25.536  1.00  0.00     0.015 C 
HETATM    3  C3  UNL     1      -6.790 -25.149  25.592  1.00  0.00     0.026 C 
HETATM    4  C4  UNL     1      -7.505 -24.649  24.365  1.00  0.00     0.124 C 
HETATM    5  N1  UNL     1      -6.765 -23.631  23.655  1.00  0.00    -0.368 N 
HETATM    6  C11 UNL     1      -5.415 -23.934  23.254  1.00  0.00     0.157 C 
HETATM    7  C12 UNL     1      -4.739 -24.932  24.147  1.00  0.00     0.205 C 
ENDROOT
BRANCH   5   8
HETATM    8  C5  UNL     1      -7.344 -22.372  23.359  1.00  0.00     0.082 C 
HETATM    9  N2  UNL     1      -8.320 -21.980  24.095  1.00  0.00    -0.388 N 
ATOM     10  H22 UNL     1      -8.640 -22.577  24.857  1.00  0.00     0.157 HD
ATOM     11  H21 UNL     1      -8.736 -21.073  23.882  1.00  0.00     0.157 HD
BRANCH   8  12
HETATM   12  C6  UNL     1      -6.880 -21.506  22.253  1.00  0.00     0.150 C 
BRANCH  12  13
HETATM   13  S1  UNL     1      -8.030 -21.331  20.902  1.00  0.00    -0.153 SA
BRANCH  13  14
HETATM   14  C7  UNL     1      -9.234 -20.028  21.113  1.00  0.00    -0.003 C 
HETATM   15  C8  UNL     1     -10.540 -20.635  21.581  1.00  0.00     0.026 C 
HETATM   16  C9  UNL     1      -9.514 -19.272  19.830  1.00  0.00     0.026 C 
HETATM   17  C10 UNL     1      -8.825 -19.018  22.161  1.00  0.00     0.026 C 
ENDBRANCH  13  14
ENDBRANCH  12  13
ENDBRANCH   8  12
ENDBRANCH   5   8
BRANCH   7  18
HETATM   18  N3  UNL     1      -4.734 -26.265  23.575  1.00  0.00    -0.073 N 
ATOM     19  H33 UNL     1      -3.803 -26.681  23.580  1.00  0.00     0.274 HD
ATOM     20  H32 UNL     1      -5.201 -26.943  24.177  1.00  0.00     0.274 HD
ATOM     21  H31 UNL     1      -5.138 -26.238  22.639  1.00  0.00     0.274 HD
ENDBRANCH   7  18
TORSDOF 5
ENDMDL
MODEL 2
REMARK VINA RESULT: -6.655479202      0.054      1.058
REMARK  5 active torsions:
REMARK  status: ('A' for Active; 'I' for Inactive)
REMARK    1  A    between atoms: N1_5  and  C5_6 
REMARK    2  A    between atoms: C5_6  and  C6_10 
REMARK    3  A    between atoms: C6_10  and  S1_11 
REMARK    4  A    between atoms: S1_11  and  C7_12 
REMARK    5  A    between atoms: C12_17  and  N3_18 
ROOT
HETATM    1  C1  UNL     1      -4.700 -26.131  26.271  1.00  0.00     0.012 C 
HETATM    2  C2  UNL     1      -5.342 -24.962  25.554  1.00  0.00     0.015 C 
HETATM    3  C3  UNL     1      -6.824 -25.136  25.571  1.00  0.00     0.026 C 
HETATM    4  C4  UNL     1      -7.510 -24.627  24.331  1.00  0.00     0.124 C 
HETATM    5  N1  UNL     1      -6.756 -23.600  23.650  1.00  0.00    -0.368 N 
HETATM    6  C11 UNL     1      -5.395 -23.895  23.280  1.00  0.00     0.157 C 
HETATM    7  C12 UNL     1      -4.739 -24.899  24.181  1.00  0.00     0.205 C 
ENDROOT
BRANCH   5   8
HETATM    8  C5  UNL     1      -7.332 -22.340  23.351  1.00  0.00     0.082 C 
HETATM    9  N2  UNL     1      -8.325 -21.956  24.068  1.00  0.00    -0.388 N 
ATOM     10  H22 UNL     1      -8.660 -22.560  24.818  1.00  0.00     0.157 HD
ATOM     11  H21 UNL     1      -8.738 -21.049  23.853  1.00  0.00     0.157 HD
BRANCH   8  12
HETATM   12  C6  UNL     1      -6.845 -21.464  22.263  1.00  0.00     0.150 C 
BRANCH  12  13
HETATM   13  S1  UNL     1      -7.960 -21.290  20.882  1.00  0.00    -0.153 SA
BRANCH  13  14
HETATM   14  C7  UNL     1      -9.238 -20.061  21.108  1.00  0.00    -0.003 C 
HETATM   15  C8  UNL     1      -9.477 -19.353  19.791  1.00  0.00     0.026 C 
HETATM   16  C9  UNL     1      -8.867 -19.009  22.133  1.00  0.00     0.026 C 
HETATM   17  C10 UNL     1     -10.560 -20.662  21.524  1.00  0.00     0.026 C 
ENDBRANCH  13  14
ENDBRANCH  12  13
ENDBRANCH   8  12
ENDBRANCH   5   8
BRANCH   7  18
HETATM   18  N3  UNL     1      -4.714 -26.227  23.597  1.00  0.00    -0.073 N 
ATOM     19  H33 UNL     1      -4.884 -26.954  24.290  1.00  0.00     0.274 HD
ATOM     20  H32 UNL     1      -5.524 -26.399  23.001  1.00  0.00     0.274 HD
ATOM     21  H31 UNL     1      -3.835 -26.367  23.099  1.00  0.00     0.274 HD
ENDBRANCH   7  18
TORSDOF 5
ENDMDL
MODEL 3
REMARK VINA RESULT: -6.628252086      0.130      1.074
REMARK  5 active torsions:
REMARK  status: ('A' for Active; 'I' for Inactive)
REMARK    1  A    between atoms: N1_5  and  C5_6 
REMARK    2  A    between atoms: C5_6  and  C6_10 
REMARK    3  A    between atoms: C6_10  and  S1_11 
REMARK    4  A    between atoms: S1_11  and  C7_12 
REMARK    5  A    between atoms: C12_17  and  N3_18 
ROOT
HETATM    1  C1  UNL     1      -4.732 -26.204  26.314  1.00  0.00     0.012 C 
HETATM    2  C2  UNL     1      -5.383 -25.020  25.632  1.00  0.00     0.015 C 
HETATM    3  C3  UNL     1      -6.862 -25.220  25.618  1.00  0.00     0.026 C 
HETATM    4  C4  UNL     1      -7.537 -24.675  24.387  1.00  0.00     0.124 C 
HETATM    5  N1  UNL     1      -6.792 -23.610  23.759  1.00  0.00    -0.368 N 
HETATM    6  C11 UNL     1      -5.419 -23.865  23.401  1.00  0.00     0.157 C 
HETATM    7  C12 UNL     1      -4.759 -24.893  24.272  1.00  0.00     0.205 C 
ENDROOT
BRANCH   5   8
HETATM    8  C5  UNL     1      -7.385 -22.349  23.500  1.00  0.00     0.082 C 
HETATM    9  N2  UNL     1      -8.408 -22.019  24.202  1.00  0.00    -0.388 N 
ATOM     10  H22 UNL     1      -8.753 -22.664  24.912  1.00  0.00     0.157 HD
ATOM     11  H21 UNL     1      -8.834 -21.111  24.015  1.00  0.00     0.157 HD
BRANCH   8  12
HETATM   12  C6  UNL     1      -6.884 -21.414  22.469  1.00  0.00     0.150 C 
BRANCH  12  13
HETATM   13  S1  UNL     1      -7.907 -21.279  21.015  1.00  0.00    -0.153 SA
BRANCH  13  14
HETATM   14  C7  UNL     1      -9.238 -20.094  21.148  1.00  0.00    -0.003 C 
HETATM   15  C8  UNL     1      -8.843 -19.019  22.138  1.00  0.00     0.026 C 
HETATM   16  C9  UNL     1     -10.531 -20.715  21.637  1.00  0.00     0.026 C 
HETATM   17  C10 UNL     1      -9.531 -19.394  19.841  1.00  0.00     0.026 C 
ENDBRANCH  13  14
ENDBRANCH  12  13
ENDBRANCH   8  12
ENDBRANCH   5   8
BRANCH   7  18
HETATM   18  N3  UNL     1      -4.702 -26.196  23.637  1.00  0.00    -0.073 N 
ATOM     19  H33 UNL     1      -4.013 -26.226  22.886  1.00  0.00     0.274 HD
ATOM     20  H32 UNL     1      -4.286 -26.901  24.246  1.00  0.00     0.274 HD
ATOM     21  H31 UNL     1      -5.633 -26.463  23.318  1.00  0.00     0.274 HD
ENDBRANCH   7  18
TORSDOF 5
ENDMDL
MODEL 4
REMARK VINA RESULT: -6.394722177      2.949      6.236
REMARK  5 active torsions:
REMARK  status: ('A' for Active; 'I' for Inactive)
REMARK    1  A    between atoms: N1_5  and  C5_6 
REMARK    2  A    between atoms: C5_6  and  C6_10 
REMARK    3  A    between atoms: C6_10  and  S1_11 
REMARK    4  A    between atoms: S1_11  and  C7_12 
REMARK    5  A    between atoms: C12_17  and  N3_18 
ROOT
HETATM    1  C1  UNL     1     -10.493 -20.885  22.088  1.00  0.00     0.012 C 
HETATM    2  C2  UNL     1      -9.094 -20.954  21.514  1.00  0.00     0.015 C 
HETATM    3  C3  UNL     1      -8.176 -20.151  22.372  1.00  0.00     0.026 C 
HETATM    4  C4  UNL     1      -7.080 -19.457  21.608  1.00  0.00     0.124 C 
HETATM    5  N1  UNL     1      -6.765 -20.107  20.357  1.00  0.00    -0.368 N 
HETATM    6  C11 UNL     1      -7.840 -20.337  19.426  1.00  0.00     0.157 C 
HETATM    7  C12 UNL     1      -9.178 -20.490  20.088  1.00  0.00     0.205 C 
ENDROOT
BRANCH   5   8
HETATM    8  C5  UNL     1      -5.441 -20.509  20.049  1.00  0.00     0.082 C 
HETATM    9  N2  UNL     1      -4.877 -19.964  19.033  1.00  0.00    -0.388 N 
ATOM     10  H22 UNL     1      -5.391 -19.270  18.491  1.00  0.00     0.157 HD
ATOM     11  H21 UNL     1      -3.924 -20.253  18.812  1.00  0.00     0.157 HD
BRANCH   8  12
HETATM   12  C6  UNL     1      -4.696 -21.516  20.835  1.00  0.00     0.150 C 
BRANCH  12  13
HETATM   13  S1  UNL     1      -5.646 -22.945  21.320  1.00  0.00    -0.153 SA
BRANCH  13  14
HETATM   14  C7  UNL     1      -5.717 -23.228  23.083  1.00  0.00    -0.003 C 
HETATM   15  C8  UNL     1      -5.184 -22.006  23.800  1.00  0.00     0.026 C 
HETATM   16  C9  UNL     1      -4.884 -24.416  23.522  1.00  0.00     0.026 C 
HETATM   17  C10 UNL     1      -7.126 -23.445  23.584  1.00  0.00     0.026 C 
ENDBRANCH  13  14
ENDBRANCH  12  13
ENDBRANCH   8  12
ENDBRANCH   5   8
BRANCH   7  18
HETATM   18  N3  UNL     1      -9.968 -19.277  20.014  1.00  0.00    -0.073 N 
ATOM     19  H33 UNL     1     -10.965 -19.473  19.922  1.00  0.00     0.274 HD
ATOM     20  H32 UNL     1      -9.998 -18.783  20.906  1.00  0.00     0.274 HD
ATOM     21  H31 UNL     1      -9.621 -18.686  19.258  1.00  0.00     0.274 HD
ENDBRANCH   7  18
TORSDOF 5
ENDMDL
MODEL 5
REMARK VINA RESULT: -6.342016204      1.950      2.682
REMARK  5 active torsions:
REMARK  status: ('A' for Active; 'I' for Inactive)
REMARK    1  A    between atoms: N1_5  and  C5_6 
REMARK    2  A    between atoms: C5_6  and  C6_10 
REMARK    3  A    between atoms: C6_10  and  S1_11 
REMARK    4  A    between atoms: S1_11  and  C7_12 
REMARK    5  A    between atoms: C12_17  and  N3_18 
ROOT
HETATM    1  C1  UNL     1      -5.628 -24.647  25.081  1.00  0.00     0.012 C 
HETATM    2  C2  UNL     1      -5.391 -23.582  24.031  1.00  0.00     0.015 C 
HETATM    3  C3  UNL     1      -6.675 -23.300  23.326  1.00  0.00     0.026 C 
HETATM    4  C4  UNL     1      -6.507 -22.969  21.867  1.00  0.00     0.124 C 
HETATM    5  N1  UNL     1      -5.202 -22.435  21.555  1.00  0.00    -0.368 N 
HETATM    6  C11 UNL     1      -4.047 -23.206  21.942  1.00  0.00     0.157 C 
HETATM    7  C12 UNL     1      -4.287 -24.075  23.141  1.00  0.00     0.205 C 
ENDROOT
BRANCH   5   8
HETATM    8  C5  UNL     1      -5.053 -21.192  20.891  1.00  0.00     0.082 C 
HETATM    9  N2  UNL     1      -4.011 -21.032  20.159  1.00  0.00    -0.388 N 
ATOM     10  H22 UNL     1      -3.336 -21.793  20.080  1.00  0.00     0.157 HD
ATOM     11  H21 UNL     1      -3.904 -20.138  19.680  1.00  0.00     0.157 HD
BRANCH   8  12
HETATM   12  C6  UNL     1      -6.032 -20.089  21.005  1.00  0.00     0.150 C 
BRANCH  12  13
HETATM   13  S1  UNL     1      -7.405 -20.182  19.872  1.00  0.00    -0.153 SA
BRANCH  13  14
HETATM   14  C7  UNL     1      -9.006 -19.907  20.618  1.00  0.00    -0.003 C 
HETATM   15  C8  UNL     1      -9.934 -19.306  19.584  1.00  0.00     0.026 C 
HETATM   16  C9  UNL     1      -8.951 -18.953  21.794  1.00  0.00     0.026 C 
HETATM   17  C10 UNL     1      -9.656 -21.186  21.095  1.00  0.00     0.026 C 
ENDBRANCH  13  14
ENDBRANCH  12  13
ENDBRANCH   8  12
ENDBRANCH   5   8
BRANCH   7  18
HETATM   18  N3  UNL     1      -4.534 -25.457  22.776  1.00  0.00    -0.073 N 
ATOM     19  H33 UNL     1      -4.485 -26.081  23.582  1.00  0.00     0.274 HD
ATOM     20  H32 UNL     1      -5.508 -25.619  22.524  1.00  0.00     0.274 HD
ATOM     21  H31 UNL     1      -3.892 -25.736  22.034  1.00  0.00     0.274 HD
ENDBRANCH   7  18
TORSDOF 5
ENDMDL
