MODEL 1
REMARK VINA RESULT: -6.993760528      0.000      0.000
REMARK  4 active torsions:
REMARK  status: ('A' for Active; 'I' for Inactive)
REMARK    1  A    between atoms: C2_2  and  C3_3 
REMARK    2  A    between atoms: N1_10  and  N2_12 
REMARK    3  A    between atoms: N2_12  and  C10_14 
REMARK    4  A    between atoms: C10_14  and  N3_16 
ROOT
HETATM    1  N3  UNL     1      -4.119 -22.746  19.087  1.00  0.00    -0.269 N 
ATOM      2  H3  UNL     1      -4.288 -23.169  18.174  1.00  0.00     0.180 HD
HETATM    3  C11 UNL     1      -3.200 -21.702  19.194  1.00  0.00     0.184 C 
HETATM    4  N4  UNL     1      -2.423 -20.836  19.299  1.00  0.00    -0.172 NA
ENDROOT
BRANCH   1   5
HETATM    5  C10 UNL     1      -4.831 -23.240  20.230  1.00  0.00     0.199 C 
HETATM    6  S1  UNL     1      -3.974 -23.943  21.427  1.00  0.00    -0.038 SA
BRANCH   5   7
HETATM    7  N2  UNL     1      -6.233 -23.108  20.297  1.00  0.00    -0.276 N 
ATOM      8  H2  UNL     1      -6.792 -23.471  19.524  1.00  0.00     0.189 HD
BRANCH   7   9
HETATM    9  N1  UNL     1      -6.888 -22.515  21.354  1.00  0.00    -0.306 N 
HETATM   10  C9  UNL     1      -7.671 -21.499  21.301  1.00  0.00     0.011 C 
HETATM   11  C3  UNL     1      -7.944 -20.845  19.999  1.00  0.00     0.054 C 
HETATM   12  C8  UNL     1      -8.229 -21.103  22.621  1.00  0.00     0.054 C 
HETATM   13  C4  UNL     1      -9.051 -19.823  20.115  1.00  0.00     0.014 C 
HETATM   14  C5  UNL     1     -10.353 -20.465  20.555  1.00  0.00     0.001 C 
HETATM   15  C6  UNL     1     -10.528 -20.349  22.056  1.00  0.00     0.000 C 
HETATM   16  C7  UNL     1      -9.715 -21.435  22.698  1.00  0.00     0.006 C 
ATOM     17  H1  UNL     1      -6.735 -22.927  22.275  1.00  0.00     0.186 HD
BRANCH  11  18
HETATM   18  C2  UNL     1      -6.702 -20.162  19.547  1.00  0.00    -0.026 C 
HETATM   19  C1  UNL     1      -5.998 -19.362  20.322  1.00  0.00     0.007 C 
ENDBRANCH  11  18
ENDBRANCH   7   9
ENDBRANCH   5   7
ENDBRANCH   1   5
TORSDOF 4
ENDMDL
MODEL 2
REMARK VINA RESULT: -6.842917089      2.437      3.328
REMARK  4 active torsions:
REMARK  status: ('A' for Active; 'I' for Inactive)
REMARK    1  A    between atoms: C2_2  and  C3_3 
REMARK    2  A    between atoms: N1_10  and  N2_12 
REMARK    3  A    between atoms: N2_12  and  C10_14 
REMARK    4  A    between atoms: C10_14  and  N3_16 
ROOT
HETATM    1  N3  UNL     1      -4.126 -20.875  18.081  1.00  0.00    -0.269 N 
ATOM      2  H3  UNL     1      -4.364 -20.848  17.090  1.00  0.00     0.180 HD
HETATM    3  C11 UNL     1      -2.797 -20.700  18.468  1.00  0.00     0.184 C 
HETATM    4  N4  UNL     1      -1.685 -20.569  18.803  1.00  0.00    -0.172 NA
ENDROOT
BRANCH   1   5
HETATM    5  C10 UNL     1      -5.165 -21.092  19.045  1.00  0.00     0.199 C 
HETATM    6  S1  UNL     1      -6.247 -22.279  18.757  1.00  0.00    -0.038 SA
BRANCH   5   7
HETATM    7  N2  UNL     1      -5.230 -20.292  20.204  1.00  0.00    -0.276 N 
ATOM      8  H2  UNL     1      -5.521 -19.319  20.106  1.00  0.00     0.189 HD
BRANCH   7   9
HETATM    9  N1  UNL     1      -4.920 -20.757  21.464  1.00  0.00    -0.306 N 
HETATM   10  C9  UNL     1      -5.748 -21.141  22.366  1.00  0.00     0.011 C 
HETATM   11  C3  UNL     1      -7.205 -21.108  22.094  1.00  0.00     0.054 C 
HETATM   12  C8  UNL     1      -5.096 -21.597  23.623  1.00  0.00     0.054 C 
HETATM   13  C4  UNL     1      -7.987 -21.803  23.183  1.00  0.00     0.014 C 
HETATM   14  C5  UNL     1      -7.603 -23.267  23.293  1.00  0.00     0.001 C 
HETATM   15  C6  UNL     1      -6.552 -23.467  24.365  1.00  0.00     0.000 C 
HETATM   16  C7  UNL     1      -5.220 -23.108  23.775  1.00  0.00     0.006 C 
ATOM     17  H1  UNL     1      -3.929 -20.801  21.704  1.00  0.00     0.186 HD
BRANCH  11  18
HETATM   18  C2  UNL     1      -7.636 -19.686  22.022  1.00  0.00    -0.026 C 
HETATM   19  C1  UNL     1      -8.816 -19.270  22.436  1.00  0.00     0.007 C 
ENDBRANCH  11  18
ENDBRANCH   7   9
ENDBRANCH   5   7
ENDBRANCH   1   5
TORSDOF 4
ENDMDL
MODEL 3
REMARK VINA RESULT: -6.814450356      2.421      4.079
REMARK  4 active torsions:
REMARK  status: ('A' for Active; 'I' for Inactive)
REMARK    1  A    between atoms: C2_2  and  C3_3 
REMARK    2  A    between atoms: N1_10  and  N2_12 
REMARK    3  A    between atoms: N2_12  and  C10_14 
REMARK    4  A    between atoms: C10_14  and  N3_16 
ROOT
HETATM    1  N3  UNL     1      -4.677 -24.021  24.281  1.00  0.00    -0.269 N 
ATOM      2  H3  UNL     1      -4.578 -23.687  25.240  1.00  0.00     0.180 HD
HETATM    3  C11 UNL     1      -5.010 -25.357  24.057  1.00  0.00     0.184 C 
HETATM    4  N4  UNL     1      -5.275 -26.478  23.857  1.00  0.00    -0.172 NA
ENDROOT
BRANCH   1   5
HETATM    5  C10 UNL     1      -4.472 -23.107  23.196  1.00  0.00     0.199 C 
HETATM    6  S1  UNL     1      -3.204 -23.366  22.200  1.00  0.00    -0.038 SA
BRANCH   5   7
HETATM    7  N2  UNL     1      -5.353 -22.023  23.011  1.00  0.00    -0.276 N 
ATOM      8  H2  UNL     1      -5.376 -21.290  23.720  1.00  0.00     0.189 HD
BRANCH   7   9
HETATM    9  N1  UNL     1      -6.187 -21.903  21.920  1.00  0.00    -0.306 N 
HETATM   10  C9  UNL     1      -7.457 -21.712  21.941  1.00  0.00     0.011 C 
HETATM   11  C3  UNL     1      -8.166 -21.601  23.237  1.00  0.00     0.054 C 
HETATM   12  C8  UNL     1      -8.071 -21.619  20.589  1.00  0.00     0.054 C 
HETATM   13  C4  UNL     1      -9.598 -21.158  23.049  1.00  0.00     0.014 C 
HETATM   14  C5  UNL     1      -9.673 -19.790  22.397  1.00  0.00     0.001 C 
HETATM   15  C6  UNL     1      -9.854 -19.918  20.899  1.00  0.00     0.000 C 
HETATM   16  C7  UNL     1      -8.507 -20.189  20.294  1.00  0.00     0.006 C 
ATOM     17  H1  UNL     1      -5.750 -21.972  21.001  1.00  0.00     0.186 HD
BRANCH  11  18
HETATM   18  C2  UNL     1      -8.155 -22.934  23.895  1.00  0.00    -0.026 C 
HETATM   19  C1  UNL     1      -9.118 -23.351  24.692  1.00  0.00     0.007 C 
ENDBRANCH  11  18
ENDBRANCH   7   9
ENDBRANCH   5   7
ENDBRANCH   1   5
TORSDOF 4
ENDMDL
MODEL 4
REMARK VINA RESULT: -6.771185251      1.650      2.779
REMARK  4 active torsions:
REMARK  status: ('A' for Active; 'I' for Inactive)
REMARK    1  A    between atoms: C2_2  and  C3_3 
REMARK    2  A    between atoms: N1_10  and  N2_12 
REMARK    3  A    between atoms: N2_12  and  C10_14 
REMARK    4  A    between atoms: C10_14  and  N3_16 
ROOT
HETATM    1  N3  UNL     1      -2.083 -21.257  20.572  1.00  0.00    -0.269 N 
ATOM      2  H3  UNL     1      -1.199 -21.066  21.045  1.00  0.00     0.180 HD
HETATM    3  C11 UNL     1      -2.178 -21.046  19.197  1.00  0.00     0.184 C 
HETATM    4  N4  UNL     1      -2.274 -20.860  18.047  1.00  0.00    -0.172 NA
ENDROOT
BRANCH   1   5
HETATM    5  C10 UNL     1      -3.197 -21.735  21.337  1.00  0.00     0.199 C 
HETATM    6  S1  UNL     1      -3.100 -23.226  21.992  1.00  0.00    -0.038 SA
BRANCH   5   7
HETATM    7  N2  UNL     1      -4.336 -20.921  21.508  1.00  0.00    -0.276 N 
ATOM      8  H2  UNL     1      -4.323 -20.217  22.246  1.00  0.00     0.189 HD
BRANCH   7   9
HETATM    9  N1  UNL     1      -5.466 -21.027  20.727  1.00  0.00    -0.306 N 
HETATM   10  C9  UNL     1      -6.685 -20.972  21.127  1.00  0.00     0.011 C 
HETATM   11  C3  UNL     1      -6.981 -20.775  22.566  1.00  0.00     0.054 C 
HETATM   12  C8  UNL     1      -7.682 -21.114  20.033  1.00  0.00     0.054 C 
HETATM   13  C4  UNL     1      -8.451 -20.514  22.797  1.00  0.00     0.014 C 
HETATM   14  C5  UNL     1      -8.909 -19.254  22.087  1.00  0.00     0.001 C 
HETATM   15  C6  UNL     1      -9.510 -19.587  20.737  1.00  0.00     0.000 C 
HETATM   16  C7  UNL     1      -8.382 -19.786  19.767  1.00  0.00     0.006 C 
ATOM     17  H1  UNL     1      -5.319 -21.164  19.726  1.00  0.00     0.186 HD
BRANCH  11  18
HETATM   18  C2  UNL     1      -6.588 -22.007  23.299  1.00  0.00    -0.026 C 
HETATM   19  C1  UNL     1      -7.450 -22.938  23.658  1.00  0.00     0.007 C 
ENDBRANCH  11  18
ENDBRANCH   7   9
ENDBRANCH   5   7
ENDBRANCH   1   5
TORSDOF 4
ENDMDL
MODEL 5
REMARK VINA RESULT: -6.764669742      1.627      2.313
REMARK  4 active torsions:
REMARK  status: ('A' for Active; 'I' for Inactive)
REMARK    1  A    between atoms: C2_2  and  C3_3 
REMARK    2  A    between atoms: N1_10  and  N2_12 
REMARK    3  A    between atoms: N2_12  and  C10_14 
REMARK    4  A    between atoms: C10_14  and  N3_16 
ROOT
HETATM    1  N3  UNL     1      -4.283 -24.483  21.253  1.00  0.00    -0.269 N 
ATOM      2  H3  UNL     1      -3.900 -25.073  20.514  1.00  0.00     0.180 HD
HETATM    3  C11 UNL     1      -4.465 -25.020  22.527  1.00  0.00     0.184 C 
HETATM    4  N4  UNL     1      -4.635 -25.462  23.596  1.00  0.00    -0.172 NA
ENDROOT
BRANCH   1   5
HETATM    5  C10 UNL     1      -4.622 -23.122  20.956  1.00  0.00     0.199 C 
HETATM    6  S1  UNL     1      -3.418 -22.022  20.898  1.00  0.00    -0.038 SA
BRANCH   5   7
HETATM    7  N2  UNL     1      -5.967 -22.765  20.723  1.00  0.00    -0.276 N 
ATOM      8  H2  UNL     1      -6.301 -22.740  19.760  1.00  0.00     0.189 HD
BRANCH   7   9
HETATM    9  N1  UNL     1      -6.852 -22.449  21.731  1.00  0.00    -0.306 N 
HETATM   10  C9  UNL     1      -7.657 -21.449  21.761  1.00  0.00     0.011 C 
HETATM   11  C3  UNL     1      -7.691 -20.495  20.627  1.00  0.00     0.054 C 
HETATM   12  C8  UNL     1      -8.491 -21.388  22.990  1.00  0.00     0.054 C 
HETATM   13  C4  UNL     1      -8.849 -19.532  20.750  1.00  0.00     0.014 C 
HETATM   14  C5  UNL     1     -10.179 -20.260  20.741  1.00  0.00     0.001 C 
HETATM   15  C6  UNL     1     -10.661 -20.516  22.154  1.00  0.00     0.000 C 
HETATM   16  C7  UNL     1      -9.943 -21.727  22.672  1.00  0.00     0.006 C 
ATOM     17  H1  UNL     1      -6.869 -23.074  22.537  1.00  0.00     0.186 HD
BRANCH  11  18
HETATM   18  C2  UNL     1      -6.420 -19.724  20.623  1.00  0.00    -0.026 C 
HETATM   19  C1  UNL     1      -5.781 -19.394  19.518  1.00  0.00     0.007 C 
ENDBRANCH  11  18
ENDBRANCH   7   9
ENDBRANCH   5   7
ENDBRANCH   1   5
TORSDOF 4
ENDMDL
