MODEL 1
REMARK VINA RESULT: -7.005865295      0.000      0.000
REMARK  3 active torsions:
REMARK  status: ('A' for Active; 'I' for Inactive)
REMARK    1  A    between atoms: C2_2  and  N1_3 
REMARK    2  A    between atoms: N1_3  and  C3_5 
REMARK    3  A    between atoms: C8_10  and  O1_11 
ROOT
HETATM    1  C3  UNL     1      -7.437 -21.385  22.243  1.00  0.00     0.099 C 
HETATM    2  C4  UNL     1      -6.388 -22.182  21.502  1.00  0.00    -0.019 C 
HETATM    3  C5  UNL     1      -6.117 -23.428  22.342  1.00  0.00     0.018 C 
HETATM    4  C6  UNL     1      -7.017 -22.665  20.213  1.00  0.00     0.014 C 
HETATM    5  C7  UNL     1      -7.208 -21.487  19.286  1.00  0.00     0.039 C 
HETATM    6  C8  UNL     1      -7.497 -20.213  20.024  1.00  0.00     0.067 C 
HETATM    7  C9  UNL     1      -6.259 -19.404  20.210  1.00  0.00     0.039 C 
HETATM    8  C10 UNL     1      -5.296 -19.930  21.229  1.00  0.00     0.008 C 
HETATM    9  C11 UNL     1      -5.159 -21.419  21.187  1.00  0.00    -0.008 C 
HETATM   10  C12 UNL     1      -3.987 -21.788  22.105  1.00  0.00     0.011 C 
HETATM   11  C13 UNL     1      -8.245 -20.512  21.310  1.00  0.00     0.004 C 
HETATM   12  C14 UNL     1      -8.546 -19.217  22.022  1.00  0.00     0.020 C 
HETATM   13  C15 UNL     1      -9.560 -21.128  20.897  1.00  0.00     0.020 C 
ENDROOT
BRANCH   1  14
HETATM   14  N1  UNL     1      -8.292 -22.262  22.920  1.00  0.00    -0.396 N 
ATOM     15  H1  UNL     1      -8.805 -22.978  22.407  1.00  0.00     0.159 HD
BRANCH  14  16
HETATM   16  C2  UNL     1      -8.436 -22.148  24.307  1.00  0.00     0.051 C 
HETATM   17  C1  UNL     1      -9.213 -23.299  24.928  1.00  0.00     0.054 C 
ENDBRANCH  14  16
ENDBRANCH   1  14
BRANCH   6  18
HETATM   18  O1  UNL     1      -8.380 -19.445  19.239  1.00  0.00    -0.389 OA
ATOM     19  H1  UNL     1      -8.898 -18.904  19.823  1.00  0.00     0.210 HD
ENDBRANCH   6  18
TORSDOF 3
ENDMDL
MODEL 2
REMARK VINA RESULT: -6.908332318      1.444      3.480
REMARK  3 active torsions:
REMARK  status: ('A' for Active; 'I' for Inactive)
REMARK    1  A    between atoms: C2_2  and  N1_3 
REMARK    2  A    between atoms: N1_3  and  C3_5 
REMARK    3  A    between atoms: C8_10  and  O1_11 
ROOT
HETATM    1  C3  UNL     1      -7.827 -21.522  22.147  1.00  0.00     0.099 C 
HETATM    2  C4  UNL     1      -8.434 -20.193  21.762  1.00  0.00    -0.019 C 
HETATM    3  C5  UNL     1      -9.605 -19.959  22.714  1.00  0.00     0.018 C 
HETATM    4  C6  UNL     1      -7.410 -19.123  22.074  1.00  0.00     0.014 C 
HETATM    5  C7  UNL     1      -6.270 -19.229  21.087  1.00  0.00     0.039 C 
HETATM    6  C8  UNL     1      -6.014 -20.641  20.652  1.00  0.00     0.067 C 
HETATM    7  C9  UNL     1      -6.686 -20.936  19.355  1.00  0.00     0.039 C 
HETATM    8  C10 UNL     1      -8.175 -21.088  19.423  1.00  0.00     0.008 C 
HETATM    9  C11 UNL     1      -8.820 -20.094  20.336  1.00  0.00    -0.008 C 
HETATM   10  C12 UNL     1     -10.335 -20.212  20.128  1.00  0.00     0.011 C 
HETATM   11  C13 UNL     1      -6.366 -21.606  21.770  1.00  0.00     0.004 C 
HETATM   12  C14 UNL     1      -6.078 -23.015  21.318  1.00  0.00     0.020 C 
HETATM   13  C15 UNL     1      -5.430 -21.285  22.909  1.00  0.00     0.020 C 
ENDROOT
BRANCH   1  14
HETATM   14  N1  UNL     1      -7.965 -21.711  23.527  1.00  0.00    -0.396 N 
ATOM     15  H1  UNL     1      -7.890 -20.918  24.164  1.00  0.00     0.159 HD
BRANCH  14  16
HETATM   16  C2  UNL     1      -8.205 -22.996  24.025  1.00  0.00     0.051 C 
HETATM   17  C1  UNL     1      -9.576 -23.146  24.667  1.00  0.00     0.054 C 
ENDBRANCH  14  16
ENDBRANCH   1  14
BRANCH   6  18
HETATM   18  O1  UNL     1      -4.628 -20.789  20.443  1.00  0.00    -0.389 OA
ATOM     19  H1  UNL     1      -4.499 -21.167  19.581  1.00  0.00     0.210 HD
ENDBRANCH   6  18
TORSDOF 3
ENDMDL
MODEL 3
REMARK VINA RESULT: -6.764537659      1.254      3.823
REMARK  3 active torsions:
REMARK  status: ('A' for Active; 'I' for Inactive)
REMARK    1  A    between atoms: C2_2  and  N1_3 
REMARK    2  A    between atoms: N1_3  and  C3_5 
REMARK    3  A    between atoms: C8_10  and  O1_11 
ROOT
HETATM    1  C3  UNL     1      -7.545 -21.537  21.620  1.00  0.00     0.099 C 
HETATM    2  C4  UNL     1      -8.408 -20.973  22.725  1.00  0.00    -0.019 C 
HETATM    3  C5  UNL     1      -7.835 -21.506  24.036  1.00  0.00     0.018 C 
HETATM    4  C6  UNL     1      -8.193 -19.475  22.743  1.00  0.00     0.014 C 
HETATM    5  C7  UNL     1      -8.841 -18.869  21.519  1.00  0.00     0.039 C 
HETATM    6  C8  UNL     1      -8.800 -19.785  20.332  1.00  0.00     0.067 C 
HETATM    7  C9  UNL     1     -10.076 -20.541  20.189  1.00  0.00     0.039 C 
HETATM    8  C10 UNL     1     -10.291 -21.634  21.190  1.00  0.00     0.008 C 
HETATM    9  C11 UNL     1      -9.853 -21.254  22.570  1.00  0.00    -0.008 C 
HETATM   10  C12 UNL     1     -10.341 -22.359  23.515  1.00  0.00     0.011 C 
HETATM   11  C13 UNL     1      -7.560 -20.660  20.389  1.00  0.00     0.004 C 
HETATM   12  C14 UNL     1      -7.528 -21.554  19.175  1.00  0.00     0.020 C 
HETATM   13  C15 UNL     1      -6.381 -19.722  20.304  1.00  0.00     0.020 C 
ENDROOT
BRANCH   1  14
HETATM   14  N1  UNL     1      -6.231 -21.673  22.081  1.00  0.00    -0.396 N 
ATOM     15  H1  UNL     1      -5.747 -20.876  22.496  1.00  0.00     0.159 HD
BRANCH  14  16
HETATM   16  C2  UNL     1      -5.586 -22.909  21.969  1.00  0.00     0.051 C 
HETATM   17  C1  UNL     1      -4.493 -22.924  20.911  1.00  0.00     0.054 C 
ENDBRANCH  14  16
ENDBRANCH   1  14
BRANCH   6  18
HETATM   18  O1  UNL     1      -8.655 -18.993  19.175  1.00  0.00    -0.389 OA
ATOM     19  H1  UNL     1      -8.760 -19.557  18.418  1.00  0.00     0.210 HD
ENDBRANCH   6  18
TORSDOF 3
ENDMDL
MODEL 4
REMARK VINA RESULT: -6.424780275      1.751      3.623
REMARK  3 active torsions:
REMARK  status: ('A' for Active; 'I' for Inactive)
REMARK    1  A    between atoms: C2_2  and  N1_3 
REMARK    2  A    between atoms: N1_3  and  C3_5 
REMARK    3  A    between atoms: C8_10  and  O1_11 
ROOT
HETATM    1  C3  UNL     1      -5.734 -22.785  21.526  1.00  0.00     0.099 C 
HETATM    2  C4  UNL     1      -5.936 -21.667  22.523  1.00  0.00    -0.019 C 
HETATM    3  C5  UNL     1      -5.141 -22.050  23.770  1.00  0.00     0.018 C 
HETATM    4  C6  UNL     1      -5.270 -20.432  21.956  1.00  0.00     0.014 C 
HETATM    5  C7  UNL     1      -6.078 -19.933  20.779  1.00  0.00     0.039 C 
HETATM    6  C8  UNL     1      -6.740 -21.045  20.021  1.00  0.00     0.067 C 
HETATM    7  C9  UNL     1      -8.155 -21.226  20.454  1.00  0.00     0.039 C 
HETATM    8  C10 UNL     1      -8.340 -21.855  21.800  1.00  0.00     0.008 C 
HETATM    9  C11 UNL     1      -7.355 -21.363  22.813  1.00  0.00    -0.008 C 
HETATM   10  C12 UNL     1      -7.805 -21.906  24.175  1.00  0.00     0.011 C 
HETATM   11  C13 UNL     1      -5.899 -22.307  20.102  1.00  0.00     0.004 C 
HETATM   12  C14 UNL     1      -6.572 -23.403  19.314  1.00  0.00     0.020 C 
HETATM   13  C15 UNL     1      -4.593 -21.983  19.420  1.00  0.00     0.020 C 
ENDROOT
BRANCH   1  14
HETATM   14  N1  UNL     1      -4.454 -23.327  21.692  1.00  0.00    -0.396 N 
ATOM     15  H1  UNL     1      -3.645 -22.715  21.785  1.00  0.00     0.159 HD
BRANCH  14  16
HETATM   16  C2  UNL     1      -4.296 -24.717  21.727  1.00  0.00     0.051 C 
HETATM   17  C1  UNL     1      -4.741 -25.340  23.042  1.00  0.00     0.054 C 
ENDBRANCH  14  16
ENDBRANCH   1  14
BRANCH   6  18
HETATM   18  O1  UNL     1      -6.766 -20.690  18.658  1.00  0.00    -0.389 OA
ATOM     19  H1  UNL     1      -7.005 -19.773  18.597  1.00  0.00     0.210 HD
ENDBRANCH   6  18
TORSDOF 3
ENDMDL
MODEL 5
REMARK VINA RESULT: -6.367219259      2.185      3.842
REMARK  3 active torsions:
REMARK  status: ('A' for Active; 'I' for Inactive)
REMARK    1  A    between atoms: C2_2  and  N1_3 
REMARK    2  A    between atoms: N1_3  and  C3_5 
REMARK    3  A    between atoms: C8_10  and  O1_11 
ROOT
HETATM    1  C3  UNL     1      -7.480 -21.930  21.723  1.00  0.00     0.099 C 
HETATM    2  C4  UNL     1      -6.547 -21.335  20.693  1.00  0.00    -0.019 C 
HETATM    3  C5  UNL     1      -7.396 -20.416  19.818  1.00  0.00     0.018 C 
HETATM    4  C6  UNL     1      -5.574 -20.441  21.432  1.00  0.00     0.014 C 
HETATM    5  C7  UNL     1      -4.625 -21.301  22.234  1.00  0.00     0.039 C 
HETATM    6  C8  UNL     1      -5.270 -22.560  22.733  1.00  0.00     0.067 C 
HETATM    7  C9  UNL     1      -4.978 -23.711  21.832  1.00  0.00     0.039 C 
HETATM    8  C10 UNL     1      -5.705 -23.701  20.522  1.00  0.00     0.008 C 
HETATM    9  C11 UNL     1      -5.788 -22.337  19.912  1.00  0.00    -0.008 C 
HETATM   10  C12 UNL     1      -6.338 -22.515  18.492  1.00  0.00     0.011 C 
HETATM   11  C13 UNL     1      -6.749 -22.326  22.985  1.00  0.00     0.004 C 
HETATM   12  C14 UNL     1      -7.371 -23.597  23.508  1.00  0.00     0.020 C 
HETATM   13  C15 UNL     1      -6.829 -21.289  24.078  1.00  0.00     0.020 C 
ENDROOT
BRANCH   1  14
HETATM   14  N1  UNL     1      -8.480 -21.001  22.033  1.00  0.00    -0.396 N 
ATOM     15  H1  UNL     1      -8.234 -20.035  22.249  1.00  0.00     0.159 HD
BRANCH  14  16
HETATM   16  C2  UNL     1      -9.818 -21.408  22.046  1.00  0.00     0.051 C 
HETATM   17  C1  UNL     1     -10.707 -20.580  21.131  1.00  0.00     0.054 C 
ENDBRANCH  14  16
ENDBRANCH   1  14
BRANCH   6  18
HETATM   18  O1  UNL     1      -4.714 -22.867  23.991  1.00  0.00    -0.389 OA
ATOM     19  H1  UNL     1      -4.941 -23.765  24.202  1.00  0.00     0.210 HD
ENDBRANCH   6  18
TORSDOF 3
ENDMDL
