MODEL 1
REMARK VINA RESULT: -7.244087180      0.000      0.000
REMARK  4 active torsions:
REMARK  status: ('A' for Active; 'I' for Inactive)
REMARK    1  A    between atoms: C2_2  and  C5_5 
REMARK       I    between atoms: C5_5  and  N1_7 
REMARK    2  A    between atoms: N1_7  and  C6_9 
REMARK    3  A    between atoms: C6_9  and  C7_10 
REMARK    4  A    between atoms: C7_10  and  O2_11 
ROOT
HETATM    1  C7  UNL     1      -5.565 -23.102  21.201  1.00  0.00     0.081 C 
HETATM    2  C8  UNL     1      -6.390 -23.160  22.457  1.00  0.00     0.040 C 
HETATM    3  C9  UNL     1      -5.648 -22.885  23.709  1.00  0.00     0.003 C 
HETATM    4  C10 UNL     1      -4.688 -21.738  23.647  1.00  0.00     0.001 C 
HETATM    5  C11 UNL     1      -4.871 -21.034  22.302  1.00  0.00     0.012 C 
HETATM    6  C12 UNL     1      -4.482 -22.057  21.259  1.00  0.00    -0.015 C 
HETATM    7  C13 UNL     1      -4.271 -21.342  19.959  1.00  0.00     0.018 C 
HETATM    8  C14 UNL     1      -3.149 -22.698  21.640  1.00  0.00     0.018 C 
ENDROOT
BRANCH   1   9
HETATM    9  C6  UNL     1      -6.488 -22.716  20.085  1.00  0.00     0.161 C 
BRANCH   9  10
HETATM   10  N1  UNL     1      -7.668 -22.006  20.415  1.00  0.00    -0.358 N 
HETATM   11  C5  UNL     1      -8.029 -20.681  20.176  1.00  0.00     0.225 C 
HETATM   12  O1  UNL     1      -7.279 -19.870  19.586  1.00  0.00    -0.273 OA
ATOM     13  H1  UNL     1      -8.370 -22.555  20.911  1.00  0.00     0.162 HD
BRANCH  11  14
HETATM   14  C2  UNL     1      -9.343 -20.105  20.598  1.00  0.00     0.030 C 
HETATM   15  C1  UNL     1     -10.279 -21.119  21.159  1.00  0.00     0.024 C 
HETATM   16  C3  UNL     1     -10.033 -19.361  19.487  1.00  0.00     0.024 C 
HETATM   17  C4  UNL     1      -9.022 -19.109  21.708  1.00  0.00     0.024 C 
ENDBRANCH  11  14
ENDBRANCH   9  10
ENDBRANCH   1   9
BRANCH   1  18
HETATM   18  O2  UNL     1      -4.948 -24.308  20.950  1.00  0.00    -0.387 OA
ATOM     19  H2  UNL     1      -4.671 -24.731  21.754  1.00  0.00     0.210 HD
ENDBRANCH   1  18
TORSDOF 4
ENDMDL
MODEL 2
REMARK VINA RESULT: -7.141709245      2.683      5.581
REMARK  4 active torsions:
REMARK  status: ('A' for Active; 'I' for Inactive)
REMARK    1  A    between atoms: C2_2  and  C5_5 
REMARK       I    between atoms: C5_5  and  N1_7 
REMARK    2  A    between atoms: N1_7  and  C6_9 
REMARK    3  A    between atoms: C6_9  and  C7_10 
REMARK    4  A    between atoms: C7_10  and  O2_11 
ROOT
HETATM    1  C7  UNL     1      -8.565 -21.265  21.787  1.00  0.00     0.081 C 
HETATM    2  C8  UNL     1      -7.495 -22.038  21.067  1.00  0.00     0.040 C 
HETATM    3  C9  UNL     1      -7.112 -21.496  19.743  1.00  0.00     0.003 C 
HETATM    4  C10 UNL     1      -6.953 -20.009  19.680  1.00  0.00     0.001 C 
HETATM    5  C11 UNL     1      -7.073 -19.456  21.101  1.00  0.00     0.012 C 
HETATM    6  C12 UNL     1      -8.482 -19.781  21.540  1.00  0.00    -0.015 C 
HETATM    7  C13 UNL     1      -8.797 -18.956  22.750  1.00  0.00     0.018 C 
HETATM    8  C14 UNL     1      -9.468 -19.372  20.448  1.00  0.00     0.018 C 
ENDROOT
BRANCH   1   9
HETATM    9  C6  UNL     1      -8.348 -21.478  23.255  1.00  0.00     0.161 C 
BRANCH   9  10
HETATM   10  N1  UNL     1      -7.509 -22.546  23.655  1.00  0.00    -0.358 N 
HETATM   11  C5  UNL     1      -7.782 -23.682  24.415  1.00  0.00     0.225 C 
HETATM   12  O1  UNL     1      -8.915 -23.921  24.893  1.00  0.00    -0.273 OA
ATOM     13  H1  UNL     1      -6.544 -22.471  23.333  1.00  0.00     0.162 HD
BRANCH  11  14
HETATM   14  C2  UNL     1      -6.751 -24.719  24.729  1.00  0.00     0.030 C 
HETATM   15  C1  UNL     1      -6.976 -26.009  24.020  1.00  0.00     0.024 C 
HETATM   16  C3  UNL     1      -6.628 -24.984  26.205  1.00  0.00     0.024 C 
HETATM   17  C4  UNL     1      -5.425 -24.147  24.239  1.00  0.00     0.024 C 
ENDBRANCH  11  14
ENDBRANCH   9  10
ENDBRANCH   1   9
BRANCH   1  18
HETATM   18  O2  UNL     1      -9.824 -21.668  21.399  1.00  0.00    -0.387 OA
ATOM     19  H2  UNL     1     -10.208 -21.059  20.780  1.00  0.00     0.210 HD
ENDBRANCH   1  18
TORSDOF 4
ENDMDL
MODEL 3
REMARK VINA RESULT: -6.944739854      1.768      2.970
REMARK  4 active torsions:
REMARK  status: ('A' for Active; 'I' for Inactive)
REMARK    1  A    between atoms: C2_2  and  C5_5 
REMARK       I    between atoms: C5_5  and  N1_7 
REMARK    2  A    between atoms: N1_7  and  C6_9 
REMARK    3  A    between atoms: C6_9  and  C7_10 
REMARK    4  A    between atoms: C7_10  and  O2_11 
ROOT
HETATM    1  C7  UNL     1      -4.889 -21.242  19.916  1.00  0.00     0.081 C 
HETATM    2  C8  UNL     1      -4.268 -20.678  18.668  1.00  0.00     0.040 C 
HETATM    3  C9  UNL     1      -2.788 -20.717  18.631  1.00  0.00     0.003 C 
HETATM    4  C10 UNL     1      -2.167 -21.990  19.114  1.00  0.00     0.001 C 
HETATM    5  C11 UNL     1      -3.286 -23.001  19.365  1.00  0.00     0.012 C 
HETATM    6  C12 UNL     1      -4.120 -22.408  20.479  1.00  0.00    -0.015 C 
HETATM    7  C13 UNL     1      -4.995 -23.489  21.034  1.00  0.00     0.018 C 
HETATM    8  C14 UNL     1      -3.208 -21.942  21.611  1.00  0.00     0.018 C 
ENDROOT
BRANCH   1   9
HETATM    9  C6  UNL     1      -6.247 -21.753  19.539  1.00  0.00     0.161 C 
BRANCH   9  10
HETATM   10  N1  UNL     1      -7.372 -20.959  19.873  1.00  0.00    -0.358 N 
HETATM   11  C5  UNL     1      -8.225 -21.008  20.974  1.00  0.00     0.225 C 
HETATM   12  O1  UNL     1      -8.096 -21.847  21.895  1.00  0.00    -0.273 OA
ATOM     13  H1  UNL     1      -7.594 -20.231  19.194  1.00  0.00     0.162 HD
BRANCH  11  14
HETATM   14  C2  UNL     1      -9.371 -20.065  21.159  1.00  0.00     0.030 C 
HETATM   15  C1  UNL     1     -10.589 -20.717  21.715  1.00  0.00     0.024 C 
HETATM   16  C3  UNL     1      -9.737 -19.342  19.891  1.00  0.00     0.024 C 
HETATM   17  C4  UNL     1      -8.896 -19.030  22.174  1.00  0.00     0.024 C 
ENDBRANCH  11  14
ENDBRANCH   9  10
ENDBRANCH   1   9
BRANCH   1  18
HETATM   18  O2  UNL     1      -4.966 -20.293  20.912  1.00  0.00    -0.387 OA
ATOM     19  H2  UNL     1      -4.343 -19.589  20.771  1.00  0.00     0.210 HD
ENDBRANCH   1  18
TORSDOF 4
ENDMDL
MODEL 4
REMARK VINA RESULT: -6.892148763      1.777      3.133
REMARK  4 active torsions:
REMARK  status: ('A' for Active; 'I' for Inactive)
REMARK    1  A    between atoms: C2_2  and  C5_5 
REMARK       I    between atoms: C5_5  and  N1_7 
REMARK    2  A    between atoms: N1_7  and  C6_9 
REMARK    3  A    between atoms: C6_9  and  C7_10 
REMARK    4  A    between atoms: C7_10  and  O2_11 
ROOT
HETATM    1  C7  UNL     1      -4.934 -21.263  20.035  1.00  0.00     0.081 C 
HETATM    2  C8  UNL     1      -4.385 -20.717  18.746  1.00  0.00     0.040 C 
HETATM    3  C9  UNL     1      -2.909 -20.748  18.629  1.00  0.00     0.003 C 
HETATM    4  C10 UNL     1      -2.254 -22.009  19.099  1.00  0.00     0.001 C 
HETATM    5  C11 UNL     1      -3.351 -23.022  19.428  1.00  0.00     0.012 C 
HETATM    6  C12 UNL     1      -4.127 -22.415  20.575  1.00  0.00    -0.015 C 
HETATM    7  C13 UNL     1      -4.964 -23.491  21.195  1.00  0.00     0.018 C 
HETATM    8  C14 UNL     1      -3.158 -21.924  21.648  1.00  0.00     0.018 C 
ENDROOT
BRANCH   1   9
HETATM    9  C6  UNL     1      -6.307 -21.789  19.741  1.00  0.00     0.161 C 
BRANCH   9  10
HETATM   10  N1  UNL     1      -7.417 -20.991  20.110  1.00  0.00    -0.358 N 
HETATM   11  C5  UNL     1      -8.218 -21.019  21.251  1.00  0.00     0.225 C 
HETATM   12  O1  UNL     1      -8.043 -21.838  22.182  1.00  0.00    -0.273 OA
ATOM     13  H1  UNL     1      -7.673 -20.277  19.428  1.00  0.00     0.162 HD
BRANCH  11  14
HETATM   14  C2  UNL     1      -9.357 -20.074  21.470  1.00  0.00     0.030 C 
HETATM   15  C1  UNL     1      -9.859 -19.452  20.213  1.00  0.00     0.024 C 
HETATM   16  C3  UNL     1      -9.027 -18.988  22.458  1.00  0.00     0.024 C 
HETATM   17  C4  UNL     1     -10.487 -20.917  22.053  1.00  0.00     0.024 C 
ENDBRANCH  11  14
ENDBRANCH   9  10
ENDBRANCH   1   9
BRANCH   1  18
HETATM   18  O2  UNL     1      -4.963 -20.297  21.017  1.00  0.00    -0.387 OA
ATOM     19  H2  UNL     1      -5.832 -19.926  21.113  1.00  0.00     0.210 HD
ENDBRANCH   1  18
TORSDOF 4
ENDMDL
MODEL 5
REMARK VINA RESULT: -6.870275387      1.608      2.180
REMARK  4 active torsions:
REMARK  status: ('A' for Active; 'I' for Inactive)
REMARK    1  A    between atoms: C2_2  and  C5_5 
REMARK       I    between atoms: C5_5  and  N1_7 
REMARK    2  A    between atoms: N1_7  and  C6_9 
REMARK    3  A    between atoms: C6_9  and  C7_10 
REMARK    4  A    between atoms: C7_10  and  O2_11 
ROOT
HETATM    1  C7  UNL     1      -4.665 -22.312  19.771  1.00  0.00     0.081 C 
HETATM    2  C8  UNL     1      -4.983 -22.874  21.129  1.00  0.00     0.040 C 
HETATM    3  C9  UNL     1      -3.931 -23.738  21.713  1.00  0.00     0.003 C 
HETATM    4  C10 UNL     1      -2.529 -23.235  21.561  1.00  0.00     0.001 C 
HETATM    5  C11 UNL     1      -2.590 -21.827  20.966  1.00  0.00     0.012 C 
HETATM    6  C12 UNL     1      -3.202 -21.998  19.594  1.00  0.00    -0.015 C 
HETATM    7  C13 UNL     1      -2.951 -20.746  18.811  1.00  0.00     0.018 C 
HETATM    8  C14 UNL     1      -2.503 -23.137  18.857  1.00  0.00     0.018 C 
ENDROOT
BRANCH   1   9
HETATM    9  C6  UNL     1      -5.410 -21.018  19.644  1.00  0.00     0.161 C 
BRANCH   9  10
HETATM   10  N1  UNL     1      -6.555 -20.828  20.456  1.00  0.00    -0.358 N 
HETATM   11  C5  UNL     1      -7.742 -20.142  20.208  1.00  0.00     0.225 C 
HETATM   12  O1  UNL     1      -7.967 -19.542  19.132  1.00  0.00    -0.273 OA
ATOM     13  H1  UNL     1      -6.501 -21.267  21.376  1.00  0.00     0.162 HD
BRANCH  11  14
HETATM   14  C2  UNL     1      -8.858 -20.060  21.201  1.00  0.00     0.030 C 
HETATM   15  C1  UNL     1     -10.204 -19.959  20.570  1.00  0.00     0.024 C 
HETATM   16  C3  UNL     1      -8.686 -18.925  22.174  1.00  0.00     0.024 C 
HETATM   17  C4  UNL     1      -8.812 -21.368  21.985  1.00  0.00     0.024 C 
ENDBRANCH  11  14
ENDBRANCH   9  10
ENDBRANCH   1   9
BRANCH   1  18
HETATM   18  O2  UNL     1      -5.011 -23.193  18.769  1.00  0.00    -0.387 OA
ATOM     19  H2  UNL     1      -5.953 -23.283  18.695  1.00  0.00     0.210 HD
ENDBRANCH   1  18
TORSDOF 4
ENDMDL
