MODEL 1
REMARK VINA RESULT: -7.673181688      0.000      0.000
REMARK  4 active torsions:
REMARK  status: ('A' for Active; 'I' for Inactive)
REMARK    1  A    between atoms: N1_1  and  C1_5 
REMARK    2  A    between atoms: C1_5  and  C2_6 
REMARK    3  A    between atoms: C4_10  and  O1_11 
REMARK    4  A    between atoms: C4_10  and  C5_13 
ROOT
HETATM    1  C2  UNL     1      -5.146 -21.288  20.824  1.00  0.00     0.105 A 
HETATM    2  C3  UNL     1      -4.516 -21.220  22.193  1.00  0.00     0.069 A 
HETATM    3  N2  UNL     1      -5.513 -21.722  22.822  1.00  0.00    -0.370 N 
ATOM      4  H2  UNL     1      -5.699 -21.939  23.801  1.00  0.00     0.161 HD
HETATM    5  C4  UNL     1      -6.271 -21.862  21.595  1.00  0.00     0.148 A 
ENDROOT
BRANCH   5   6
HETATM    6  O1  UNL     1      -6.551 -23.179  21.252  1.00  0.00    -0.369 OA
ATOM      7  H1  UNL     1      -5.824 -23.615  20.824  1.00  0.00     0.212 HD
ENDBRANCH   5   6
BRANCH   5   8
HETATM    8  C5  UNL     1      -7.510 -21.001  21.721  1.00  0.00     0.011 C 
HETATM    9  C6  UNL     1      -8.153 -21.170  23.081  1.00  0.00     0.019 C 
HETATM   10  C7  UNL     1      -9.468 -20.433  23.103  1.00  0.00    -0.013 C 
HETATM   11  C8  UNL     1      -9.244 -18.960  22.865  1.00  0.00     0.009 C 
HETATM   12  C12 UNL     1     -10.420 -20.925  22.041  1.00  0.00     0.009 C 
HETATM   13  C9  UNL     1      -8.548 -18.805  21.521  1.00  0.00    -0.013 C 
HETATM   14  C10 UNL     1      -9.431 -19.305  20.404  1.00  0.00     0.009 C 
HETATM   15  C14 UNL     1      -7.228 -19.543  21.521  1.00  0.00     0.019 C 
HETATM   16  C11 UNL     1      -9.776 -20.738  20.692  1.00  0.00    -0.013 C 
HETATM   17  C13 UNL     1      -8.488 -21.532  20.687  1.00  0.00     0.019 C 
ENDBRANCH   5   8
BRANCH   1  18
HETATM   18  C1  UNL     1      -4.338 -22.235  19.973  1.00  0.00     0.244 C 
BRANCH  18  19
HETATM   19  N1  UNL     1      -5.062 -22.821  18.885  1.00  0.00    -0.079 N 
ATOM     20  H13 UNL     1      -6.054 -22.894  19.117  1.00  0.00     0.274 HD
ATOM     21  H12 UNL     1      -5.113 -22.171  18.101  1.00  0.00     0.274 HD
ATOM     22  H11 UNL     1      -4.703 -23.723  18.575  1.00  0.00     0.274 HD
ENDBRANCH  18  19
ENDBRANCH   1  18
TORSDOF 4
ENDMDL
MODEL 2
REMARK VINA RESULT: -7.543910214      0.971      2.103
REMARK  4 active torsions:
REMARK  status: ('A' for Active; 'I' for Inactive)
REMARK    1  A    between atoms: N1_1  and  C1_5 
REMARK    2  A    between atoms: C1_5  and  C2_6 
REMARK    3  A    between atoms: C4_10  and  O1_11 
REMARK    4  A    between atoms: C4_10  and  C5_13 
ROOT
HETATM    1  C2  UNL     1      -5.173 -21.263  22.363  1.00  0.00     0.105 A 
HETATM    2  C3  UNL     1      -5.313 -22.040  23.648  1.00  0.00     0.069 A 
HETATM    3  N2  UNL     1      -6.368 -22.679  23.302  1.00  0.00    -0.370 N 
ATOM      4  H2  UNL     1      -6.959 -23.374  23.757  1.00  0.00     0.161 HD
HETATM    5  C4  UNL     1      -6.392 -22.024  22.009  1.00  0.00     0.148 A 
ENDROOT
BRANCH   5   6
HETATM    6  O1  UNL     1      -6.204 -22.887  20.937  1.00  0.00    -0.369 OA
ATOM      7  H1  UNL     1      -6.814 -22.735  20.225  1.00  0.00     0.212 HD
ENDBRANCH   5   6
BRANCH   5   8
HETATM    8  C5  UNL     1      -7.678 -21.230  21.920  1.00  0.00     0.011 C 
HETATM    9  C6  UNL     1      -8.509 -21.675  20.735  1.00  0.00     0.019 C 
HETATM   10  C7  UNL     1      -9.691 -20.751  20.583  1.00  0.00    -0.013 C 
HETATM   11  C8  UNL     1     -10.557 -20.806  21.817  1.00  0.00     0.009 C 
HETATM   12  C12 UNL     1      -9.275 -19.315  20.384  1.00  0.00     0.009 C 
HETATM   13  C9  UNL     1      -9.698 -20.410  23.009  1.00  0.00    -0.013 C 
HETATM   14  C10 UNL     1      -9.216 -18.987  22.868  1.00  0.00     0.009 C 
HETATM   15  C14 UNL     1      -8.524 -21.353  23.151  1.00  0.00     0.019 C 
HETATM   16  C11 UNL     1      -8.461 -18.879  21.575  1.00  0.00    -0.013 C 
HETATM   17  C13 UNL     1      -7.259 -19.793  21.666  1.00  0.00     0.019 C 
ENDBRANCH   5   8
BRANCH   1  18
HETATM   18  C1  UNL     1      -3.884 -21.675  21.695  1.00  0.00     0.244 C 
BRANCH  18  19
HETATM   19  N1  UNL     1      -3.720 -21.175  20.363  1.00  0.00    -0.079 N 
ATOM     20  H13 UNL     1      -4.557 -20.672  20.066  1.00  0.00     0.274 HD
ATOM     21  H12 UNL     1      -3.044 -20.411  20.351  1.00  0.00     0.274 HD
ATOM     22  H11 UNL     1      -3.467 -21.883  19.674  1.00  0.00     0.274 HD
ENDBRANCH  18  19
ENDBRANCH   1  18
TORSDOF 4
ENDMDL
MODEL 3
REMARK VINA RESULT: -7.433362928      0.833      1.732
REMARK  4 active torsions:
REMARK  status: ('A' for Active; 'I' for Inactive)
REMARK    1  A    between atoms: N1_1  and  C1_5 
REMARK    2  A    between atoms: C1_5  and  C2_6 
REMARK    3  A    between atoms: C4_10  and  O1_11 
REMARK    4  A    between atoms: C4_10  and  C5_13 
ROOT
HETATM    1  C2  UNL     1      -5.154 -20.923  20.797  1.00  0.00     0.105 A 
HETATM    2  C3  UNL     1      -4.711 -21.571  22.086  1.00  0.00     0.069 A 
HETATM    3  N2  UNL     1      -5.745 -22.315  22.221  1.00  0.00    -0.370 N 
ATOM      4  H2  UNL     1      -6.041 -23.000  22.916  1.00  0.00     0.161 HD
HETATM    5  C4  UNL     1      -6.328 -21.801  20.998  1.00  0.00     0.148 A 
ENDROOT
BRANCH   5   6
HETATM    6  O1  UNL     1      -6.473 -22.755  19.998  1.00  0.00    -0.369 OA
ATOM      7  H1  UNL     1      -7.368 -23.054  19.896  1.00  0.00     0.212 HD
ENDBRANCH   5   6
BRANCH   5   8
HETATM    8  C5  UNL     1      -7.627 -21.114  21.362  1.00  0.00     0.011 C 
HETATM    9  C6  UNL     1      -8.814 -21.858  20.788  1.00  0.00     0.019 C 
HETATM   10  C7  UNL     1     -10.067 -21.054  21.026  1.00  0.00    -0.013 C 
HETATM   11  C8  UNL     1     -10.293 -20.869  22.506  1.00  0.00     0.009 C 
HETATM   12  C12 UNL     1      -9.995 -19.681  20.403  1.00  0.00     0.009 C 
HETATM   13  C9  UNL     1      -9.072 -20.169  23.083  1.00  0.00    -0.013 C 
HETATM   14  C10 UNL     1      -8.914 -18.793  22.483  1.00  0.00     0.009 C 
HETATM   15  C14 UNL     1      -7.828 -20.995  22.842  1.00  0.00     0.019 C 
HETATM   16  C11 UNL     1      -8.820 -18.945  20.992  1.00  0.00    -0.013 C 
HETATM   17  C13 UNL     1      -7.577 -19.753  20.689  1.00  0.00     0.019 C 
ENDBRANCH   5   8
BRANCH   1  18
HETATM   18  C1  UNL     1      -4.181 -21.309  19.711  1.00  0.00     0.244 C 
BRANCH  18  19
HETATM   19  N1  UNL     1      -4.544 -20.858  18.401  1.00  0.00    -0.079 N 
ATOM     20  H13 UNL     1      -4.819 -21.647  17.816  1.00  0.00     0.274 HD
ATOM     21  H12 UNL     1      -5.427 -20.348  18.433  1.00  0.00     0.274 HD
ATOM     22  H11 UNL     1      -3.830 -20.300  17.933  1.00  0.00     0.274 HD
ENDBRANCH  18  19
ENDBRANCH   1  18
TORSDOF 4
ENDMDL
MODEL 4
REMARK VINA RESULT: -7.426292421      1.226      2.197
REMARK  4 active torsions:
REMARK  status: ('A' for Active; 'I' for Inactive)
REMARK    1  A    between atoms: N1_1  and  C1_5 
REMARK    2  A    between atoms: C1_5  and  C2_6 
REMARK    3  A    between atoms: C4_10  and  O1_11 
REMARK    4  A    between atoms: C4_10  and  C5_13 
ROOT
HETATM    1  C2  UNL     1      -5.693 -22.685  20.868  1.00  0.00     0.105 A 
HETATM    2  C3  UNL     1      -4.805 -21.685  20.169  1.00  0.00     0.069 A 
HETATM    3  N2  UNL     1      -5.056 -20.710  20.962  1.00  0.00    -0.370 N 
ATOM      4  H2  UNL     1      -4.748 -19.739  21.015  1.00  0.00     0.161 HD
HETATM    5  C4  UNL     1      -5.951 -21.529  21.755  1.00  0.00     0.148 A 
ENDROOT
BRANCH   5   6
HETATM    6  O1  UNL     1      -5.519 -21.736  23.060  1.00  0.00    -0.369 OA
ATOM      7  H1  UNL     1      -5.551 -20.949  23.591  1.00  0.00     0.212 HD
ENDBRANCH   5   6
BRANCH   5   8
HETATM    8  C5  UNL     1      -7.332 -20.913  21.672  1.00  0.00     0.011 C 
HETATM    9  C6  UNL     1      -7.247 -19.409  21.524  1.00  0.00     0.019 C 
HETATM   10  C7  UNL     1      -8.633 -18.822  21.618  1.00  0.00    -0.013 C 
HETATM   11  C8  UNL     1      -9.502 -19.360  20.508  1.00  0.00     0.009 C 
HETATM   12  C12 UNL     1      -9.309 -19.153  22.925  1.00  0.00     0.009 C 
HETATM   13  C9  UNL     1      -9.537 -20.876  20.634  1.00  0.00    -0.013 C 
HETATM   14  C10 UNL     1     -10.176 -21.287  21.938  1.00  0.00     0.009 C 
HETATM   15  C14 UNL     1      -8.139 -21.446  20.528  1.00  0.00     0.019 C 
HETATM   16  C11 UNL     1      -9.401 -20.651  23.055  1.00  0.00    -0.013 C 
HETATM   17  C13 UNL     1      -7.992 -21.200  23.010  1.00  0.00     0.019 C 
ENDBRANCH   5   8
BRANCH   1  18
HETATM   18  C1  UNL     1      -4.825 -23.793  21.413  1.00  0.00     0.244 C 
BRANCH  18  19
HETATM   19  N1  UNL     1      -3.619 -24.019  20.675  1.00  0.00    -0.079 N 
ATOM     20  H13 UNL     1      -3.810 -24.024  19.672  1.00  0.00     0.274 HD
ATOM     21  H12 UNL     1      -3.009 -23.204  20.732  1.00  0.00     0.274 HD
ATOM     22  H11 UNL     1      -3.111 -24.862  20.943  1.00  0.00     0.274 HD
ENDBRANCH  18  19
ENDBRANCH   1  18
TORSDOF 4
ENDMDL
MODEL 5
REMARK VINA RESULT: -7.402755519      1.205      2.685
REMARK  4 active torsions:
REMARK  status: ('A' for Active; 'I' for Inactive)
REMARK    1  A    between atoms: N1_1  and  C1_5 
REMARK    2  A    between atoms: C1_5  and  C2_6 
REMARK    3  A    between atoms: C4_10  and  O1_11 
REMARK    4  A    between atoms: C4_10  and  C5_13 
ROOT
HETATM    1  C2  UNL     1      -5.799 -22.912  21.648  1.00  0.00     0.105 A 
HETATM    2  C3  UNL     1      -5.683 -23.138  20.161  1.00  0.00     0.069 A 
HETATM    3  N2  UNL     1      -5.904 -21.922  19.825  1.00  0.00    -0.370 N 
ATOM      4  H2  UNL     1      -5.956 -21.429  18.934  1.00  0.00     0.161 HD
HETATM    5  C4  UNL     1      -6.050 -21.521  21.211  1.00  0.00     0.148 A 
ENDROOT
BRANCH   5   6
HETATM    6  O1  UNL     1      -5.077 -20.629  21.645  1.00  0.00    -0.369 OA
ATOM      7  H1  UNL     1      -4.363 -20.527  21.027  1.00  0.00     0.212 HD
ENDBRANCH   5   6
BRANCH   5   8
HETATM    8  C5  UNL     1      -7.461 -21.003  21.392  1.00  0.00     0.011 C 
HETATM    9  C6  UNL     1      -8.315 -21.320  20.183  1.00  0.00     0.019 C 
HETATM   10  C7  UNL     1      -9.654 -20.642  20.329  1.00  0.00    -0.013 C 
HETATM   11  C8  UNL     1     -10.364 -21.151  21.559  1.00  0.00     0.009 C 
HETATM   12  C12 UNL     1      -9.527 -19.145  20.465  1.00  0.00     0.009 C 
HETATM   13  C9  UNL     1      -9.473 -20.876  22.761  1.00  0.00    -0.013 C 
HETATM   14  C10 UNL     1      -9.273 -19.392  22.946  1.00  0.00     0.009 C 
HETATM   15  C14 UNL     1      -8.140 -21.572  22.600  1.00  0.00     0.019 C 
HETATM   16  C11 UNL     1      -8.688 -18.841  21.679  1.00  0.00    -0.013 C 
HETATM   17  C13 UNL     1      -7.337 -19.491  21.474  1.00  0.00     0.019 C 
ENDBRANCH   5   8
BRANCH   1  18
HETATM   18  C1  UNL     1      -4.462 -23.206  22.281  1.00  0.00     0.244 C 
BRANCH  18  19
HETATM   19  N1  UNL     1      -4.377 -22.870  23.671  1.00  0.00    -0.079 N 
ATOM     20  H13 UNL     1      -5.105 -22.200  23.920  1.00  0.00     0.274 HD
ATOM     21  H12 UNL     1      -4.663 -23.662  24.247  1.00  0.00     0.274 HD
ATOM     22  H11 UNL     1      -3.463 -22.528  23.967  1.00  0.00     0.274 HD
ENDBRANCH  18  19
ENDBRANCH   1  18
TORSDOF 4
ENDMDL
