MODEL 1
REMARK VINA RESULT: -8.133773049      0.000      0.000
REMARK  6 active torsions:
REMARK  status: ('A' for Active; 'I' for Inactive)
REMARK    1  A    between atoms: O1_2  and  C2_3 
REMARK    2  A    between atoms: C4_5  and  C5_6 
REMARK    3  A    between atoms: C7_9  and  N1_10 
REMARK    4  A    between atoms: N1_10  and  N2_12 
REMARK    5  A    between atoms: C15_24  and  O2_25 
REMARK    6  A    between atoms: C17_27  and  O3_28 
ROOT
HETATM    1  N2  UNL     1      -2.421 -20.019  16.674  1.00  0.00    -0.307 N 
ATOM      2  H2  UNL     1      -3.242 -19.563  16.274  1.00  0.00     0.186 HD
HETATM    3  C8  UNL     1      -1.255 -19.660  16.294  1.00  0.00     0.005 C 
HETATM    4  C9  UNL     1       0.018 -20.221  16.779  1.00  0.00     0.055 C 
HETATM    5  C10 UNL     1       0.957 -19.053  16.724  1.00  0.00     0.025 C 
HETATM    6  C11 UNL     1       0.309 -17.978  15.917  1.00  0.00     0.098 C 
HETATM    7  C12 UNL     1       1.217 -17.495  14.878  1.00  0.00     0.064 C 
HETATM    8  N3  UNL     1       1.944 -17.106  14.067  1.00  0.00    -0.197 NA
HETATM    9  C13 UNL     1      -0.932 -18.623  15.306  1.00  0.00     0.073 C 
ENDROOT
BRANCH   1  10
HETATM   10  N1  UNL     1      -2.589 -21.022  17.625  1.00  0.00    -0.280 N 
ATOM     11  H1  UNL     1      -1.986 -21.844  17.599  1.00  0.00     0.189 HD
BRANCH  10  12
HETATM   12  C7  UNL     1      -3.516 -20.927  18.559  1.00  0.00     0.163 A 
HETATM   13  S1  UNL     1      -4.570 -19.639  18.902  1.00  0.00    -0.062 SA
HETATM   14  C6  UNL     1      -5.361 -20.322  20.255  1.00  0.00     0.083 A 
HETATM   15  C5  UNL     1      -4.744 -21.541  20.366  1.00  0.00     0.051 A 
HETATM   16  N4  UNL     1      -3.813 -21.827  19.496  1.00  0.00    -0.334 N 
ATOM     17  H4  UNL     1      -3.323 -22.722  19.533  1.00  0.00     0.168 HD
BRANCH  15  18
HETATM   18  C4  UNL     1      -5.113 -22.468  21.474  1.00  0.00    -0.003 A 
HETATM   19  C3  UNL     1      -6.182 -22.202  22.297  1.00  0.00     0.053 A 
HETATM   20  C2  UNL     1      -6.520 -23.021  23.354  1.00  0.00     0.105 A 
HETATM   21  C17 UNL     1      -5.809 -24.147  23.642  1.00  0.00     0.135 A 
HETATM   22  C15 UNL     1      -4.720 -24.429  22.811  1.00  0.00     0.105 A 
HETATM   23  C14 UNL     1      -4.383 -23.606  21.750  1.00  0.00     0.053 A 
BRANCH  20  24
HETATM   24  O1  UNL     1      -7.611 -22.678  24.135  1.00  0.00    -0.353 OA
HETATM   25  C1  UNL     1      -8.610 -21.802  23.658  1.00  0.00     0.210 C 
ENDBRANCH  20  24
BRANCH  21  26
HETATM   26  O3  UNL     1      -6.106 -25.001  24.690  1.00  0.00    -0.351 OA
HETATM   27  C18 UNL     1      -5.617 -24.721  25.994  1.00  0.00     0.210 C 
ENDBRANCH  21  26
BRANCH  22  28
HETATM   28  O2  UNL     1      -3.955 -25.557  23.043  1.00  0.00    -0.353 OA
HETATM   29  C16 UNL     1      -2.655 -25.411  23.567  1.00  0.00     0.210 C 
ENDBRANCH  22  28
ENDBRANCH  15  18
ENDBRANCH  10  12
ENDBRANCH   1  10
TORSDOF 6
ENDMDL
MODEL 2
REMARK VINA RESULT: -8.091815466      5.160      9.758
REMARK  6 active torsions:
REMARK  status: ('A' for Active; 'I' for Inactive)
REMARK    1  A    between atoms: O1_2  and  C2_3 
REMARK    2  A    between atoms: C4_5  and  C5_6 
REMARK    3  A    between atoms: C7_9  and  N1_10 
REMARK    4  A    between atoms: N1_10  and  N2_12 
REMARK    5  A    between atoms: C15_24  and  O2_25 
REMARK    6  A    between atoms: C17_27  and  O3_28 
ROOT
HETATM    1  N2  UNL     1      -2.394 -24.779  26.154  1.00  0.00    -0.307 N 
ATOM      2  H2  UNL     1      -1.791 -23.957  26.191  1.00  0.00     0.186 HD
HETATM    3  C8  UNL     1      -2.487 -25.537  27.178  1.00  0.00     0.005 C 
HETATM    4  C9  UNL     1      -3.313 -26.753  27.276  1.00  0.00     0.055 C 
HETATM    5  C10 UNL     1      -3.726 -26.780  28.717  1.00  0.00     0.025 C 
HETATM    6  C11 UNL     1      -2.877 -25.801  29.458  1.00  0.00     0.098 C 
HETATM    7  C12 UNL     1      -2.282 -26.424  30.639  1.00  0.00     0.064 C 
HETATM    8  N3  UNL     1      -1.825 -26.917  31.580  1.00  0.00    -0.197 NA
HETATM    9  C13 UNL     1      -1.802 -25.365  28.466  1.00  0.00     0.073 C 
ENDROOT
BRANCH   1  10
HETATM   10  N1  UNL     1      -3.102 -25.058  24.988  1.00  0.00    -0.280 N 
ATOM     11  H1  UNL     1      -2.748 -25.764  24.342  1.00  0.00     0.189 HD
BRANCH  10  12
HETATM   12  C7  UNL     1      -4.223 -24.424  24.704  1.00  0.00     0.163 A 
HETATM   13  S1  UNL     1      -5.816 -24.789  25.171  1.00  0.00    -0.062 SA
HETATM   14  C6  UNL     1      -6.612 -23.525  24.341  1.00  0.00     0.083 A 
HETATM   15  C5  UNL     1      -5.569 -22.876  23.732  1.00  0.00     0.051 A 
HETATM   16  N4  UNL     1      -4.368 -23.347  23.930  1.00  0.00    -0.334 N 
ATOM     17  H4  UNL     1      -3.557 -22.901  23.502  1.00  0.00     0.168 HD
BRANCH  15  18
HETATM   18  C4  UNL     1      -5.831 -21.704  22.849  1.00  0.00    -0.003 A 
HETATM   19  C3  UNL     1      -7.071 -21.111  22.805  1.00  0.00     0.053 A 
HETATM   20  C2  UNL     1      -7.352 -20.052  21.966  1.00  0.00     0.105 A 
HETATM   21  C17 UNL     1      -6.409 -19.532  21.132  1.00  0.00     0.135 A 
HETATM   22  C15 UNL     1      -5.144 -20.125  21.169  1.00  0.00     0.105 A 
HETATM   23  C14 UNL     1      -4.864 -21.188  22.011  1.00  0.00     0.053 A 
BRANCH  20  24
HETATM   24  O1  UNL     1      -8.628 -19.513  21.983  1.00  0.00    -0.353 OA
HETATM   25  C1  UNL     1      -9.709 -20.165  21.351  1.00  0.00     0.210 C 
ENDBRANCH  20  24
BRANCH  21  26
HETATM   26  O3  UNL     1      -6.639 -18.470  20.272  1.00  0.00    -0.351 OA
HETATM   27  C18 UNL     1      -7.161 -18.711  18.972  1.00  0.00     0.210 C 
ENDBRANCH  21  26
BRANCH  22  28
HETATM   28  O2  UNL     1      -4.137 -19.648  20.350  1.00  0.00    -0.353 OA
HETATM   29  C16 UNL     1      -3.721 -20.419  19.247  1.00  0.00     0.210 C 
ENDBRANCH  22  28
ENDBRANCH  15  18
ENDBRANCH  10  12
ENDBRANCH   1  10
TORSDOF 6
ENDMDL
MODEL 3
REMARK VINA RESULT: -7.997507340      4.807      8.773
REMARK  6 active torsions:
REMARK  status: ('A' for Active; 'I' for Inactive)
REMARK    1  A    between atoms: O1_2  and  C2_3 
REMARK    2  A    between atoms: C4_5  and  C5_6 
REMARK    3  A    between atoms: C7_9  and  N1_10 
REMARK    4  A    between atoms: N1_10  and  N2_12 
REMARK    5  A    between atoms: C15_24  and  O2_25 
REMARK    6  A    between atoms: C17_27  and  O3_28 
ROOT
HETATM    1  N2  UNL     1      -1.709 -25.250  24.262  1.00  0.00    -0.307 N 
ATOM      2  H2  UNL     1      -0.718 -25.016  24.191  1.00  0.00     0.186 HD
HETATM    3  C8  UNL     1      -2.186 -25.631  25.384  1.00  0.00     0.005 C 
HETATM    4  C9  UNL     1      -3.589 -25.998  25.642  1.00  0.00     0.055 C 
HETATM    5  C10 UNL     1      -3.807 -25.571  27.062  1.00  0.00     0.025 C 
HETATM    6  C11 UNL     1      -2.473 -25.291  27.669  1.00  0.00     0.098 C 
HETATM    7  C12 UNL     1      -2.326 -25.996  28.941  1.00  0.00     0.064 C 
HETATM    8  N3  UNL     1      -2.221 -26.544  29.954  1.00  0.00    -0.197 NA
HETATM    9  C13 UNL     1      -1.452 -25.783  26.647  1.00  0.00     0.073 C 
ENDROOT
BRANCH   1  10
HETATM   10  N1  UNL     1      -2.520 -25.147  23.134  1.00  0.00    -0.280 N 
ATOM     11  H1  UNL     1      -2.956 -25.986  22.752  1.00  0.00     0.189 HD
BRANCH  10  12
HETATM   12  C7  UNL     1      -2.733 -23.983  22.553  1.00  0.00     0.163 A 
HETATM   13  S1  UNL     1      -1.631 -22.949  21.776  1.00  0.00    -0.062 SA
HETATM   14  C6  UNL     1      -2.713 -21.686  21.383  1.00  0.00     0.083 A 
HETATM   15  C5  UNL     1      -3.898 -22.151  21.892  1.00  0.00     0.051 A 
HETATM   16  N4  UNL     1      -3.886 -23.316  22.479  1.00  0.00    -0.334 N 
ATOM     17  H4  UNL     1      -4.741 -23.710  22.874  1.00  0.00     0.168 HD
BRANCH  15  18
HETATM   18  C4  UNL     1      -5.131 -21.316  21.800  1.00  0.00    -0.003 A 
HETATM   19  C3  UNL     1      -6.240 -21.602  22.559  1.00  0.00     0.053 A 
HETATM   20  C2  UNL     1      -7.407 -20.872  22.464  1.00  0.00     0.105 A 
HETATM   21  C17 UNL     1      -7.523 -19.820  21.606  1.00  0.00     0.135 A 
HETATM   22  C15 UNL     1      -6.401 -19.518  20.830  1.00  0.00     0.105 A 
HETATM   23  C14 UNL     1      -5.231 -20.252  20.927  1.00  0.00     0.053 A 
BRANCH  20  24
HETATM   24  O1  UNL     1      -8.480 -21.228  23.265  1.00  0.00    -0.353 OA
HETATM   25  C1  UNL     1      -8.439 -22.383  24.076  1.00  0.00     0.210 C 
ENDBRANCH  20  24
BRANCH  21  26
HETATM   26  O3  UNL     1      -8.671 -19.056  21.473  1.00  0.00    -0.351 OA
HETATM   27  C18 UNL     1      -9.673 -19.437  20.540  1.00  0.00     0.210 C 
ENDBRANCH  21  26
BRANCH  22  28
HETATM   28  O2  UNL     1      -6.446 -18.462  19.939  1.00  0.00    -0.353 OA
HETATM   29  C16 UNL     1      -5.338 -18.215  19.105  1.00  0.00     0.210 C 
ENDBRANCH  22  28
ENDBRANCH  15  18
ENDBRANCH  10  12
ENDBRANCH   1  10
TORSDOF 6
ENDMDL
MODEL 4
REMARK VINA RESULT: -7.937776637      1.902      2.307
REMARK  6 active torsions:
REMARK  status: ('A' for Active; 'I' for Inactive)
REMARK    1  A    between atoms: O1_2  and  C2_3 
REMARK    2  A    between atoms: C4_5  and  C5_6 
REMARK    3  A    between atoms: C7_9  and  N1_10 
REMARK    4  A    between atoms: N1_10  and  N2_12 
REMARK    5  A    between atoms: C15_24  and  O2_25 
REMARK    6  A    between atoms: C17_27  and  O3_28 
ROOT
HETATM    1  N2  UNL     1      -2.654 -19.658  17.487  1.00  0.00    -0.307 N 
ATOM      2  H2  UNL     1      -2.479 -18.687  17.225  1.00  0.00     0.186 HD
HETATM    3  C8  UNL     1      -1.667 -20.427  17.742  1.00  0.00     0.005 C 
HETATM    4  C9  UNL     1      -1.760 -21.845  18.134  1.00  0.00     0.055 C 
HETATM    5  C10 UNL     1      -0.588 -22.032  19.050  1.00  0.00     0.025 C 
HETATM    6  C11 UNL     1       0.310 -20.850  18.897  1.00  0.00     0.098 C 
HETATM    7  C12 UNL     1       1.687 -21.276  18.656  1.00  0.00     0.064 C 
HETATM    8  N3  UNL     1       2.778 -21.617  18.481  1.00  0.00    -0.197 NA
HETATM    9  C13 UNL     1      -0.242 -20.074  17.704  1.00  0.00     0.073 C 
ENDROOT
BRANCH   1  10
HETATM   10  N1  UNL     1      -3.965 -20.122  17.562  1.00  0.00    -0.280 N 
ATOM     11  H1  UNL     1      -4.413 -20.495  16.725  1.00  0.00     0.189 HD
BRANCH  10  12
HETATM   12  C7  UNL     1      -4.636 -20.087  18.696  1.00  0.00     0.163 A 
HETATM   13  S1  UNL     1      -5.394 -18.772  19.460  1.00  0.00    -0.062 SA
HETATM   14  C6  UNL     1      -5.950 -19.585  20.857  1.00  0.00     0.083 A 
HETATM   15  C5  UNL     1      -5.503 -20.863  20.645  1.00  0.00     0.051 A 
HETATM   16  N4  UNL     1      -4.841 -21.096  19.544  1.00  0.00    -0.334 N 
ATOM     17  H4  UNL     1      -4.488 -22.030  19.337  1.00  0.00     0.168 HD
BRANCH  15  18
HETATM   18  C4  UNL     1      -5.743 -21.919  21.670  1.00  0.00    -0.003 A 
HETATM   19  C3  UNL     1      -6.750 -21.792  22.598  1.00  0.00     0.053 A 
HETATM   20  C2  UNL     1      -6.967 -22.733  23.584  1.00  0.00     0.105 A 
HETATM   21  C17 UNL     1      -6.191 -23.848  23.690  1.00  0.00     0.135 A 
HETATM   22  C15 UNL     1      -5.165 -23.989  22.751  1.00  0.00     0.105 A 
HETATM   23  C14 UNL     1      -4.949 -23.043  21.763  1.00  0.00     0.053 A 
BRANCH  20  24
HETATM   24  O1  UNL     1      -8.002 -22.528  24.480  1.00  0.00    -0.353 OA
HETATM   25  C1  UNL     1      -9.332 -22.355  24.039  1.00  0.00     0.210 C 
ENDBRANCH  20  24
BRANCH  21  26
HETATM   26  O3  UNL     1      -6.367 -24.822  24.659  1.00  0.00    -0.351 OA
HETATM   27  C18 UNL     1      -5.708 -24.703  25.912  1.00  0.00     0.210 C 
ENDBRANCH  21  26
BRANCH  22  28
HETATM   28  O2  UNL     1      -4.340 -25.097  22.797  1.00  0.00    -0.353 OA
HETATM   29  C16 UNL     1      -3.012 -24.949  23.243  1.00  0.00     0.210 C 
ENDBRANCH  22  28
ENDBRANCH  15  18
ENDBRANCH  10  12
ENDBRANCH   1  10
TORSDOF 6
ENDMDL
MODEL 5
REMARK VINA RESULT: -7.934034274      2.263      4.034
REMARK  6 active torsions:
REMARK  status: ('A' for Active; 'I' for Inactive)
REMARK    1  A    between atoms: O1_2  and  C2_3 
REMARK    2  A    between atoms: C4_5  and  C5_6 
REMARK    3  A    between atoms: C7_9  and  N1_10 
REMARK    4  A    between atoms: N1_10  and  N2_12 
REMARK    5  A    between atoms: C15_24  and  O2_25 
REMARK    6  A    between atoms: C17_27  and  O3_28 
ROOT
HETATM    1  N2  UNL     1      -2.076 -20.162  16.516  1.00  0.00    -0.307 N 
ATOM      2  H2  UNL     1      -2.928 -19.744  16.141  1.00  0.00     0.186 HD
HETATM    3  C8  UNL     1      -0.941 -19.670  16.197  1.00  0.00     0.005 C 
HETATM    4  C9  UNL     1       0.369 -20.160  16.658  1.00  0.00     0.055 C 
HETATM    5  C10 UNL     1       1.202 -18.916  16.731  1.00  0.00     0.025 C 
HETATM    6  C11 UNL     1       0.474 -17.831  16.011  1.00  0.00     0.098 C 
HETATM    7  C12 UNL     1       1.351 -17.177  15.041  1.00  0.00     0.064 C 
HETATM    8  N3  UNL     1       2.052 -16.653  14.286  1.00  0.00    -0.197 NA
HETATM    9  C13 UNL     1      -0.696 -18.521  15.315  1.00  0.00     0.073 C 
ENDROOT
BRANCH   1  10
HETATM   10  N1  UNL     1      -2.169 -21.260  17.368  1.00  0.00    -0.280 N 
ATOM     11  H1  UNL     1      -1.917 -22.186  17.022  1.00  0.00     0.189 HD
BRANCH  10  12
HETATM   12  C7  UNL     1      -2.577 -21.122  18.614  1.00  0.00     0.163 A 
HETATM   13  S1  UNL     1      -1.736 -21.410  20.062  1.00  0.00    -0.062 SA
HETATM   14  C6  UNL     1      -2.996 -21.043  21.157  1.00  0.00     0.083 A 
HETATM   15  C5  UNL     1      -4.024 -20.711  20.314  1.00  0.00     0.051 A 
HETATM   16  N4  UNL     1      -3.791 -20.757  19.030  1.00  0.00    -0.334 N 
ATOM     17  H4  UNL     1      -4.521 -20.518  18.359  1.00  0.00     0.168 HD
BRANCH  15  18
HETATM   18  C4  UNL     1      -5.362 -20.355  20.869  1.00  0.00    -0.003 A 
HETATM   19  C3  UNL     1      -5.871 -21.006  21.968  1.00  0.00     0.053 A 
HETATM   20  C2  UNL     1      -7.122 -20.726  22.477  1.00  0.00     0.105 A 
HETATM   21  C17 UNL     1      -7.926 -19.781  21.915  1.00  0.00     0.135 A 
HETATM   22  C15 UNL     1      -7.419 -19.111  20.797  1.00  0.00     0.105 A 
HETATM   23  C14 UNL     1      -6.163 -19.394  20.289  1.00  0.00     0.053 A 
BRANCH  20  24
HETATM   24  O1  UNL     1      -7.559 -21.429  23.587  1.00  0.00    -0.353 OA
HETATM   25  C1  UNL     1      -7.240 -22.793  23.765  1.00  0.00     0.210 C 
ENDBRANCH  20  24
BRANCH  21  26
HETATM   26  O3  UNL     1      -9.189 -19.462  22.387  1.00  0.00    -0.351 OA
HETATM   27  C18 UNL     1     -10.301 -20.278  22.046  1.00  0.00     0.210 C 
ENDBRANCH  21  26
BRANCH  22  28
HETATM   28  O2  UNL     1      -8.181 -18.138  20.177  1.00  0.00    -0.353 OA
HETATM   29  C16 UNL     1      -8.920 -18.472  19.025  1.00  0.00     0.210 C 
ENDBRANCH  22  28
ENDBRANCH  15  18
ENDBRANCH  10  12
ENDBRANCH   1  10
TORSDOF 6
ENDMDL
