MODEL 1
REMARK VINA RESULT: -8.984612679      0.000      0.000
REMARK  4 active torsions:
REMARK  status: ('A' for Active; 'I' for Inactive)
REMARK       I    between atoms: C2_3  and  N2_5 
REMARK    1  A    between atoms: C6_9  and  C7_10 
REMARK    2  A    between atoms: C7_10  and  N3_11 
REMARK    3  A    between atoms: N3_11  and  C8_13 
REMARK    4  A    between atoms: C9_18  and  C10_19 
ROOT
HETATM    1  N1  UNL     1       1.840 -22.728  21.695  1.00  0.00    -0.186 NA
HETATM    2  C1  UNL     1       1.124 -22.033  21.080  1.00  0.00     0.162 C 
HETATM    3  C2  UNL     1       0.256 -21.174  20.291  1.00  0.00     0.325 C 
HETATM    4  O1  UNL     1      -0.587 -20.415  20.820  1.00  0.00    -0.256 OA
HETATM    5  N2  UNL     1       0.381 -21.213  18.891  1.00  0.00    -0.330 N 
HETATM    6  C3  UNL     1       1.294 -22.061  18.099  1.00  0.00     0.127 C 
HETATM    7  C4  UNL     1       1.582 -21.302  16.823  1.00  0.00     0.022 C 
HETATM    8  C5  UNL     1       0.871 -19.997  17.036  1.00  0.00     0.032 C 
HETATM    9  C6  UNL     1      -0.301 -20.438  17.854  1.00  0.00     0.126 C 
ENDROOT
BRANCH   9  10
HETATM   10  C7  UNL     1      -1.274 -21.322  17.169  1.00  0.00     0.088 C 
BRANCH  10  11
HETATM   11  N3  UNL     1      -2.271 -21.926  17.962  1.00  0.00    -0.347 N 
ATOM     12  H3  UNL     1      -2.284 -22.945  18.018  1.00  0.00     0.167 HD
BRANCH  11  13
HETATM   13  C8  UNL     1      -3.252 -21.214  18.682  1.00  0.00     0.164 A 
HETATM   14  N4  UNL     1      -3.172 -20.196  19.522  1.00  0.00    -0.279 N 
HETATM   15  N5  UNL     1      -4.208 -19.689  20.035  1.00  0.00    -0.295 N 
ATOM     16  H4  UNL     1      -2.257 -19.813  19.760  1.00  0.00     0.189 HD
HETATM   17  C9  UNL     1      -5.409 -20.179  19.735  1.00  0.00     0.078 A 
ATOM     18  H5  UNL     1      -4.125 -18.904  20.679  1.00  0.00     0.187 HD
HETATM   19  S1  UNL     1      -4.970 -21.438  18.650  1.00  0.00    -0.037 SA
BRANCH  17  20
HETATM   20  C10 UNL     1      -6.761 -19.778  20.219  1.00  0.00     0.015 C 
HETATM   21  C11 UNL     1      -7.331 -20.653  21.283  1.00  0.00     0.021 C 
HETATM   22  C12 UNL     1      -8.680 -20.079  21.687  1.00  0.00    -0.009 C 
HETATM   23  C13 UNL     1      -9.642 -19.994  20.520  1.00  0.00     0.037 C 
HETATM   24  C17 UNL     1      -8.564 -18.674  22.233  1.00  0.00     0.037 C 
HETATM   25  C14 UNL     1      -9.011 -19.072  19.481  1.00  0.00     0.123 C 
HETATM   26  C15 UNL     1      -7.741 -19.719  19.056  1.00  0.00     0.048 C 
HETATM   27  O2  UNL     1      -8.818 -17.822  20.034  1.00  0.00    -0.381 OA
HETATM   28  C16 UNL     1      -7.968 -17.830  21.124  1.00  0.00     0.123 C 
HETATM   29  C18 UNL     1      -6.597 -18.385  20.821  1.00  0.00     0.048 C 
ENDBRANCH  17  20
ENDBRANCH  11  13
ENDBRANCH  10  11
ENDBRANCH   9  10
TORSDOF 4
ENDMDL
MODEL 2
REMARK VINA RESULT: -8.965186785      2.737      3.457
REMARK  4 active torsions:
REMARK  status: ('A' for Active; 'I' for Inactive)
REMARK       I    between atoms: C2_3  and  N2_5 
REMARK    1  A    between atoms: C6_9  and  C7_10 
REMARK    2  A    between atoms: C7_10  and  N3_11 
REMARK    3  A    between atoms: N3_11  and  C8_13 
REMARK    4  A    between atoms: C9_18  and  C10_19 
ROOT
HETATM    1  N1  UNL     1      -2.838 -26.716  24.051  1.00  0.00    -0.186 NA
HETATM    2  C1  UNL     1      -2.804 -25.654  23.556  1.00  0.00     0.162 C 
HETATM    3  C2  UNL     1      -2.731 -24.337  22.944  1.00  0.00     0.325 C 
HETATM    4  O1  UNL     1      -3.713 -23.563  22.913  1.00  0.00    -0.256 OA
HETATM    5  N2  UNL     1      -1.509 -23.941  22.373  1.00  0.00    -0.330 N 
HETATM    6  C3  UNL     1      -0.261 -24.727  22.294  1.00  0.00     0.127 C 
HETATM    7  C4  UNL     1       0.873 -23.728  22.279  1.00  0.00     0.022 C 
HETATM    8  C5  UNL     1       0.171 -22.413  22.458  1.00  0.00     0.032 C 
HETATM    9  C6  UNL     1      -1.118 -22.676  21.747  1.00  0.00     0.126 C 
ENDROOT
BRANCH   9  10
HETATM   10  C7  UNL     1      -1.020 -22.887  20.283  1.00  0.00     0.088 C 
BRANCH  10  11
HETATM   11  N3  UNL     1      -1.929 -22.186  19.464  1.00  0.00    -0.347 N 
ATOM     12  H3  UNL     1      -1.589 -21.829  18.571  1.00  0.00     0.167 HD
BRANCH  11  13
HETATM   13  C8  UNL     1      -3.277 -21.946  19.800  1.00  0.00     0.164 A 
HETATM   14  N4  UNL     1      -4.255 -22.752  20.175  1.00  0.00    -0.279 N 
HETATM   15  N5  UNL     1      -5.399 -22.302  20.461  1.00  0.00    -0.295 N 
ATOM     16  H4  UNL     1      -4.083 -23.755  20.235  1.00  0.00     0.189 HD
HETATM   17  C9  UNL     1      -5.641 -20.995  20.386  1.00  0.00     0.078 A 
ATOM     18  H5  UNL     1      -6.140 -22.940  20.749  1.00  0.00     0.187 HD
HETATM   19  S1  UNL     1      -4.102 -20.423  19.871  1.00  0.00    -0.037 SA
BRANCH  17  20
HETATM   20  C10 UNL     1      -6.894 -20.230  20.643  1.00  0.00     0.015 C 
HETATM   21  C11 UNL     1      -7.669 -20.680  21.834  1.00  0.00     0.021 C 
HETATM   22  C12 UNL     1      -8.881 -19.770  21.973  1.00  0.00    -0.009 C 
HETATM   23  C13 UNL     1      -9.764 -19.797  20.743  1.00  0.00     0.037 C 
HETATM   24  C17 UNL     1      -8.491 -18.324  22.173  1.00  0.00     0.037 C 
HETATM   25  C14 UNL     1      -8.920 -19.309  19.570  1.00  0.00     0.123 C 
HETATM   26  C15 UNL     1      -7.800 -20.277  19.421  1.00  0.00     0.048 C 
HETATM   27  O2  UNL     1      -8.488 -18.021  19.821  1.00  0.00    -0.381 OA
HETATM   28  C16 UNL     1      -7.695 -17.920  20.948  1.00  0.00     0.123 C 
HETATM   29  C18 UNL     1      -6.461 -18.790  20.905  1.00  0.00     0.048 C 
ENDBRANCH  17  20
ENDBRANCH  11  13
ENDBRANCH  10  11
ENDBRANCH   9  10
TORSDOF 4
ENDMDL
MODEL 3
REMARK VINA RESULT: -8.796333970      0.791      1.636
REMARK  4 active torsions:
REMARK  status: ('A' for Active; 'I' for Inactive)
REMARK       I    between atoms: C2_3  and  N2_5 
REMARK    1  A    between atoms: C6_9  and  C7_10 
REMARK    2  A    between atoms: C7_10  and  N3_11 
REMARK    3  A    between atoms: N3_11  and  C8_13 
REMARK    4  A    between atoms: C9_18  and  C10_19 
ROOT
HETATM    1  N1  UNL     1       2.024 -23.142  21.407  1.00  0.00    -0.186 NA
HETATM    2  C1  UNL     1       1.293 -22.371  20.910  1.00  0.00     0.162 C 
HETATM    3  C2  UNL     1       0.406 -21.415  20.268  1.00  0.00     0.325 C 
HETATM    4  O1  UNL     1      -0.428 -20.743  20.916  1.00  0.00    -0.256 OA
HETATM    5  N2  UNL     1       0.501 -21.257  18.874  1.00  0.00    -0.330 N 
HETATM    6  C3  UNL     1       1.401 -21.978  17.952  1.00  0.00     0.127 C 
HETATM    7  C4  UNL     1       1.658 -21.046  16.790  1.00  0.00     0.022 C 
HETATM    8  C5  UNL     1       0.948 -19.788  17.199  1.00  0.00     0.032 C 
HETATM    9  C6  UNL     1      -0.205 -20.347  17.970  1.00  0.00     0.126 C 
ENDROOT
BRANCH   9  10
HETATM   10  C7  UNL     1      -1.189 -21.132  17.188  1.00  0.00     0.088 C 
BRANCH  10  11
HETATM   11  N3  UNL     1      -2.201 -21.803  17.905  1.00  0.00    -0.347 N 
ATOM     12  H3  UNL     1      -2.254 -22.818  17.819  1.00  0.00     0.167 HD
BRANCH  11  13
HETATM   13  C8  UNL     1      -3.144 -21.162  18.734  1.00  0.00     0.164 A 
HETATM   14  N4  UNL     1      -3.010 -20.343  19.763  1.00  0.00    -0.279 N 
HETATM   15  N5  UNL     1      -4.018 -19.856  20.346  1.00  0.00    -0.295 N 
ATOM     16  H4  UNL     1      -2.076 -20.100  20.092  1.00  0.00     0.189 HD
HETATM   17  C9  UNL     1      -5.244 -20.164  19.930  1.00  0.00     0.078 A 
ATOM     18  H5  UNL     1      -3.893 -19.225  21.138  1.00  0.00     0.187 HD
HETATM   19  S1  UNL     1      -4.873 -21.218  18.622  1.00  0.00    -0.037 SA
BRANCH  17  20
HETATM   20  C10 UNL     1      -6.574 -19.747  20.457  1.00  0.00     0.015 C 
HETATM   21  C11 UNL     1      -6.861 -18.288  20.350  1.00  0.00     0.021 C 
HETATM   22  C12 UNL     1      -8.264 -18.047  20.888  1.00  0.00    -0.009 C 
HETATM   23  C13 UNL     1      -8.414 -18.498  22.326  1.00  0.00     0.037 C 
HETATM   24  C17 UNL     1      -9.314 -18.801  20.104  1.00  0.00     0.037 C 
HETATM   25  C14 UNL     1      -8.128 -19.996  22.362  1.00  0.00     0.123 C 
HETATM   26  C15 UNL     1      -6.722 -20.171  21.912  1.00  0.00     0.048 C 
HETATM   27  O2  UNL     1      -9.036 -20.655  21.557  1.00  0.00    -0.381 OA
HETATM   28  C16 UNL     1      -8.971 -20.271  20.231  1.00  0.00     0.123 C 
HETATM   29  C18 UNL     1      -7.612 -20.473  19.605  1.00  0.00     0.048 C 
ENDBRANCH  17  20
ENDBRANCH  11  13
ENDBRANCH  10  11
ENDBRANCH   9  10
TORSDOF 4
ENDMDL
MODEL 4
REMARK VINA RESULT: -8.768476694      2.043      3.136
REMARK  4 active torsions:
REMARK  status: ('A' for Active; 'I' for Inactive)
REMARK       I    between atoms: C2_3  and  N2_5 
REMARK    1  A    between atoms: C6_9  and  C7_10 
REMARK    2  A    between atoms: C7_10  and  N3_11 
REMARK    3  A    between atoms: N3_11  and  C8_13 
REMARK    4  A    between atoms: C9_18  and  C10_19 
ROOT
HETATM    1  N1  UNL     1      -0.687 -19.566  16.686  1.00  0.00    -0.186 NA
HETATM    2  C1  UNL     1      -1.062 -20.423  17.392  1.00  0.00     0.162 C 
HETATM    3  C2  UNL     1      -1.497 -21.493  18.274  1.00  0.00     0.325 C 
HETATM    4  O1  UNL     1      -2.652 -21.971  18.221  1.00  0.00    -0.256 OA
HETATM    5  N2  UNL     1      -0.577 -21.992  19.213  1.00  0.00    -0.330 N 
HETATM    6  C3  UNL     1       0.810 -21.534  19.436  1.00  0.00     0.127 C 
HETATM    7  C4  UNL     1       1.574 -22.728  19.960  1.00  0.00     0.022 C 
HETATM    8  C5  UNL     1       0.562 -23.835  19.898  1.00  0.00     0.032 C 
HETATM    9  C6  UNL     1      -0.701 -23.085  20.179  1.00  0.00     0.126 C 
ENDROOT
BRANCH   9  10
HETATM   10  C7  UNL     1      -0.821 -22.501  21.536  1.00  0.00     0.088 C 
BRANCH  10  11
HETATM   11  N3  UNL     1      -2.062 -22.636  22.193  1.00  0.00    -0.347 N 
ATOM     12  H3  UNL     1      -2.068 -23.073  23.115  1.00  0.00     0.167 HD
BRANCH  11  13
HETATM   13  C8  UNL     1      -3.293 -22.205  21.659  1.00  0.00     0.164 A 
HETATM   14  N4  UNL     1      -4.010 -22.626  20.631  1.00  0.00    -0.279 N 
HETATM   15  N5  UNL     1      -5.123 -22.099  20.351  1.00  0.00    -0.295 N 
ATOM     16  H4  UNL     1      -3.659 -23.390  20.054  1.00  0.00     0.189 HD
HETATM   17  C9  UNL     1      -5.594 -21.100  21.094  1.00  0.00     0.078 A 
ATOM     18  H5  UNL     1      -5.661 -22.439  19.555  1.00  0.00     0.187 HD
HETATM   19  S1  UNL     1      -4.329 -20.947  22.249  1.00  0.00    -0.037 SA
BRANCH  17  20
HETATM   20  C10 UNL     1      -6.849 -20.308  20.959  1.00  0.00     0.015 C 
HETATM   21  C11 UNL     1      -7.759 -20.757  19.867  1.00  0.00     0.021 C 
HETATM   22  C12 UNL     1      -8.998 -19.874  19.900  1.00  0.00    -0.009 C 
HETATM   23  C13 UNL     1      -8.666 -18.408  19.723  1.00  0.00     0.037 C 
HETATM   24  C17 UNL     1      -9.739 -19.977  21.214  1.00  0.00     0.037 C 
HETATM   25  C14 UNL     1      -7.753 -18.009  20.878  1.00  0.00     0.123 C 
HETATM   26  C15 UNL     1      -6.522 -18.835  20.751  1.00  0.00     0.048 C 
HETATM   27  O2  UNL     1      -8.413 -18.209  22.074  1.00  0.00    -0.381 OA
HETATM   28  C16 UNL     1      -8.770 -19.526  22.288  1.00  0.00     0.123 C 
HETATM   29  C18 UNL     1      -7.603 -20.484  22.274  1.00  0.00     0.048 C 
ENDBRANCH  17  20
ENDBRANCH  11  13
ENDBRANCH  10  11
ENDBRANCH   9  10
TORSDOF 4
ENDMDL
MODEL 5
REMARK VINA RESULT: -8.751706689      2.012      2.887
REMARK  4 active torsions:
REMARK  status: ('A' for Active; 'I' for Inactive)
REMARK       I    between atoms: C2_3  and  N2_5 
REMARK    1  A    between atoms: C6_9  and  C7_10 
REMARK    2  A    between atoms: C7_10  and  N3_11 
REMARK    3  A    between atoms: N3_11  and  C8_13 
REMARK    4  A    between atoms: C9_18  and  C10_19 
ROOT
HETATM    1  N1  UNL     1       0.413 -19.293  17.919  1.00  0.00    -0.186 NA
HETATM    2  C1  UNL     1      -0.107 -20.291  18.245  1.00  0.00     0.162 C 
HETATM    3  C2  UNL     1      -0.726 -21.539  18.662  1.00  0.00     0.325 C 
HETATM    4  O1  UNL     1      -1.782 -21.964  18.142  1.00  0.00    -0.256 OA
HETATM    5  N2  UNL     1      -0.104 -22.275  19.686  1.00  0.00    -0.330 N 
HETATM    6  C3  UNL     1       1.121 -21.917  20.427  1.00  0.00     0.127 C 
HETATM    7  C4  UNL     1       1.759 -23.220  20.853  1.00  0.00     0.022 C 
HETATM    8  C5  UNL     1       0.878 -24.254  20.216  1.00  0.00     0.032 C 
HETATM    9  C6  UNL     1      -0.452 -23.572  20.270  1.00  0.00     0.126 C 
ENDROOT
BRANCH   9  10
HETATM   10  C7  UNL     1      -1.009 -23.343  21.624  1.00  0.00     0.088 C 
BRANCH  10  11
HETATM   11  N3  UNL     1      -2.363 -23.677  21.834  1.00  0.00    -0.347 N 
ATOM     12  H3  UNL     1      -2.570 -24.499  22.402  1.00  0.00     0.167 HD
BRANCH  11  13
HETATM   13  C8  UNL     1      -3.449 -22.948  21.309  1.00  0.00     0.164 A 
HETATM   14  N4  UNL     1      -3.999 -22.915  20.107  1.00  0.00    -0.279 N 
HETATM   15  N5  UNL     1      -5.007 -22.195  19.869  1.00  0.00    -0.295 N 
ATOM     16  H4  UNL     1      -3.601 -23.483  19.359  1.00  0.00     0.189 HD
HETATM   17  C9  UNL     1      -5.537 -21.447  20.834  1.00  0.00     0.078 A 
ATOM     18  H5  UNL     1      -5.417 -22.185  18.935  1.00  0.00     0.187 HD
HETATM   19  S1  UNL     1      -4.490 -21.839  22.141  1.00  0.00    -0.037 SA
BRANCH  17  20
HETATM   20  C10 UNL     1      -6.694 -20.508  20.801  1.00  0.00     0.015 C 
HETATM   21  C11 UNL     1      -7.664 -20.667  21.922  1.00  0.00     0.021 C 
HETATM   22  C12 UNL     1      -8.746 -19.610  21.757  1.00  0.00    -0.009 C 
HETATM   23  C13 UNL     1      -9.467 -19.727  20.431  1.00  0.00     0.037 C 
HETATM   24  C17 UNL     1      -8.186 -18.207  21.803  1.00  0.00     0.037 C 
HETATM   25  C14 UNL     1      -8.426 -19.535  19.332  1.00  0.00     0.123 C 
HETATM   26  C15 UNL     1      -7.442 -20.640  19.482  1.00  0.00     0.048 C 
HETATM   27  O2  UNL     1      -7.854 -18.285  19.457  1.00  0.00    -0.381 OA
HETATM   28  C16 UNL     1      -7.198 -18.100  20.659  1.00  0.00     0.123 C 
HETATM   29  C18 UNL     1      -6.101 -19.106  20.915  1.00  0.00     0.048 C 
ENDBRANCH  17  20
ENDBRANCH  11  13
ENDBRANCH  10  11
ENDBRANCH   9  10
TORSDOF 4
ENDMDL
