MODEL 1
REMARK VINA RESULT: -9.628155600      0.000      0.000
REMARK  5 active torsions:
REMARK  status: ('A' for Active; 'I' for Inactive)
REMARK    1  A    between atoms: C2_2  and  C3_3 
REMARK    2  A    between atoms: C3_3  and  C4_4 
REMARK    3  A    between atoms: C4_4  and  C5_5 
REMARK    4  A    between atoms: C10_13  and  C11_14 
REMARK    5  A    between atoms: C13_16  and  N1_17 
ROOT
HETATM    1  C11 UNL     1      -0.141 -11.803 -23.580  1.00  0.00     0.039 A 
HETATM    2  C12 UNL     1      -0.843 -11.611 -22.407  1.00  0.00     0.072 A 
HETATM    3  C13 UNL     1      -1.110 -12.824 -21.851  1.00  0.00     0.175 A 
HETATM    4  N2  UNL     1      -0.581 -13.750 -22.673  1.00  0.00    -0.328 N 
ATOM      5  H2  UNL     1      -0.622 -14.758 -22.518  1.00  0.00     0.168 HD
HETATM    6  C14 UNL     1       0.011 -13.159 -23.725  1.00  0.00     0.128 A 
HETATM    7  C15 UNL     1       0.681 -13.851 -24.804  1.00  0.00     0.118 C 
HETATM    8  N3  UNL     1       1.237 -14.399 -25.669  1.00  0.00    -0.190 NA
ENDROOT
BRANCH   1   9
HETATM    9  C10 UNL     1       0.363 -10.823 -24.520  1.00  0.00     0.094 A 
HETATM   10  O3  UNL     1       1.575 -10.880 -25.005  1.00  0.00    -0.274 OA
HETATM   11  C9  UNL     1       2.081 -10.022 -25.855  1.00  0.00     0.304 A 
HETATM   12  C8  UNL     1       1.337  -8.931 -26.332  1.00  0.00     0.107 A 
HETATM   13  O2  UNL     1       3.262 -10.180 -26.253  1.00  0.00    -0.259 OA
HETATM   14  C7  UNL     1       1.888  -8.042 -27.224  1.00  0.00     0.190 A 
HETATM   15  C17 UNL     1       0.053  -8.843 -25.837  1.00  0.00     0.028 A 
HETATM   16  C6  UNL     1       1.280  -6.945 -27.765  1.00  0.00     0.070 A 
HETATM   17  O1  UNL     1       3.097  -8.299 -27.562  1.00  0.00    -0.287 OA
HETATM   18  C5  UNL     1      -0.009  -6.530 -27.507  1.00  0.00    -0.013 A 
HETATM   19  S1  UNL     1      -0.870  -7.508 -26.415  1.00  0.00    -0.094 SA
HETATM   20  C16 UNL     1      -0.424  -9.776 -24.945  1.00  0.00     0.058 A 
BRANCH  18  21
HETATM   21  C4  UNL     1      -0.613  -5.320 -28.133  1.00  0.00     0.046 C 
BRANCH  21  22
HETATM   22  C3  UNL     1      -1.884  -4.984 -27.365  1.00  0.00     0.005 C 
BRANCH  22  23
HETATM   23  C2  UNL     1      -1.680  -3.682 -26.656  1.00  0.00    -0.004 C 
HETATM   24  C1  UNL     1      -2.602  -3.680 -25.438  1.00  0.00     0.005 C 
ENDBRANCH  22  23
ENDBRANCH  21  22
ENDBRANCH  18  21
ENDBRANCH   1   9
BRANCH   3  25
HETATM   25  N1  UNL     1      -1.816 -13.063 -20.633  1.00  0.00    -0.098 N 
HETATM   26  O4  UNL     1      -1.285 -13.757 -19.746  1.00  0.00    -0.531 OA
HETATM   27  O5  UNL     1      -3.063 -12.529 -20.454  1.00  0.00    -0.531 OA
ENDBRANCH   3  25
TORSDOF 5
ENDMDL
MODEL 2
REMARK VINA RESULT: -9.439288506      0.847      1.128
REMARK  5 active torsions:
REMARK  status: ('A' for Active; 'I' for Inactive)
REMARK    1  A    between atoms: C2_2  and  C3_3 
REMARK    2  A    between atoms: C3_3  and  C4_4 
REMARK    3  A    between atoms: C4_4  and  C5_5 
REMARK    4  A    between atoms: C10_13  and  C11_14 
REMARK    5  A    between atoms: C13_16  and  N1_17 
ROOT
HETATM    1  C11 UNL     1      -0.773 -12.265 -23.177  1.00  0.00     0.039 A 
HETATM    2  C12 UNL     1      -1.383 -12.088 -21.952  1.00  0.00     0.072 A 
HETATM    3  C13 UNL     1      -1.727 -13.306 -21.451  1.00  0.00     0.175 A 
HETATM    4  N2  UNL     1      -1.335 -14.220 -22.358  1.00  0.00    -0.328 N 
ATOM      5  H2  UNL     1      -1.460 -15.228 -22.261  1.00  0.00     0.168 HD
HETATM    6  C14 UNL     1      -0.755 -13.617 -23.411  1.00  0.00     0.128 A 
HETATM    7  C15 UNL     1      -0.216 -14.295 -24.569  1.00  0.00     0.118 C 
HETATM    8  N3  UNL     1       0.235 -14.833 -25.499  1.00  0.00    -0.190 NA
ENDROOT
BRANCH   1   9
HETATM    9  C10 UNL     1      -0.238 -11.275 -24.088  1.00  0.00     0.094 A 
HETATM   10  O3  UNL     1       0.969 -11.361 -24.583  1.00  0.00    -0.274 OA
HETATM   11  C9  UNL     1       1.502 -10.495 -25.408  1.00  0.00     0.304 A 
HETATM   12  C8  UNL     1       0.797  -9.364 -25.846  1.00  0.00     0.107 A 
HETATM   13  O2  UNL     1       2.674 -10.685 -25.818  1.00  0.00    -0.259 OA
HETATM   14  C7  UNL     1       1.375  -8.468 -26.713  1.00  0.00     0.190 A 
HETATM   15  C17 UNL     1      -0.481  -9.244 -25.341  1.00  0.00     0.028 A 
HETATM   16  C6  UNL     1       0.806  -7.332 -27.215  1.00  0.00     0.070 A 
HETATM   17  O1  UNL     1       2.572  -8.758 -27.066  1.00  0.00    -0.287 OA
HETATM   18  C5  UNL     1      -0.466  -6.879 -26.937  1.00  0.00    -0.013 A 
HETATM   19  S1  UNL     1      -1.357  -7.859 -25.870  1.00  0.00    -0.094 SA
HETATM   20  C16 UNL     1      -0.988 -10.186 -24.476  1.00  0.00     0.058 A 
BRANCH  18  21
HETATM   21  C4  UNL     1      -1.028  -5.627 -27.520  1.00  0.00     0.046 C 
BRANCH  21  22
HETATM   22  C3  UNL     1      -2.429  -5.439 -26.955  1.00  0.00     0.005 C 
BRANCH  22  23
HETATM   23  C2  UNL     1      -2.430  -4.222 -26.085  1.00  0.00    -0.004 C 
HETATM   24  C1  UNL     1      -1.318  -3.304 -26.588  1.00  0.00     0.005 C 
ENDBRANCH  22  23
ENDBRANCH  21  22
ENDBRANCH  18  21
ENDBRANCH   1   9
BRANCH   3  25
HETATM   25  N1  UNL     1      -2.379 -13.559 -20.206  1.00  0.00    -0.098 N 
HETATM   26  O4  UNL     1      -3.557 -13.190 -20.048  1.00  0.00    -0.531 OA
HETATM   27  O5  UNL     1      -1.704 -14.203 -19.205  1.00  0.00    -0.531 OA
ENDBRANCH   3  25
TORSDOF 5
ENDMDL
MODEL 3
REMARK VINA RESULT: -9.051394546      1.547      1.968
REMARK  5 active torsions:
REMARK  status: ('A' for Active; 'I' for Inactive)
REMARK    1  A    between atoms: C2_2  and  C3_3 
REMARK    2  A    between atoms: C3_3  and  C4_4 
REMARK    3  A    between atoms: C4_4  and  C5_5 
REMARK    4  A    between atoms: C10_13  and  C11_14 
REMARK    5  A    between atoms: C13_16  and  N1_17 
ROOT
HETATM    1  C11 UNL     1      -1.328 -12.994 -22.556  1.00  0.00     0.039 A 
HETATM    2  C12 UNL     1      -1.892 -12.908 -21.300  1.00  0.00     0.072 A 
HETATM    3  C13 UNL     1      -2.333 -14.141 -20.930  1.00  0.00     0.175 A 
HETATM    4  N2  UNL     1      -2.045 -14.975 -21.948  1.00  0.00    -0.328 N 
ATOM      5  H2  UNL     1      -2.258 -15.972 -21.962  1.00  0.00     0.168 HD
HETATM    6  C14 UNL     1      -1.437 -14.306 -22.943  1.00  0.00     0.128 A 
HETATM    7  C15 UNL     1      -0.987 -14.888 -24.188  1.00  0.00     0.118 C 
HETATM    8  N3  UNL     1      -0.607 -15.352 -25.188  1.00  0.00    -0.190 NA
ENDROOT
BRANCH   1   9
HETATM    9  C10 UNL     1      -0.726 -11.955 -23.366  1.00  0.00     0.094 A 
HETATM   10  O3  UNL     1       0.393 -12.137 -24.016  1.00  0.00    -0.274 OA
HETATM   11  C9  UNL     1       0.980 -11.233 -24.761  1.00  0.00     0.304 A 
HETATM   12  C8  UNL     1       0.437  -9.950 -24.927  1.00  0.00     0.107 A 
HETATM   13  O2  UNL     1       2.056 -11.525 -25.340  1.00  0.00    -0.259 OA
HETATM   14  C7  UNL     1       1.070  -9.016 -25.713  1.00  0.00     0.190 A 
HETATM   15  C17 UNL     1      -0.744  -9.726 -24.252  1.00  0.00     0.028 A 
HETATM   16  C6  UNL     1       0.655  -7.738 -25.959  1.00  0.00     0.070 A 
HETATM   17  O1  UNL     1       2.158  -9.419 -26.255  1.00  0.00    -0.287 OA
HETATM   18  C5  UNL     1      -0.487  -7.152 -25.455  1.00  0.00    -0.013 A 
HETATM   19  S1  UNL     1      -1.420  -8.154 -24.447  1.00  0.00    -0.094 SA
HETATM   20  C16 UNL     1      -1.314 -10.715 -23.483  1.00  0.00     0.058 A 
BRANCH  18  21
HETATM   21  C4  UNL     1      -0.883  -5.749 -25.764  1.00  0.00     0.046 C 
BRANCH  21  22
HETATM   22  C3  UNL     1      -1.073  -5.639 -27.270  1.00  0.00     0.005 C 
BRANCH  22  23
HETATM   23  C2  UNL     1      -1.736  -4.332 -27.571  1.00  0.00    -0.004 C 
HETATM   24  C1  UNL     1      -1.759  -3.526 -26.273  1.00  0.00     0.005 C 
ENDBRANCH  22  23
ENDBRANCH  21  22
ENDBRANCH  18  21
ENDBRANCH   1   9
BRANCH   3  25
HETATM   25  N1  UNL     1      -2.977 -14.480 -19.702  1.00  0.00    -0.098 N 
HETATM   26  O4  UNL     1      -2.682 -15.548 -19.133  1.00  0.00    -0.531 OA
HETATM   27  O5  UNL     1      -3.908 -13.633 -19.165  1.00  0.00    -0.531 OA
ENDBRANCH   3  25
TORSDOF 5
ENDMDL
MODEL 4
REMARK VINA RESULT: -9.039384346      3.381      5.420
REMARK  5 active torsions:
REMARK  status: ('A' for Active; 'I' for Inactive)
REMARK    1  A    between atoms: C2_2  and  C3_3 
REMARK    2  A    between atoms: C3_3  and  C4_4 
REMARK    3  A    between atoms: C4_4  and  C5_5 
REMARK    4  A    between atoms: C10_13  and  C11_14 
REMARK    5  A    between atoms: C13_16  and  N1_17 
ROOT
HETATM    1  C11 UNL     1      -1.162  -8.821 -24.389  1.00  0.00     0.039 A 
HETATM    2  C12 UNL     1      -0.842  -9.824 -23.497  1.00  0.00     0.072 A 
HETATM    3  C13 UNL     1      -1.889 -10.008 -22.647  1.00  0.00     0.175 A 
HETATM    4  N2  UNL     1      -2.840  -9.128 -23.012  1.00  0.00    -0.328 N 
ATOM      5  H2  UNL     1      -3.747  -9.028 -22.555  1.00  0.00     0.168 HD
HETATM    6  C14 UNL     1      -2.426  -8.398 -24.062  1.00  0.00     0.128 A 
HETATM    7  C15 UNL     1      -3.194  -7.360 -24.713  1.00  0.00     0.118 C 
HETATM    8  N3  UNL     1      -3.811  -6.532 -25.254  1.00  0.00    -0.190 NA
ENDROOT
BRANCH   1   9
HETATM    9  C10 UNL     1      -0.376  -8.270 -25.473  1.00  0.00     0.094 A 
HETATM   10  O3  UNL     1      -0.631  -7.101 -25.998  1.00  0.00    -0.274 OA
HETATM   11  C9  UNL     1       0.046  -6.558 -26.979  1.00  0.00     0.304 A 
HETATM   12  C8  UNL     1       1.140  -7.209 -27.568  1.00  0.00     0.107 A 
HETATM   13  O2  UNL     1      -0.294  -5.424 -27.401  1.00  0.00    -0.259 OA
HETATM   14  C7  UNL     1       1.837  -6.621 -28.596  1.00  0.00     0.190 A 
HETATM   15  C17 UNL     1       1.435  -8.447 -27.036  1.00  0.00     0.028 A 
HETATM   16  C6  UNL     1       2.915  -7.141 -29.256  1.00  0.00     0.070 A 
HETATM   17  O1  UNL     1       1.406  -5.467 -28.947  1.00  0.00    -0.287 OA
HETATM   18  C5  UNL     1       3.500  -8.363 -29.004  1.00  0.00    -0.013 A 
HETATM   19  S1  UNL     1       2.776  -9.257 -27.752  1.00  0.00    -0.094 SA
HETATM   20  C16 UNL     1       0.687  -8.967 -26.005  1.00  0.00     0.058 A 
BRANCH  18  21
HETATM   21  C4  UNL     1       4.678  -8.872 -29.763  1.00  0.00     0.046 C 
BRANCH  21  22
HETATM   22  C3  UNL     1       4.760 -10.376 -29.541  1.00  0.00     0.005 C 
BRANCH  22  23
HETATM   23  C2  UNL     1       6.167 -10.724 -29.170  1.00  0.00    -0.004 C 
HETATM   24  C1  UNL     1       6.191 -10.970 -27.662  1.00  0.00     0.005 C 
ENDBRANCH  22  23
ENDBRANCH  21  22
ENDBRANCH  18  21
ENDBRANCH   1   9
BRANCH   3  25
HETATM   25  N1  UNL     1      -1.960 -10.952 -21.578  1.00  0.00    -0.098 N 
HETATM   26  O4  UNL     1      -0.970 -11.663 -21.326  1.00  0.00    -0.531 OA
HETATM   27  O5  UNL     1      -3.110 -11.064 -20.846  1.00  0.00    -0.531 OA
ENDBRANCH   3  25
TORSDOF 5
ENDMDL
MODEL 5
REMARK VINA RESULT: -9.034839406      1.559      2.367
REMARK  5 active torsions:
REMARK  status: ('A' for Active; 'I' for Inactive)
REMARK    1  A    between atoms: C2_2  and  C3_3 
REMARK    2  A    between atoms: C3_3  and  C4_4 
REMARK    3  A    between atoms: C4_4  and  C5_5 
REMARK    4  A    between atoms: C10_13  and  C11_14 
REMARK    5  A    between atoms: C13_16  and  N1_17 
ROOT
HETATM    1  C11 UNL     1       0.054 -11.967 -24.157  1.00  0.00     0.039 A 
HETATM    2  C12 UNL     1       0.130 -13.322 -24.406  1.00  0.00     0.072 A 
HETATM    3  C13 UNL     1      -0.431 -13.993 -23.363  1.00  0.00     0.175 A 
HETATM    4  N2  UNL     1      -0.845 -13.060 -22.484  1.00  0.00    -0.328 N 
ATOM      5  H2  UNL     1      -1.307 -13.261 -21.597  1.00  0.00     0.168 HD
HETATM    6  C14 UNL     1      -0.564 -11.828 -22.941  1.00  0.00     0.128 A 
HETATM    7  C15 UNL     1      -0.870 -10.592 -22.254  1.00  0.00     0.118 C 
HETATM    8  N3  UNL     1      -1.126  -9.591 -21.715  1.00  0.00    -0.190 NA
ENDROOT
BRANCH   1   9
HETATM    9  C10 UNL     1       0.513 -10.857 -24.968  1.00  0.00     0.094 A 
HETATM   10  O3  UNL     1       1.749 -10.760 -25.383  1.00  0.00    -0.274 OA
HETATM   11  C9  UNL     1       2.216  -9.780 -26.116  1.00  0.00     0.304 A 
HETATM   12  C8  UNL     1       1.400  -8.716 -26.530  1.00  0.00     0.107 A 
HETATM   13  O2  UNL     1       3.425  -9.795 -26.457  1.00  0.00    -0.259 OA
HETATM   14  C7  UNL     1       1.911  -7.697 -27.299  1.00  0.00     0.190 A 
HETATM   15  C17 UNL     1       0.090  -8.790 -26.107  1.00  0.00     0.028 A 
HETATM   16  C6  UNL     1       1.233  -6.608 -27.768  1.00  0.00     0.070 A 
HETATM   17  O1  UNL     1       3.153  -7.813 -27.587  1.00  0.00    -0.287 OA
HETATM   18  C5  UNL     1      -0.101  -6.335 -27.549  1.00  0.00    -0.013 A 
HETATM   19  S1  UNL     1      -0.922  -7.488 -26.608  1.00  0.00    -0.094 SA
HETATM   20  C16 UNL     1      -0.344  -9.844 -25.337  1.00  0.00     0.058 A 
BRANCH  18  21
HETATM   21  C4  UNL     1      -0.781  -5.125 -28.091  1.00  0.00     0.046 C 
BRANCH  21  22
HETATM   22  C3  UNL     1      -2.075  -4.930 -27.313  1.00  0.00     0.005 C 
BRANCH  22  23
HETATM   23  C2  UNL     1      -1.890  -3.788 -26.364  1.00  0.00    -0.004 C 
HETATM   24  C1  UNL     1      -2.877  -3.988 -25.215  1.00  0.00     0.005 C 
ENDBRANCH  22  23
ENDBRANCH  21  22
ENDBRANCH  18  21
ENDBRANCH   1   9
BRANCH   3  25
HETATM   25  N1  UNL     1      -0.553 -15.409 -23.231  1.00  0.00    -0.098 N 
HETATM   26  O4  UNL     1      -1.500 -15.994 -23.788  1.00  0.00    -0.531 OA
HETATM   27  O5  UNL     1       0.368 -16.105 -22.495  1.00  0.00    -0.531 OA
ENDBRANCH   3  25
TORSDOF 5
ENDMDL
