MODEL 1
REMARK VINA RESULT: -10.004799144      0.000      0.000
REMARK  5 active torsions:
REMARK  status: ('A' for Active; 'I' for Inactive)
REMARK    1  A    between atoms: C1_2  and  C2_4 
REMARK    2  A    between atoms: C3_5  and  C4_6 
REMARK    3  A    between atoms: C12_21  and  C13_22 
REMARK    4  A    between atoms: C16_25  and  C17_26 
REMARK    5  A    between atoms: N4_27  and  O4_29 
ROOT
HETATM    1  C2  UNL     1      10.974   9.433 -10.342  1.00  0.00     0.079 A 
HETATM    2  C3  UNL     1      10.111  10.472 -10.420  1.00  0.00     0.104 A 
HETATM    3  O2  UNL     1      10.472  11.199 -11.468  1.00  0.00    -0.290 OA
HETATM    4  C10 UNL     1      11.493  10.731 -12.086  1.00  0.00     0.175 A 
HETATM    5  N2  UNL     1      12.152  11.177 -13.173  1.00  0.00    -0.276 N 
ATOM      6  H2  UNL     1      11.842  12.026 -13.647  1.00  0.00     0.189 HD
HETATM    7  N3  UNL     1      13.195  10.515 -13.623  1.00  0.00    -0.264 N 
ATOM      8  H3  UNL     1      13.687  10.860 -14.447  1.00  0.00     0.190 HD
HETATM    9  C11 UNL     1      13.622   9.409 -13.029  1.00  0.00     0.272 A 
HETATM   10  O3  UNL     1      14.634   8.756 -13.451  1.00  0.00    -0.266 OA
HETATM   11  C12 UNL     1      12.956   8.915 -11.891  1.00  0.00     0.059 A 
HETATM   12  C20 UNL     1      11.880   9.571 -11.404  1.00  0.00     0.051 A 
ENDROOT
BRANCH  11  13
HETATM   13  C13 UNL     1      13.488   7.722 -11.259  1.00  0.00    -0.019 A 
HETATM   14  C14 UNL     1      14.218   7.776 -10.110  1.00  0.00     0.013 A 
HETATM   15  C15 UNL     1      14.762   6.622  -9.598  1.00  0.00     0.014 A 
HETATM   16  C16 UNL     1      14.597   5.396 -10.208  1.00  0.00    -0.019 A 
HETATM   17  C18 UNL     1      13.863   5.334 -11.366  1.00  0.00     0.014 A 
HETATM   18  C19 UNL     1      13.304   6.507 -11.897  1.00  0.00     0.013 A 
BRANCH  16  19
HETATM   19  C17 UNL     1      15.195   4.188  -9.605  1.00  0.00     0.125 C 
HETATM   20  N4  UNL     1      14.911   3.869  -8.403  1.00  0.00    -0.280 N 
ATOM     21  H4  UNL     1      14.268   4.464  -7.881  1.00  0.00     0.193 HD
BRANCH  20  22
HETATM   22  O4  UNL     1      15.423   2.779  -7.792  1.00  0.00    -0.290 OA
ATOM     23  H4  UNL     1      15.038   1.915  -7.871  1.00  0.00     0.244 HD
ENDBRANCH  20  22
ENDBRANCH  16  19
ENDBRANCH  11  13
BRANCH   1  24
HETATM   24  C1  UNL     1      11.039   8.414  -9.319  1.00  0.00     0.268 C 
HETATM   25  N1  UNL     1      11.388   8.619  -7.960  1.00  0.00    -0.057 NA
HETATM   26  O1  UNL     1      10.773   7.178  -9.613  1.00  0.00    -0.271 OA
ENDBRANCH   1  24
BRANCH   2  27
HETATM   27  C4  UNL     1       8.984  10.841  -9.594  1.00  0.00    -0.001 A 
HETATM   28  C5  UNL     1       8.731  12.219  -9.380  1.00  0.00     0.017 A 
HETATM   29  C6  UNL     1       7.699  12.717  -8.655  1.00  0.00     0.043 A 
HETATM   30  C7  UNL     1       6.834  11.799  -8.088  1.00  0.00     0.116 A 
HETATM   31  F1  UNL     1       5.801  12.290  -7.362  1.00  0.00    -0.206 F 
HETATM   32  C8  UNL     1       7.045  10.462  -8.272  1.00  0.00     0.043 A 
HETATM   33  C9  UNL     1       8.110   9.968  -9.020  1.00  0.00     0.017 A 
ENDBRANCH   2  27
TORSDOF 5
ENDMDL
MODEL 2
REMARK VINA RESULT: -9.861794026      1.084      1.215
REMARK  5 active torsions:
REMARK  status: ('A' for Active; 'I' for Inactive)
REMARK    1  A    between atoms: C1_2  and  C2_4 
REMARK    2  A    between atoms: C3_5  and  C4_6 
REMARK    3  A    between atoms: C12_21  and  C13_22 
REMARK    4  A    between atoms: C16_25  and  C17_26 
REMARK    5  A    between atoms: N4_27  and  O4_29 
ROOT
HETATM    1  C2  UNL     1      11.653   9.477 -11.043  1.00  0.00     0.079 A 
HETATM    2  C3  UNL     1      10.869  10.560 -11.252  1.00  0.00     0.104 A 
HETATM    3  O2  UNL     1      11.225  11.078 -12.419  1.00  0.00    -0.290 OA
HETATM    4  C10 UNL     1      12.170  10.433 -12.996  1.00  0.00     0.175 A 
HETATM    5  N2  UNL     1      12.799  10.641 -14.170  1.00  0.00    -0.276 N 
ATOM      6  H2  UNL     1      12.529  11.428 -14.761  1.00  0.00     0.189 HD
HETATM    7  N3  UNL     1      13.760   9.830 -14.551  1.00  0.00    -0.264 N 
ATOM      8  H3  UNL     1      14.230   9.996 -15.441  1.00  0.00     0.190 HD
HETATM    9  C11 UNL     1      14.134   8.801 -13.803  1.00  0.00     0.272 A 
HETATM   10  O3  UNL     1      15.067   8.005 -14.156  1.00  0.00    -0.266 OA
HETATM   11  C12 UNL     1      13.497   8.552 -12.571  1.00  0.00     0.059 A 
HETATM   12  C20 UNL     1      12.505   9.366 -12.152  1.00  0.00     0.051 A 
ENDROOT
BRANCH  11  13
HETATM   13  C13 UNL     1      13.971   7.434 -11.777  1.00  0.00    -0.019 A 
HETATM   14  C14 UNL     1      14.954   7.574 -10.846  1.00  0.00     0.013 A 
HETATM   15  C15 UNL     1      15.417   6.465 -10.176  1.00  0.00     0.014 A 
HETATM   16  C16 UNL     1      14.919   5.200 -10.414  1.00  0.00    -0.019 A 
HETATM   17  C18 UNL     1      13.929   5.053 -11.353  1.00  0.00     0.014 A 
HETATM   18  C19 UNL     1      13.450   6.178 -12.041  1.00  0.00     0.013 A 
BRANCH  16  19
HETATM   19  C17 UNL     1      15.447   4.048  -9.657  1.00  0.00     0.125 C 
HETATM   20  N4  UNL     1      15.007   3.801  -8.485  1.00  0.00    -0.280 N 
ATOM     21  H4  UNL     1      14.291   4.414  -8.095  1.00  0.00     0.193 HD
BRANCH  20  22
HETATM   22  O4  UNL     1      15.447   2.765  -7.739  1.00  0.00    -0.290 OA
ATOM     23  H4  UNL     1      15.631   1.909  -8.105  1.00  0.00     0.244 HD
ENDBRANCH  20  22
ENDBRANCH  16  19
ENDBRANCH  11  13
BRANCH   1  24
HETATM   24  C1  UNL     1      11.697   8.632  -9.872  1.00  0.00     0.268 C 
HETATM   25  N1  UNL     1      11.033   7.388  -9.718  1.00  0.00    -0.057 NA
HETATM   26  O1  UNL     1      12.381   8.995  -8.831  1.00  0.00    -0.271 OA
ENDBRANCH   1  24
BRANCH   2  27
HETATM   27  C4  UNL     1       9.822  11.151 -10.449  1.00  0.00    -0.001 A 
HETATM   28  C5  UNL     1       9.644  12.556 -10.507  1.00  0.00     0.017 A 
HETATM   29  C6  UNL     1       8.689  13.245  -9.835  1.00  0.00     0.043 A 
HETATM   30  C7  UNL     1       7.831  12.511  -9.037  1.00  0.00     0.116 A 
HETATM   31  F1  UNL     1       6.876  13.195  -8.363  1.00  0.00    -0.206 F 
HETATM   32  C8  UNL     1       7.972  11.155  -8.956  1.00  0.00     0.043 A 
HETATM   33  C9  UNL     1       8.958  10.462  -9.653  1.00  0.00     0.017 A 
ENDBRANCH   2  27
TORSDOF 5
ENDMDL
MODEL 3
REMARK VINA RESULT: -9.629018239      3.614      8.386
REMARK  5 active torsions:
REMARK  status: ('A' for Active; 'I' for Inactive)
REMARK    1  A    between atoms: C1_2  and  C2_4 
REMARK    2  A    between atoms: C3_5  and  C4_6 
REMARK    3  A    between atoms: C12_21  and  C13_22 
REMARK    4  A    between atoms: C16_25  and  C17_26 
REMARK    5  A    between atoms: N4_27  and  O4_29 
ROOT
HETATM    1  C2  UNL     1      10.594   9.486  -9.591  1.00  0.00     0.079 A 
HETATM    2  C3  UNL     1      11.745   8.907 -10.005  1.00  0.00     0.104 A 
HETATM    3  O2  UNL     1      12.133   8.082  -9.043  1.00  0.00    -0.290 OA
HETATM    4  C10 UNL     1      11.341   8.066  -8.035  1.00  0.00     0.175 A 
HETATM    5  N2  UNL     1      11.391   7.376  -6.879  1.00  0.00    -0.276 N 
ATOM      6  H2  UNL     1      12.160   6.728  -6.703  1.00  0.00     0.189 HD
HETATM    7  N3  UNL     1      10.447   7.537  -5.979  1.00  0.00    -0.264 N 
ATOM      8  H3  UNL     1      10.493   7.009  -5.108  1.00  0.00     0.190 HD
HETATM    9  C11 UNL     1       9.436   8.371  -6.178  1.00  0.00     0.272 A 
HETATM   10  O3  UNL     1       8.513   8.542  -5.315  1.00  0.00    -0.266 OA
HETATM   11  C12 UNL     1       9.352   9.109  -7.376  1.00  0.00     0.059 A 
HETATM   12  C20 UNL     1      10.306   8.965  -8.322  1.00  0.00     0.051 A 
ENDROOT
BRANCH  11  13
HETATM   13  C13 UNL     1       8.244  10.034  -7.525  1.00  0.00    -0.019 A 
HETATM   14  C14 UNL     1       7.098   9.691  -8.176  1.00  0.00     0.013 A 
HETATM   15  C15 UNL     1       6.112  10.632  -8.353  1.00  0.00     0.014 A 
HETATM   16  C16 UNL     1       6.239  11.928  -7.894  1.00  0.00    -0.019 A 
HETATM   17  C18 UNL     1       7.392  12.280  -7.239  1.00  0.00     0.014 A 
HETATM   18  C19 UNL     1       8.404  11.326  -7.052  1.00  0.00     0.013 A 
BRANCH  16  19
HETATM   19  C17 UNL     1       5.141  12.893  -8.105  1.00  0.00     0.125 C 
HETATM   20  N4  UNL     1       4.042  12.503  -8.624  1.00  0.00    -0.280 N 
ATOM     21  H4  UNL     1       3.947  11.522  -8.883  1.00  0.00     0.193 HD
BRANCH  20  22
HETATM   22  O4  UNL     1       3.000  13.334  -8.844  1.00  0.00    -0.290 OA
ATOM     23  H4  UNL     1       2.128  13.022  -9.053  1.00  0.00     0.244 HD
ENDBRANCH  20  22
ENDBRANCH  16  19
ENDBRANCH  11  13
BRANCH   1  24
HETATM   24  C1  UNL     1       9.835  10.518 -10.260  1.00  0.00     0.268 C 
HETATM   25  N1  UNL     1       8.783  10.307 -11.188  1.00  0.00    -0.057 NA
HETATM   26  O1  UNL     1      10.099  11.769 -10.039  1.00  0.00    -0.271 OA
ENDBRANCH   1  24
BRANCH   2  27
HETATM   27  C4  UNL     1      12.510   9.066 -11.221  1.00  0.00    -0.001 A 
HETATM   28  C5  UNL     1      13.476   8.079 -11.540  1.00  0.00     0.017 A 
HETATM   29  C6  UNL     1      14.246   8.078 -12.656  1.00  0.00     0.043 A 
HETATM   30  C7  UNL     1      14.066   9.124 -13.542  1.00  0.00     0.116 A 
HETATM   31  F1  UNL     1      14.832   9.129 -14.659  1.00  0.00    -0.206 F 
HETATM   32  C8  UNL     1      13.143  10.094 -13.269  1.00  0.00     0.043 A 
HETATM   33  C9  UNL     1      12.360  10.080 -12.118  1.00  0.00     0.017 A 
ENDBRANCH   2  27
TORSDOF 5
ENDMDL
MODEL 4
REMARK VINA RESULT: -9.355971082      4.335      6.793
REMARK  5 active torsions:
REMARK  status: ('A' for Active; 'I' for Inactive)
REMARK    1  A    between atoms: C1_2  and  C2_4 
REMARK    2  A    between atoms: C3_5  and  C4_6 
REMARK    3  A    between atoms: C12_21  and  C13_22 
REMARK    4  A    between atoms: C16_25  and  C17_26 
REMARK    5  A    between atoms: N4_27  and  O4_29 
ROOT
HETATM    1  C2  UNL     1      12.569   8.093  -9.243  1.00  0.00     0.079 A 
HETATM    2  C3  UNL     1      12.627   8.161 -10.593  1.00  0.00     0.104 A 
HETATM    3  O2  UNL     1      11.453   8.614 -11.011  1.00  0.00    -0.290 OA
HETATM    4  C10 UNL     1      10.630   8.850 -10.057  1.00  0.00     0.175 A 
HETATM    5  N2  UNL     1       9.362   9.307 -10.073  1.00  0.00    -0.276 N 
ATOM      6  H2  UNL     1       8.911   9.530 -10.960  1.00  0.00     0.189 HD
HETATM    7  N3  UNL     1       8.709   9.465  -8.943  1.00  0.00    -0.264 N 
ATOM      8  H3  UNL     1       7.750   9.811  -8.966  1.00  0.00     0.190 HD
HETATM    9  C11 UNL     1       9.269   9.182  -7.775  1.00  0.00     0.272 A 
HETATM   10  O3  UNL     1       8.648   9.327  -6.670  1.00  0.00    -0.266 OA
HETATM   11  C12 UNL     1      10.592   8.704  -7.722  1.00  0.00     0.059 A 
HETATM   12  C20 UNL     1      11.291   8.532  -8.864  1.00  0.00     0.051 A 
ENDROOT
BRANCH  11  13
HETATM   13  C13 UNL     1      11.142   8.376  -6.419  1.00  0.00    -0.019 A 
HETATM   14  C14 UNL     1      11.830   9.285  -5.675  1.00  0.00     0.013 A 
HETATM   15  C15 UNL     1      12.394   8.898  -4.482  1.00  0.00     0.014 A 
HETATM   16  C16 UNL     1      12.289   7.608  -4.003  1.00  0.00    -0.019 A 
HETATM   17  C18 UNL     1      11.598   6.687  -4.749  1.00  0.00     0.014 A 
HETATM   18  C19 UNL     1      11.019   7.073  -5.967  1.00  0.00     0.013 A 
BRANCH  16  19
HETATM   19  C17 UNL     1      12.906   7.252  -2.709  1.00  0.00     0.125 C 
HETATM   20  N4  UNL     1      13.829   6.371  -2.666  1.00  0.00    -0.280 N 
ATOM     21  H4  UNL     1      14.122   5.930  -3.537  1.00  0.00     0.193 HD
BRANCH  20  22
HETATM   22  O4  UNL     1      14.434   5.999  -1.517  1.00  0.00    -0.290 OA
ATOM     23  H4  UNL     1      15.015   6.572  -1.032  1.00  0.00     0.244 HD
ENDBRANCH  20  22
ENDBRANCH  16  19
ENDBRANCH  11  13
BRANCH   1  24
HETATM   24  C1  UNL     1      13.575   7.582  -8.340  1.00  0.00     0.268 C 
HETATM   25  N1  UNL     1      13.772   6.219  -7.998  1.00  0.00    -0.057 NA
HETATM   26  O1  UNL     1      14.396   8.396  -7.751  1.00  0.00    -0.271 OA
ENDBRANCH   1  24
BRANCH   2  27
HETATM   27  C4  UNL     1      13.686   7.832 -11.521  1.00  0.00    -0.001 A 
HETATM   28  C5  UNL     1      14.125   8.836 -12.421  1.00  0.00     0.017 A 
HETATM   29  C6  UNL     1      15.124   8.685 -13.325  1.00  0.00     0.043 A 
HETATM   30  C7  UNL     1      15.755   7.455 -13.361  1.00  0.00     0.116 A 
HETATM   31  F1  UNL     1      16.754   7.299 -14.262  1.00  0.00    -0.206 F 
HETATM   32  C8  UNL     1      15.360   6.464 -12.508  1.00  0.00     0.043 A 
HETATM   33  C9  UNL     1      14.332   6.635 -11.585  1.00  0.00     0.017 A 
ENDBRANCH   2  27
TORSDOF 5
ENDMDL
MODEL 5
REMARK VINA RESULT: -9.308434839      4.313      6.856
REMARK  5 active torsions:
REMARK  status: ('A' for Active; 'I' for Inactive)
REMARK    1  A    between atoms: C1_2  and  C2_4 
REMARK    2  A    between atoms: C3_5  and  C4_6 
REMARK    3  A    between atoms: C12_21  and  C13_22 
REMARK    4  A    between atoms: C16_25  and  C17_26 
REMARK    5  A    between atoms: N4_27  and  O4_29 
ROOT
HETATM    1  C2  UNL     1      12.585   8.236  -9.430  1.00  0.00     0.079 A 
HETATM    2  C3  UNL     1      12.619   8.399 -10.773  1.00  0.00     0.104 A 
HETATM    3  O2  UNL     1      11.420   8.827 -11.142  1.00  0.00    -0.290 OA
HETATM    4  C10 UNL     1      10.603   8.960 -10.164  1.00  0.00     0.175 A 
HETATM    5  N2  UNL     1       9.316   9.360 -10.132  1.00  0.00    -0.276 N 
ATOM      6  H2  UNL     1       8.841   9.623 -10.995  1.00  0.00     0.189 HD
HETATM    7  N3  UNL     1       8.675   9.410  -8.985  1.00  0.00    -0.264 N 
ATOM      8  H3  UNL     1       7.702   9.715  -8.971  1.00  0.00     0.190 HD
HETATM    9  C11 UNL     1       9.265   9.074  -7.846  1.00  0.00     0.272 A 
HETATM   10  O3  UNL     1       8.657   9.114  -6.726  1.00  0.00    -0.266 OA
HETATM   11  C12 UNL     1      10.609   8.652  -7.844  1.00  0.00     0.059 A 
HETATM   12  C20 UNL     1      11.296   8.591  -9.005  1.00  0.00     0.051 A 
ENDROOT
BRANCH  11  13
HETATM   13  C13 UNL     1      11.193   8.260  -6.574  1.00  0.00    -0.019 A 
HETATM   14  C14 UNL     1      11.159   6.974  -6.129  1.00  0.00     0.013 A 
HETATM   15  C15 UNL     1      11.661   6.674  -4.885  1.00  0.00     0.014 A 
HETATM   16  C16 UNL     1      12.205   7.636  -4.058  1.00  0.00    -0.019 A 
HETATM   17  C18 UNL     1      12.241   8.934  -4.501  1.00  0.00     0.014 A 
HETATM   18  C19 UNL     1      11.732   9.250  -5.770  1.00  0.00     0.013 A 
BRANCH  16  19
HETATM   19  C17 UNL     1      12.738   7.253  -2.735  1.00  0.00     0.125 C 
HETATM   20  N4  UNL     1      13.686   6.402  -2.655  1.00  0.00    -0.280 N 
ATOM     21  H4  UNL     1      14.057   6.003  -3.516  1.00  0.00     0.193 HD
BRANCH  20  22
HETATM   22  O4  UNL     1      14.219   6.008  -1.478  1.00  0.00    -0.290 OA
ATOM     23  H4  UNL     1      15.154   6.001  -1.313  1.00  0.00     0.244 HD
ENDBRANCH  20  22
ENDBRANCH  16  19
ENDBRANCH  11  13
BRANCH   1  24
HETATM   24  C1  UNL     1      13.628   7.709  -8.578  1.00  0.00     0.268 C 
HETATM   25  N1  UNL     1      13.903   6.336  -8.351  1.00  0.00    -0.057 NA
HETATM   26  O1  UNL     1      14.408   8.517  -7.927  1.00  0.00    -0.271 OA
ENDBRANCH   1  24
BRANCH   2  27
HETATM   27  C4  UNL     1      13.676   8.182 -11.734  1.00  0.00    -0.001 A 
HETATM   28  C5  UNL     1      14.261   6.893 -11.810  1.00  0.00     0.017 A 
HETATM   29  C6  UNL     1      15.237   6.533 -12.678  1.00  0.00     0.043 A 
HETATM   30  C7  UNL     1      15.688   7.506 -13.551  1.00  0.00     0.116 A 
HETATM   31  F1  UNL     1      16.664   7.152 -14.421  1.00  0.00    -0.206 F 
HETATM   32  C8  UNL     1      15.148   8.760 -13.509  1.00  0.00     0.043 A 
HETATM   33  C9  UNL     1      14.145   9.113 -12.611  1.00  0.00     0.017 A 
ENDBRANCH   2  27
TORSDOF 5
ENDMDL
