MODEL 1
REMARK VINA RESULT: -8.434726170      0.000      0.000
REMARK  8 active torsions:
REMARK  status: ('A' for Active; 'I' for Inactive)
REMARK    1  A    between atoms: C2_2  and  C3_3 
REMARK    2  A    between atoms: C4_4  and  N1_5 
REMARK    3  A    between atoms: N1_5  and  C5_7 
REMARK    4  A    between atoms: C5_7  and  C6_12 
REMARK    5  A    between atoms: N2_8  and  O1_10 
REMARK    6  A    between atoms: C8_15  and  C9_16 
REMARK    7  A    between atoms: C13_22  and  O2_23 
REMARK    8  A    between atoms: O2_23  and  C14_24 
REMARK       I    between atoms: C14_24  and  N4_26 
ROOT
HETATM    1  N1  UNL     1      13.016   7.779  -9.468  1.00  0.00    -0.365 N 
ATOM      2  H1  UNL     1      13.679   8.346  -8.938  1.00  0.00     0.161 HD
ENDROOT
BRANCH   1   3
HETATM    3  C4  UNL     1      13.446   7.223 -10.716  1.00  0.00     0.123 C 
HETATM    4  C3  UNL     1      14.297   8.244 -11.534  1.00  0.00     0.053 C 
HETATM    5  C16 UNL     1      14.829   6.976 -12.204  1.00  0.00     0.134 C 
HETATM    6  C13 UNL     1      14.712   6.415 -10.738  1.00  0.00     0.196 C 
HETATM    7  C17 UNL     1      16.251   7.009 -12.643  1.00  0.00     0.055 C 
HETATM    8  F1  UNL     1      13.939   6.274 -12.953  1.00  0.00    -0.240 F 
BRANCH   4   9
HETATM    9  C2  UNL     1      13.558   9.171 -12.390  1.00  0.00     0.006 C 
HETATM   10  C1  UNL     1      14.073   9.424 -13.762  1.00  0.00     0.006 C 
ENDBRANCH   4   9
BRANCH   6  11
HETATM   11  O2  UNL     1      14.641   5.020 -10.750  1.00  0.00    -0.293 OA
BRANCH  11  12
HETATM   12  C14 UNL     1      15.084   4.287  -9.628  1.00  0.00     0.360 C 
HETATM   13  O3  UNL     1      16.320   4.125  -9.516  1.00  0.00    -0.239 OA
HETATM   14  N4  UNL     1      14.235   3.738  -8.655  1.00  0.00    -0.341 N 
HETATM   15  C15 UNL     1      14.773   2.987  -7.541  1.00  0.00     0.151 C 
ATOM     16  H4  UNL     1      13.227   3.869  -8.734  1.00  0.00     0.164 HD
ENDBRANCH  11  12
ENDBRANCH   6  11
ENDBRANCH   1   3
BRANCH   1  17
HETATM   17  C5  UNL     1      11.746   7.586  -8.938  1.00  0.00     0.149 C 
HETATM   18  N2  UNL     1      11.450   6.617  -8.137  1.00  0.00    -0.251 N 
ATOM     19  H2  UNL     1      10.499   6.530  -7.781  1.00  0.00     0.196 HD
BRANCH  18  20
HETATM   20  O1  UNL     1      12.402   5.706  -7.761  1.00  0.00    -0.288 OA
ATOM     21  H1  UNL     1      13.165   5.549  -8.304  1.00  0.00     0.244 HD
ENDBRANCH  18  20
BRANCH  17  22
HETATM   22  C6  UNL     1      10.592   8.502  -9.180  1.00  0.00     0.085 A 
HETATM   23  C7  UNL     1      10.417   9.117 -10.387  1.00  0.00     0.085 A 
HETATM   24  S1  UNL     1       9.013  10.066 -10.075  1.00  0.00    -0.085 SA
HETATM   25  C8  UNL     1       8.761   9.612  -8.444  1.00  0.00     0.059 A 
HETATM   26  N3  UNL     1       9.748   8.769  -8.228  1.00  0.00    -0.350 N 
ATOM     27  H3  UNL     1       9.851   8.327  -7.316  1.00  0.00     0.166 HD
BRANCH  25  28
HETATM   28  C9  UNL     1       7.700  10.065  -7.473  1.00  0.00    -0.002 C 
HETATM   29  C10 UNL     1       7.455   9.005  -6.426  1.00  0.00     0.021 C 
HETATM   30  C11 UNL     1       6.440  10.298  -8.240  1.00  0.00     0.021 C 
HETATM   31  C12 UNL     1       8.234  11.308  -6.798  1.00  0.00     0.021 C 
ENDBRANCH  25  28
ENDBRANCH  17  22
ENDBRANCH   1  17
TORSDOF 8
ENDMDL
MODEL 2
REMARK VINA RESULT: -8.429590635      2.463      3.400
REMARK  8 active torsions:
REMARK  status: ('A' for Active; 'I' for Inactive)
REMARK    1  A    between atoms: C2_2  and  C3_3 
REMARK    2  A    between atoms: C4_4  and  N1_5 
REMARK    3  A    between atoms: N1_5  and  C5_7 
REMARK    4  A    between atoms: C5_7  and  C6_12 
REMARK    5  A    between atoms: N2_8  and  O1_10 
REMARK    6  A    between atoms: C8_15  and  C9_16 
REMARK    7  A    between atoms: C13_22  and  O2_23 
REMARK    8  A    between atoms: O2_23  and  C14_24 
REMARK       I    between atoms: C14_24  and  N4_26 
ROOT
HETATM    1  N1  UNL     1      13.199   9.970 -12.248  1.00  0.00    -0.365 N 
ATOM      2  H1  UNL     1      13.845  10.758 -12.190  1.00  0.00     0.161 HD
ENDROOT
BRANCH   1   3
HETATM    3  C4  UNL     1      13.730   8.683 -12.586  1.00  0.00     0.123 C 
HETATM    4  C3  UNL     1      15.213   8.782 -13.061  1.00  0.00     0.053 C 
HETATM    5  C16 UNL     1      15.247   7.311 -12.642  1.00  0.00     0.134 C 
HETATM    6  C13 UNL     1      14.318   7.845 -11.488  1.00  0.00     0.196 C 
HETATM    7  C17 UNL     1      16.536   6.812 -12.092  1.00  0.00     0.055 C 
HETATM    8  F1  UNL     1      14.487   6.460 -13.379  1.00  0.00    -0.240 F 
BRANCH   4   9
HETATM    9  C2  UNL     1      15.426   9.059 -14.480  1.00  0.00     0.006 C 
HETATM   10  C1  UNL     1      14.246   9.047 -15.385  1.00  0.00     0.006 C 
ENDBRANCH   4   9
BRANCH   6  11
HETATM   11  O2  UNL     1      13.570   6.802 -10.937  1.00  0.00    -0.293 OA
BRANCH  11  12
HETATM   12  C14 UNL     1      14.089   6.067  -9.850  1.00  0.00     0.360 C 
HETATM   13  O3  UNL     1      14.684   6.720  -8.963  1.00  0.00    -0.239 OA
HETATM   14  N4  UNL     1      13.982   4.674  -9.713  1.00  0.00    -0.341 N 
HETATM   15  C15 UNL     1      14.556   3.996  -8.571  1.00  0.00     0.151 C 
ATOM     16  H4  UNL     1      13.495   4.133 -10.426  1.00  0.00     0.164 HD
ENDBRANCH  11  12
ENDBRANCH   6  11
ENDBRANCH   1   3
BRANCH   1  17
HETATM   17  C5  UNL     1      11.852  10.204 -11.996  1.00  0.00     0.149 C 
HETATM   18  N2  UNL     1      11.071  10.817 -12.821  1.00  0.00    -0.251 N 
ATOM     19  H2  UNL     1      10.091  10.958 -12.579  1.00  0.00     0.196 HD
BRANCH  18  20
HETATM   20  O1  UNL     1      11.547  11.282 -14.020  1.00  0.00    -0.288 OA
ATOM     21  H1  UNL     1      11.425  12.190 -14.271  1.00  0.00     0.244 HD
ENDBRANCH  18  20
BRANCH  17  22
HETATM   22  C6  UNL     1      11.135   9.725 -10.777  1.00  0.00     0.085 A 
HETATM   23  C7  UNL     1       9.771   9.661 -10.738  1.00  0.00     0.085 A 
HETATM   24  S1  UNL     1       9.512   9.119  -9.124  1.00  0.00    -0.085 SA
HETATM   25  C8  UNL     1      11.147   9.018  -8.627  1.00  0.00     0.059 A 
HETATM   26  N3  UNL     1      11.795   9.397  -9.706  1.00  0.00    -0.350 N 
ATOM     27  H3  UNL     1      12.814   9.434  -9.704  1.00  0.00     0.166 HD
BRANCH  25  28
HETATM   28  C9  UNL     1      11.723   8.621  -7.291  1.00  0.00    -0.002 C 
HETATM   29  C10 UNL     1      11.793   7.117  -7.172  1.00  0.00     0.021 C 
HETATM   30  C11 UNL     1      10.827   9.157  -6.223  1.00  0.00     0.021 C 
HETATM   31  C12 UNL     1      13.125   9.184  -7.241  1.00  0.00     0.021 C 
ENDBRANCH  25  28
ENDBRANCH  17  22
ENDBRANCH   1  17
TORSDOF 8
ENDMDL
MODEL 3
REMARK VINA RESULT: -8.354514428      0.610      1.071
REMARK  8 active torsions:
REMARK  status: ('A' for Active; 'I' for Inactive)
REMARK    1  A    between atoms: C2_2  and  C3_3 
REMARK    2  A    between atoms: C4_4  and  N1_5 
REMARK    3  A    between atoms: N1_5  and  C5_7 
REMARK    4  A    between atoms: C5_7  and  C6_12 
REMARK    5  A    between atoms: N2_8  and  O1_10 
REMARK    6  A    between atoms: C8_15  and  C9_16 
REMARK    7  A    between atoms: C13_22  and  O2_23 
REMARK    8  A    between atoms: O2_23  and  C14_24 
REMARK       I    between atoms: C14_24  and  N4_26 
ROOT
HETATM    1  N1  UNL     1      12.725   8.110  -9.622  1.00  0.00    -0.365 N 
ATOM      2  H1  UNL     1      13.351   8.787  -9.185  1.00  0.00     0.161 HD
ENDROOT
BRANCH   1   3
HETATM    3  C4  UNL     1      13.224   7.335 -10.719  1.00  0.00     0.123 C 
HETATM    4  C3  UNL     1      14.312   8.113 -11.522  1.00  0.00     0.053 C 
HETATM    5  C16 UNL     1      14.733   6.706 -11.949  1.00  0.00     0.134 C 
HETATM    6  C13 UNL     1      14.349   6.375 -10.458  1.00  0.00     0.196 C 
HETATM    7  C17 UNL     1      16.188   6.494 -12.178  1.00  0.00     0.055 C 
HETATM    8  F1  UNL     1      13.852   6.027 -12.728  1.00  0.00    -0.240 F 
BRANCH   4   9
HETATM    9  C2  UNL     1      13.831   8.998 -12.582  1.00  0.00     0.006 C 
HETATM   10  C1  UNL     1      14.621   9.084 -13.839  1.00  0.00     0.006 C 
ENDBRANCH   4   9
BRANCH   6  11
HETATM   11  O2  UNL     1      14.077   5.013 -10.311  1.00  0.00    -0.293 OA
BRANCH  11  12
HETATM   12  C14 UNL     1      14.691   4.286  -9.270  1.00  0.00     0.360 C 
HETATM   13  O3  UNL     1      15.898   3.993  -9.425  1.00  0.00    -0.239 OA
HETATM   14  N4  UNL     1      14.038   3.876  -8.098  1.00  0.00    -0.341 N 
HETATM   15  C15 UNL     1      14.740   3.120  -7.084  1.00  0.00     0.151 C 
ATOM     16  H4  UNL     1      13.056   4.114  -7.958  1.00  0.00     0.164 HD
ENDBRANCH  11  12
ENDBRANCH   6  11
ENDBRANCH   1   3
BRANCH   1  17
HETATM   17  C5  UNL     1      11.434   7.990  -9.120  1.00  0.00     0.149 C 
HETATM   18  N2  UNL     1      11.058   7.021  -8.354  1.00  0.00    -0.251 N 
ATOM     19  H2  UNL     1      10.096   6.989  -8.017  1.00  0.00     0.196 HD
BRANCH  18  20
HETATM   20  O1  UNL     1      11.938   6.036  -7.989  1.00  0.00    -0.288 OA
ATOM     21  H1  UNL     1      12.333   6.034  -7.124  1.00  0.00     0.244 HD
ENDBRANCH  18  20
BRANCH  17  22
HETATM   22  C6  UNL     1      10.351   8.990  -9.354  1.00  0.00     0.085 A 
HETATM   23  C7  UNL     1      10.163   9.556 -10.583  1.00  0.00     0.085 A 
HETATM   24  S1  UNL     1       8.863  10.638 -10.254  1.00  0.00    -0.085 SA
HETATM   25  C8  UNL     1       8.663  10.291  -8.590  1.00  0.00     0.059 A 
HETATM   26  N3  UNL     1       9.585   9.377  -8.377  1.00  0.00    -0.350 N 
ATOM     27  H3  UNL     1       9.700   8.974  -7.448  1.00  0.00     0.166 HD
BRANCH  25  28
HETATM   28  C9  UNL     1       7.698  10.883  -7.593  1.00  0.00    -0.002 C 
HETATM   29  C10 UNL     1       8.128  12.277  -7.205  1.00  0.00     0.021 C 
HETATM   30  C11 UNL     1       7.695  10.013  -6.379  1.00  0.00     0.021 C 
HETATM   31  C12 UNL     1       6.355  10.957  -8.286  1.00  0.00     0.021 C 
ENDBRANCH  25  28
ENDBRANCH  17  22
ENDBRANCH   1  17
TORSDOF 8
ENDMDL
MODEL 4
REMARK VINA RESULT: -8.343336879      3.074      4.104
REMARK  8 active torsions:
REMARK  status: ('A' for Active; 'I' for Inactive)
REMARK    1  A    between atoms: C2_2  and  C3_3 
REMARK    2  A    between atoms: C4_4  and  N1_5 
REMARK    3  A    between atoms: N1_5  and  C5_7 
REMARK    4  A    between atoms: C5_7  and  C6_12 
REMARK    5  A    between atoms: N2_8  and  O1_10 
REMARK    6  A    between atoms: C8_15  and  C9_16 
REMARK    7  A    between atoms: C13_22  and  O2_23 
REMARK    8  A    between atoms: O2_23  and  C14_24 
REMARK       I    between atoms: C14_24  and  N4_26 
ROOT
HETATM    1  N1  UNL     1      12.573  10.173 -11.559  1.00  0.00    -0.365 N 
ATOM      2  H1  UNL     1      13.316  10.727 -11.133  1.00  0.00     0.161 HD
ENDROOT
BRANCH   1   3
HETATM    3  C4  UNL     1      12.778   8.763 -11.709  1.00  0.00     0.123 C 
HETATM    4  C3  UNL     1      14.269   8.434 -12.027  1.00  0.00     0.053 C 
HETATM    5  C16 UNL     1      13.890   7.063 -11.465  1.00  0.00     0.134 C 
HETATM    6  C13 UNL     1      13.041   7.947 -10.476  1.00  0.00     0.196 C 
HETATM    7  C17 UNL     1      14.958   6.331 -10.732  1.00  0.00     0.055 C 
HETATM    8  F1  UNL     1      12.997   6.342 -12.192  1.00  0.00    -0.240 F 
BRANCH   4   9
HETATM    9  C2  UNL     1      14.659   8.473 -13.436  1.00  0.00     0.006 C 
HETATM   10  C1  UNL     1      16.035   8.926 -13.773  1.00  0.00     0.006 C 
ENDBRANCH   4   9
BRANCH   6  11
HETATM   11  O2  UNL     1      12.008   7.198  -9.909  1.00  0.00    -0.293 OA
BRANCH  11  12
HETATM   12  C14 UNL     1      11.810   7.222  -8.513  1.00  0.00     0.360 C 
HETATM   13  O3  UNL     1      11.615   8.344  -7.993  1.00  0.00    -0.239 OA
HETATM   14  N4  UNL     1      11.825   6.085  -7.690  1.00  0.00    -0.341 N 
HETATM   15  C15 UNL     1      11.626   6.201  -6.262  1.00  0.00     0.151 C 
ATOM     16  H4  UNL     1      11.977   5.166  -8.104  1.00  0.00     0.164 HD
ENDBRANCH  11  12
ENDBRANCH   6  11
ENDBRANCH   1   3
BRANCH   1  17
HETATM   17  C5  UNL     1      11.415  10.828 -11.962  1.00  0.00     0.149 C 
HETATM   18  N2  UNL     1      11.178  11.162 -13.187  1.00  0.00    -0.251 N 
ATOM     19  H2  UNL     1      10.309  11.640 -13.421  1.00  0.00     0.196 HD
BRANCH  18  20
HETATM   20  O1  UNL     1      12.083  10.879 -14.176  1.00  0.00    -0.288 OA
ATOM     21  H1  UNL     1      12.022  10.072 -14.674  1.00  0.00     0.244 HD
ENDBRANCH  18  20
BRANCH  17  22
HETATM   22  C6  UNL     1      10.285  11.169 -11.047  1.00  0.00     0.085 A 
HETATM   23  C7  UNL     1       9.500  10.195 -10.498  1.00  0.00     0.085 A 
HETATM   24  S1  UNL     1       8.365  11.143  -9.615  1.00  0.00    -0.085 SA
HETATM   25  C8  UNL     1       8.972  12.694 -10.012  1.00  0.00     0.059 A 
HETATM   26  N3  UNL     1       9.996  12.409 -10.785  1.00  0.00    -0.350 N 
ATOM     27  H3  UNL     1      10.563  13.159 -11.179  1.00  0.00     0.166 HD
BRANCH  25  28
HETATM   28  C9  UNL     1       8.466  14.056  -9.608  1.00  0.00    -0.002 C 
HETATM   29  C10 UNL     1       7.530  14.605 -10.659  1.00  0.00     0.021 C 
HETATM   30  C11 UNL     1       9.642  14.966  -9.474  1.00  0.00     0.021 C 
HETATM   31  C12 UNL     1       7.699  13.867  -8.318  1.00  0.00     0.021 C 
ENDBRANCH  25  28
ENDBRANCH  17  22
ENDBRANCH   1  17
TORSDOF 8
ENDMDL
MODEL 5
REMARK VINA RESULT: -8.264343027      1.718      2.345
REMARK  8 active torsions:
REMARK  status: ('A' for Active; 'I' for Inactive)
REMARK    1  A    between atoms: C2_2  and  C3_3 
REMARK    2  A    between atoms: C4_4  and  N1_5 
REMARK    3  A    between atoms: N1_5  and  C5_7 
REMARK    4  A    between atoms: C5_7  and  C6_12 
REMARK    5  A    between atoms: N2_8  and  O1_10 
REMARK    6  A    between atoms: C8_15  and  C9_16 
REMARK    7  A    between atoms: C13_22  and  O2_23 
REMARK    8  A    between atoms: O2_23  and  C14_24 
REMARK       I    between atoms: C14_24  and  N4_26 
ROOT
HETATM    1  N1  UNL     1      13.284   7.377  -8.473  1.00  0.00    -0.365 N 
ATOM      2  H1  UNL     1      14.155   7.769  -8.115  1.00  0.00     0.161 HD
ENDROOT
BRANCH   1   3
HETATM    3  C4  UNL     1      13.304   6.738  -9.756  1.00  0.00     0.123 C 
HETATM    4  C3  UNL     1      14.117   7.570 -10.796  1.00  0.00     0.053 C 
HETATM    5  C16 UNL     1      14.238   6.218 -11.501  1.00  0.00     0.134 C 
HETATM    6  C13 UNL     1      14.360   5.702 -10.018  1.00  0.00     0.196 C 
HETATM    7  C17 UNL     1      15.501   5.974 -12.249  1.00  0.00     0.055 C 
HETATM    8  F1  UNL     1      13.085   5.693 -11.992  1.00  0.00    -0.240 F 
BRANCH   4   9
HETATM    9  C2  UNL     1      13.384   8.613 -11.512  1.00  0.00     0.006 C 
HETATM   10  C1  UNL     1      13.955   9.126 -12.786  1.00  0.00     0.006 C 
ENDBRANCH   4   9
BRANCH   6  11
HETATM   11  O2  UNL     1      14.033   4.347  -9.940  1.00  0.00    -0.293 OA
BRANCH  11  12
HETATM   12  C14 UNL     1      14.557   3.560  -8.893  1.00  0.00     0.360 C 
HETATM   13  O3  UNL     1      15.166   2.517  -9.224  1.00  0.00    -0.239 OA
HETATM   14  N4  UNL     1      14.433   3.870  -7.530  1.00  0.00    -0.341 N 
HETATM   15  C15 UNL     1      14.990   2.999  -6.518  1.00  0.00     0.151 C 
ATOM     16  H4  UNL     1      13.944   4.720  -7.249  1.00  0.00     0.164 HD
ENDBRANCH  11  12
ENDBRANCH   6  11
ENDBRANCH   1   3
BRANCH   1  17
HETATM   17  C5  UNL     1      12.141   7.492  -7.691  1.00  0.00     0.149 C 
HETATM   18  N2  UNL     1      11.944   6.802  -6.616  1.00  0.00    -0.251 N 
ATOM     19  H2  UNL     1      11.085   6.932  -6.084  1.00  0.00     0.196 HD
BRANCH  18  20
HETATM   20  O1  UNL     1      12.880   5.898  -6.184  1.00  0.00    -0.288 OA
ATOM     21  H1  UNL     1      12.671   4.973  -6.130  1.00  0.00     0.244 HD
ENDBRANCH  18  20
BRANCH  17  22
HETATM   22  C6  UNL     1      11.037   8.460  -7.959  1.00  0.00     0.085 A 
HETATM   23  C7  UNL     1      10.051   8.682  -7.041  1.00  0.00     0.085 A 
HETATM   24  S1  UNL     1       9.057   9.805  -7.888  1.00  0.00    -0.085 SA
HETATM   25  C8  UNL     1       9.965   9.903  -9.335  1.00  0.00     0.059 A 
HETATM   26  N3  UNL     1      10.967   9.085  -9.097  1.00  0.00    -0.350 N 
ATOM     27  H3  UNL     1      11.688   8.942  -9.803  1.00  0.00     0.166 HD
BRANCH  25  28
HETATM   28  C9  UNL     1       9.696  10.699 -10.588  1.00  0.00    -0.002 C 
HETATM   29  C10 UNL     1      10.988  11.222 -11.170  1.00  0.00     0.021 C 
HETATM   30  C11 UNL     1       8.819  11.851 -10.224  1.00  0.00     0.021 C 
HETATM   31  C12 UNL     1       9.061   9.746 -11.576  1.00  0.00     0.021 C 
ENDBRANCH  25  28
ENDBRANCH  17  22
ENDBRANCH   1  17
TORSDOF 8
ENDMDL
