MODEL 1
REMARK VINA RESULT: -7.740638046      0.000      0.000
REMARK  8 active torsions:
REMARK  status: ('A' for Active; 'I' for Inactive)
REMARK    1  A    between atoms: C2_2  and  C3_3 
REMARK    2  A    between atoms: C3_3  and  N1_4 
REMARK    3  A    between atoms: C3_3  and  C22_38 
REMARK    4  A    between atoms: N1_4  and  C4_6 
REMARK    5  A    between atoms: C9_13  and  C10_14 
REMARK    6  A    between atoms: N4_26  and  C19_28 
REMARK    7  A    between atoms: C19_28  and  C20_32 
REMARK    8  A    between atoms: C20_32  and  N6_33 
ROOT
HETATM    1  C4  UNL     1     -10.641 -51.156  13.034  1.00  0.00     0.046 A 
HETATM    2  C5  UNL     1      -9.801 -50.433  12.216  1.00  0.00     0.047 A 
HETATM    3  C6  UNL     1     -10.390 -49.496  11.373  1.00  0.00     0.090 A 
HETATM    4  N2  UNL     1     -11.720 -49.302  11.355  1.00  0.00    -0.365 N 
ATOM      5  H2  UNL     1     -12.108 -48.605  10.719  1.00  0.00     0.165 HD
HETATM    6  C7  UNL     1     -12.553 -49.998  12.146  1.00  0.00     0.050 A 
HETATM    7  C8  UNL     1     -13.910 -49.767  12.099  1.00  0.00     0.063 A 
HETATM    8  C9  UNL     1     -14.756 -50.484  12.916  1.00  0.00     0.070 A 
HETATM    9  N3  UNL     1     -14.230 -51.385  13.732  1.00  0.00    -0.339 N 
ATOM     10  H3  UNL     1     -14.859 -51.914  14.336  1.00  0.00     0.167 HD
HETATM   11  C18 UNL     1     -12.905 -51.641  13.808  1.00  0.00     0.122 A 
HETATM   12  N4  UNL     1     -12.466 -52.523  14.621  1.00  0.00    -0.330 N 
ATOM     13  H4  UNL     1     -11.463 -52.702  14.666  1.00  0.00     0.168 HD
HETATM   14  C21 UNL     1     -12.030 -50.942  13.006  1.00  0.00     0.061 A 
ENDROOT
BRANCH   1  15
HETATM   15  N1  UNL     1     -10.180 -52.028  13.828  1.00  0.00    -0.380 N 
ATOM     16  H1  UNL     1     -10.861 -52.634  14.288  1.00  0.00     0.160 HD
BRANCH  15  17
HETATM   17  C3  UNL     1      -8.816 -52.247  14.143  1.00  0.00     0.114 C 
BRANCH  17  18
HETATM   18  C2  UNL     1      -8.516 -52.229  15.620  1.00  0.00     0.025 C 
HETATM   19  C1  UNL     1      -8.521 -50.883  16.255  1.00  0.00     0.007 C 
ENDBRANCH  17  18
BRANCH  17  20
HETATM   20  C22 UNL     1      -8.239 -53.508  13.614  1.00  0.00    -0.036 A 
HETATM   21  C23 UNL     1      -8.622 -54.695  14.188  1.00  0.00     0.009 A 
HETATM   22  C24 UNL     1      -8.112 -55.893  13.738  1.00  0.00     0.001 A 
HETATM   23  C25 UNL     1      -7.204 -55.893  12.696  1.00  0.00     0.000 A 
HETATM   24  C26 UNL     1      -6.820 -54.704  12.121  1.00  0.00     0.001 A 
HETATM   25  C27 UNL     1      -7.339 -53.520  12.582  1.00  0.00     0.009 A 
ENDBRANCH  17  20
ENDBRANCH  15  17
ENDBRANCH   1  15
BRANCH  12  26
HETATM   26  C19 UNL     1     -13.336 -53.256  15.460  1.00  0.00     0.102 C 
HETATM   27  N5  UNL     1     -13.866 -52.636  16.461  1.00  0.00    -0.387 N 
ATOM     28  H52 UNL     1     -13.671 -51.652  16.651  1.00  0.00     0.157 HD
ATOM     29  H51 UNL     1     -14.493 -53.164  17.067  1.00  0.00     0.157 HD
BRANCH  26  30
HETATM   30  C20 UNL     1     -13.619 -54.688  15.184  1.00  0.00     0.305 C 
BRANCH  30  31
HETATM   31  N6  UNL     1     -14.783 -54.760  14.315  1.00  0.00    -0.073 N 
ATOM     32  H63 UNL     1     -15.594 -54.280  14.703  1.00  0.00     0.274 HD
ATOM     33  H62 UNL     1     -14.680 -54.197  13.471  1.00  0.00     0.274 HD
ATOM     34  H61 UNL     1     -14.967 -55.743  14.112  1.00  0.00     0.274 HD
ENDBRANCH  30  31
ENDBRANCH  26  30
ENDBRANCH  12  26
BRANCH   8  35
HETATM   35  C10 UNL     1     -16.200 -50.215  12.842  1.00  0.00     0.103 A 
HETATM   36  C11 UNL     1     -16.946 -50.073  11.682  1.00  0.00     0.054 A 
HETATM   37  C12 UNL     1     -18.262 -49.829  12.016  1.00  0.00     0.001 A 
HETATM   38  C13 UNL     1     -19.438 -49.608  11.325  1.00  0.00     0.014 A 
HETATM   39  C17 UNL     1     -18.259 -49.833  13.412  1.00  0.00     0.086 A 
HETATM   40  C14 UNL     1     -20.640 -49.386  11.974  1.00  0.00     0.001 A 
HETATM   41  C15 UNL     1     -20.642 -49.389  13.354  1.00  0.00     0.003 A 
HETATM   42  C16 UNL     1     -19.473 -49.608  14.046  1.00  0.00     0.038 A 
HETATM   43  O1  UNL     1     -17.038 -50.061  13.833  1.00  0.00    -0.308 OA
ENDBRANCH   8  35
TORSDOF 8
ENDMDL
MODEL 2
REMARK VINA RESULT: -7.739932712      2.339      4.000
REMARK  8 active torsions:
REMARK  status: ('A' for Active; 'I' for Inactive)
REMARK    1  A    between atoms: C2_2  and  C3_3 
REMARK    2  A    between atoms: C3_3  and  N1_4 
REMARK    3  A    between atoms: C3_3  and  C22_38 
REMARK    4  A    between atoms: N1_4  and  C4_6 
REMARK    5  A    between atoms: C9_13  and  C10_14 
REMARK    6  A    between atoms: N4_26  and  C19_28 
REMARK    7  A    between atoms: C19_28  and  C20_32 
REMARK    8  A    between atoms: C20_32  and  N6_33 
ROOT
HETATM    1  C4  UNL     1     -12.684 -52.530  14.709  1.00  0.00     0.046 A 
HETATM    2  C5  UNL     1     -12.127 -53.736  14.347  1.00  0.00     0.047 A 
HETATM    3  C6  UNL     1     -12.894 -54.571  13.540  1.00  0.00     0.090 A 
HETATM    4  N2  UNL     1     -14.124 -54.218  13.129  1.00  0.00    -0.365 N 
ATOM      5  H2  UNL     1     -14.651 -54.862  12.539  1.00  0.00     0.165 HD
HETATM    6  C7  UNL     1     -14.682 -53.044  13.473  1.00  0.00     0.050 A 
HETATM    7  C8  UNL     1     -15.944 -52.720  13.030  1.00  0.00     0.063 A 
HETATM    8  C9  UNL     1     -16.506 -51.514  13.385  1.00  0.00     0.070 A 
HETATM    9  N3  UNL     1     -15.804 -50.693  14.153  1.00  0.00    -0.339 N 
ATOM     10  H3  UNL     1     -16.224 -49.801  14.415  1.00  0.00     0.167 HD
HETATM   11  C18 UNL     1     -14.563 -50.976  14.609  1.00  0.00     0.122 A 
HETATM   12  N4  UNL     1     -13.942 -50.136  15.344  1.00  0.00    -0.330 N 
ATOM     13  H4  UNL     1     -13.006 -50.365  15.678  1.00  0.00     0.168 HD
HETATM   14  C21 UNL     1     -13.971 -52.173  14.273  1.00  0.00     0.061 A 
ENDROOT
BRANCH   1  15
HETATM   15  N1  UNL     1     -12.048 -51.717  15.443  1.00  0.00    -0.380 N 
ATOM     16  H1  UNL     1     -12.447 -51.521  16.362  1.00  0.00     0.160 HD
BRANCH  15  17
HETATM   17  C3  UNL     1     -10.839 -51.052  15.118  1.00  0.00     0.114 C 
BRANCH  17  18
HETATM   18  C2  UNL     1      -9.597 -51.813  15.505  1.00  0.00     0.025 C 
HETATM   19  C1  UNL     1      -8.614 -51.055  16.325  1.00  0.00     0.007 C 
ENDBRANCH  17  18
BRANCH  17  20
HETATM   20  C22 UNL     1     -10.681 -50.688  13.688  1.00  0.00    -0.036 A 
HETATM   21  C23 UNL     1      -9.731 -51.346  12.947  1.00  0.00     0.009 A 
HETATM   22  C24 UNL     1      -9.539 -51.043  11.616  1.00  0.00     0.001 A 
HETATM   23  C25 UNL     1     -10.315 -50.063  11.028  1.00  0.00     0.000 A 
HETATM   24  C26 UNL     1     -11.266 -49.403  11.770  1.00  0.00     0.001 A 
HETATM   25  C27 UNL     1     -11.444 -49.719  13.095  1.00  0.00     0.009 A 
ENDBRANCH  17  20
ENDBRANCH  15  17
ENDBRANCH   1  15
BRANCH  12  26
HETATM   26  C19 UNL     1     -14.521 -48.898  15.706  1.00  0.00     0.102 C 
HETATM   27  N5  UNL     1     -15.386 -48.899  16.665  1.00  0.00    -0.387 N 
ATOM     28  H52 UNL     1     -15.652 -49.756  17.151  1.00  0.00     0.157 HD
ATOM     29  H51 UNL     1     -15.804 -48.006  16.926  1.00  0.00     0.157 HD
BRANCH  26  30
HETATM   30  C20 UNL     1     -14.135 -47.650  14.998  1.00  0.00     0.305 C 
BRANCH  30  31
HETATM   31  N6  UNL     1     -14.149 -46.560  15.960  1.00  0.00    -0.073 N 
ATOM     32  H63 UNL     1     -14.757 -45.793  15.676  1.00  0.00     0.274 HD
ATOM     33  H62 UNL     1     -14.630 -46.804  16.825  1.00  0.00     0.274 HD
ATOM     34  H61 UNL     1     -13.186 -46.262  16.116  1.00  0.00     0.274 HD
ENDBRANCH  30  31
ENDBRANCH  26  30
ENDBRANCH  12  26
BRANCH   8  35
HETATM   35  C10 UNL     1     -17.856 -51.196  12.897  1.00  0.00     0.103 A 
HETATM   36  C11 UNL     1     -18.224 -51.011  11.572  1.00  0.00     0.054 A 
HETATM   37  C12 UNL     1     -19.572 -50.728  11.510  1.00  0.00     0.001 A 
HETATM   38  C13 UNL     1     -20.486 -50.457  10.510  1.00  0.00     0.014 A 
HETATM   39  C17 UNL     1     -19.981 -50.756  12.845  1.00  0.00     0.086 A 
HETATM   40  C14 UNL     1     -21.820 -50.207  10.783  1.00  0.00     0.001 A 
HETATM   41  C15 UNL     1     -22.228 -50.231  12.100  1.00  0.00     0.003 A 
HETATM   42  C16 UNL     1     -21.321 -50.501  13.099  1.00  0.00     0.038 A 
HETATM   43  O1  UNL     1     -18.946 -51.030  13.601  1.00  0.00    -0.308 OA
ENDBRANCH   8  35
TORSDOF 8
ENDMDL
MODEL 3
REMARK VINA RESULT: -7.711861285      2.293      3.841
REMARK  8 active torsions:
REMARK  status: ('A' for Active; 'I' for Inactive)
REMARK    1  A    between atoms: C2_2  and  C3_3 
REMARK    2  A    between atoms: C3_3  and  N1_4 
REMARK    3  A    between atoms: C3_3  and  C22_38 
REMARK    4  A    between atoms: N1_4  and  C4_6 
REMARK    5  A    between atoms: C9_13  and  C10_14 
REMARK    6  A    between atoms: N4_26  and  C19_28 
REMARK    7  A    between atoms: C19_28  and  C20_32 
REMARK    8  A    between atoms: C20_32  and  N6_33 
ROOT
HETATM    1  C4  UNL     1     -13.741 -49.760  14.646  1.00  0.00     0.046 A 
HETATM    2  C5  UNL     1     -13.213 -48.584  15.130  1.00  0.00     0.047 A 
HETATM    3  C6  UNL     1     -14.063 -47.484  15.188  1.00  0.00     0.090 A 
HETATM    4  N2  UNL     1     -15.344 -47.562  14.789  1.00  0.00    -0.365 N 
ATOM      5  H2  UNL     1     -15.932 -46.730  14.848  1.00  0.00     0.165 HD
HETATM    6  C7  UNL     1     -15.875 -48.702  14.314  1.00  0.00     0.050 A 
HETATM    7  C8  UNL     1     -17.193 -48.741  13.918  1.00  0.00     0.063 A 
HETATM    8  C9  UNL     1     -17.729 -49.914  13.434  1.00  0.00     0.070 A 
HETATM    9  N3  UNL     1     -16.948 -50.982  13.365  1.00  0.00    -0.339 N 
ATOM     10  H3  UNL     1     -17.347 -51.849  13.006  1.00  0.00     0.167 HD
HETATM   11  C18 UNL     1     -15.650 -50.984  13.744  1.00  0.00     0.122 A 
HETATM   12  N4  UNL     1     -14.955 -52.052  13.652  1.00  0.00    -0.330 N 
ATOM     13  H4  UNL     1     -13.978 -52.036  13.943  1.00  0.00     0.168 HD
HETATM   14  C21 UNL     1     -15.082 -49.828  14.232  1.00  0.00     0.061 A 
ENDROOT
BRANCH   1  15
HETATM   15  N1  UNL     1     -13.029 -50.803  14.561  1.00  0.00    -0.380 N 
ATOM     16  H1  UNL     1     -13.249 -51.448  13.801  1.00  0.00     0.160 HD
BRANCH  15  17
HETATM   17  C3  UNL     1     -11.957 -51.167  15.414  1.00  0.00     0.114 C 
BRANCH  17  18
HETATM   18  C2  UNL     1     -12.156 -52.481  16.124  1.00  0.00     0.025 C 
HETATM   19  C1  UNL     1     -12.287 -53.671  15.240  1.00  0.00     0.007 C 
ENDBRANCH  17  18
BRANCH  17  20
HETATM   20  C22 UNL     1     -10.625 -51.239  14.762  1.00  0.00    -0.036 A 
HETATM   21  C23 UNL     1      -9.512 -51.341  15.559  1.00  0.00     0.009 A 
HETATM   22  C24 UNL     1      -8.252 -51.406  15.006  1.00  0.00     0.001 A 
HETATM   23  C25 UNL     1      -8.114 -51.366  13.632  1.00  0.00     0.000 A 
HETATM   24  C26 UNL     1      -9.229 -51.263  12.834  1.00  0.00     0.001 A 
HETATM   25  C27 UNL     1     -10.477 -51.200  13.402  1.00  0.00     0.009 A 
ENDBRANCH  17  20
ENDBRANCH  15  17
ENDBRANCH   1  15
BRANCH  12  26
HETATM   26  C19 UNL     1     -15.508 -53.256  13.157  1.00  0.00     0.102 C 
HETATM   27  N5  UNL     1     -15.738 -54.202  14.005  1.00  0.00    -0.387 N 
ATOM     28  H52 UNL     1     -15.532 -54.097  14.999  1.00  0.00     0.157 HD
ATOM     29  H51 UNL     1     -16.136 -55.070  13.648  1.00  0.00     0.157 HD
BRANCH  26  30
HETATM   30  C20 UNL     1     -15.807 -53.408  11.710  1.00  0.00     0.305 C 
BRANCH  30  31
HETATM   31  N6  UNL     1     -14.606 -53.078  10.962  1.00  0.00    -0.073 N 
ATOM     32  H63 UNL     1     -14.493 -52.074  10.821  1.00  0.00     0.274 HD
ATOM     33  H62 UNL     1     -13.752 -53.238  11.497  1.00  0.00     0.274 HD
ATOM     34  H61 UNL     1     -14.623 -53.599  10.085  1.00  0.00     0.274 HD
ENDBRANCH  30  31
ENDBRANCH  26  30
ENDBRANCH  12  26
BRANCH   8  35
HETATM   35  C10 UNL     1     -19.139 -49.924  13.018  1.00  0.00     0.103 A 
HETATM   36  C11 UNL     1     -20.218 -49.492  13.775  1.00  0.00     0.054 A 
HETATM   37  C12 UNL     1     -21.378 -49.657  13.048  1.00  0.00     0.001 A 
HETATM   38  C13 UNL     1     -22.724 -49.420  13.256  1.00  0.00     0.014 A 
HETATM   39  C17 UNL     1     -20.940 -50.202  11.839  1.00  0.00     0.086 A 
HETATM   40  C14 UNL     1     -23.676 -49.705  12.293  1.00  0.00     0.001 A 
HETATM   41  C15 UNL     1     -23.249 -50.244  11.098  1.00  0.00     0.003 A 
HETATM   42  C16 UNL     1     -21.910 -50.482  10.887  1.00  0.00     0.038 A 
HETATM   43  O1  UNL     1     -19.636 -50.334  11.880  1.00  0.00    -0.308 OA
ENDBRANCH   8  35
TORSDOF 8
ENDMDL
MODEL 4
REMARK VINA RESULT: -7.691297482      2.232      4.060
REMARK  8 active torsions:
REMARK  status: ('A' for Active; 'I' for Inactive)
REMARK    1  A    between atoms: C2_2  and  C3_3 
REMARK    2  A    between atoms: C3_3  and  N1_4 
REMARK    3  A    between atoms: C3_3  and  C22_38 
REMARK    4  A    between atoms: N1_4  and  C4_6 
REMARK    5  A    between atoms: C9_13  and  C10_14 
REMARK    6  A    between atoms: N4_26  and  C19_28 
REMARK    7  A    between atoms: C19_28  and  C20_32 
REMARK    8  A    between atoms: C20_32  and  N6_33 
ROOT
HETATM    1  C4  UNL     1     -13.475 -52.101  12.769  1.00  0.00     0.046 A 
HETATM    2  C5  UNL     1     -13.088 -53.124  11.932  1.00  0.00     0.047 A 
HETATM    3  C6  UNL     1     -14.094 -53.801  11.251  1.00  0.00     0.090 A 
HETATM    4  N2  UNL     1     -15.389 -53.475  11.401  1.00  0.00    -0.365 N 
ATOM      5  H2  UNL     1     -16.094 -53.999  10.883  1.00  0.00     0.165 HD
HETATM    6  C7  UNL     1     -15.785 -52.479  12.213  1.00  0.00     0.050 A 
HETATM    7  C8  UNL     1     -17.121 -52.175  12.338  1.00  0.00     0.063 A 
HETATM    8  C9  UNL     1     -17.516 -51.152  13.171  1.00  0.00     0.070 A 
HETATM    9  N3  UNL     1     -16.584 -50.485  13.836  1.00  0.00    -0.339 N 
ATOM     10  H3  UNL     1     -16.880 -49.728  14.452  1.00  0.00     0.167 HD
HETATM   11  C18 UNL     1     -15.263 -50.754  13.741  1.00  0.00     0.122 A 
HETATM   12  N4  UNL     1     -14.418 -50.067  14.409  1.00  0.00    -0.330 N 
ATOM     13  H4  UNL     1     -13.425 -50.283  14.325  1.00  0.00     0.168 HD
HETATM   14  C21 UNL     1     -14.833 -51.770  12.917  1.00  0.00     0.061 A 
ENDROOT
BRANCH   1  15
HETATM   15  N1  UNL     1     -12.617 -51.439  13.424  1.00  0.00    -0.380 N 
ATOM     16  H1  UNL     1     -12.953 -50.946  14.252  1.00  0.00     0.160 HD
BRANCH  15  17
HETATM   17  C3  UNL     1     -11.238 -51.314  13.124  1.00  0.00     0.114 C 
BRANCH  17  18
HETATM   18  C2  UNL     1     -10.827 -49.931  12.688  1.00  0.00     0.025 C 
HETATM   19  C1  UNL     1     -10.040 -49.866  11.428  1.00  0.00     0.007 C 
ENDBRANCH  17  18
BRANCH  17  20
HETATM   20  C22 UNL     1     -10.313 -51.701  14.219  1.00  0.00    -0.036 A 
HETATM   21  C23 UNL     1      -9.845 -52.991  14.254  1.00  0.00     0.009 A 
HETATM   22  C24 UNL     1      -8.990 -53.404  15.253  1.00  0.00     0.001 A 
HETATM   23  C25 UNL     1      -8.602 -52.504  16.226  1.00  0.00     0.000 A 
HETATM   24  C26 UNL     1      -9.071 -51.211  16.190  1.00  0.00     0.001 A 
HETATM   25  C27 UNL     1      -9.923 -50.817  15.189  1.00  0.00     0.009 A 
ENDBRANCH  17  20
ENDBRANCH  15  17
ENDBRANCH   1  15
BRANCH  12  26
HETATM   26  C19 UNL     1     -14.826 -49.016  15.263  1.00  0.00     0.102 C 
HETATM   27  N5  UNL     1     -15.236 -49.331  16.446  1.00  0.00    -0.387 N 
ATOM     28  H52 UNL     1     -15.269 -50.300  16.765  1.00  0.00     0.157 HD
ATOM     29  H51 UNL     1     -15.530 -48.574  17.061  1.00  0.00     0.157 HD
BRANCH  26  30
HETATM   30  C20 UNL     1     -14.778 -47.607  14.797  1.00  0.00     0.305 C 
BRANCH  30  31
HETATM   31  N6  UNL     1     -14.198 -46.799  15.857  1.00  0.00    -0.073 N 
ATOM     32  H63 UNL     1     -14.273 -45.798  15.675  1.00  0.00     0.274 HD
ATOM     33  H62 UNL     1     -14.747 -46.824  16.717  1.00  0.00     0.274 HD
ATOM     34  H61 UNL     1     -13.234 -47.102  15.998  1.00  0.00     0.274 HD
ENDBRANCH  30  31
ENDBRANCH  26  30
ENDBRANCH  12  26
BRANCH   8  35
HETATM   35  C10 UNL     1     -18.951 -50.851  13.283  1.00  0.00     0.103 A 
HETATM   36  C11 UNL     1     -19.576 -49.681  12.877  1.00  0.00     0.054 A 
HETATM   37  C12 UNL     1     -20.925 -49.770  13.145  1.00  0.00     0.001 A 
HETATM   38  C13 UNL     1     -22.028 -48.954  12.976  1.00  0.00     0.014 A 
HETATM   39  C17 UNL     1     -21.069 -51.033  13.723  1.00  0.00     0.086 A 
HETATM   40  C14 UNL     1     -23.297 -49.347  13.363  1.00  0.00     0.001 A 
HETATM   41  C15 UNL     1     -23.444 -50.593  13.936  1.00  0.00     0.003 A 
HETATM   42  C16 UNL     1     -22.349 -51.408  14.106  1.00  0.00     0.038 A 
HETATM   43  O1  UNL     1     -19.894 -51.612  13.778  1.00  0.00    -0.308 OA
ENDBRANCH   8  35
TORSDOF 8
ENDMDL
MODEL 5
REMARK VINA RESULT: -7.661313016      2.022      3.761
REMARK  8 active torsions:
REMARK  status: ('A' for Active; 'I' for Inactive)
REMARK    1  A    between atoms: C2_2  and  C3_3 
REMARK    2  A    between atoms: C3_3  and  N1_4 
REMARK    3  A    between atoms: C3_3  and  C22_38 
REMARK    4  A    between atoms: N1_4  and  C4_6 
REMARK    5  A    between atoms: C9_13  and  C10_14 
REMARK    6  A    between atoms: N4_26  and  C19_28 
REMARK    7  A    between atoms: C19_28  and  C20_32 
REMARK    8  A    between atoms: C20_32  and  N6_33 
ROOT
HETATM    1  C4  UNL     1     -11.984 -52.313  14.909  1.00  0.00     0.046 A 
HETATM    2  C5  UNL     1     -11.573 -53.627  14.926  1.00  0.00     0.047 A 
HETATM    3  C6  UNL     1     -12.474 -54.580  14.461  1.00  0.00     0.090 A 
HETATM    4  N2  UNL     1     -13.694 -54.236  14.014  1.00  0.00    -0.365 N 
ATOM      5  H2  UNL     1     -14.323 -54.967  13.683  1.00  0.00     0.165 HD
HETATM    6  C7  UNL     1     -14.111 -52.959  13.990  1.00  0.00     0.050 A 
HETATM    7  C8  UNL     1     -15.368 -52.648  13.522  1.00  0.00     0.063 A 
HETATM    8  C9  UNL     1     -15.786 -51.336  13.500  1.00  0.00     0.070 A 
HETATM    9  N3  UNL     1     -14.953 -50.401  13.936  1.00  0.00    -0.339 N 
ATOM     10  H3  UNL     1     -15.266 -49.431  13.919  1.00  0.00     0.167 HD
HETATM   11  C18 UNL     1     -13.713 -50.666  14.403  1.00  0.00     0.122 A 
HETATM   12  N4  UNL     1     -12.961 -49.715  14.805  1.00  0.00    -0.330 N 
ATOM     13  H4  UNL     1     -12.027 -49.932  15.153  1.00  0.00     0.168 HD
HETATM   14  C21 UNL     1     -13.262 -51.967  14.439  1.00  0.00     0.061 A 
ENDROOT
BRANCH   1  15
HETATM   15  N1  UNL     1     -11.221 -51.390  15.318  1.00  0.00    -0.380 N 
ATOM     16  H1  UNL     1     -11.482 -50.933  16.193  1.00  0.00     0.160 HD
BRANCH  15  17
HETATM   17  C3  UNL     1     -10.041 -50.926  14.685  1.00  0.00     0.114 C 
BRANCH  17  18
HETATM   18  C2  UNL     1      -8.781 -51.598  15.167  1.00  0.00     0.025 C 
HETATM   19  C1  UNL     1      -8.398 -51.304  16.574  1.00  0.00     0.007 C 
ENDBRANCH  17  18
BRANCH  17  20
HETATM   20  C22 UNL     1     -10.033 -51.031  13.204  1.00  0.00    -0.036 A 
HETATM   21  C23 UNL     1      -9.432 -52.124  12.629  1.00  0.00     0.009 A 
HETATM   22  C24 UNL     1      -9.393 -52.267  11.259  1.00  0.00     0.001 A 
HETATM   23  C25 UNL     1      -9.966 -51.295  10.461  1.00  0.00     0.000 A 
HETATM   24  C26 UNL     1     -10.567 -50.201  11.037  1.00  0.00     0.001 A 
HETATM   25  C27 UNL     1     -10.597 -50.075  12.404  1.00  0.00     0.009 A 
ENDBRANCH  17  20
ENDBRANCH  15  17
ENDBRANCH   1  15
BRANCH  12  26
HETATM   26  C19 UNL     1     -13.392 -48.368  14.779  1.00  0.00     0.102 C 
HETATM   27  N5  UNL     1     -12.841 -47.580  13.918  1.00  0.00    -0.387 N 
ATOM     28  H52 UNL     1     -12.120 -47.905  13.273  1.00  0.00     0.157 HD
ATOM     29  H51 UNL     1     -13.151 -46.609  13.899  1.00  0.00     0.157 HD
BRANCH  26  30
HETATM   30  C20 UNL     1     -14.441 -47.895  15.719  1.00  0.00     0.305 C 
BRANCH  30  31
HETATM   31  N6  UNL     1     -14.214 -46.483  15.977  1.00  0.00    -0.073 N 
ATOM     32  H63 UNL     1     -13.238 -46.213  15.859  1.00  0.00     0.274 HD
ATOM     33  H62 UNL     1     -14.612 -45.882  15.255  1.00  0.00     0.274 HD
ATOM     34  H61 UNL     1     -14.572 -46.268  16.908  1.00  0.00     0.274 HD
ENDBRANCH  30  31
ENDBRANCH  26  30
ENDBRANCH  12  26
BRANCH   8  35
HETATM   35  C10 UNL     1     -17.134 -51.035  12.996  1.00  0.00     0.103 A 
HETATM   36  C11 UNL     1     -17.451 -50.599  11.718  1.00  0.00     0.054 A 
HETATM   37  C12 UNL     1     -18.815 -50.426  11.622  1.00  0.00     0.001 A 
HETATM   38  C13 UNL     1     -19.699 -50.023  10.639  1.00  0.00     0.014 A 
HETATM   39  C17 UNL     1     -19.287 -50.777  12.888  1.00  0.00     0.086 A 
HETATM   40  C14 UNL     1     -21.063 -49.952  10.863  1.00  0.00     0.001 A 
HETATM   41  C15 UNL     1     -21.534 -50.297  12.113  1.00  0.00     0.003 A 
HETATM   42  C16 UNL     1     -20.657 -50.698  13.095  1.00  0.00     0.038 A 
HETATM   43  O1  UNL     1     -18.269 -51.120  13.641  1.00  0.00    -0.308 OA
ENDBRANCH   8  35
TORSDOF 8
ENDMDL
