MODEL 1
REMARK VINA RESULT: -8.122297563      0.000      0.000
REMARK  9 active torsions:
REMARK  status: ('A' for Active; 'I' for Inactive)
REMARK    1  A    between atoms: C2_2  and  C3_3 
REMARK    2  A    between atoms: C6_6  and  C7_7 
REMARK    3  A    between atoms: C7_7  and  N1_8 
REMARK    4  A    between atoms: N1_8  and  C8_10 
REMARK    5  A    between atoms: C9_13  and  N3_14 
REMARK    6  A    between atoms: N3_14  and  C10_16 
REMARK    7  A    between atoms: C10_16  and  C11_17 
REMARK    8  A    between atoms: C17_25  and  N5_26 
REMARK    9  A    between atoms: N5_26  and  C18_28 
ROOT
HETATM    1  C8  UNL     1     -13.495 -54.513  15.349  1.00  0.00     0.707 A 
HETATM    2  N2  UNL     1     -12.163 -54.577  15.424  1.00  0.00    -0.022 N 
ATOM      3  H2  UNL     1     -11.663 -53.739  15.724  1.00  0.00     0.203 HD
HETATM    4  C9  UNL     1     -11.432 -55.674  15.131  1.00  0.00     0.707 A 
HETATM    5  N4  UNL     1     -12.101 -56.771  14.737  1.00  0.00    -0.021 N 
ATOM      6  H4  UNL     1     -11.592 -57.623  14.504  1.00  0.00     0.203 HD
HETATM    7  C17 UNL     1     -13.463 -56.743  14.649  1.00  0.00     0.711 A 
HETATM    8  N8  UNL     1     -14.154 -55.636  14.949  1.00  0.00    -0.021 N 
ATOM      9  H8  UNL     1     -15.171 -55.634  14.878  1.00  0.00     0.203 HD
ENDROOT
BRANCH   7  10
HETATM   10  N5  UNL     1     -14.064 -57.815  14.267  1.00  0.00    -0.191 N 
ATOM     11  H5  UNL     1     -13.876 -58.223  13.352  1.00  0.00     0.184 HD
BRANCH  10  12
HETATM   12  C18 UNL     1     -14.994 -58.416  15.154  1.00  0.00     0.050 A 
HETATM   13  C19 UNL     1     -16.345 -58.415  14.829  1.00  0.00     0.032 A 
HETATM   14  C20 UNL     1     -17.216 -59.004  15.711  1.00  0.00     0.034 A 
HETATM   15  C21 UNL     1     -16.797 -59.584  16.886  1.00  0.00     0.059 A 
HETATM   16  N6  UNL     1     -17.404 -60.215  17.906  1.00  0.00    -0.300 N 
HETATM   17  C23 UNL     1     -15.441 -59.578  17.198  1.00  0.00     0.011 A 
HETATM   18  N7  UNL     1     -16.543 -60.596  18.816  1.00  0.00    -0.311 N 
ATOM     19  H6  UNL     1     -18.410 -60.377  17.964  1.00  0.00     0.187 HD
HETATM   20  C22 UNL     1     -15.297 -60.221  18.421  1.00  0.00     0.120 A 
ATOM     21  H7  UNL     1     -16.770 -61.092  19.678  1.00  0.00     0.186 HD
HETATM   22  C24 UNL     1     -14.556 -58.990  16.323  1.00  0.00     0.045 A 
ENDBRANCH  10  12
ENDBRANCH   7  10
BRANCH   4  23
HETATM   23  N3  UNL     1     -10.145 -55.678  15.221  1.00  0.00    -0.221 N 
ATOM     24  H3  UNL     1      -9.592 -56.283  14.615  1.00  0.00     0.178 HD
BRANCH  23  25
HETATM   25  C10 UNL     1      -9.495 -54.829  16.178  1.00  0.00     0.176 C 
BRANCH  25  26
HETATM   26  C11 UNL     1      -9.005 -53.575  15.550  1.00  0.00    -0.040 A 
HETATM   27  C12 UNL     1      -8.699 -53.494  14.225  1.00  0.00     0.009 A 
HETATM   28  C13 UNL     1      -8.247 -52.296  13.697  1.00  0.00     0.001 A 
HETATM   29  C14 UNL     1      -8.090 -51.167  14.466  1.00  0.00     0.000 A 
HETATM   30  C15 UNL     1      -8.404 -51.270  15.804  1.00  0.00     0.001 A 
HETATM   31  C16 UNL     1      -8.857 -52.465  16.338  1.00  0.00     0.009 A 
ENDBRANCH  25  26
ENDBRANCH  23  25
ENDBRANCH   4  23
BRANCH   1  32
HETATM   32  N1  UNL     1     -14.221 -53.510  15.615  1.00  0.00    -0.221 N 
ATOM     33  H1  UNL     1     -15.224 -53.652  15.496  1.00  0.00     0.178 HD
BRANCH  32  34
HETATM   34  C7  UNL     1     -13.837 -52.213  16.055  1.00  0.00     0.176 C 
BRANCH  34  35
HETATM   35  C6  UNL     1     -13.224 -51.466  14.910  1.00  0.00    -0.040 A 
HETATM   36  C5  UNL     1     -11.962 -50.911  14.968  1.00  0.00     0.009 A 
HETATM   37  C4  UNL     1     -11.411 -50.225  13.902  1.00  0.00     0.007 A 
HETATM   38  C3  UNL     1     -12.116 -50.069  12.725  1.00  0.00    -0.059 A 
HETATM   39  C26 UNL     1     -13.377 -50.622  12.663  1.00  0.00     0.007 A 
HETATM   40  C25 UNL     1     -13.923 -51.306  13.732  1.00  0.00     0.009 A 
BRANCH  38  41
HETATM   41  C2  UNL     1     -11.556 -49.335  11.551  1.00  0.00     0.034 C 
HETATM   42  C1  UNL     1     -10.092 -49.683  11.430  1.00  0.00     0.010 C 
ENDBRANCH  38  41
ENDBRANCH  34  35
ENDBRANCH  32  34
ENDBRANCH   1  32
TORSDOF 9
ENDMDL
MODEL 2
REMARK VINA RESULT: -8.042246420      4.488      7.327
REMARK  9 active torsions:
REMARK  status: ('A' for Active; 'I' for Inactive)
REMARK    1  A    between atoms: C2_2  and  C3_3 
REMARK    2  A    between atoms: C6_6  and  C7_7 
REMARK    3  A    between atoms: C7_7  and  N1_8 
REMARK    4  A    between atoms: N1_8  and  C8_10 
REMARK    5  A    between atoms: C9_13  and  N3_14 
REMARK    6  A    between atoms: N3_14  and  C10_16 
REMARK    7  A    between atoms: C10_16  and  C11_17 
REMARK    8  A    between atoms: C17_25  and  N5_26 
REMARK    9  A    between atoms: N5_26  and  C18_28 
ROOT
HETATM    1  C8  UNL     1     -13.015 -49.965  12.590  1.00  0.00     0.707 A 
HETATM    2  N2  UNL     1     -12.839 -50.784  13.631  1.00  0.00    -0.022 N 
ATOM      3  H2  UNL     1     -12.043 -51.422  13.604  1.00  0.00     0.203 HD
HETATM    4  C9  UNL     1     -13.642 -50.824  14.716  1.00  0.00     0.707 A 
HETATM    5  N4  UNL     1     -14.687 -49.980  14.739  1.00  0.00    -0.021 N 
ATOM      6  H4  UNL     1     -15.322 -49.975  15.538  1.00  0.00     0.203 HD
HETATM    7  C17 UNL     1     -14.898 -49.128  13.693  1.00  0.00     0.711 A 
HETATM    8  N8  UNL     1     -14.080 -49.116  12.634  1.00  0.00    -0.021 N 
ATOM      9  H8  UNL     1     -14.252 -48.472  11.862  1.00  0.00     0.203 HD
ENDROOT
BRANCH   7  10
HETATM   10  N5  UNL     1     -15.911 -48.337  13.756  1.00  0.00    -0.191 N 
ATOM     11  H5  UNL     1     -15.820 -47.402  14.153  1.00  0.00     0.184 HD
BRANCH  10  12
HETATM   12  C18 UNL     1     -17.157 -48.799  13.260  1.00  0.00     0.050 A 
HETATM   13  C19 UNL     1     -17.371 -48.842  11.888  1.00  0.00     0.032 A 
HETATM   14  C20 UNL     1     -18.589 -49.294  11.444  1.00  0.00     0.034 A 
HETATM   15  C21 UNL     1     -19.584 -49.698  12.303  1.00  0.00     0.059 A 
HETATM   16  N6  UNL     1     -20.833 -50.172  12.158  1.00  0.00    -0.300 N 
HETATM   17  C23 UNL     1     -19.354 -49.650  13.676  1.00  0.00     0.011 A 
HETATM   18  N7  UNL     1     -21.392 -50.419  13.316  1.00  0.00    -0.311 N 
ATOM     19  H6  UNL     1     -21.290 -50.321  11.257  1.00  0.00     0.187 HD
HETATM   20  C22 UNL     1     -20.507 -50.108  14.301  1.00  0.00     0.120 A 
ATOM     21  H7  UNL     1     -22.334 -50.783  13.456  1.00  0.00     0.186 HD
HETATM   22  C24 UNL     1     -18.138 -49.199  14.135  1.00  0.00     0.045 A 
ENDBRANCH  10  12
ENDBRANCH   7  10
BRANCH   4  23
HETATM   23  N3  UNL     1     -13.423 -51.637  15.693  1.00  0.00    -0.221 N 
ATOM     24  H3  UNL     1     -13.513 -51.315  16.656  1.00  0.00     0.178 HD
BRANCH  23  25
HETATM   25  C10 UNL     1     -13.053 -52.997  15.421  1.00  0.00     0.176 C 
BRANCH  25  26
HETATM   26  C11 UNL     1     -11.624 -53.247  15.743  1.00  0.00    -0.040 A 
HETATM   27  C12 UNL     1     -10.812 -52.282  16.257  1.00  0.00     0.009 A 
HETATM   28  C13 UNL     1      -9.488 -52.577  16.538  1.00  0.00     0.001 A 
HETATM   29  C14 UNL     1      -8.950 -53.821  16.314  1.00  0.00     0.000 A 
HETATM   30  C15 UNL     1      -9.787 -54.784  15.794  1.00  0.00     0.001 A 
HETATM   31  C16 UNL     1     -11.112 -54.496  15.511  1.00  0.00     0.009 A 
ENDBRANCH  25  26
ENDBRANCH  23  25
ENDBRANCH   4  23
BRANCH   1  32
HETATM   32  N1  UNL     1     -12.290 -49.890  11.554  1.00  0.00    -0.221 N 
ATOM     33  H1  UNL     1     -12.749 -50.143  10.679  1.00  0.00     0.178 HD
BRANCH  32  34
HETATM   34  C7  UNL     1     -10.926 -49.503  11.438  1.00  0.00     0.176 C 
BRANCH  34  35
HETATM   35  C6  UNL     1     -10.052 -50.654  11.829  1.00  0.00    -0.040 A 
HETATM   36  C5  UNL     1      -9.259 -50.643  12.958  1.00  0.00     0.009 A 
HETATM   37  C4  UNL     1      -8.458 -51.714  13.305  1.00  0.00     0.007 A 
HETATM   38  C3  UNL     1      -8.424 -52.851  12.522  1.00  0.00    -0.059 A 
HETATM   39  C26 UNL     1      -9.215 -52.867  11.393  1.00  0.00     0.007 A 
HETATM   40  C25 UNL     1     -10.013 -51.793  11.051  1.00  0.00     0.009 A 
BRANCH  38  41
HETATM   41  C2  UNL     1      -7.572 -54.030  12.862  1.00  0.00     0.034 C 
HETATM   42  C1  UNL     1      -8.271 -55.276  12.374  1.00  0.00     0.010 C 
ENDBRANCH  38  41
ENDBRANCH  34  35
ENDBRANCH  32  34
ENDBRANCH   1  32
TORSDOF 9
ENDMDL
MODEL 3
REMARK VINA RESULT: -7.996328531      4.481      7.527
REMARK  9 active torsions:
REMARK  status: ('A' for Active; 'I' for Inactive)
REMARK    1  A    between atoms: C2_2  and  C3_3 
REMARK    2  A    between atoms: C6_6  and  C7_7 
REMARK    3  A    between atoms: C7_7  and  N1_8 
REMARK    4  A    between atoms: N1_8  and  C8_10 
REMARK    5  A    between atoms: C9_13  and  N3_14 
REMARK    6  A    between atoms: N3_14  and  C10_16 
REMARK    7  A    between atoms: C10_16  and  C11_17 
REMARK    8  A    between atoms: C17_25  and  N5_26 
REMARK    9  A    between atoms: N5_26  and  C18_28 
ROOT
HETATM    1  C8  UNL     1     -13.024 -49.954  12.545  1.00  0.00     0.707 A 
HETATM    2  N2  UNL     1     -12.862 -50.774  13.587  1.00  0.00    -0.022 N 
ATOM      3  H2  UNL     1     -12.070 -51.417  13.568  1.00  0.00     0.203 HD
HETATM    4  C9  UNL     1     -13.674 -50.811  14.666  1.00  0.00     0.707 A 
HETATM    5  N4  UNL     1     -14.714 -49.960  14.680  1.00  0.00    -0.021 N 
ATOM      6  H4  UNL     1     -15.356 -49.952  15.473  1.00  0.00     0.203 HD
HETATM    7  C17 UNL     1     -14.912 -49.107  13.632  1.00  0.00     0.711 A 
HETATM    8  N8  UNL     1     -14.084 -49.099  12.581  1.00  0.00    -0.021 N 
ATOM      9  H8  UNL     1     -14.246 -48.454  11.807  1.00  0.00     0.203 HD
ENDROOT
BRANCH   7  10
HETATM   10  N5  UNL     1     -15.920 -48.309  13.687  1.00  0.00    -0.191 N 
ATOM     11  H5  UNL     1     -15.805 -47.340  13.984  1.00  0.00     0.184 HD
BRANCH  10  12
HETATM   12  C18 UNL     1     -17.196 -48.813  13.326  1.00  0.00     0.050 A 
HETATM   13  C19 UNL     1     -18.100 -49.158  14.323  1.00  0.00     0.032 A 
HETATM   14  C20 UNL     1     -19.324 -49.643  13.935  1.00  0.00     0.034 A 
HETATM   15  C21 UNL     1     -19.675 -49.794  12.614  1.00  0.00     0.059 A 
HETATM   16  N6  UNL     1     -20.767 -50.228  11.962  1.00  0.00    -0.300 N 
HETATM   17  C23 UNL     1     -18.758 -49.443  11.627  1.00  0.00     0.011 A 
HETATM   18  N7  UNL     1     -20.604 -50.176  10.663  1.00  0.00    -0.311 N 
ATOM     19  H6  UNL     1     -21.617 -50.557  12.421  1.00  0.00     0.187 HD
HETATM   20  C22 UNL     1     -19.361 -49.691  10.400  1.00  0.00     0.120 A 
ATOM     21  H7  UNL     1     -21.294 -50.453   9.966  1.00  0.00     0.186 HD
HETATM   22  C24 UNL     1     -17.527 -48.956  12.000  1.00  0.00     0.045 A 
ENDBRANCH  10  12
ENDBRANCH   7  10
BRANCH   4  23
HETATM   23  N3  UNL     1     -13.469 -51.625  15.644  1.00  0.00    -0.221 N 
ATOM     24  H3  UNL     1     -13.569 -51.304  16.607  1.00  0.00     0.178 HD
BRANCH  23  25
HETATM   25  C10 UNL     1     -13.100 -52.986  15.374  1.00  0.00     0.176 C 
BRANCH  25  26
HETATM   26  C11 UNL     1     -11.678 -53.243  15.719  1.00  0.00    -0.040 A 
HETATM   27  C12 UNL     1     -10.863 -52.275  16.222  1.00  0.00     0.009 A 
HETATM   28  C13 UNL     1      -9.545 -52.576  16.525  1.00  0.00     0.001 A 
HETATM   29  C14 UNL     1      -9.017 -53.831  16.336  1.00  0.00     0.000 A 
HETATM   30  C15 UNL     1      -9.857 -54.796  15.826  1.00  0.00     0.001 A 
HETATM   31  C16 UNL     1     -11.176 -54.502  15.521  1.00  0.00     0.009 A 
ENDBRANCH  25  26
ENDBRANCH  23  25
ENDBRANCH   4  23
BRANCH   1  32
HETATM   32  N1  UNL     1     -12.289 -49.883  11.516  1.00  0.00    -0.221 N 
ATOM     33  H1  UNL     1     -12.744 -50.125  10.636  1.00  0.00     0.178 HD
BRANCH  32  34
HETATM   34  C7  UNL     1     -10.919 -49.515  11.413  1.00  0.00     0.176 C 
BRANCH  34  35
HETATM   35  C6  UNL     1     -10.064 -50.688  11.783  1.00  0.00    -0.040 A 
HETATM   36  C5  UNL     1     -10.005 -51.840  11.026  1.00  0.00     0.009 A 
HETATM   37  C4  UNL     1      -9.210 -52.912  11.381  1.00  0.00     0.007 A 
HETATM   38  C3  UNL     1      -8.435 -52.868  12.523  1.00  0.00    -0.059 A 
HETATM   39  C26 UNL     1      -8.490 -51.718  13.282  1.00  0.00     0.007 A 
HETATM   40  C25 UNL     1      -9.287 -50.649  12.922  1.00  0.00     0.009 A 
BRANCH  38  41
HETATM   41  C2  UNL     1      -7.562 -54.006  12.940  1.00  0.00     0.034 C 
HETATM   42  C1  UNL     1      -8.224 -55.292  12.508  1.00  0.00     0.010 C 
ENDBRANCH  38  41
ENDBRANCH  34  35
ENDBRANCH  32  34
ENDBRANCH   1  32
TORSDOF 9
ENDMDL
MODEL 4
REMARK VINA RESULT: -7.857883981      3.505      6.146
REMARK  9 active torsions:
REMARK  status: ('A' for Active; 'I' for Inactive)
REMARK    1  A    between atoms: C2_2  and  C3_3 
REMARK    2  A    between atoms: C6_6  and  C7_7 
REMARK    3  A    between atoms: C7_7  and  N1_8 
REMARK    4  A    between atoms: N1_8  and  C8_10 
REMARK    5  A    between atoms: C9_13  and  N3_14 
REMARK    6  A    between atoms: N3_14  and  C10_16 
REMARK    7  A    between atoms: C10_16  and  C11_17 
REMARK    8  A    between atoms: C17_25  and  N5_26 
REMARK    9  A    between atoms: N5_26  and  C18_28 
ROOT
HETATM    1  C8  UNL     1     -12.826 -55.299  13.235  1.00  0.00     0.707 A 
HETATM    2  N2  UNL     1     -11.723 -55.755  13.836  1.00  0.00    -0.022 N 
ATOM      3  H2  UNL     1     -11.184 -56.476  13.357  1.00  0.00     0.203 HD
HETATM    4  C9  UNL     1     -11.273 -55.326  15.035  1.00  0.00     0.707 A 
HETATM    5  N4  UNL     1     -11.992 -54.376  15.657  1.00  0.00    -0.021 N 
ATOM      6  H4  UNL     1     -11.692 -54.022  16.566  1.00  0.00     0.203 HD
HETATM    7  C17 UNL     1     -13.125 -53.887  15.073  1.00  0.00     0.711 A 
HETATM    8  N8  UNL     1     -13.540 -54.336  13.882  1.00  0.00    -0.021 N 
ATOM      9  H8  UNL     1     -14.388 -53.959  13.461  1.00  0.00     0.203 HD
ENDROOT
BRANCH   7  10
HETATM   10  N5  UNL     1     -13.784 -52.979  15.704  1.00  0.00    -0.191 N 
ATOM     11  H5  UNL     1     -14.505 -53.229  16.380  1.00  0.00     0.184 HD
BRANCH  10  12
HETATM   12  C18 UNL     1     -13.479 -51.620  15.434  1.00  0.00     0.050 A 
HETATM   13  C19 UNL     1     -12.253 -51.295  14.868  1.00  0.00     0.032 A 
HETATM   14  C20 UNL     1     -11.992 -49.970  14.621  1.00  0.00     0.034 A 
HETATM   15  C21 UNL     1     -12.895 -48.974  14.913  1.00  0.00     0.059 A 
HETATM   16  N6  UNL     1     -12.911 -47.636  14.784  1.00  0.00    -0.300 N 
HETATM   17  C23 UNL     1     -14.120 -49.315  15.479  1.00  0.00     0.011 A 
HETATM   18  N7  UNL     1     -14.035 -47.124  15.220  1.00  0.00    -0.311 N 
ATOM     19  H6  UNL     1     -12.143 -47.087  14.394  1.00  0.00     0.187 HD
HETATM   20  C22 UNL     1     -14.828 -48.134  15.667  1.00  0.00     0.120 A 
ATOM     21  H7  UNL     1     -14.275 -46.133  15.223  1.00  0.00     0.186 HD
HETATM   22  C24 UNL     1     -14.394 -50.639  15.732  1.00  0.00     0.045 A 
ENDBRANCH  10  12
ENDBRANCH   7  10
BRANCH   4  23
HETATM   23  N3  UNL     1     -10.200 -55.803  15.568  1.00  0.00    -0.221 N 
ATOM     24  H3  UNL     1      -9.969 -56.790  15.459  1.00  0.00     0.178 HD
BRANCH  23  25
HETATM   25  C10 UNL     1      -9.331 -54.939  16.317  1.00  0.00     0.176 C 
BRANCH  25  26
HETATM   26  C11 UNL     1      -8.936 -53.746  15.526  1.00  0.00    -0.040 A 
HETATM   27  C12 UNL     1      -8.593 -53.824  14.210  1.00  0.00     0.009 A 
HETATM   28  C13 UNL     1      -8.233 -52.674  13.525  1.00  0.00     0.001 A 
HETATM   29  C14 UNL     1      -8.205 -51.439  14.128  1.00  0.00     0.000 A 
HETATM   30  C15 UNL     1      -8.555 -51.382  15.459  1.00  0.00     0.001 A 
HETATM   31  C16 UNL     1      -8.916 -52.527  16.149  1.00  0.00     0.009 A 
ENDBRANCH  25  26
ENDBRANCH  23  25
ENDBRANCH   4  23
BRANCH   1  32
HETATM   32  N1  UNL     1     -13.285 -55.669  12.114  1.00  0.00    -0.221 N 
ATOM     33  H1  UNL     1     -14.010 -56.386  12.153  1.00  0.00     0.178 HD
BRANCH  32  34
HETATM   34  C7  UNL     1     -12.933 -55.228  10.809  1.00  0.00     0.176 C 
BRANCH  34  35
HETATM   35  C6  UNL     1     -12.576 -53.774  10.860  1.00  0.00    -0.040 A 
HETATM   36  C5  UNL     1     -13.508 -52.767  10.718  1.00  0.00     0.009 A 
HETATM   37  C4  UNL     1     -13.162 -51.431  10.769  1.00  0.00     0.007 A 
HETATM   38  C3  UNL     1     -11.849 -51.050  10.966  1.00  0.00    -0.059 A 
HETATM   39  C26 UNL     1     -10.913 -52.053  11.108  1.00  0.00     0.007 A 
HETATM   40  C25 UNL     1     -11.266 -53.387  11.056  1.00  0.00     0.009 A 
BRANCH  38  41
HETATM   41  C2  UNL     1     -11.434 -49.617  11.026  1.00  0.00     0.034 C 
HETATM   42  C1  UNL     1      -9.968 -49.563  11.383  1.00  0.00     0.010 C 
ENDBRANCH  38  41
ENDBRANCH  34  35
ENDBRANCH  32  34
ENDBRANCH   1  32
TORSDOF 9
ENDMDL
MODEL 5
REMARK VINA RESULT: -7.830388266      4.886      7.754
REMARK  9 active torsions:
REMARK  status: ('A' for Active; 'I' for Inactive)
REMARK    1  A    between atoms: C2_2  and  C3_3 
REMARK    2  A    between atoms: C6_6  and  C7_7 
REMARK    3  A    between atoms: C7_7  and  N1_8 
REMARK    4  A    between atoms: N1_8  and  C8_10 
REMARK    5  A    between atoms: C9_13  and  N3_14 
REMARK    6  A    between atoms: N3_14  and  C10_16 
REMARK    7  A    between atoms: C10_16  and  C11_17 
REMARK    8  A    between atoms: C17_25  and  N5_26 
REMARK    9  A    between atoms: N5_26  and  C18_28 
ROOT
HETATM    1  C8  UNL     1     -12.653 -48.770  14.587  1.00  0.00     0.707 A 
HETATM    2  N2  UNL     1     -11.804 -49.652  15.122  1.00  0.00    -0.022 N 
ATOM      3  H2  UNL     1     -11.808 -49.761  16.137  1.00  0.00     0.203 HD
HETATM    4  C9  UNL     1     -10.941 -50.412  14.413  1.00  0.00     0.707 A 
HETATM    5  N4  UNL     1     -10.945 -50.260  13.077  1.00  0.00    -0.021 N 
ATOM      6  H4  UNL     1     -10.310 -50.811  12.499  1.00  0.00     0.203 HD
HETATM    7  C17 UNL     1     -11.798 -49.367  12.495  1.00  0.00     0.711 A 
HETATM    8  N8  UNL     1     -12.640 -48.633  13.232  1.00  0.00    -0.021 N 
ATOM      9  H8  UNL     1     -13.271 -47.972  12.779  1.00  0.00     0.203 HD
ENDROOT
BRANCH   7  10
HETATM   10  N5  UNL     1     -11.768 -49.254  11.213  1.00  0.00    -0.191 N 
ATOM     11  H5  UNL     1     -11.093 -48.640  10.758  1.00  0.00     0.184 HD
BRANCH  10  12
HETATM   12  C18 UNL     1     -12.699 -50.006  10.451  1.00  0.00     0.050 A 
HETATM   13  C19 UNL     1     -13.905 -50.383  11.027  1.00  0.00     0.032 A 
HETATM   14  C20 UNL     1     -14.781 -51.111  10.260  1.00  0.00     0.034 A 
HETATM   15  C21 UNL     1     -14.503 -51.469   8.962  1.00  0.00     0.059 A 
HETATM   16  N6  UNL     1     -15.150 -52.155   8.003  1.00  0.00    -0.300 N 
HETATM   17  C23 UNL     1     -13.290 -51.083   8.398  1.00  0.00     0.011 A 
HETATM   18  N7  UNL     1     -14.444 -52.225   6.903  1.00  0.00    -0.311 N 
ATOM     19  H6  UNL     1     -16.076 -52.569   8.119  1.00  0.00     0.187 HD
HETATM   20  C22 UNL     1     -13.269 -51.569   7.096  1.00  0.00     0.120 A 
ATOM     21  H7  UNL     1     -14.729 -52.694   6.043  1.00  0.00     0.186 HD
HETATM   22  C24 UNL     1     -12.403 -50.354   9.155  1.00  0.00     0.045 A 
ENDBRANCH  10  12
ENDBRANCH   7  10
BRANCH   4  23
HETATM   23  N3  UNL     1     -10.144 -51.248  14.984  1.00  0.00    -0.221 N 
ATOM     24  H3  UNL     1      -9.197 -51.379  14.626  1.00  0.00     0.178 HD
BRANCH  23  25
HETATM   25  C10 UNL     1     -10.591 -51.996  16.124  1.00  0.00     0.176 C 
BRANCH  25  26
HETATM   26  C11 UNL     1     -10.426 -53.457  15.917  1.00  0.00    -0.040 A 
HETATM   27  C12 UNL     1      -9.309 -54.129  16.314  1.00  0.00     0.009 A 
HETATM   28  C13 UNL     1      -9.214 -55.494  16.093  1.00  0.00     0.001 A 
HETATM   29  C14 UNL     1     -10.215 -56.210  15.480  1.00  0.00     0.000 A 
HETATM   30  C15 UNL     1     -11.336 -55.512  15.086  1.00  0.00     0.001 A 
HETATM   31  C16 UNL     1     -11.437 -54.148  15.304  1.00  0.00     0.009 A 
ENDBRANCH  25  26
ENDBRANCH  23  25
ENDBRANCH   4  23
BRANCH   1  32
HETATM   32  N1  UNL     1     -13.478 -48.040  15.210  1.00  0.00    -0.221 N 
ATOM     33  H1  UNL     1     -13.191 -47.070  15.343  1.00  0.00     0.178 HD
BRANCH  32  34
HETATM   34  C7  UNL     1     -14.749 -48.379  15.752  1.00  0.00     0.176 C 
BRANCH  34  35
HETATM   35  C6  UNL     1     -15.640 -48.866  14.651  1.00  0.00    -0.040 A 
HETATM   36  C5  UNL     1     -16.150 -48.033  13.677  1.00  0.00     0.009 A 
HETATM   37  C4  UNL     1     -16.971 -48.498  12.667  1.00  0.00     0.007 A 
HETATM   38  C3  UNL     1     -17.314 -49.834  12.597  1.00  0.00    -0.059 A 
HETATM   39  C26 UNL     1     -16.806 -50.670  13.568  1.00  0.00     0.007 A 
HETATM   40  C25 UNL     1     -15.986 -50.199  14.575  1.00  0.00     0.009 A 
BRANCH  38  41
HETATM   41  C2  UNL     1     -18.198 -50.375  11.522  1.00  0.00     0.034 C 
HETATM   42  C1  UNL     1     -19.035 -49.241  10.981  1.00  0.00     0.010 C 
ENDBRANCH  38  41
ENDBRANCH  34  35
ENDBRANCH  32  34
ENDBRANCH   1  32
TORSDOF 9
ENDMDL
