MODEL 1
REMARK VINA RESULT: -7.317944598      0.000      0.000
REMARK  9 active torsions:
REMARK  status: ('A' for Active; 'I' for Inactive)
REMARK    1  A    between atoms: N1_1  and  C1_5 
REMARK    2  A    between atoms: C1_5  and  C2_6 
REMARK    3  A    between atoms: C2_6  and  C3_7 
REMARK    4  A    between atoms: C3_7  and  C4_8 
REMARK    5  A    between atoms: C4_8  and  N2_9 
REMARK    6  A    between atoms: N2_9  and  C5_11 
REMARK    7  A    between atoms: C7_13  and  C8_14 
REMARK    8  A    between atoms: C14_23  and  N4_24 
REMARK    9  A    between atoms: N4_24  and  C15_26 
ROOT
HETATM    1  C8  UNL     1     -14.883 -50.013  13.879  1.00  0.00     0.029 C 
HETATM    2  C9  UNL     1     -14.470 -51.225  14.159  1.00  0.00     0.045 A 
HETATM    3  C10 UNL     1     -15.154 -52.499  14.079  1.00  0.00     0.257 A 
HETATM    4  O1  UNL     1     -16.315 -52.757  13.688  1.00  0.00    -0.267 OA
HETATM    5  N3  UNL     1     -14.253 -53.513  14.541  1.00  0.00    -0.322 N 
ATOM      6  H3  UNL     1     -14.464 -54.510  14.598  1.00  0.00     0.169 HD
HETATM    7  C11 UNL     1     -13.023 -52.914  14.908  1.00  0.00     0.047 A 
HETATM    8  C12 UNL     1     -11.830 -53.438  15.416  1.00  0.00     0.046 A 
HETATM    9  C13 UNL     1     -10.743 -52.644  15.710  1.00  0.00     0.019 A 
HETATM   10  C14 UNL     1      -9.571 -53.172  16.211  1.00  0.00     0.046 A 
HETATM   11  C21 UNL     1      -8.547 -52.299  16.473  1.00  0.00     0.047 A 
HETATM   12  C22 UNL     1      -8.659 -50.933  16.250  1.00  0.00     0.090 A 
HETATM   13  N5  UNL     1      -9.814 -50.471  15.763  1.00  0.00    -0.365 N 
ATOM     14  H5  UNL     1      -9.914 -49.471  15.593  1.00  0.00     0.165 HD
HETATM   15  C23 UNL     1     -10.849 -51.284  15.489  1.00  0.00     0.045 A 
HETATM   16  C24 UNL     1     -12.045 -50.782  14.984  1.00  0.00     0.045 A 
HETATM   17  C25 UNL     1     -13.126 -51.579  14.693  1.00  0.00     0.009 A 
ENDROOT
BRANCH   1  18
HETATM   18  C7  UNL     1     -16.188 -49.636  13.407  1.00  0.00    -0.030 A 
HETATM   19  C6  UNL     1     -17.270 -49.566  14.220  1.00  0.00     0.059 A 
HETATM   20  C5  UNL     1     -18.537 -49.222  13.759  1.00  0.00     0.101 A 
HETATM   21  N6  UNL     1     -18.686 -48.950  12.465  1.00  0.00    -0.353 N 
HETATM   22  C27 UNL     1     -17.624 -49.012  11.639  1.00  0.00     0.090 A 
ATOM     23  H6  UNL     1     -19.604 -48.695  12.099  1.00  0.00     0.166 HD
HETATM   24  C26 UNL     1     -16.363 -49.348  12.059  1.00  0.00     0.028 A 
BRANCH  20  25
HETATM   25  N2  UNL     1     -19.468 -49.192  14.641  1.00  0.00    -0.376 N 
ATOM     26  H2  UNL     1     -19.264 -48.901  15.597  1.00  0.00     0.161 HD
BRANCH  25  27
HETATM   27  C4  UNL     1     -20.830 -49.582  14.259  1.00  0.00     0.121 C 
BRANCH  27  28
HETATM   28  C3  UNL     1     -20.973 -51.049  14.463  1.00  0.00     0.021 C 
BRANCH  28  29
HETATM   29  C2  UNL     1     -20.977 -51.865  13.224  1.00  0.00     0.029 C 
BRANCH  29  30
HETATM   30  C1  UNL     1     -19.876 -52.823  13.004  1.00  0.00     0.229 C 
BRANCH  30  31
HETATM   31  N1  UNL     1     -18.857 -52.452  12.086  1.00  0.00    -0.079 N 
ATOM     32  H13 UNL     1     -18.594 -53.264  11.528  1.00  0.00     0.274 HD
ATOM     33  H12 UNL     1     -19.254 -51.847  11.367  1.00  0.00     0.274 HD
ATOM     34  H11 UNL     1     -18.017 -52.017  12.466  1.00  0.00     0.274 HD
ENDBRANCH  30  31
ENDBRANCH  29  30
ENDBRANCH  28  29
ENDBRANCH  27  28
ENDBRANCH  25  27
ENDBRANCH  20  25
ENDBRANCH   1  18
BRANCH  10  35
HETATM   35  N4  UNL     1      -9.499 -54.426  16.405  1.00  0.00    -0.355 N 
ATOM     36  H4  UNL     1      -9.840 -54.752  17.310  1.00  0.00     0.166 HD
BRANCH  35  37
HETATM   37  C15 UNL     1      -9.018 -55.419  15.550  1.00  0.00     0.032 A 
HETATM   38  C16 UNL     1      -8.655 -55.242  14.232  1.00  0.00     0.029 A 
HETATM   39  C17 UNL     1      -8.182 -56.323  13.479  1.00  0.00     0.002 A 
HETATM   40  C18 UNL     1      -8.071 -57.577  14.034  1.00  0.00     0.000 A 
HETATM   41  C19 UNL     1      -8.428 -57.774  15.346  1.00  0.00     0.002 A 
HETATM   42  C20 UNL     1      -8.897 -56.699  16.090  1.00  0.00     0.029 A 
ENDBRANCH  35  37
ENDBRANCH  10  35
TORSDOF 9
ENDMDL
MODEL 2
REMARK VINA RESULT: -7.290923480      1.123      1.161
REMARK  9 active torsions:
REMARK  status: ('A' for Active; 'I' for Inactive)
REMARK    1  A    between atoms: N1_1  and  C1_5 
REMARK    2  A    between atoms: C1_5  and  C2_6 
REMARK    3  A    between atoms: C2_6  and  C3_7 
REMARK    4  A    between atoms: C3_7  and  C4_8 
REMARK    5  A    between atoms: C4_8  and  N2_9 
REMARK    6  A    between atoms: N2_9  and  C5_11 
REMARK    7  A    between atoms: C7_13  and  C8_14 
REMARK    8  A    between atoms: C14_23  and  N4_24 
REMARK    9  A    between atoms: N4_24  and  C15_26 
ROOT
HETATM    1  C8  UNL     1     -15.067 -50.099  13.860  1.00  0.00     0.029 C 
HETATM    2  C9  UNL     1     -14.633 -51.305  14.132  1.00  0.00     0.045 A 
HETATM    3  C10 UNL     1     -15.299 -52.590  14.053  1.00  0.00     0.257 A 
HETATM    4  O1  UNL     1     -16.458 -52.864  13.668  1.00  0.00    -0.267 OA
HETATM    5  N3  UNL     1     -14.379 -53.591  14.506  1.00  0.00    -0.322 N 
ATOM      6  H3  UNL     1     -14.574 -54.591  14.561  1.00  0.00     0.169 HD
HETATM    7  C11 UNL     1     -13.156 -52.975  14.867  1.00  0.00     0.047 A 
HETATM    8  C12 UNL     1     -11.952 -53.482  15.365  1.00  0.00     0.046 A 
HETATM    9  C13 UNL     1     -10.875 -52.673  15.655  1.00  0.00     0.019 A 
HETATM   10  C14 UNL     1      -9.693 -53.184  16.147  1.00  0.00     0.046 A 
HETATM   11  C21 UNL     1      -8.680 -52.296  16.405  1.00  0.00     0.047 A 
HETATM   12  C22 UNL     1      -8.814 -50.931  16.187  1.00  0.00     0.090 A 
HETATM   13  N5  UNL     1      -9.979 -50.486  15.709  1.00  0.00    -0.365 N 
ATOM     14  H5  UNL     1     -10.096 -49.486  15.543  1.00  0.00     0.165 HD
HETATM   15  C23 UNL     1     -11.003 -51.313  15.439  1.00  0.00     0.045 A 
HETATM   16  C24 UNL     1     -12.210 -50.828  14.943  1.00  0.00     0.045 A 
HETATM   17  C25 UNL     1     -13.281 -51.641  14.657  1.00  0.00     0.009 A 
ENDROOT
BRANCH   1  18
HETATM   18  C7  UNL     1     -16.380 -49.740  13.397  1.00  0.00    -0.030 A 
HETATM   19  C6  UNL     1     -17.470 -49.755  14.202  1.00  0.00     0.059 A 
HETATM   20  C5  UNL     1     -18.745 -49.428  13.749  1.00  0.00     0.101 A 
HETATM   21  N6  UNL     1     -18.894 -49.087  12.471  1.00  0.00    -0.353 N 
HETATM   22  C27 UNL     1     -17.823 -49.066  11.653  1.00  0.00     0.090 A 
ATOM     23  H6  UNL     1     -19.816 -48.844  12.111  1.00  0.00     0.166 HD
HETATM   24  C26 UNL     1     -16.554 -49.382  12.065  1.00  0.00     0.028 A 
BRANCH  20  25
HETATM   25  N2  UNL     1     -19.683 -49.481  14.622  1.00  0.00    -0.376 N 
ATOM     26  H2  UNL     1     -19.544 -49.089  15.553  1.00  0.00     0.161 HD
BRANCH  25  27
HETATM   27  C4  UNL     1     -20.960 -50.109  14.265  1.00  0.00     0.121 C 
BRANCH  27  28
HETATM   28  C3  UNL     1     -20.783 -51.587  14.304  1.00  0.00     0.021 C 
BRANCH  28  29
HETATM   29  C2  UNL     1     -21.606 -52.298  15.313  1.00  0.00     0.029 C 
BRANCH  29  30
HETATM   30  C1  UNL     1     -21.501 -53.767  15.402  1.00  0.00     0.229 C 
BRANCH  30  31
HETATM   31  N1  UNL     1     -21.200 -54.327  16.673  1.00  0.00    -0.079 N 
ATOM     32  H13 UNL     1     -20.935 -53.581  17.317  1.00  0.00     0.274 HD
ATOM     33  H12 UNL     1     -22.061 -54.658  17.109  1.00  0.00     0.274 HD
ATOM     34  H11 UNL     1     -20.499 -55.067  16.707  1.00  0.00     0.274 HD
ENDBRANCH  30  31
ENDBRANCH  29  30
ENDBRANCH  28  29
ENDBRANCH  27  28
ENDBRANCH  25  27
ENDBRANCH  20  25
ENDBRANCH   1  18
BRANCH  10  35
HETATM   35  N4  UNL     1      -9.600 -54.438  16.336  1.00  0.00    -0.355 N 
ATOM     36  H4  UNL     1      -9.979 -54.779  17.221  1.00  0.00     0.166 HD
BRANCH  35  37
HETATM   37  C15 UNL     1      -9.052 -55.412  15.501  1.00  0.00     0.032 A 
HETATM   38  C16 UNL     1      -8.634 -55.219  14.202  1.00  0.00     0.029 A 
HETATM   39  C17 UNL     1      -8.096 -56.282  13.468  1.00  0.00     0.002 A 
HETATM   40  C18 UNL     1      -7.974 -57.535  14.023  1.00  0.00     0.000 A 
HETATM   41  C19 UNL     1      -8.385 -57.748  15.316  1.00  0.00     0.002 A 
HETATM   42  C20 UNL     1      -8.918 -56.690  16.041  1.00  0.00     0.029 A 
ENDBRANCH  35  37
ENDBRANCH  10  35
TORSDOF 9
ENDMDL
MODEL 3
REMARK VINA RESULT: -6.930103322      1.058      1.431
REMARK  9 active torsions:
REMARK  status: ('A' for Active; 'I' for Inactive)
REMARK    1  A    between atoms: N1_1  and  C1_5 
REMARK    2  A    between atoms: C1_5  and  C2_6 
REMARK    3  A    between atoms: C2_6  and  C3_7 
REMARK    4  A    between atoms: C3_7  and  C4_8 
REMARK    5  A    between atoms: C4_8  and  N2_9 
REMARK    6  A    between atoms: N2_9  and  C5_11 
REMARK    7  A    between atoms: C7_13  and  C8_14 
REMARK    8  A    between atoms: C14_23  and  N4_24 
REMARK    9  A    between atoms: N4_24  and  C15_26 
ROOT
HETATM    1  C8  UNL     1     -14.996 -50.057  13.818  1.00  0.00     0.029 C 
HETATM    2  C9  UNL     1     -14.592 -51.266  14.118  1.00  0.00     0.045 A 
HETATM    3  C10 UNL     1     -15.285 -52.537  14.059  1.00  0.00     0.257 A 
HETATM    4  O1  UNL     1     -16.447 -52.793  13.670  1.00  0.00    -0.267 OA
HETATM    5  N3  UNL     1     -14.392 -53.549  14.540  1.00  0.00    -0.322 N 
ATOM      6  H3  UNL     1     -14.611 -54.543  14.613  1.00  0.00     0.169 HD
HETATM    7  C11 UNL     1     -13.159 -52.953  14.899  1.00  0.00     0.047 A 
HETATM    8  C12 UNL     1     -11.971 -53.477  15.418  1.00  0.00     0.046 A 
HETATM    9  C13 UNL     1     -10.878 -52.686  15.701  1.00  0.00     0.019 A 
HETATM   10  C14 UNL     1      -9.712 -53.213  16.213  1.00  0.00     0.046 A 
HETATM   11  C21 UNL     1      -8.682 -52.343  16.462  1.00  0.00     0.047 A 
HETATM   12  C22 UNL     1      -8.783 -50.980  16.216  1.00  0.00     0.090 A 
HETATM   13  N5  UNL     1      -9.934 -50.519  15.719  1.00  0.00    -0.365 N 
ATOM     14  H5  UNL     1     -10.027 -49.521  15.532  1.00  0.00     0.165 HD
HETATM   15  C23 UNL     1     -10.974 -51.328  15.457  1.00  0.00     0.045 A 
HETATM   16  C24 UNL     1     -12.165 -50.826  14.941  1.00  0.00     0.045 A 
HETATM   17  C25 UNL     1     -13.252 -51.621  14.661  1.00  0.00     0.009 A 
ENDROOT
BRANCH   1  18
HETATM   18  C7  UNL     1     -16.297 -49.678  13.337  1.00  0.00    -0.030 A 
HETATM   19  C6  UNL     1     -17.383 -49.599  14.144  1.00  0.00     0.059 A 
HETATM   20  C5  UNL     1     -18.646 -49.254  13.674  1.00  0.00     0.101 A 
HETATM   21  N6  UNL     1     -18.789 -48.989  12.377  1.00  0.00    -0.353 N 
HETATM   22  C27 UNL     1     -17.723 -49.060  11.557  1.00  0.00     0.090 A 
ATOM     23  H6  UNL     1     -19.703 -48.734  12.006  1.00  0.00     0.166 HD
HETATM   24  C26 UNL     1     -16.464 -49.398  11.985  1.00  0.00     0.028 A 
BRANCH  20  25
HETATM   25  N2  UNL     1     -19.582 -49.215  14.551  1.00  0.00    -0.376 N 
ATOM     26  H2  UNL     1     -19.496 -48.614  15.370  1.00  0.00     0.161 HD
BRANCH  25  27
HETATM   27  C4  UNL     1     -20.777 -50.044  14.362  1.00  0.00     0.121 C 
BRANCH  27  28
HETATM   28  C3  UNL     1     -21.758 -49.276  13.547  1.00  0.00     0.021 C 
BRANCH  28  29
HETATM   29  C2  UNL     1     -22.544 -50.077  12.577  1.00  0.00     0.029 C 
BRANCH  29  30
HETATM   30  C1  UNL     1     -21.906 -50.473  11.306  1.00  0.00     0.229 C 
BRANCH  30  31
HETATM   31  N1  UNL     1     -22.650 -50.278  10.111  1.00  0.00    -0.079 N 
ATOM     32  H13 UNL     1     -23.467 -49.702  10.312  1.00  0.00     0.274 HD
ATOM     33  H12 UNL     1     -22.130 -49.661   9.487  1.00  0.00     0.274 HD
ATOM     34  H11 UNL     1     -22.941 -51.109   9.597  1.00  0.00     0.274 HD
ENDBRANCH  30  31
ENDBRANCH  29  30
ENDBRANCH  28  29
ENDBRANCH  27  28
ENDBRANCH  25  27
ENDBRANCH  20  25
ENDBRANCH   1  18
BRANCH  10  35
HETATM   35  N4  UNL     1      -9.649 -54.465  16.428  1.00  0.00    -0.355 N 
ATOM     36  H4  UNL     1     -10.080 -54.785  17.296  1.00  0.00     0.166 HD
BRANCH  35  37
HETATM   37  C15 UNL     1      -9.071 -55.461  15.640  1.00  0.00     0.032 A 
HETATM   38  C16 UNL     1      -8.869 -56.772  16.016  1.00  0.00     0.029 A 
HETATM   39  C17 UNL     1      -8.280 -57.678  15.127  1.00  0.00     0.002 A 
HETATM   40  C18 UNL     1      -7.891 -57.283  13.868  1.00  0.00     0.000 A 
HETATM   41  C19 UNL     1      -8.085 -55.981  13.474  1.00  0.00     0.002 A 
HETATM   42  C20 UNL     1      -8.670 -55.085  14.359  1.00  0.00     0.029 A 
ENDBRANCH  35  37
ENDBRANCH  10  35
TORSDOF 9
ENDMDL
MODEL 4
REMARK VINA RESULT: -6.742618375      2.971      5.047
REMARK  9 active torsions:
REMARK  status: ('A' for Active; 'I' for Inactive)
REMARK    1  A    between atoms: N1_1  and  C1_5 
REMARK    2  A    between atoms: C1_5  and  C2_6 
REMARK    3  A    between atoms: C2_6  and  C3_7 
REMARK    4  A    between atoms: C3_7  and  C4_8 
REMARK    5  A    between atoms: C4_8  and  N2_9 
REMARK    6  A    between atoms: N2_9  and  C5_11 
REMARK    7  A    between atoms: C7_13  and  C8_14 
REMARK    8  A    between atoms: C14_23  and  N4_24 
REMARK    9  A    between atoms: N4_24  and  C15_26 
ROOT
HETATM    1  C8  UNL     1     -19.727 -49.919  13.590  1.00  0.00     0.029 C 
HETATM    2  C9  UNL     1     -18.672 -50.643  13.309  1.00  0.00     0.045 A 
HETATM    3  C10 UNL     1     -18.559 -51.959  12.715  1.00  0.00     0.257 A 
HETATM    4  O1  UNL     1     -19.456 -52.722  12.293  1.00  0.00    -0.267 OA
HETATM    5  N3  UNL     1     -17.168 -52.303  12.667  1.00  0.00    -0.322 N 
ATOM      6  H3  UNL     1     -16.788 -53.175  12.299  1.00  0.00     0.169 HD
HETATM    7  C11 UNL     1     -16.404 -51.242  13.212  1.00  0.00     0.047 A 
HETATM    8  C12 UNL     1     -15.030 -51.067  13.404  1.00  0.00     0.046 A 
HETATM    9  C13 UNL     1     -14.505 -49.926  13.971  1.00  0.00     0.019 A 
HETATM   10  C14 UNL     1     -13.149 -49.765  14.157  1.00  0.00     0.046 A 
HETATM   11  C21 UNL     1     -12.725 -48.594  14.731  1.00  0.00     0.047 A 
HETATM   12  C22 UNL     1     -13.607 -47.594  15.118  1.00  0.00     0.090 A 
HETATM   13  N5  UNL     1     -14.911 -47.798  14.917  1.00  0.00    -0.365 N 
ATOM     14  H5  UNL     1     -15.574 -47.075  15.195  1.00  0.00     0.165 HD
HETATM   15  C23 UNL     1     -15.379 -48.927  14.358  1.00  0.00     0.045 A 
HETATM   16  C24 UNL     1     -16.743 -49.121  14.158  1.00  0.00     0.045 A 
HETATM   17  C25 UNL     1     -17.261 -50.262  13.592  1.00  0.00     0.009 A 
ENDROOT
BRANCH   1  18
HETATM   18  C7  UNL     1     -21.102 -50.280  13.371  1.00  0.00    -0.030 A 
HETATM   19  C6  UNL     1     -21.817 -51.015  14.257  1.00  0.00     0.059 A 
HETATM   20  C5  UNL     1     -23.141 -51.382  14.035  1.00  0.00     0.101 A 
HETATM   21  N6  UNL     1     -23.724 -50.992  12.904  1.00  0.00    -0.353 N 
HETATM   22  C27 UNL     1     -23.033 -50.259  12.010  1.00  0.00     0.090 A 
ATOM     23  H6  UNL     1     -24.693 -51.247  12.715  1.00  0.00     0.166 HD
HETATM   24  C26 UNL     1     -21.728 -49.880  12.196  1.00  0.00     0.028 A 
BRANCH  20  25
HETATM   25  N2  UNL     1     -23.696 -52.076  14.960  1.00  0.00    -0.376 N 
ATOM     26  H2  UNL     1     -24.266 -51.622  15.673  1.00  0.00     0.161 HD
BRANCH  25  27
HETATM   27  C4  UNL     1     -23.501 -53.529  14.981  1.00  0.00     0.121 C 
BRANCH  27  28
HETATM   28  C3  UNL     1     -22.942 -53.910  16.308  1.00  0.00     0.021 C 
BRANCH  28  29
HETATM   29  C2  UNL     1     -21.463 -54.005  16.370  1.00  0.00     0.029 C 
BRANCH  29  30
HETATM   30  C1  UNL     1     -20.794 -55.101  15.642  1.00  0.00     0.229 C 
BRANCH  30  31
HETATM   31  N1  UNL     1     -21.440 -56.366  15.622  1.00  0.00    -0.079 N 
ATOM     32  H13 UNL     1     -22.311 -56.309  16.151  1.00  0.00     0.274 HD
ATOM     33  H12 UNL     1     -21.798 -56.547  14.684  1.00  0.00     0.274 HD
ATOM     34  H11 UNL     1     -20.905 -57.173  15.940  1.00  0.00     0.274 HD
ENDBRANCH  30  31
ENDBRANCH  29  30
ENDBRANCH  28  29
ENDBRANCH  27  28
ENDBRANCH  25  27
ENDBRANCH  20  25
ENDBRANCH   1  18
BRANCH  10  35
HETATM   35  N4  UNL     1     -12.366 -50.698  13.792  1.00  0.00    -0.355 N 
ATOM     36  H4  UNL     1     -12.708 -51.289  13.034  1.00  0.00     0.166 HD
BRANCH  35  37
HETATM   37  C15 UNL     1     -11.103 -51.026  14.288  1.00  0.00     0.032 A 
HETATM   38  C16 UNL     1     -10.799 -51.306  15.602  1.00  0.00     0.029 A 
HETATM   39  C17 UNL     1      -9.487 -51.625  15.972  1.00  0.00     0.002 A 
HETATM   40  C18 UNL     1      -8.479 -51.665  15.037  1.00  0.00     0.000 A 
HETATM   41  C19 UNL     1      -8.761 -51.389  13.720  1.00  0.00     0.002 A 
HETATM   42  C20 UNL     1     -10.064 -51.073  13.358  1.00  0.00     0.029 A 
ENDBRANCH  35  37
ENDBRANCH  10  35
TORSDOF 9
ENDMDL
MODEL 5
REMARK VINA RESULT: -6.729996698      3.826      6.182
REMARK  9 active torsions:
REMARK  status: ('A' for Active; 'I' for Inactive)
REMARK    1  A    between atoms: N1_1  and  C1_5 
REMARK    2  A    between atoms: C1_5  and  C2_6 
REMARK    3  A    between atoms: C2_6  and  C3_7 
REMARK    4  A    between atoms: C3_7  and  C4_8 
REMARK    5  A    between atoms: C4_8  and  N2_9 
REMARK    6  A    between atoms: N2_9  and  C5_11 
REMARK    7  A    between atoms: C7_13  and  C8_14 
REMARK    8  A    between atoms: C14_23  and  N4_24 
REMARK    9  A    between atoms: N4_24  and  C15_26 
ROOT
HETATM    1  C8  UNL     1     -19.092 -49.587  11.137  1.00  0.00     0.029 C 
HETATM    2  C9  UNL     1     -17.973 -50.266  11.104  1.00  0.00     0.045 A 
HETATM    3  C10 UNL     1     -17.599 -51.437  10.337  1.00  0.00     0.257 A 
HETATM    4  O1  UNL     1     -18.258 -52.075   9.486  1.00  0.00    -0.267 OA
HETATM    5  N3  UNL     1     -16.264 -51.801  10.710  1.00  0.00    -0.322 N 
ATOM      6  H3  UNL     1     -15.739 -52.590  10.332  1.00  0.00     0.169 HD
HETATM    7  C11 UNL     1     -15.787 -50.892  11.687  1.00  0.00     0.047 A 
HETATM    8  C12 UNL     1     -14.575 -50.796  12.377  1.00  0.00     0.046 A 
HETATM    9  C13 UNL     1     -14.332 -49.808  13.306  1.00  0.00     0.019 A 
HETATM   10  C14 UNL     1     -13.133 -49.723  13.982  1.00  0.00     0.046 A 
HETATM   11  C21 UNL     1     -12.990 -48.704  14.888  1.00  0.00     0.047 A 
HETATM   12  C22 UNL     1     -13.997 -47.781  15.134  1.00  0.00     0.090 A 
HETATM   13  N5  UNL     1     -15.140 -47.905  14.454  1.00  0.00    -0.365 N 
ATOM     14  H5  UNL     1     -15.891 -47.236  14.622  1.00  0.00     0.165 HD
HETATM   15  C23 UNL     1     -15.332 -48.885  13.555  1.00  0.00     0.045 A 
HETATM   16  C24 UNL     1     -16.531 -48.998  12.857  1.00  0.00     0.045 A 
HETATM   17  C25 UNL     1     -16.767 -49.987  11.931  1.00  0.00     0.009 A 
ENDROOT
BRANCH   1  18
HETATM   18  C7  UNL     1     -20.287 -49.859  10.385  1.00  0.00    -0.030 A 
HETATM   19  C6  UNL     1     -20.430 -49.510   9.083  1.00  0.00     0.059 A 
HETATM   20  C5  UNL     1     -21.594 -49.755   8.361  1.00  0.00     0.101 A 
HETATM   21  N6  UNL     1     -22.607 -50.357   8.980  1.00  0.00    -0.353 N 
HETATM   22  C27 UNL     1     -22.487 -50.714  10.274  1.00  0.00     0.090 A 
ATOM     23  H6  UNL     1     -23.473 -50.549   8.476  1.00  0.00     0.166 HD
HETATM   24  C26 UNL     1     -21.355 -50.488  11.015  1.00  0.00     0.028 A 
BRANCH  20  25
HETATM   25  N2  UNL     1     -21.589 -49.374   7.136  1.00  0.00    -0.376 N 
ATOM     26  H2  UNL     1     -21.085 -49.912   6.431  1.00  0.00     0.161 HD
BRANCH  25  27
HETATM   27  C4  UNL     1     -22.315 -48.156   6.761  1.00  0.00     0.121 C 
BRANCH  27  28
HETATM   28  C3  UNL     1     -21.344 -47.190   6.178  1.00  0.00     0.021 C 
BRANCH  28  29
HETATM   29  C2  UNL     1     -21.220 -45.901   6.900  1.00  0.00     0.029 C 
BRANCH  29  30
HETATM   30  C1  UNL     1     -22.388 -45.001   6.947  1.00  0.00     0.229 C 
BRANCH  30  31
HETATM   31  N1  UNL     1     -22.331 -43.898   7.840  1.00  0.00    -0.079 N 
ATOM     32  H13 UNL     1     -21.377 -43.792   8.186  1.00  0.00     0.274 HD
ATOM     33  H12 UNL     1     -22.441 -43.031   7.314  1.00  0.00     0.274 HD
ATOM     34  H11 UNL     1     -22.978 -43.896   8.629  1.00  0.00     0.274 HD
ENDBRANCH  30  31
ENDBRANCH  29  30
ENDBRANCH  28  29
ENDBRANCH  27  28
ENDBRANCH  25  27
ENDBRANCH  20  25
ENDBRANCH   1  18
BRANCH  10  35
HETATM   35  N4  UNL     1     -12.230 -50.584  13.735  1.00  0.00    -0.355 N 
ATOM     36  H4  UNL     1     -12.167 -50.891  12.764  1.00  0.00     0.166 HD
BRANCH  35  37
HETATM   37  C15 UNL     1     -11.312 -51.165  14.611  1.00  0.00     0.032 A 
HETATM   38  C16 UNL     1     -11.622 -51.955  15.697  1.00  0.00     0.029 A 
HETATM   39  C17 UNL     1     -10.604 -52.483  16.499  1.00  0.00     0.002 A 
HETATM   40  C18 UNL     1      -9.281 -52.227  16.223  1.00  0.00     0.000 A 
HETATM   41  C19 UNL     1      -8.951 -51.442  15.145  1.00  0.00     0.002 A 
HETATM   42  C20 UNL     1      -9.964 -50.919  14.352  1.00  0.00     0.029 A 
ENDBRANCH  35  37
ENDBRANCH  10  35
TORSDOF 9
ENDMDL
