MODEL 1
REMARK VINA RESULT: -8.059800112      0.000      0.000
REMARK  8 active torsions:
REMARK  status: ('A' for Active; 'I' for Inactive)
REMARK    1  A    between atoms: C4_4  and  C5_5 
REMARK    2  A    between atoms: C7_7  and  N1_8 
REMARK    3  A    between atoms: N1_8  and  C8_10 
REMARK    4  A    between atoms: C10_12  and  N2_13 
REMARK    5  A    between atoms: C11_15  and  C12_16 
REMARK    6  A    between atoms: C12_16  and  N3_17 
REMARK    7  A    between atoms: N3_17  and  C13_19 
REMARK    8  A    between atoms: C18_32  and  C19_33 
ROOT
HETATM    1  C8  UNL     1     -13.071 -48.614  13.640  1.00  0.00     0.107 A 
HETATM    2  C9  UNL     1     -13.426 -49.890  13.932  1.00  0.00     0.078 A 
HETATM    3  C10 UNL     1     -14.247 -50.154  15.080  1.00  0.00     0.036 A 
HETATM    4  C15 UNL     1     -14.613 -49.047  15.808  1.00  0.00     0.046 A 
HETATM    5  C16 UNL     1     -14.233 -47.742  15.483  1.00  0.00     0.092 A 
HETATM    6  N7  UNL     1     -13.466 -47.569  14.397  1.00  0.00    -0.352 N 
ATOM      7  H7  UNL     1     -13.175 -46.627  14.137  1.00  0.00     0.166 HD
ENDROOT
BRANCH   1   8
HETATM    8  N1  UNL     1     -12.256 -48.378  12.494  1.00  0.00    -0.342 N 
ATOM      9  H1  UNL     1     -11.922 -47.433  12.309  1.00  0.00     0.167 HD
BRANCH   8  10
HETATM   10  C7  UNL     1     -11.928 -49.333  11.683  1.00  0.00     0.037 A 
HETATM   11  C6  UNL     1     -12.587 -49.512  10.487  1.00  0.00     0.059 A 
HETATM   12  C5  UNL     1     -12.252 -50.523   9.610  1.00  0.00     0.045 A 
HETATM   13  N8  UNL     1     -11.247 -51.327   9.983  1.00  0.00    -0.355 N 
HETATM   14  C18 UNL     1     -10.570 -51.193  11.143  1.00  0.00     0.045 A 
ATOM     15  H8  UNL     1     -10.978 -52.083   9.353  1.00  0.00     0.166 HD
HETATM   16  C17 UNL     1     -10.897 -50.183  12.029  1.00  0.00     0.059 A 
BRANCH  12  17
HETATM   17  C4  UNL     1     -12.964 -50.696   8.346  1.00  0.00    -0.009 A 
HETATM   18  C3  UNL     1     -12.475 -50.244   7.140  1.00  0.00     0.013 A 
HETATM   19  C2  UNL     1     -13.171 -50.418   5.931  1.00  0.00     0.001 A 
HETATM   20  C1  UNL     1     -14.384 -51.059   5.933  1.00  0.00     0.000 A 
HETATM   21  C26 UNL     1     -14.898 -51.520   7.114  1.00  0.00     0.001 A 
HETATM   22  C25 UNL     1     -14.186 -51.336   8.307  1.00  0.00     0.013 A 
ENDBRANCH  12  17
BRANCH  14  23
HETATM   23  C19 UNL     1      -9.497 -52.127  11.436  1.00  0.00    -0.009 A 
HETATM   24  C20 UNL     1      -9.028 -53.043  10.540  1.00  0.00     0.013 A 
HETATM   25  C21 UNL     1      -7.992 -53.934  10.847  1.00  0.00     0.001 A 
HETATM   26  C22 UNL     1      -7.416 -53.901  12.085  1.00  0.00     0.000 A 
HETATM   27  C23 UNL     1      -7.862 -52.993  13.011  1.00  0.00     0.001 A 
HETATM   28  C24 UNL     1      -8.905 -52.109  12.676  1.00  0.00     0.013 A 
ENDBRANCH  14  23
ENDBRANCH   8  10
ENDBRANCH   1   8
BRANCH   3  29
HETATM   29  N2  UNL     1     -14.552 -51.322  15.320  1.00  0.00    -0.368 N 
HETATM   30  C11 UNL     1     -14.113 -52.456  15.927  1.00  0.00     0.080 C 
ATOM     31  H2  UNL     1     -15.471 -51.506  14.915  1.00  0.00     0.165 HD
BRANCH  30  32
HETATM   32  C12 UNL     1     -12.781 -52.483  16.644  1.00  0.00     0.165 C 
BRANCH  32  33
HETATM   33  N3  UNL     1     -11.754 -52.524  15.583  1.00  0.00    -0.369 N 
ATOM     34  H3  UNL     1     -11.926 -52.972  14.683  1.00  0.00     0.161 HD
BRANCH  33  35
HETATM   35  C13 UNL     1     -10.628 -51.960  15.857  1.00  0.00     0.134 A 
HETATM   36  C14 UNL     1      -9.510 -52.638  16.345  1.00  0.00     0.158 A 
HETATM   37  N4  UNL     1      -8.559 -51.719  16.501  1.00  0.00    -0.294 N 
HETATM   38  N5  UNL     1      -8.988 -50.525  16.151  1.00  0.00    -0.241 N 
ATOM     39  H4  UNL     1      -7.620 -51.915  16.848  1.00  0.00     0.187 HD
HETATM   40  N6  UNL     1     -10.244 -50.679  15.762  1.00  0.00    -0.270 N 
ATOM     41  H5  UNL     1      -8.458 -49.654  16.174  1.00  0.00     0.208 HD
ATOM     42  H6  UNL     1     -10.842 -49.922  15.432  1.00  0.00     0.190 HD
ENDBRANCH  33  35
ENDBRANCH  32  33
ENDBRANCH  30  32
ENDBRANCH   3  29
TORSDOF 8
ENDMDL
MODEL 2
REMARK VINA RESULT: -7.998466846      2.512      5.323
REMARK  8 active torsions:
REMARK  status: ('A' for Active; 'I' for Inactive)
REMARK    1  A    between atoms: C4_4  and  C5_5 
REMARK    2  A    between atoms: C7_7  and  N1_8 
REMARK    3  A    between atoms: N1_8  and  C8_10 
REMARK    4  A    between atoms: C10_12  and  N2_13 
REMARK    5  A    between atoms: C11_15  and  C12_16 
REMARK    6  A    between atoms: C12_16  and  N3_17 
REMARK    7  A    between atoms: N3_17  and  C13_19 
REMARK    8  A    between atoms: C18_32  and  C19_33 
ROOT
HETATM    1  C8  UNL     1     -10.642 -50.592  15.544  1.00  0.00     0.107 A 
HETATM    2  C9  UNL     1     -11.104 -51.863  15.638  1.00  0.00     0.078 A 
HETATM    3  C10 UNL     1     -10.215 -52.913  16.049  1.00  0.00     0.036 A 
HETATM    4  C15 UNL     1      -8.926 -52.520  16.321  1.00  0.00     0.046 A 
HETATM    5  C16 UNL     1      -8.477 -51.202  16.216  1.00  0.00     0.092 A 
HETATM    6  N7  UNL     1      -9.362 -50.272  15.827  1.00  0.00    -0.352 N 
ATOM      7  H7  UNL     1      -9.060 -49.301  15.742  1.00  0.00     0.166 HD
ENDROOT
BRANCH   1   8
HETATM    8  N1  UNL     1     -11.544 -49.566  15.135  1.00  0.00    -0.342 N 
ATOM      9  H1  UNL     1     -11.609 -48.712  15.688  1.00  0.00     0.167 HD
BRANCH   8  10
HETATM   10  C7  UNL     1     -12.282 -49.691  14.078  1.00  0.00     0.037 A 
HETATM   11  C6  UNL     1     -13.651 -49.550  14.141  1.00  0.00     0.059 A 
HETATM   12  C5  UNL     1     -14.452 -49.678  13.027  1.00  0.00     0.045 A 
HETATM   13  N8  UNL     1     -13.830 -49.949  11.872  1.00  0.00    -0.355 N 
HETATM   14  C18 UNL     1     -12.493 -50.097  11.757  1.00  0.00     0.045 A 
ATOM     15  H8  UNL     1     -14.399 -50.050  11.031  1.00  0.00     0.166 HD
HETATM   16  C17 UNL     1     -11.679 -49.969  12.867  1.00  0.00     0.059 A 
BRANCH  12  17
HETATM   17  C4  UNL     1     -15.903 -49.525  13.115  1.00  0.00    -0.009 A 
HETATM   18  C3  UNL     1     -16.578 -49.441  14.313  1.00  0.00     0.013 A 
HETATM   19  C2  UNL     1     -17.974 -49.294  14.385  1.00  0.00     0.001 A 
HETATM   20  C1  UNL     1     -18.709 -49.230  13.228  1.00  0.00     0.000 A 
HETATM   21  C26 UNL     1     -18.069 -49.311  12.021  1.00  0.00     0.001 A 
HETATM   22  C25 UNL     1     -16.676 -49.457  11.974  1.00  0.00     0.013 A 
ENDBRANCH  12  17
BRANCH  14  23
HETATM   23  C19 UNL     1     -11.933 -50.389  10.448  1.00  0.00    -0.009 A 
HETATM   24  C20 UNL     1     -12.650 -50.324   9.289  1.00  0.00     0.013 A 
HETATM   25  C21 UNL     1     -12.087 -50.611   8.039  1.00  0.00     0.001 A 
HETATM   26  C22 UNL     1     -10.773 -50.973   7.956  1.00  0.00     0.000 A 
HETATM   27  C23 UNL     1     -10.022 -51.049   9.101  1.00  0.00     0.001 A 
HETATM   28  C24 UNL     1     -10.613 -50.755  10.345  1.00  0.00     0.013 A 
ENDBRANCH  14  23
ENDBRANCH   8  10
ENDBRANCH   1   8
BRANCH   3  29
HETATM   29  N2  UNL     1     -10.663 -54.057  16.125  1.00  0.00    -0.368 N 
HETATM   30  C11 UNL     1     -11.044 -55.126  15.375  1.00  0.00     0.080 C 
ATOM     31  H2  UNL     1     -10.799 -54.288  17.109  1.00  0.00     0.165 HD
BRANCH  30  32
HETATM   32  C12 UNL     1     -10.932 -55.092  13.867  1.00  0.00     0.165 C 
BRANCH  32  33
HETATM   33  N3  UNL     1     -12.231 -55.576  13.357  1.00  0.00    -0.369 N 
ATOM     34  H3  UNL     1     -12.315 -56.451  12.839  1.00  0.00     0.161 HD
BRANCH  33  35
HETATM   35  C13 UNL     1     -13.254 -54.832  13.602  1.00  0.00     0.134 A 
HETATM   36  C14 UNL     1     -13.382 -53.509  13.174  1.00  0.00     0.158 A 
HETATM   37  N4  UNL     1     -14.562 -53.088  13.624  1.00  0.00    -0.294 N 
HETATM   38  N5  UNL     1     -15.183 -54.035  14.295  1.00  0.00    -0.241 N 
ATOM     39  H4  UNL     1     -14.937 -52.152  13.468  1.00  0.00     0.187 HD
HETATM   40  N6  UNL     1     -14.383 -55.089  14.278  1.00  0.00    -0.270 N 
ATOM     41  H5  UNL     1     -16.098 -53.970  14.740  1.00  0.00     0.208 HD
ATOM     42  H6  UNL     1     -14.597 -55.982  14.722  1.00  0.00     0.190 HD
ENDBRANCH  33  35
ENDBRANCH  32  33
ENDBRANCH  30  32
ENDBRANCH   3  29
TORSDOF 8
ENDMDL
MODEL 3
REMARK VINA RESULT: -7.954190161      2.486      5.831
REMARK  8 active torsions:
REMARK  status: ('A' for Active; 'I' for Inactive)
REMARK    1  A    between atoms: C4_4  and  C5_5 
REMARK    2  A    between atoms: C7_7  and  N1_8 
REMARK    3  A    between atoms: N1_8  and  C8_10 
REMARK    4  A    between atoms: C10_12  and  N2_13 
REMARK    5  A    between atoms: C11_15  and  C12_16 
REMARK    6  A    between atoms: C12_16  and  N3_17 
REMARK    7  A    between atoms: N3_17  and  C13_19 
REMARK    8  A    between atoms: C18_32  and  C19_33 
ROOT
HETATM    1  C8  UNL     1     -10.668 -50.582  15.526  1.00  0.00     0.107 A 
HETATM    2  C9  UNL     1     -11.139 -51.846  15.652  1.00  0.00     0.078 A 
HETATM    3  C10 UNL     1     -10.248 -52.901  16.049  1.00  0.00     0.036 A 
HETATM    4  C15 UNL     1      -8.948 -52.518  16.274  1.00  0.00     0.046 A 
HETATM    5  C16 UNL     1      -8.488 -51.205  16.137  1.00  0.00     0.092 A 
HETATM    6  N7  UNL     1      -9.376 -50.271  15.764  1.00  0.00    -0.352 N 
ATOM      7  H7  UNL     1      -9.067 -49.305  15.657  1.00  0.00     0.166 HD
ENDROOT
BRANCH   1   8
HETATM    8  N1  UNL     1     -11.572 -49.552  15.132  1.00  0.00    -0.342 N 
ATOM      9  H1  UNL     1     -11.639 -48.706  15.697  1.00  0.00     0.167 HD
BRANCH   8  10
HETATM   10  C7  UNL     1     -12.310 -49.664  14.073  1.00  0.00     0.037 A 
HETATM   11  C6  UNL     1     -11.759 -49.954  12.845  1.00  0.00     0.059 A 
HETATM   12  C5  UNL     1     -12.529 -50.077  11.707  1.00  0.00     0.045 A 
HETATM   13  N8  UNL     1     -13.849 -49.899  11.858  1.00  0.00    -0.355 N 
HETATM   14  C18 UNL     1     -14.437 -49.614  13.039  1.00  0.00     0.045 A 
ATOM     15  H8  UNL     1     -14.442 -49.983  11.033  1.00  0.00     0.166 HD
HETATM   16  C17 UNL     1     -13.675 -49.489  14.186  1.00  0.00     0.059 A 
BRANCH  12  17
HETATM   17  C4  UNL     1     -11.925 -50.385  10.413  1.00  0.00    -0.009 A 
HETATM   18  C3  UNL     1     -12.619 -50.317   9.225  1.00  0.00     0.013 A 
HETATM   19  C2  UNL     1     -12.026 -50.616   7.986  1.00  0.00     0.001 A 
HETATM   20  C1  UNL     1     -10.707 -50.991   7.939  1.00  0.00     0.000 A 
HETATM   21  C26 UNL     1      -9.989 -51.068   9.102  1.00  0.00     0.001 A 
HETATM   22  C25 UNL     1     -10.601 -50.765  10.325  1.00  0.00     0.013 A 
ENDBRANCH  12  17
BRANCH  14  23
HETATM   23  C19 UNL     1     -15.879 -49.444  13.077  1.00  0.00    -0.009 A 
HETATM   24  C20 UNL     1     -16.654 -49.315  11.961  1.00  0.00     0.013 A 
HETATM   25  C21 UNL     1     -18.043 -49.151  12.023  1.00  0.00     0.001 A 
HETATM   26  C22 UNL     1     -18.666 -49.116  13.238  1.00  0.00     0.000 A 
HETATM   27  C23 UNL     1     -17.919 -49.243  14.381  1.00  0.00     0.001 A 
HETATM   28  C24 UNL     1     -16.523 -49.406  14.290  1.00  0.00     0.013 A 
ENDBRANCH  14  23
ENDBRANCH   8  10
ENDBRANCH   1   8
BRANCH   3  29
HETATM   29  N2  UNL     1     -10.705 -54.039  16.153  1.00  0.00    -0.368 N 
HETATM   30  C11 UNL     1     -11.113 -55.116  15.430  1.00  0.00     0.080 C 
ATOM     31  H2  UNL     1     -10.821 -54.252  17.144  1.00  0.00     0.165 HD
BRANCH  30  32
HETATM   32  C12 UNL     1     -11.036 -55.108  13.920  1.00  0.00     0.165 C 
BRANCH  32  33
HETATM   33  N3  UNL     1     -12.361 -55.559  13.447  1.00  0.00    -0.369 N 
ATOM     34  H3  UNL     1     -12.486 -56.446  12.960  1.00  0.00     0.161 HD
BRANCH  33  35
HETATM   35  C13 UNL     1     -13.351 -54.769  13.686  1.00  0.00     0.134 A 
HETATM   36  C14 UNL     1     -13.433 -53.454  13.227  1.00  0.00     0.158 A 
HETATM   37  N4  UNL     1     -14.590 -52.976  13.680  1.00  0.00    -0.294 N 
HETATM   38  N5  UNL     1     -15.238 -53.882  14.381  1.00  0.00    -0.241 N 
ATOM     39  H4  UNL     1     -14.930 -52.030  13.505  1.00  0.00     0.187 HD
HETATM   40  N6  UNL     1     -14.480 -54.966  14.381  1.00  0.00    -0.270 N 
ATOM     41  H5  UNL     1     -16.145 -53.770  14.835  1.00  0.00     0.208 HD
ATOM     42  H6  UNL     1     -14.723 -55.839  14.850  1.00  0.00     0.190 HD
ENDBRANCH  33  35
ENDBRANCH  32  33
ENDBRANCH  30  32
ENDBRANCH   3  29
TORSDOF 8
ENDMDL
MODEL 4
REMARK VINA RESULT: -7.900087959      0.466      4.651
REMARK  8 active torsions:
REMARK  status: ('A' for Active; 'I' for Inactive)
REMARK    1  A    between atoms: C4_4  and  C5_5 
REMARK    2  A    between atoms: C7_7  and  N1_8 
REMARK    3  A    between atoms: N1_8  and  C8_10 
REMARK    4  A    between atoms: C10_12  and  N2_13 
REMARK    5  A    between atoms: C11_15  and  C12_16 
REMARK    6  A    between atoms: C12_16  and  N3_17 
REMARK    7  A    between atoms: N3_17  and  C13_19 
REMARK    8  A    between atoms: C18_32  and  C19_33 
ROOT
HETATM    1  C8  UNL     1     -13.091 -48.642  13.652  1.00  0.00     0.107 A 
HETATM    2  C9  UNL     1     -13.456 -49.917  13.936  1.00  0.00     0.078 A 
HETATM    3  C10 UNL     1     -14.267 -50.183  15.091  1.00  0.00     0.036 A 
HETATM    4  C15 UNL     1     -14.613 -49.080  15.834  1.00  0.00     0.046 A 
HETATM    5  C16 UNL     1     -14.223 -47.776  15.518  1.00  0.00     0.092 A 
HETATM    6  N7  UNL     1     -13.466 -47.601  14.424  1.00  0.00    -0.352 N 
ATOM      7  H7  UNL     1     -13.168 -46.659  14.170  1.00  0.00     0.166 HD
ENDROOT
BRANCH   1   8
HETATM    8  N1  UNL     1     -12.287 -48.403  12.500  1.00  0.00    -0.342 N 
ATOM      9  H1  UNL     1     -11.950 -47.458  12.317  1.00  0.00     0.167 HD
BRANCH   8  10
HETATM   10  C7  UNL     1     -11.973 -49.355  11.680  1.00  0.00     0.037 A 
HETATM   11  C6  UNL     1     -10.948 -50.232  11.961  1.00  0.00     0.059 A 
HETATM   12  C5  UNL     1     -10.600 -51.251  11.100  1.00  0.00     0.045 A 
HETATM   13  N8  UNL     1     -11.312 -51.347   9.969  1.00  0.00    -0.355 N 
HETATM   14  C18 UNL     1     -12.325 -50.514   9.647  1.00  0.00     0.045 A 
ATOM     15  H8  UNL     1     -11.076 -52.092   9.313  1.00  0.00     0.166 HD
HETATM   16  C17 UNL     1     -12.683 -49.488  10.503  1.00  0.00     0.059 A 
BRANCH  12  17
HETATM   17  C4  UNL     1      -9.509 -52.171  11.417  1.00  0.00    -0.009 A 
HETATM   18  C3  UNL     1      -8.980 -53.052  10.500  1.00  0.00     0.013 A 
HETATM   19  C2  UNL     1      -7.931 -53.932  10.818  1.00  0.00     0.001 A 
HETATM   20  C1  UNL     1      -7.402 -53.927  12.084  1.00  0.00     0.000 A 
HETATM   21  C26 UNL     1      -7.906 -53.063  13.019  1.00  0.00     0.001 A 
HETATM   22  C25 UNL     1      -8.952 -52.195  12.679  1.00  0.00     0.013 A 
ENDBRANCH  12  17
BRANCH  14  23
HETATM   23  C19 UNL     1     -13.025 -50.718   8.391  1.00  0.00    -0.009 A 
HETATM   24  C20 UNL     1     -14.215 -51.377   8.289  1.00  0.00     0.013 A 
HETATM   25  C21 UNL     1     -14.871 -51.562   7.065  1.00  0.00     0.001 A 
HETATM   26  C22 UNL     1     -14.313 -51.073   5.918  1.00  0.00     0.000 A 
HETATM   27  C23 UNL     1     -13.116 -50.406   5.984  1.00  0.00     0.001 A 
HETATM   28  C24 UNL     1     -12.479 -50.234   7.227  1.00  0.00     0.013 A 
ENDBRANCH  14  23
ENDBRANCH   8  10
ENDBRANCH   1   8
BRANCH   3  29
HETATM   29  N2  UNL     1     -14.582 -51.351  15.323  1.00  0.00    -0.368 N 
HETATM   30  C11 UNL     1     -14.100 -52.622  15.341  1.00  0.00     0.080 C 
ATOM     31  H2  UNL     1     -15.562 -51.372  15.605  1.00  0.00     0.165 HD
BRANCH  30  32
HETATM   32  C12 UNL     1     -12.656 -52.907  14.992  1.00  0.00     0.165 C 
BRANCH  32  33
HETATM   33  N3  UNL     1     -11.916 -52.857  16.270  1.00  0.00    -0.369 N 
ATOM     34  H3  UNL     1     -12.283 -53.282  17.121  1.00  0.00     0.161 HD
BRANCH  33  35
HETATM   35  C13 UNL     1     -10.782 -52.246  16.249  1.00  0.00     0.134 A 
HETATM   36  C14 UNL     1     -10.591 -50.963  15.733  1.00  0.00     0.158 A 
HETATM   37  N4  UNL     1      -9.297 -50.690  15.890  1.00  0.00    -0.294 N 
HETATM   38  N5  UNL     1      -8.664 -51.693  16.461  1.00  0.00    -0.241 N 
ATOM     39  H4  UNL     1      -8.854 -49.816  15.604  1.00  0.00     0.187 HD
HETATM   40  N6  UNL     1      -9.571 -52.633  16.675  1.00  0.00    -0.270 N 
ATOM     41  H5  UNL     1      -7.672 -51.737  16.693  1.00  0.00     0.208 HD
ATOM     42  H6  UNL     1      -9.374 -53.535  17.108  1.00  0.00     0.190 HD
ENDBRANCH  33  35
ENDBRANCH  32  33
ENDBRANCH  30  32
ENDBRANCH   3  29
TORSDOF 8
ENDMDL
MODEL 5
REMARK VINA RESULT: -7.821279930      2.552      5.055
REMARK  8 active torsions:
REMARK  status: ('A' for Active; 'I' for Inactive)
REMARK    1  A    between atoms: C4_4  and  C5_5 
REMARK    2  A    between atoms: C7_7  and  N1_8 
REMARK    3  A    between atoms: N1_8  and  C8_10 
REMARK    4  A    between atoms: C10_12  and  N2_13 
REMARK    5  A    between atoms: C11_15  and  C12_16 
REMARK    6  A    between atoms: C12_16  and  N3_17 
REMARK    7  A    between atoms: N3_17  and  C13_19 
REMARK    8  A    between atoms: C18_32  and  C19_33 
ROOT
HETATM    1  C8  UNL     1     -10.683 -50.797  15.534  1.00  0.00     0.107 A 
HETATM    2  C9  UNL     1     -11.186 -52.055  15.585  1.00  0.00     0.078 A 
HETATM    3  C10 UNL     1     -10.341 -53.143  15.987  1.00  0.00     0.036 A 
HETATM    4  C15 UNL     1      -9.046 -52.799  16.297  1.00  0.00     0.046 A 
HETATM    5  C16 UNL     1      -8.553 -51.493  16.236  1.00  0.00     0.092 A 
HETATM    6  N7  UNL     1      -9.399 -50.526  15.853  1.00  0.00    -0.352 N 
ATOM      7  H7  UNL     1      -9.065 -49.563  15.801  1.00  0.00     0.166 HD
ENDROOT
BRANCH   1   8
HETATM    8  N1  UNL     1     -11.542 -49.733  15.133  1.00  0.00    -0.342 N 
ATOM      9  H1  UNL     1     -11.577 -48.883  15.695  1.00  0.00     0.167 HD
BRANCH   8  10
HETATM   10  C7  UNL     1     -12.280 -49.818  14.072  1.00  0.00     0.037 A 
HETATM   11  C6  UNL     1     -13.648 -49.667  14.139  1.00  0.00     0.059 A 
HETATM   12  C5  UNL     1     -14.450 -49.753  13.020  1.00  0.00     0.045 A 
HETATM   13  N8  UNL     1     -13.829 -49.993  11.858  1.00  0.00    -0.355 N 
HETATM   14  C18 UNL     1     -12.493 -50.148  11.739  1.00  0.00     0.045 A 
ATOM     15  H8  UNL     1     -14.398 -50.062  11.014  1.00  0.00     0.166 HD
HETATM   16  C17 UNL     1     -11.679 -50.063  12.854  1.00  0.00     0.059 A 
BRANCH  12  17
HETATM   17  C4  UNL     1     -15.899 -49.590  13.113  1.00  0.00    -0.009 A 
HETATM   18  C3  UNL     1     -16.566 -49.463  14.312  1.00  0.00     0.013 A 
HETATM   19  C2  UNL     1     -17.961 -49.307  14.387  1.00  0.00     0.001 A 
HETATM   20  C1  UNL     1     -18.703 -49.279  13.233  1.00  0.00     0.000 A 
HETATM   21  C26 UNL     1     -18.071 -49.403  12.025  1.00  0.00     0.001 A 
HETATM   22  C25 UNL     1     -16.679 -49.557  11.975  1.00  0.00     0.013 A 
ENDBRANCH  12  17
BRANCH  14  23
HETATM   23  C19 UNL     1     -11.934 -50.403  10.422  1.00  0.00    -0.009 A 
HETATM   24  C20 UNL     1     -12.667 -50.365   9.272  1.00  0.00     0.013 A 
HETATM   25  C21 UNL     1     -12.105 -50.616   8.013  1.00  0.00     0.001 A 
HETATM   26  C22 UNL     1     -10.776 -50.912   7.913  1.00  0.00     0.000 A 
HETATM   27  C23 UNL     1     -10.009 -50.959   9.049  1.00  0.00     0.001 A 
HETATM   28  C24 UNL     1     -10.599 -50.703  10.301  1.00  0.00     0.013 A 
ENDBRANCH  14  23
ENDBRANCH   8  10
ENDBRANCH   1   8
BRANCH   3  29
HETATM   29  N2  UNL     1     -10.826 -54.274  16.022  1.00  0.00    -0.368 N 
HETATM   30  C11 UNL     1     -11.394 -55.236  15.247  1.00  0.00     0.080 C 
ATOM     31  H2  UNL     1     -10.789 -54.613  16.984  1.00  0.00     0.165 HD
BRANCH  30  32
HETATM   32  C12 UNL     1     -11.561 -55.032  13.758  1.00  0.00     0.165 C 
BRANCH  32  33
HETATM   33  N3  UNL     1     -10.286 -55.462  13.147  1.00  0.00    -0.369 N 
ATOM     34  H3  UNL     1     -10.114 -56.433  12.887  1.00  0.00     0.161 HD
BRANCH  33  35
HETATM   35  C13 UNL     1      -9.404 -54.542  12.961  1.00  0.00     0.134 A 
HETATM   36  C14 UNL     1      -8.037 -54.709  13.188  1.00  0.00     0.158 A 
HETATM   37  N4  UNL     1      -7.467 -53.544  12.886  1.00  0.00    -0.294 N 
HETATM   38  N5  UNL     1      -8.362 -52.664  12.488  1.00  0.00    -0.241 N 
ATOM     39  H4  UNL     1      -6.466 -53.358  12.954  1.00  0.00     0.187 HD
HETATM   40  N6  UNL     1      -9.534 -53.277  12.538  1.00  0.00    -0.270 N 
ATOM     41  H5  UNL     1      -8.187 -51.702  12.200  1.00  0.00     0.208 HD
ATOM     42  H6  UNL     1     -10.422 -52.842  12.286  1.00  0.00     0.190 HD
ENDBRANCH  33  35
ENDBRANCH  32  33
ENDBRANCH  30  32
ENDBRANCH   3  29
TORSDOF 8
ENDMDL
