MODEL 1
REMARK VINA RESULT: -8.846298486      0.000      0.000
REMARK  7 active torsions:
REMARK  status: ('A' for Active; 'I' for Inactive)
REMARK    1  A    between atoms: C1_4  and  N2_5 
REMARK    2  A    between atoms: N2_5  and  C2_6 
REMARK    3  A    between atoms: C2_6  and  C3_7 
REMARK    4  A    between atoms: C2_6  and  C9_13 
REMARK    5  A    between atoms: C12_16  and  C13_17 
REMARK       I    between atoms: C13_17  and  N3_19 
REMARK    6  A    between atoms: N3_19  and  C14_21 
REMARK    7  A    between atoms: C24_31  and  C25_32 
ROOT
HETATM    1  C9  UNL     1     -16.981 -49.759  13.065  1.00  0.00     0.074 A 
HETATM    2  C10 UNL     1     -16.734 -49.601  14.441  1.00  0.00     0.034 A 
HETATM    3  C11 UNL     1     -15.457 -49.654  14.942  1.00  0.00     0.022 A 
HETATM    4  C12 UNL     1     -14.377 -49.864  14.108  1.00  0.00     0.059 A 
HETATM    5  C20 UNL     1     -14.638 -50.013  12.782  1.00  0.00     0.059 A 
HETATM    6  C21 UNL     1     -13.582 -50.269  11.835  1.00  0.00    -0.008 A 
HETATM    7  C22 UNL     1     -13.659 -51.322  10.914  1.00  0.00     0.014 A 
HETATM    8  C23 UNL     1     -12.642 -51.542  10.013  1.00  0.00     0.016 A 
HETATM    9  C24 UNL     1     -11.515 -50.742   9.979  1.00  0.00     0.004 A 
HETATM   10  C26 UNL     1     -11.452 -49.721  10.879  1.00  0.00     0.016 A 
HETATM   11  C27 UNL     1     -12.471 -49.474  11.806  1.00  0.00     0.014 A 
HETATM   12  N6  UNL     1     -15.914 -49.956  12.311  1.00  0.00    -0.352 N 
ATOM     13  H6  UNL     1     -16.055 -50.074  11.308  1.00  0.00     0.166 HD
ENDROOT
BRANCH   1  14
HETATM   14  C2  UNL     1     -18.393 -49.690  12.635  1.00  0.00     0.145 C 
BRANCH  14  15
HETATM   15  N2  UNL     1     -19.227 -49.336  13.480  1.00  0.00    -0.398 NA
BRANCH  15  16
HETATM   16  C1  UNL     1     -20.215 -49.341  14.314  1.00  0.00     0.268 C 
HETATM   17  N1  UNL     1     -20.738 -50.439  14.823  1.00  0.00    -0.385 N 
ATOM     18  H12 UNL     1     -20.329 -51.326  14.531  1.00  0.00     0.157 HD
ATOM     19  H11 UNL     1     -21.518 -50.442  15.481  1.00  0.00     0.157 HD
ENDBRANCH  15  16
ENDBRANCH  14  15
BRANCH  14  20
HETATM   20  C3  UNL     1     -18.831 -50.016  11.281  1.00  0.00     0.007 A 
HETATM   21  C4  UNL     1     -19.778 -49.342  10.567  1.00  0.00     0.015 A 
HETATM   22  C5  UNL     1     -20.154 -49.702   9.252  1.00  0.00     0.001 A 
HETATM   23  C6  UNL     1     -19.569 -50.759   8.638  1.00  0.00     0.000 A 
HETATM   24  C7  UNL     1     -18.616 -51.451   9.332  1.00  0.00     0.001 A 
HETATM   25  C8  UNL     1     -18.247 -51.102  10.618  1.00  0.00     0.015 A 
ENDBRANCH  14  20
ENDBRANCH   1  14
BRANCH   4  26
HETATM   26  C13 UNL     1     -13.023 -49.906  14.708  1.00  0.00     0.258 C 
HETATM   27  O1  UNL     1     -12.475 -48.838  15.077  1.00  0.00    -0.267 OA
HETATM   28  N3  UNL     1     -12.401 -51.153  14.838  1.00  0.00    -0.323 N 
ATOM     29  H3  UNL     1     -12.946 -51.946  14.502  1.00  0.00     0.169 HD
BRANCH  28  30
HETATM   30  C14 UNL     1     -11.135 -51.476  15.365  1.00  0.00     0.035 A 
HETATM   31  C15 UNL     1     -10.891 -52.756  15.861  1.00  0.00     0.029 A 
HETATM   32  C16 UNL     1      -9.702 -53.156  16.390  1.00  0.00     0.002 A 
HETATM   33  C17 UNL     1      -8.654 -52.279  16.457  1.00  0.00     0.000 A 
HETATM   34  C18 UNL     1      -8.828 -51.000  15.986  1.00  0.00     0.002 A 
HETATM   35  C19 UNL     1     -10.067 -50.614  15.444  1.00  0.00     0.029 A 
ENDBRANCH  28  30
ENDBRANCH   4  26
BRANCH   9  36
HETATM   36  C25 UNL     1     -10.461 -51.019   9.022  1.00  0.00     0.120 C 
HETATM   37  N4  UNL     1      -9.535 -51.877   9.235  1.00  0.00    -0.387 N 
ATOM     38  H42 UNL     1      -9.559 -52.374  10.125  1.00  0.00     0.157 HD
ATOM     39  H41 UNL     1      -8.794 -52.071   8.563  1.00  0.00     0.157 HD
HETATM   40  N5  UNL     1     -10.428 -50.322   7.777  1.00  0.00    -0.082 NA
ENDBRANCH   9  36
TORSDOF 7
ENDMDL
MODEL 2
REMARK VINA RESULT: -8.256954789      1.433      2.410
REMARK  7 active torsions:
REMARK  status: ('A' for Active; 'I' for Inactive)
REMARK    1  A    between atoms: C1_4  and  N2_5 
REMARK    2  A    between atoms: N2_5  and  C2_6 
REMARK    3  A    between atoms: C2_6  and  C3_7 
REMARK    4  A    between atoms: C2_6  and  C9_13 
REMARK    5  A    between atoms: C12_16  and  C13_17 
REMARK       I    between atoms: C13_17  and  N3_19 
REMARK    6  A    between atoms: N3_19  and  C14_21 
REMARK    7  A    between atoms: C24_31  and  C25_32 
ROOT
HETATM    1  C9  UNL     1     -17.167 -49.997  13.029  1.00  0.00     0.074 A 
HETATM    2  C10 UNL     1     -16.881 -49.817  14.394  1.00  0.00     0.034 A 
HETATM    3  C11 UNL     1     -15.588 -49.814  14.853  1.00  0.00     0.022 A 
HETATM    4  C12 UNL     1     -14.528 -49.987  13.984  1.00  0.00     0.059 A 
HETATM    5  C20 UNL     1     -14.827 -50.158  12.669  1.00  0.00     0.059 A 
HETATM    6  C21 UNL     1     -13.793 -50.379  11.689  1.00  0.00    -0.008 A 
HETATM    7  C22 UNL     1     -13.856 -51.442  10.779  1.00  0.00     0.014 A 
HETATM    8  C23 UNL     1     -12.861 -51.629   9.847  1.00  0.00     0.016 A 
HETATM    9  C24 UNL     1     -11.770 -50.784   9.769  1.00  0.00     0.004 A 
HETATM   10  C26 UNL     1     -11.720 -49.753  10.659  1.00  0.00     0.016 A 
HETATM   11  C27 UNL     1     -12.716 -49.539  11.618  1.00  0.00     0.014 A 
HETATM   12  N6  UNL     1     -16.118 -50.158  12.240  1.00  0.00    -0.352 N 
ATOM     13  H6  UNL     1     -16.288 -50.291  11.244  1.00  0.00     0.166 HD
ENDROOT
BRANCH   1  14
HETATM   14  C2  UNL     1     -18.594 -49.990  12.645  1.00  0.00     0.145 C 
BRANCH  14  15
HETATM   15  N2  UNL     1     -18.928 -49.245  11.713  1.00  0.00    -0.398 NA
BRANCH  15  16
HETATM   16  C1  UNL     1     -19.430 -48.806  10.606  1.00  0.00     0.268 C 
HETATM   17  N1  UNL     1     -20.084 -49.563   9.748  1.00  0.00    -0.385 N 
ATOM     18  H12 UNL     1     -20.191 -50.549   9.986  1.00  0.00     0.157 HD
ATOM     19  H11 UNL     1     -20.480 -49.216   8.874  1.00  0.00     0.157 HD
ENDBRANCH  15  16
ENDBRANCH  14  15
BRANCH  14  20
HETATM   20  C3  UNL     1     -19.603 -50.811  13.310  1.00  0.00     0.007 A 
HETATM   21  C4  UNL     1     -20.541 -50.361  14.192  1.00  0.00     0.015 A 
HETATM   22  C5  UNL     1     -21.499 -51.207  14.798  1.00  0.00     0.001 A 
HETATM   23  C6  UNL     1     -21.519 -52.531  14.514  1.00  0.00     0.000 A 
HETATM   24  C7  UNL     1     -20.590 -53.009  13.633  1.00  0.00     0.001 A 
HETATM   25  C8  UNL     1     -19.651 -52.184  13.039  1.00  0.00     0.015 A 
ENDBRANCH  14  20
ENDBRANCH   1  14
BRANCH   4  26
HETATM   26  C13 UNL     1     -13.154 -49.967  14.539  1.00  0.00     0.258 C 
HETATM   27  O1  UNL     1     -12.689 -48.898  15.004  1.00  0.00    -0.267 OA
HETATM   28  N3  UNL     1     -12.422 -51.160  14.520  1.00  0.00    -0.323 N 
ATOM     29  H3  UNL     1     -12.908 -51.960  14.116  1.00  0.00     0.169 HD
BRANCH  28  30
HETATM   30  C14 UNL     1     -11.114 -51.420  14.975  1.00  0.00     0.035 A 
HETATM   31  C15 UNL     1     -10.018 -51.053  14.195  1.00  0.00     0.029 A 
HETATM   32  C16 UNL     1      -8.721 -51.265  14.552  1.00  0.00     0.002 A 
HETATM   33  C17 UNL     1      -8.431 -51.873  15.743  1.00  0.00     0.000 A 
HETATM   34  C18 UNL     1      -9.466 -52.261  16.559  1.00  0.00     0.002 A 
HETATM   35  C19 UNL     1     -10.796 -52.029  16.165  1.00  0.00     0.029 A 
ENDBRANCH  28  30
ENDBRANCH   4  26
BRANCH   9  36
HETATM   36  C25 UNL     1     -10.737 -51.026   8.780  1.00  0.00     0.120 C 
HETATM   37  N4  UNL     1      -9.827 -51.914   8.927  1.00  0.00    -0.387 N 
ATOM     38  H42 UNL     1      -9.848 -52.462   9.786  1.00  0.00     0.157 HD
ATOM     39  H41 UNL     1      -9.101 -52.084   8.231  1.00  0.00     0.157 HD
HETATM   40  N5  UNL     1     -10.709 -50.258   7.578  1.00  0.00    -0.082 NA
ENDBRANCH   9  36
TORSDOF 7
ENDMDL
MODEL 3
REMARK VINA RESULT: -7.981141084      3.183      5.461
REMARK  7 active torsions:
REMARK  status: ('A' for Active; 'I' for Inactive)
REMARK    1  A    between atoms: C1_4  and  N2_5 
REMARK    2  A    between atoms: N2_5  and  C2_6 
REMARK    3  A    between atoms: C2_6  and  C3_7 
REMARK    4  A    between atoms: C2_6  and  C9_13 
REMARK    5  A    between atoms: C12_16  and  C13_17 
REMARK       I    between atoms: C13_17  and  N3_19 
REMARK    6  A    between atoms: N3_19  and  C14_21 
REMARK    7  A    between atoms: C24_31  and  C25_32 
ROOT
HETATM    1  C9  UNL     1     -13.663 -49.397  12.398  1.00  0.00     0.074 A 
HETATM    2  C10 UNL     1     -12.346 -49.513  12.880  1.00  0.00     0.034 A 
HETATM    3  C11 UNL     1     -11.327 -49.933  12.061  1.00  0.00     0.022 A 
HETATM    4  C12 UNL     1     -11.566 -50.253  10.740  1.00  0.00     0.059 A 
HETATM    5  C20 UNL     1     -12.845 -50.132  10.295  1.00  0.00     0.059 A 
HETATM    6  C21 UNL     1     -13.203 -50.474   8.941  1.00  0.00    -0.008 A 
HETATM    7  C22 UNL     1     -14.277 -51.327   8.655  1.00  0.00     0.014 A 
HETATM    8  C23 UNL     1     -14.605 -51.633   7.355  1.00  0.00     0.016 A 
HETATM    9  C24 UNL     1     -13.897 -51.115   6.285  1.00  0.00     0.004 A 
HETATM   10  C26 UNL     1     -12.855 -50.286   6.576  1.00  0.00     0.016 A 
HETATM   11  C27 UNL     1     -12.498 -49.959   7.889  1.00  0.00     0.014 A 
HETATM   12  N6  UNL     1     -13.838 -49.715  11.127  1.00  0.00    -0.352 N 
ATOM     13  H6  UNL     1     -14.780 -49.642  10.744  1.00  0.00     0.166 HD
ENDROOT
BRANCH   1  14
HETATM   14  C2  UNL     1     -14.683 -48.942  13.366  1.00  0.00     0.145 C 
BRANCH  14  15
HETATM   15  N2  UNL     1     -14.281 -48.348  14.377  1.00  0.00    -0.398 NA
BRANCH  15  16
HETATM   16  C1  UNL     1     -14.212 -47.850  15.568  1.00  0.00     0.268 C 
HETATM   17  N1  UNL     1     -14.226 -46.557  15.822  1.00  0.00    -0.385 N 
ATOM     18  H12 UNL     1     -14.295 -45.927  15.023  1.00  0.00     0.157 HD
ATOM     19  H11 UNL     1     -14.172 -46.164  16.763  1.00  0.00     0.157 HD
ENDBRANCH  15  16
ENDBRANCH  14  15
BRANCH  14  20
HETATM   20  C3  UNL     1     -16.114 -49.163  13.179  1.00  0.00     0.007 A 
HETATM   21  C4  UNL     1     -16.977 -49.635  14.124  1.00  0.00     0.015 A 
HETATM   22  C5  UNL     1     -18.358 -49.819  13.885  1.00  0.00     0.001 A 
HETATM   23  C6  UNL     1     -18.888 -49.524  12.673  1.00  0.00     0.000 A 
HETATM   24  C7  UNL     1     -18.045 -49.049  11.708  1.00  0.00     0.001 A 
HETATM   25  C8  UNL     1     -16.693 -48.868  11.939  1.00  0.00     0.015 A 
ENDBRANCH  14  20
ENDBRANCH   1  14
BRANCH   4  26
HETATM   26  C13 UNL     1     -10.424 -50.694   9.905  1.00  0.00     0.258 C 
HETATM   27  O1  UNL     1      -9.666 -49.836   9.388  1.00  0.00    -0.267 OA
HETATM   28  N3  UNL     1     -10.236 -52.069   9.724  1.00  0.00    -0.323 N 
ATOM     29  H3  UNL     1     -10.917 -52.665  10.195  1.00  0.00     0.169 HD
BRANCH  28  30
HETATM   30  C14 UNL     1      -9.246 -52.753   8.991  1.00  0.00     0.035 A 
HETATM   31  C15 UNL     1      -8.208 -53.402   9.657  1.00  0.00     0.029 A 
HETATM   32  C16 UNL     1      -7.208 -54.084   9.032  1.00  0.00     0.002 A 
HETATM   33  C17 UNL     1      -7.185 -54.163   7.666  1.00  0.00     0.000 A 
HETATM   34  C18 UNL     1      -8.180 -53.544   6.949  1.00  0.00     0.002 A 
HETATM   35  C19 UNL     1      -9.200 -52.846   7.620  1.00  0.00     0.029 A 
ENDBRANCH  28  30
ENDBRANCH   4  26
BRANCH   9  36
HETATM   36  C25 UNL     1     -14.268 -51.475   4.931  1.00  0.00     0.120 C 
HETATM   37  N4  UNL     1     -13.985 -52.609   4.409  1.00  0.00    -0.387 N 
ATOM     38  H42 UNL     1     -13.474 -53.273   4.990  1.00  0.00     0.157 HD
ATOM     39  H41 UNL     1     -14.246 -52.862   3.456  1.00  0.00     0.157 HD
HETATM   40  N5  UNL     1     -14.983 -50.546   4.118  1.00  0.00    -0.082 NA
ENDBRANCH   9  36
TORSDOF 7
ENDMDL
MODEL 4
REMARK VINA RESULT: -7.925776764      2.184      7.933
REMARK  7 active torsions:
REMARK  status: ('A' for Active; 'I' for Inactive)
REMARK    1  A    between atoms: C1_4  and  N2_5 
REMARK    2  A    between atoms: N2_5  and  C2_6 
REMARK    3  A    between atoms: C2_6  and  C3_7 
REMARK    4  A    between atoms: C2_6  and  C9_13 
REMARK    5  A    between atoms: C12_16  and  C13_17 
REMARK       I    between atoms: C13_17  and  N3_19 
REMARK    6  A    between atoms: N3_19  and  C14_21 
REMARK    7  A    between atoms: C24_31  and  C25_32 
ROOT
HETATM    1  C9  UNL     1     -11.804 -52.375  14.951  1.00  0.00     0.074 A 
HETATM    2  C10 UNL     1     -12.796 -51.898  15.828  1.00  0.00     0.034 A 
HETATM    3  C11 UNL     1     -13.874 -51.190  15.360  1.00  0.00     0.022 A 
HETATM    4  C12 UNL     1     -14.016 -50.925  14.012  1.00  0.00     0.059 A 
HETATM    5  C20 UNL     1     -13.048 -51.395  13.183  1.00  0.00     0.059 A 
HETATM    6  C21 UNL     1     -13.089 -51.142  11.764  1.00  0.00    -0.008 A 
HETATM    7  C22 UNL     1     -11.984 -50.624  11.076  1.00  0.00     0.014 A 
HETATM    8  C23 UNL     1     -12.043 -50.398   9.720  1.00  0.00     0.016 A 
HETATM    9  C24 UNL     1     -13.183 -50.671   8.987  1.00  0.00     0.004 A 
HETATM   10  C26 UNL     1     -14.251 -51.175   9.667  1.00  0.00     0.016 A 
HETATM   11  C27 UNL     1     -14.219 -51.414  11.045  1.00  0.00     0.014 A 
HETATM   12  N6  UNL     1     -11.988 -52.094  13.672  1.00  0.00    -0.352 N 
ATOM     13  H6  UNL     1     -11.289 -52.425  13.007  1.00  0.00     0.166 HD
ENDROOT
BRANCH   1  14
HETATM   14  C2  UNL     1     -10.684 -53.120  15.562  1.00  0.00     0.145 C 
BRANCH  14  15
HETATM   15  N2  UNL     1      -9.849 -52.466  16.202  1.00  0.00    -0.398 NA
BRANCH  15  16
HETATM   16  C1  UNL     1      -8.784 -51.810  16.526  1.00  0.00     0.268 C 
HETATM   17  N1  UNL     1      -8.615 -50.524  16.288  1.00  0.00    -0.385 N 
ATOM     18  H12 UNL     1      -9.378 -50.035  15.820  1.00  0.00     0.157 HD
ATOM     19  H11 UNL     1      -7.774 -50.006  16.544  1.00  0.00     0.157 HD
ENDBRANCH  15  16
ENDBRANCH  14  15
BRANCH  14  20
HETATM   20  C3  UNL     1     -10.529 -54.568  15.442  1.00  0.00     0.007 A 
HETATM   21  C4  UNL     1      -9.417 -55.280  15.780  1.00  0.00     0.015 A 
HETATM   22  C5  UNL     1      -9.331 -56.685  15.649  1.00  0.00     0.001 A 
HETATM   23  C6  UNL     1     -10.382 -57.393  15.169  1.00  0.00     0.000 A 
HETATM   24  C7  UNL     1     -11.510 -56.704  14.823  1.00  0.00     0.001 A 
HETATM   25  C8  UNL     1     -11.597 -55.329  14.950  1.00  0.00     0.015 A 
ENDBRANCH  14  20
ENDBRANCH   1  14
BRANCH   4  26
HETATM   26  C13 UNL     1     -15.206 -50.160  13.568  1.00  0.00     0.258 C 
HETATM   27  O1  UNL     1     -15.115 -48.920  13.392  1.00  0.00    -0.267 OA
HETATM   28  N3  UNL     1     -16.398 -50.864  13.360  1.00  0.00    -0.323 N 
ATOM     29  H3  UNL     1     -16.345 -51.867  13.536  1.00  0.00     0.169 HD
BRANCH  28  30
HETATM   30  C14 UNL     1     -17.659 -50.393  12.944  1.00  0.00     0.035 A 
HETATM   31  C15 UNL     1     -17.894 -50.124  11.597  1.00  0.00     0.029 A 
HETATM   32  C16 UNL     1     -19.077 -49.666  11.104  1.00  0.00     0.002 A 
HETATM   33  C17 UNL     1     -20.129 -49.441  11.950  1.00  0.00     0.000 A 
HETATM   34  C18 UNL     1     -19.964 -49.685  13.293  1.00  0.00     0.002 A 
HETATM   35  C19 UNL     1     -18.730 -50.159  13.773  1.00  0.00     0.029 A 
ENDBRANCH  28  30
ENDBRANCH   4  26
BRANCH   9  36
HETATM   36  C25 UNL     1     -13.207 -50.405   7.561  1.00  0.00     0.120 C 
HETATM   37  N4  UNL     1     -14.074 -50.919   6.772  1.00  0.00    -0.387 N 
ATOM     38  H42 UNL     1     -14.767 -51.542   7.186  1.00  0.00     0.157 HD
ATOM     39  H41 UNL     1     -14.091 -50.732   5.770  1.00  0.00     0.157 HD
HETATM   40  N5  UNL     1     -12.237 -49.533   6.983  1.00  0.00    -0.082 NA
ENDBRANCH   9  36
TORSDOF 7
ENDMDL
MODEL 5
REMARK VINA RESULT: -7.902154797      2.689      5.702
REMARK  7 active torsions:
REMARK  status: ('A' for Active; 'I' for Inactive)
REMARK    1  A    between atoms: C1_4  and  N2_5 
REMARK    2  A    between atoms: N2_5  and  C2_6 
REMARK    3  A    between atoms: C2_6  and  C3_7 
REMARK    4  A    between atoms: C2_6  and  C9_13 
REMARK    5  A    between atoms: C12_16  and  C13_17 
REMARK       I    between atoms: C13_17  and  N3_19 
REMARK    6  A    between atoms: N3_19  and  C14_21 
REMARK    7  A    between atoms: C24_31  and  C25_32 
ROOT
HETATM    1  C9  UNL     1     -14.121 -49.500  13.220  1.00  0.00     0.074 A 
HETATM    2  C10 UNL     1     -13.564 -48.909  12.071  1.00  0.00     0.034 A 
HETATM    3  C11 UNL     1     -12.432 -49.423  11.489  1.00  0.00     0.022 A 
HETATM    4  C12 UNL     1     -11.808 -50.536  12.015  1.00  0.00     0.059 A 
HETATM    5  C20 UNL     1     -12.363 -51.091  13.125  1.00  0.00     0.059 A 
HETATM    6  C21 UNL     1     -11.767 -52.235  13.768  1.00  0.00    -0.008 A 
HETATM    7  C22 UNL     1     -11.511 -52.255  15.145  1.00  0.00     0.014 A 
HETATM    8  C23 UNL     1     -10.949 -53.361  15.739  1.00  0.00     0.016 A 
HETATM    9  C24 UNL     1     -10.617 -54.489  15.011  1.00  0.00     0.004 A 
HETATM   10  C26 UNL     1     -10.871 -54.457  13.672  1.00  0.00     0.016 A 
HETATM   11  C27 UNL     1     -11.441 -53.346  13.041  1.00  0.00     0.014 A 
HETATM   12  N6  UNL     1     -13.485 -50.562  13.684  1.00  0.00    -0.352 N 
ATOM     13  H6  UNL     1     -13.861 -51.016  14.515  1.00  0.00     0.166 HD
ENDROOT
BRANCH   1  14
HETATM   14  C2  UNL     1     -15.336 -48.861  13.768  1.00  0.00     0.145 C 
BRANCH  14  15
HETATM   15  N2  UNL     1     -15.193 -48.109  14.742  1.00  0.00    -0.398 NA
BRANCH  15  16
HETATM   16  C1  UNL     1     -14.754 -47.581  15.837  1.00  0.00     0.268 C 
HETATM   17  N1  UNL     1     -14.070 -46.455  15.884  1.00  0.00    -0.385 N 
ATOM     18  H12 UNL     1     -13.885 -45.987  14.997  1.00  0.00     0.157 HD
ATOM     19  H11 UNL     1     -13.724 -46.038  16.749  1.00  0.00     0.157 HD
ENDBRANCH  15  16
ENDBRANCH  14  15
BRANCH  14  20
HETATM   20  C3  UNL     1     -16.670 -49.081  13.216  1.00  0.00     0.007 A 
HETATM   21  C4  UNL     1     -17.050 -48.833  11.930  1.00  0.00     0.015 A 
HETATM   22  C5  UNL     1     -18.359 -49.076  11.451  1.00  0.00     0.001 A 
HETATM   23  C6  UNL     1     -19.307 -49.578  12.279  1.00  0.00     0.000 A 
HETATM   24  C7  UNL     1     -18.953 -49.835  13.573  1.00  0.00     0.001 A 
HETATM   25  C8  UNL     1     -17.674 -49.599  14.044  1.00  0.00     0.015 A 
ENDBRANCH  14  20
ENDBRANCH   1  14
BRANCH   4  26
HETATM   26  C13 UNL     1     -10.593 -51.047  11.338  1.00  0.00     0.258 C 
HETATM   27  O1  UNL     1      -9.459 -50.719  11.768  1.00  0.00    -0.267 OA
HETATM   28  N3  UNL     1     -10.763 -51.885  10.230  1.00  0.00    -0.323 N 
ATOM     29  H3  UNL     1     -11.732 -52.078   9.977  1.00  0.00     0.169 HD
BRANCH  28  30
HETATM   30  C14 UNL     1      -9.795 -52.502   9.412  1.00  0.00     0.035 A 
HETATM   31  C15 UNL     1      -9.884 -52.395   8.025  1.00  0.00     0.029 A 
HETATM   32  C16 UNL     1      -8.998 -52.959   7.158  1.00  0.00     0.002 A 
HETATM   33  C17 UNL     1      -7.940 -53.682   7.636  1.00  0.00     0.000 A 
HETATM   34  C18 UNL     1      -7.794 -53.827   8.994  1.00  0.00     0.002 A 
HETATM   35  C19 UNL     1      -8.724 -53.234   9.867  1.00  0.00     0.029 A 
ENDBRANCH  28  30
ENDBRANCH   4  26
BRANCH   9  36
HETATM   36  C25 UNL     1     -10.013 -55.627  15.675  1.00  0.00     0.120 C 
HETATM   37  N4  UNL     1     -10.243 -56.838  15.327  1.00  0.00    -0.387 N 
ATOM     38  H42 UNL     1     -10.885 -56.984  14.548  1.00  0.00     0.157 HD
ATOM     39  H41 UNL     1      -9.819 -57.639  15.794  1.00  0.00     0.157 HD
HETATM   40  N5  UNL     1      -9.116 -55.423  16.765  1.00  0.00    -0.082 NA
ENDBRANCH   9  36
TORSDOF 7
ENDMDL
