MODEL 1
REMARK VINA RESULT: -7.891119982      0.000      0.000
REMARK  9 active torsions:
REMARK  status: ('A' for Active; 'I' for Inactive)
REMARK    1  A    between atoms: C7_7  and  N1_8 
REMARK    2  A    between atoms: N1_8  and  C8_10 
REMARK    3  A    between atoms: C9_13  and  N3_14 
REMARK    4  A    between atoms: N3_14  and  C10_16 
REMARK    5  A    between atoms: C10_16  and  C11_17 
REMARK    6  A    between atoms: C11_17  and  C12_18 
REMARK    7  A    between atoms: C20_30  and  N6_31 
REMARK    8  A    between atoms: N7_34  and  C21_35 
REMARK    9  A    between atoms: C21_35  and  C22_36 
ROOT
HETATM    1  C8  UNL     1     -11.686 -50.244  14.449  1.00  0.00     0.152 A 
HETATM    2  N2  UNL     1     -10.923 -50.136  13.362  1.00  0.00    -0.174 N 
ATOM      3  H2  UNL     1      -9.939 -50.408  13.383  1.00  0.00     0.186 HD
HETATM    4  C9  UNL     1     -11.488 -49.654  12.223  1.00  0.00     0.681 A 
HETATM    5  N4  UNL     1     -12.782 -49.290  12.174  1.00  0.00    -0.173 N 
ATOM      6  H4  UNL     1     -13.154 -48.935  11.294  1.00  0.00     0.186 HD
HETATM    7  C18 UNL     1     -13.607 -49.373  13.233  1.00  0.00     0.170 A 
HETATM    8  C19 UNL     1     -13.022 -49.868  14.398  1.00  0.00     0.139 A 
HETATM    9  N5  UNL     1     -14.014 -49.862  15.303  1.00  0.00    -0.184 N 
ATOM     10  H5  UNL     1     -13.911 -50.169  16.271  1.00  0.00     0.184 HD
HETATM   11  C20 UNL     1     -15.158 -49.399  14.771  1.00  0.00     0.680 A 
HETATM   12  N7  UNL     1     -14.909 -49.095  13.489  1.00  0.00    -0.161 N 
ENDROOT
BRANCH   4  13
HETATM   13  N3  UNL     1     -10.711 -49.568  11.198  1.00  0.00    -0.226 N 
ATOM     14  H3  UNL     1     -10.644 -48.675  10.710  1.00  0.00     0.177 HD
BRANCH  13  15
HETATM   15  C10 UNL     1      -9.939 -50.672  10.715  1.00  0.00     0.142 C 
BRANCH  15  16
HETATM   16  C11 UNL     1     -10.633 -52.003  10.966  1.00  0.00     0.058 C 
BRANCH  16  17
HETATM   17  C12 UNL     1      -9.716 -52.952  11.653  1.00  0.00    -0.057 A 
HETATM   18  C13 UNL     1      -8.618 -52.476  12.312  1.00  0.00     0.007 A 
HETATM   19  C14 UNL     1      -7.763 -53.356  12.950  1.00  0.00     0.001 A 
HETATM   20  C15 UNL     1      -7.994 -54.721  12.937  1.00  0.00     0.000 A 
HETATM   21  C16 UNL     1      -9.108 -55.171  12.264  1.00  0.00     0.001 A 
HETATM   22  C17 UNL     1      -9.980 -54.313  11.617  1.00  0.00     0.007 A 
ENDBRANCH  16  17
ENDBRANCH  15  16
ENDBRANCH  13  15
ENDBRANCH   4  13
BRANCH   1  23
HETATM   23  N1  UNL     1     -11.245 -50.688  15.574  1.00  0.00    -0.340 N 
ATOM     24  H1  UNL     1     -11.279 -50.067  16.382  1.00  0.00     0.167 HD
BRANCH  23  25
HETATM   25  C7  UNL     1     -10.718 -51.986  15.752  1.00  0.00     0.039 A 
HETATM   26  C2  UNL     1      -9.421 -52.192  16.146  1.00  0.00    -0.035 A 
HETATM   27  C1  UNL     1      -8.542 -51.000  16.392  1.00  0.00     0.050 C 
HETATM   28  C3  UNL     1      -8.922 -53.473  16.316  1.00  0.00     0.009 A 
HETATM   29  C4  UNL     1      -9.763 -54.544  16.079  1.00  0.00     0.001 A 
HETATM   30  C5  UNL     1     -11.064 -54.330  15.685  1.00  0.00     0.002 A 
HETATM   31  C6  UNL     1     -11.537 -53.063  15.523  1.00  0.00     0.030 A 
ENDBRANCH  23  25
ENDBRANCH   1  23
BRANCH  12  32
HETATM   32  C21 UNL     1     -15.841 -48.562  12.522  1.00  0.00     0.188 C 
BRANCH  32  33
HETATM   33  C22 UNL     1     -16.609 -49.572  11.790  1.00  0.00    -0.039 A 
HETATM   34  C23 UNL     1     -17.966 -49.432  11.602  1.00  0.00     0.009 A 
HETATM   35  C24 UNL     1     -18.659 -50.399  10.909  1.00  0.00     0.001 A 
HETATM   36  C25 UNL     1     -18.051 -51.516  10.386  1.00  0.00     0.000 A 
HETATM   37  C26 UNL     1     -16.694 -51.671  10.567  1.00  0.00     0.001 A 
HETATM   38  C27 UNL     1     -16.012 -50.695  11.264  1.00  0.00     0.009 A 
ENDBRANCH  32  33
ENDBRANCH  12  32
BRANCH  11  39
HETATM   39  N6  UNL     1     -16.313 -49.263  15.370  1.00  0.00    -0.234 N 
ATOM     40  H62 UNL     1     -17.121 -49.870  15.234  1.00  0.00     0.174 HD
ATOM     41  H61 UNL     1     -16.577 -48.550  16.049  1.00  0.00     0.174 HD
ENDBRANCH  11  39
TORSDOF 9
ENDMDL
MODEL 2
REMARK VINA RESULT: -7.880591545      1.822      3.378
REMARK  9 active torsions:
REMARK  status: ('A' for Active; 'I' for Inactive)
REMARK    1  A    between atoms: C7_7  and  N1_8 
REMARK    2  A    between atoms: N1_8  and  C8_10 
REMARK    3  A    between atoms: C9_13  and  N3_14 
REMARK    4  A    between atoms: N3_14  and  C10_16 
REMARK    5  A    between atoms: C10_16  and  C11_17 
REMARK    6  A    between atoms: C11_17  and  C12_18 
REMARK    7  A    between atoms: C20_30  and  N6_31 
REMARK    8  A    between atoms: N7_34  and  C21_35 
REMARK    9  A    between atoms: C21_35  and  C22_36 
ROOT
HETATM    1  C8  UNL     1     -12.214 -50.941  15.090  1.00  0.00     0.152 A 
HETATM    2  N2  UNL     1     -12.655 -52.197  15.019  1.00  0.00    -0.174 N 
ATOM      3  H2  UNL     1     -12.003 -52.978  14.949  1.00  0.00     0.186 HD
HETATM    4  C9  UNL     1     -13.998 -52.409  15.041  1.00  0.00     0.681 A 
HETATM    5  N4  UNL     1     -14.874 -51.393  15.131  1.00  0.00    -0.173 N 
ATOM      6  H4  UNL     1     -15.870 -51.609  15.144  1.00  0.00     0.186 HD
HETATM    7  C18 UNL     1     -14.496 -50.104  15.206  1.00  0.00     0.170 A 
HETATM    8  C19 UNL     1     -13.118 -49.892  15.184  1.00  0.00     0.139 A 
HETATM    9  N5  UNL     1     -12.980 -48.559  15.269  1.00  0.00    -0.184 N 
ATOM     10  H5  UNL     1     -12.082 -48.073  15.277  1.00  0.00     0.184 HD
HETATM   11  C20 UNL     1     -14.174 -47.948  15.342  1.00  0.00     0.680 A 
HETATM   12  N7  UNL     1     -15.116 -48.901  15.303  1.00  0.00    -0.161 N 
ENDROOT
BRANCH   4  13
HETATM   13  N3  UNL     1     -14.378 -53.639  14.969  1.00  0.00    -0.226 N 
ATOM     14  H3  UNL     1     -15.349 -53.836  14.729  1.00  0.00     0.177 HD
BRANCH  13  15
HETATM   15  C10 UNL     1     -13.495 -54.738  15.213  1.00  0.00     0.142 C 
BRANCH  15  16
HETATM   16  C11 UNL     1     -12.785 -55.189  13.944  1.00  0.00     0.058 C 
BRANCH  16  17
HETATM   17  C12 UNL     1     -11.336 -55.408  14.203  1.00  0.00    -0.057 A 
HETATM   18  C13 UNL     1     -10.531 -55.874  13.201  1.00  0.00     0.007 A 
HETATM   19  C14 UNL     1      -9.186 -56.080  13.440  1.00  0.00     0.001 A 
HETATM   20  C15 UNL     1      -8.626 -55.822  14.680  1.00  0.00     0.000 A 
HETATM   21  C16 UNL     1      -9.462 -55.354  15.669  1.00  0.00     0.001 A 
HETATM   22  C17 UNL     1     -10.812 -55.139  15.458  1.00  0.00     0.007 A 
ENDBRANCH  16  17
ENDBRANCH  15  16
ENDBRANCH  13  15
ENDBRANCH   4  13
BRANCH   1  23
HETATM   23  N1  UNL     1     -10.963 -50.636  15.077  1.00  0.00    -0.340 N 
ATOM     24  H1  UNL     1     -10.649 -49.865  15.667  1.00  0.00     0.167 HD
BRANCH  23  25
HETATM   25  C7  UNL     1     -10.001 -51.307  14.291  1.00  0.00     0.039 A 
HETATM   26  C2  UNL     1      -8.800 -51.716  14.811  1.00  0.00    -0.035 A 
HETATM   27  C1  UNL     1      -8.505 -51.439  16.256  1.00  0.00     0.050 C 
HETATM   28  C3  UNL     1      -7.869 -52.374  14.023  1.00  0.00     0.009 A 
HETATM   29  C4  UNL     1      -8.178 -52.610  12.697  1.00  0.00     0.001 A 
HETATM   30  C5  UNL     1      -9.385 -52.198  12.182  1.00  0.00     0.002 A 
HETATM   31  C6  UNL     1     -10.288 -51.553  12.971  1.00  0.00     0.030 A 
ENDBRANCH  23  25
ENDBRANCH   1  23
BRANCH  12  32
HETATM   32  C21 UNL     1     -16.548 -48.718  15.353  1.00  0.00     0.188 C 
BRANCH  32  33
HETATM   33  C22 UNL     1     -17.238 -48.937  14.080  1.00  0.00    -0.039 A 
HETATM   34  C23 UNL     1     -16.693 -48.501  12.893  1.00  0.00     0.009 A 
HETATM   35  C24 UNL     1     -17.367 -48.723  11.713  1.00  0.00     0.001 A 
HETATM   36  C25 UNL     1     -18.580 -49.371  11.663  1.00  0.00     0.000 A 
HETATM   37  C26 UNL     1     -19.138 -49.812  12.842  1.00  0.00     0.001 A 
HETATM   38  C27 UNL     1     -18.452 -49.583  14.017  1.00  0.00     0.009 A 
ENDBRANCH  32  33
ENDBRANCH  12  32
BRANCH  11  39
HETATM   39  N6  UNL     1     -14.404 -46.664  15.436  1.00  0.00    -0.234 N 
ATOM     40  H62 UNL     1     -15.057 -46.229  16.087  1.00  0.00     0.174 HD
ATOM     41  H61 UNL     1     -13.975 -45.917  14.890  1.00  0.00     0.174 HD
ENDBRANCH  11  39
TORSDOF 9
ENDMDL
MODEL 3
REMARK VINA RESULT: -7.797753118      1.652      2.504
REMARK  9 active torsions:
REMARK  status: ('A' for Active; 'I' for Inactive)
REMARK    1  A    between atoms: C7_7  and  N1_8 
REMARK    2  A    between atoms: N1_8  and  C8_10 
REMARK    3  A    between atoms: C9_13  and  N3_14 
REMARK    4  A    between atoms: N3_14  and  C10_16 
REMARK    5  A    between atoms: C10_16  and  C11_17 
REMARK    6  A    between atoms: C11_17  and  C12_18 
REMARK    7  A    between atoms: C20_30  and  N6_31 
REMARK    8  A    between atoms: N7_34  and  C21_35 
REMARK    9  A    between atoms: C21_35  and  C22_36 
ROOT
HETATM    1  C8  UNL     1     -12.931 -52.059  14.048  1.00  0.00     0.152 A 
HETATM    2  N2  UNL     1     -12.736 -52.211  12.738  1.00  0.00    -0.174 N 
ATOM      3  H2  UNL     1     -12.108 -52.932  12.382  1.00  0.00     0.186 HD
HETATM    4  C9  UNL     1     -13.396 -51.380  11.888  1.00  0.00     0.681 A 
HETATM    5  N4  UNL     1     -14.227 -50.423  12.337  1.00  0.00    -0.173 N 
ATOM      6  H4  UNL     1     -14.697 -49.827  11.655  1.00  0.00     0.186 HD
HETATM    7  C18 UNL     1     -14.468 -50.215  13.645  1.00  0.00     0.170 A 
HETATM    8  C19 UNL     1     -13.789 -51.071  14.511  1.00  0.00     0.139 A 
HETATM    9  N5  UNL     1     -14.176 -50.686  15.738  1.00  0.00    -0.184 N 
ATOM     10  H5  UNL     1     -13.855 -51.118  16.605  1.00  0.00     0.184 HD
HETATM   11  C20 UNL     1     -15.041 -49.659  15.677  1.00  0.00     0.680 A 
HETATM   12  N7  UNL     1     -15.224 -49.365  14.382  1.00  0.00    -0.161 N 
ENDROOT
BRANCH   4  13
HETATM   13  N3  UNL     1     -13.177 -51.565  10.631  1.00  0.00    -0.226 N 
ATOM     14  H3  UNL     1     -13.512 -52.425  10.199  1.00  0.00     0.177 HD
BRANCH  13  15
HETATM   15  C10 UNL     1     -12.484 -50.614   9.817  1.00  0.00     0.142 C 
BRANCH  15  16
HETATM   16  C11 UNL     1     -11.148 -51.154   9.324  1.00  0.00     0.058 C 
BRANCH  16  17
HETATM   17  C12 UNL     1     -10.271 -51.511  10.472  1.00  0.00    -0.057 A 
HETATM   18  C13 UNL     1      -9.829 -52.796  10.612  1.00  0.00     0.007 A 
HETATM   19  C14 UNL     1      -9.015 -53.131  11.678  1.00  0.00     0.001 A 
HETATM   20  C15 UNL     1      -8.632 -52.187  12.616  1.00  0.00     0.000 A 
HETATM   21  C16 UNL     1      -9.093 -50.900  12.448  1.00  0.00     0.001 A 
HETATM   22  C17 UNL     1      -9.909 -50.538  11.391  1.00  0.00     0.007 A 
ENDBRANCH  16  17
ENDBRANCH  15  16
ENDBRANCH  13  15
ENDBRANCH   4  13
BRANCH   1  23
HETATM   23  N1  UNL     1     -12.353 -52.794  14.933  1.00  0.00    -0.340 N 
ATOM     24  H1  UNL     1     -12.865 -53.596  15.301  1.00  0.00     0.167 HD
BRANCH  23  25
HETATM   25  C7  UNL     1     -11.050 -52.554  15.422  1.00  0.00     0.039 A 
HETATM   26  C2  UNL     1     -10.194 -53.579  15.733  1.00  0.00    -0.035 A 
HETATM   27  C1  UNL     1     -10.661 -54.994  15.547  1.00  0.00     0.050 C 
HETATM   28  C3  UNL     1      -8.920 -53.323  16.212  1.00  0.00     0.009 A 
HETATM   29  C4  UNL     1      -8.528 -52.007  16.370  1.00  0.00     0.001 A 
HETATM   30  C5  UNL     1      -9.391 -50.984  16.055  1.00  0.00     0.002 A 
HETATM   31  C6  UNL     1     -10.641 -51.255  15.585  1.00  0.00     0.030 A 
ENDBRANCH  23  25
ENDBRANCH   1  23
BRANCH  12  32
HETATM   32  C21 UNL     1     -16.069 -48.330  13.833  1.00  0.00     0.188 C 
BRANCH  32  33
HETATM   33  C22 UNL     1     -17.324 -48.809  13.249  1.00  0.00    -0.039 A 
HETATM   34  C23 UNL     1     -17.512 -48.823  11.885  1.00  0.00     0.009 A 
HETATM   35  C24 UNL     1     -18.704 -49.280  11.368  1.00  0.00     0.001 A 
HETATM   36  C25 UNL     1     -19.733 -49.730  12.163  1.00  0.00     0.000 A 
HETATM   37  C26 UNL     1     -19.560 -49.722  13.529  1.00  0.00     0.001 A 
HETATM   38  C27 UNL     1     -18.361 -49.262  14.034  1.00  0.00     0.009 A 
ENDBRANCH  32  33
ENDBRANCH  12  32
BRANCH  11  39
HETATM   39  N6  UNL     1     -15.615 -49.045  16.680  1.00  0.00    -0.234 N 
ATOM     40  H62 UNL     1     -15.125 -48.568  17.436  1.00  0.00     0.174 HD
ATOM     41  H61 UNL     1     -16.614 -48.948  16.855  1.00  0.00     0.174 HD
ENDBRANCH  11  39
TORSDOF 9
ENDMDL
MODEL 4
REMARK VINA RESULT: -7.735881192      0.962      1.820
REMARK  9 active torsions:
REMARK  status: ('A' for Active; 'I' for Inactive)
REMARK    1  A    between atoms: C7_7  and  N1_8 
REMARK    2  A    between atoms: N1_8  and  C8_10 
REMARK    3  A    between atoms: C9_13  and  N3_14 
REMARK    4  A    between atoms: N3_14  and  C10_16 
REMARK    5  A    between atoms: C10_16  and  C11_17 
REMARK    6  A    between atoms: C11_17  and  C12_18 
REMARK    7  A    between atoms: C20_30  and  N6_31 
REMARK    8  A    between atoms: N7_34  and  C21_35 
REMARK    9  A    between atoms: C21_35  and  C22_36 
ROOT
HETATM    1  C8  UNL     1     -12.793 -50.311  14.387  1.00  0.00     0.152 A 
HETATM    2  N2  UNL     1     -11.902 -50.082  13.423  1.00  0.00    -0.174 N 
ATOM      3  H2  UNL     1     -10.925 -50.355  13.537  1.00  0.00     0.186 HD
HETATM    4  C9  UNL     1     -12.328 -49.476  12.282  1.00  0.00     0.681 A 
HETATM    5  N4  UNL     1     -13.611 -49.109  12.113  1.00  0.00    -0.173 N 
ATOM      6  H4  UNL     1     -13.876 -48.658  11.238  1.00  0.00     0.186 HD
HETATM    7  C18 UNL     1     -14.560 -49.310  13.045  1.00  0.00     0.170 A 
HETATM    8  C19 UNL     1     -14.117 -49.932  14.212  1.00  0.00     0.139 A 
HETATM    9  N5  UNL     1     -15.213 -50.027  14.981  1.00  0.00    -0.184 N 
ATOM     10  H5  UNL     1     -15.228 -50.441  15.914  1.00  0.00     0.184 HD
HETATM   11  C20 UNL     1     -16.289 -49.508  14.365  1.00  0.00     0.680 A 
HETATM   12  N7  UNL     1     -15.888 -49.062  13.166  1.00  0.00    -0.161 N 
ENDROOT
BRANCH   4  13
HETATM   13  N3  UNL     1     -11.431 -49.276  11.378  1.00  0.00    -0.226 N 
ATOM     14  H3  UNL     1     -11.387 -48.362  10.929  1.00  0.00     0.177 HD
BRANCH  13  15
HETATM   15  C10 UNL     1     -10.495 -50.281  10.979  1.00  0.00     0.142 C 
BRANCH  15  16
HETATM   16  C11 UNL     1      -9.513 -50.618  12.092  1.00  0.00     0.058 C 
BRANCH  16  17
HETATM   17  C12 UNL     1      -9.404 -52.092  12.269  1.00  0.00    -0.057 A 
HETATM   18  C13 UNL     1      -8.201 -52.647  12.602  1.00  0.00     0.007 A 
HETATM   19  C14 UNL     1      -8.098 -54.016  12.766  1.00  0.00     0.001 A 
HETATM   20  C15 UNL     1      -9.194 -54.846  12.600  1.00  0.00     0.000 A 
HETATM   21  C16 UNL     1     -10.393 -54.257  12.264  1.00  0.00     0.001 A 
HETATM   22  C17 UNL     1     -10.524 -52.890  12.094  1.00  0.00     0.007 A 
ENDBRANCH  16  17
ENDBRANCH  15  16
ENDBRANCH  13  15
ENDBRANCH   4  13
BRANCH   1  23
HETATM   23  N1  UNL     1     -12.489 -50.878  15.502  1.00  0.00    -0.340 N 
ATOM     24  H1  UNL     1     -13.152 -50.808  16.274  1.00  0.00     0.167 HD
BRANCH  23  25
HETATM   25  C7  UNL     1     -11.289 -51.591  15.718  1.00  0.00     0.039 A 
HETATM   26  C2  UNL     1     -11.260 -52.962  15.759  1.00  0.00    -0.035 A 
HETATM   27  C1  UNL     1     -12.543 -53.719  15.572  1.00  0.00     0.050 C 
HETATM   28  C3  UNL     1     -10.073 -53.643  15.972  1.00  0.00     0.009 A 
HETATM   29  C4  UNL     1      -8.914 -52.910  16.140  1.00  0.00     0.001 A 
HETATM   30  C5  UNL     1      -8.950 -51.535  16.096  1.00  0.00     0.002 A 
HETATM   31  C6  UNL     1     -10.127 -50.883  15.886  1.00  0.00     0.030 A 
ENDBRANCH  23  25
ENDBRANCH   1  23
BRANCH  12  32
HETATM   32  C21 UNL     1     -16.699 -48.425  12.155  1.00  0.00     0.188 C 
BRANCH  32  33
HETATM   33  C22 UNL     1     -17.585 -49.329  11.420  1.00  0.00    -0.039 A 
HETATM   34  C23 UNL     1     -17.151 -50.570  11.010  1.00  0.00     0.009 A 
HETATM   35  C24 UNL     1     -18.009 -51.397  10.320  1.00  0.00     0.001 A 
HETATM   36  C25 UNL     1     -19.302 -51.037  10.016  1.00  0.00     0.000 A 
HETATM   37  C26 UNL     1     -19.750 -49.799  10.419  1.00  0.00     0.001 A 
HETATM   38  C27 UNL     1     -18.880 -48.980  11.109  1.00  0.00     0.009 A 
ENDBRANCH  32  33
ENDBRANCH  12  32
BRANCH  11  39
HETATM   39  N6  UNL     1     -17.511 -49.439  14.826  1.00  0.00    -0.234 N 
ATOM     40  H62 UNL     1     -18.354 -49.658  14.294  1.00  0.00     0.174 HD
ATOM     41  H61 UNL     1     -17.804 -49.167  15.764  1.00  0.00     0.174 HD
ENDBRANCH  11  39
TORSDOF 9
ENDMDL
MODEL 5
REMARK VINA RESULT: -7.631798784      1.647      3.149
REMARK  9 active torsions:
REMARK  status: ('A' for Active; 'I' for Inactive)
REMARK    1  A    between atoms: C7_7  and  N1_8 
REMARK    2  A    between atoms: N1_8  and  C8_10 
REMARK    3  A    between atoms: C9_13  and  N3_14 
REMARK    4  A    between atoms: N3_14  and  C10_16 
REMARK    5  A    between atoms: C10_16  and  C11_17 
REMARK    6  A    between atoms: C11_17  and  C12_18 
REMARK    7  A    between atoms: C20_30  and  N6_31 
REMARK    8  A    between atoms: N7_34  and  C21_35 
REMARK    9  A    between atoms: C21_35  and  C22_36 
ROOT
HETATM    1  C8  UNL     1     -11.729 -50.169  14.382  1.00  0.00     0.152 A 
HETATM    2  N2  UNL     1     -10.980 -50.010  13.290  1.00  0.00    -0.174 N 
ATOM      3  H2  UNL     1      -9.987 -50.243  13.298  1.00  0.00     0.186 HD
HETATM    4  C9  UNL     1     -11.576 -49.529  12.166  1.00  0.00     0.681 A 
HETATM    5  N4  UNL     1     -12.883 -49.216  12.136  1.00  0.00    -0.173 N 
ATOM      6  H4  UNL     1     -13.278 -48.859  11.266  1.00  0.00     0.186 HD
HETATM    7  C18 UNL     1     -13.694 -49.351  13.201  1.00  0.00     0.170 A 
HETATM    8  C19 UNL     1     -13.078 -49.845  14.350  1.00  0.00     0.139 A 
HETATM    9  N5  UNL     1     -14.061 -49.895  15.265  1.00  0.00    -0.184 N 
ATOM     10  H5  UNL     1     -13.937 -50.217  16.225  1.00  0.00     0.184 HD
HETATM   11  C20 UNL     1     -15.227 -49.468  14.752  1.00  0.00     0.680 A 
HETATM   12  N7  UNL     1     -15.004 -49.130  13.474  1.00  0.00    -0.161 N 
ENDROOT
BRANCH   4  13
HETATM   13  N3  UNL     1     -10.813 -49.393  11.136  1.00  0.00    -0.226 N 
ATOM     14  H3  UNL     1     -10.520 -48.454  10.867  1.00  0.00     0.177 HD
BRANCH  13  15
HETATM   15  C10 UNL     1     -10.359 -50.502  10.355  1.00  0.00     0.142 C 
BRANCH  15  16
HETATM   16  C11 UNL     1     -11.449 -51.548  10.166  1.00  0.00     0.058 C 
BRANCH  16  17
HETATM   17  C12 UNL     1     -12.272 -51.237   8.966  1.00  0.00    -0.057 A 
HETATM   18  C13 UNL     1     -13.580 -51.631   8.921  1.00  0.00     0.007 A 
HETATM   19  C14 UNL     1     -14.347 -51.345   7.807  1.00  0.00     0.001 A 
HETATM   20  C15 UNL     1     -13.817 -50.663   6.725  1.00  0.00     0.000 A 
HETATM   21  C16 UNL     1     -12.497 -50.280   6.799  1.00  0.00     0.001 A 
HETATM   22  C17 UNL     1     -11.707 -50.553   7.901  1.00  0.00     0.007 A 
ENDBRANCH  16  17
ENDBRANCH  15  16
ENDBRANCH  13  15
ENDBRANCH   4  13
BRANCH   1  23
HETATM   23  N1  UNL     1     -11.260 -50.616  15.495  1.00  0.00    -0.340 N 
ATOM     24  H1  UNL     1     -11.261 -49.993  16.302  1.00  0.00     0.167 HD
BRANCH  23  25
HETATM   25  C7  UNL     1     -10.744 -51.920  15.659  1.00  0.00     0.039 A 
HETATM   26  C2  UNL     1      -9.446 -52.141  16.044  1.00  0.00    -0.035 A 
HETATM   27  C1  UNL     1      -8.554 -50.959  16.294  1.00  0.00     0.050 C 
HETATM   28  C3  UNL     1      -8.958 -53.428  16.201  1.00  0.00     0.009 A 
HETATM   29  C4  UNL     1      -9.810 -54.489  15.960  1.00  0.00     0.001 A 
HETATM   30  C5  UNL     1     -11.111 -54.260  15.576  1.00  0.00     0.002 A 
HETATM   31  C6  UNL     1     -11.573 -52.988  15.427  1.00  0.00     0.030 A 
ENDBRANCH  23  25
ENDBRANCH   1  23
BRANCH  12  32
HETATM   32  C21 UNL     1     -15.965 -48.617  12.526  1.00  0.00     0.188 C 
BRANCH  32  33
HETATM   33  C22 UNL     1     -16.728 -49.641  11.810  1.00  0.00    -0.039 A 
HETATM   34  C23 UNL     1     -16.115 -50.778  11.333  1.00  0.00     0.009 A 
HETATM   35  C24 UNL     1     -16.861 -51.723  10.664  1.00  0.00     0.001 A 
HETATM   36  C25 UNL     1     -18.212 -51.583  10.446  1.00  0.00     0.000 A 
HETATM   37  C26 UNL     1     -18.839 -50.451  10.917  1.00  0.00     0.001 A 
HETATM   38  C27 UNL     1     -18.080 -49.512  11.585  1.00  0.00     0.009 A 
ENDBRANCH  32  33
ENDBRANCH  12  32
BRANCH  11  39
HETATM   39  N6  UNL     1     -16.381 -49.389  15.363  1.00  0.00    -0.234 N 
ATOM     40  H62 UNL     1     -16.840 -50.155  15.855  1.00  0.00     0.174 HD
ATOM     41  H61 UNL     1     -16.984 -48.571  15.442  1.00  0.00     0.174 HD
ENDBRANCH  11  39
TORSDOF 9
ENDMDL
