MODEL 1
REMARK VINA RESULT: -6.950954490      0.000      0.000
REMARK  7 active torsions:
REMARK  status: ('A' for Active; 'I' for Inactive)
REMARK    1  A    between atoms: C2_2  and  N1_3 
REMARK    2  A    between atoms: N1_3  and  C3_4 
REMARK    3  A    between atoms: N1_3  and  C8_14 
REMARK    4  A    between atoms: C3_4  and  C4_5 
REMARK    5  A    between atoms: C11_17  and  C12_18 
REMARK    6  A    between atoms: C13_20  and  N4_21 
REMARK       I    between atoms: N4_21  and  C14_23 
REMARK    7  A    between atoms: C15_30  and  C16_31 
ROOT
HETATM    1  C8  UNL     1      55.530  -1.891  -9.562  1.00  0.00     0.034 A 
HETATM    2  C9  UNL     1      54.760  -2.316  -8.533  1.00  0.00     0.030 A 
HETATM    3  C10 UNL     1      53.867  -1.411  -7.927  1.00  0.00     0.015 A 
HETATM    4  C11 UNL     1      53.785  -0.130  -8.373  1.00  0.00    -0.017 A 
HETATM    5  C22 UNL     1      54.578   0.291  -9.432  1.00  0.00     0.015 A 
HETATM    6  C23 UNL     1      55.453  -0.574 -10.037  1.00  0.00     0.030 A 
ENDROOT
BRANCH   4   7
HETATM    7  C12 UNL     1      52.909   0.913  -7.797  1.00  0.00     0.046 A 
HETATM    8  S1  UNL     1      52.033   2.095  -8.651  1.00  0.00    -0.051 SA
HETATM    9  C13 UNL     1      51.370   2.925  -7.319  1.00  0.00     0.152 A 
HETATM   10  N7  UNL     1      51.851   2.261  -6.271  1.00  0.00    -0.335 N 
HETATM   11  C15 UNL     1      52.642   1.225  -6.504  1.00  0.00     0.062 A 
ATOM     12  H7  UNL     1      51.617   2.542  -5.318  1.00  0.00     0.168 HD
BRANCH   9  13
HETATM   13  N4  UNL     1      50.573   3.975  -7.295  1.00  0.00    -0.311 N 
HETATM   14  C14 UNL     1      50.086   4.345  -5.994  1.00  0.00     0.187 C 
HETATM   15  N5  UNL     1      50.383   5.551  -5.561  1.00  0.00    -0.373 N 
HETATM   16  N6  UNL     1      49.332   3.529  -5.148  1.00  0.00    -0.064 NA
ATOM     17  H52 UNL     1      50.933   6.148  -6.178  1.00  0.00     0.158 HD
ATOM     18  H51 UNL     1      50.037   5.814  -4.638  1.00  0.00     0.158 HD
ATOM     19  H4  UNL     1      50.319   4.489  -8.140  1.00  0.00     0.170 HD
ENDBRANCH   9  13
BRANCH  11  20
HETATM   20  C16 UNL     1      53.174   0.429  -5.357  1.00  0.00    -0.008 A 
HETATM   21  C17 UNL     1      52.353  -0.508  -4.806  1.00  0.00     0.014 A 
HETATM   22  C18 UNL     1      52.748  -1.256  -3.723  1.00  0.00     0.001 A 
HETATM   23  C19 UNL     1      54.004  -1.051  -3.193  1.00  0.00     0.000 A 
HETATM   24  C20 UNL     1      54.836  -0.106  -3.749  1.00  0.00     0.001 A 
HETATM   25  C21 UNL     1      54.437   0.650  -4.843  1.00  0.00     0.014 A 
ENDBRANCH  11  20
ENDBRANCH   4   7
BRANCH   1  26
HETATM   26  N1  UNL     1      56.505  -2.702 -10.281  1.00  0.00    -0.355 N 
BRANCH  26  27
HETATM   27  C2  UNL     1      57.041  -3.833  -9.663  1.00  0.00     0.060 C 
HETATM   28  C1  UNL     1      58.167  -3.511  -8.696  1.00  0.00     0.055 C 
ENDBRANCH  26  27
BRANCH  26  29
HETATM   29  C3  UNL     1      56.840  -2.132 -11.545  1.00  0.00     0.191 C 
BRANCH  29  30
HETATM   30  C4  UNL     1      58.299  -1.948 -11.824  1.00  0.00     0.096 A 
HETATM   31  N2  UNL     1      59.018  -0.907 -11.409  1.00  0.00    -0.362 N 
HETATM   32  C5  UNL     1      60.259  -0.735 -11.872  1.00  0.00     0.105 A 
ATOM     33  H2  UNL     1      58.623  -0.244 -10.742  1.00  0.00     0.165 HD
HETATM   34  C6  UNL     1      60.818  -1.628 -12.782  1.00  0.00     0.108 A 
HETATM   35  N3  UNL     1      60.058  -2.678 -13.185  1.00  0.00    -0.331 N 
HETATM   36  C7  UNL     1      58.835  -2.851 -12.731  1.00  0.00     0.269 A 
ATOM     37  H3  UNL     1      60.443  -3.346 -13.853  1.00  0.00     0.168 HD
HETATM   38  O1  UNL     1      58.125  -3.842 -13.109  1.00  0.00    -0.266 OA
ENDBRANCH  29  30
ENDBRANCH  26  29
ENDBRANCH   1  26
TORSDOF 7
ENDMDL
MODEL 2
REMARK VINA RESULT: -6.950797656      2.358      4.032
REMARK  7 active torsions:
REMARK  status: ('A' for Active; 'I' for Inactive)
REMARK    1  A    between atoms: C2_2  and  N1_3 
REMARK    2  A    between atoms: N1_3  and  C3_4 
REMARK    3  A    between atoms: N1_3  and  C8_14 
REMARK    4  A    between atoms: C3_4  and  C4_5 
REMARK    5  A    between atoms: C11_17  and  C12_18 
REMARK    6  A    between atoms: C13_20  and  N4_21 
REMARK       I    between atoms: N4_21  and  C14_23 
REMARK    7  A    between atoms: C15_30  and  C16_31 
ROOT
HETATM    1  C8  UNL     1      56.004   0.652  -9.760  1.00  0.00     0.034 A 
HETATM    2  C9  UNL     1      54.729   0.546 -10.201  1.00  0.00     0.030 A 
HETATM    3  C10 UNL     1      53.674   0.654  -9.274  1.00  0.00     0.015 A 
HETATM    4  C11 UNL     1      53.938   0.860  -7.957  1.00  0.00    -0.017 A 
HETATM    5  C22 UNL     1      55.252   0.972  -7.521  1.00  0.00     0.015 A 
HETATM    6  C23 UNL     1      56.294   0.871  -8.406  1.00  0.00     0.030 A 
ENDROOT
BRANCH   4   7
HETATM    7  C12 UNL     1      52.917   0.959  -6.893  1.00  0.00     0.046 A 
HETATM    8  S1  UNL     1      52.400  -0.287  -5.856  1.00  0.00    -0.051 SA
HETATM    9  C13 UNL     1      51.197   0.574  -5.011  1.00  0.00     0.152 A 
HETATM   10  N7  UNL     1      51.241   1.785  -5.561  1.00  0.00    -0.335 N 
HETATM   11  C15 UNL     1      52.121   1.995  -6.528  1.00  0.00     0.062 A 
ATOM     12  H7  UNL     1      50.615   2.528  -5.248  1.00  0.00     0.168 HD
BRANCH   9  13
HETATM   13  N4  UNL     1      50.397   0.171  -4.043  1.00  0.00    -0.311 N 
HETATM   14  C14 UNL     1      50.272   1.077  -2.934  1.00  0.00     0.187 C 
HETATM   15  N5  UNL     1      49.069   1.535  -2.663  1.00  0.00    -0.373 N 
HETATM   16  N6  UNL     1      51.322   1.519  -2.126  1.00  0.00    -0.064 NA
ATOM     17  H52 UNL     1      48.302   1.212  -3.253  1.00  0.00     0.158 HD
ATOM     18  H51 UNL     1      48.980   2.177  -1.876  1.00  0.00     0.158 HD
ATOM     19  H4  UNL     1      49.902  -0.720  -4.079  1.00  0.00     0.170 HD
ENDBRANCH   9  13
BRANCH  11  20
HETATM   20  C16 UNL     1      52.228   3.351  -7.148  1.00  0.00    -0.008 A 
HETATM   21  C17 UNL     1      51.418   3.624  -8.208  1.00  0.00     0.014 A 
HETATM   22  C18 UNL     1      51.480   4.831  -8.862  1.00  0.00     0.001 A 
HETATM   23  C19 UNL     1      52.380   5.780  -8.426  1.00  0.00     0.000 A 
HETATM   24  C20 UNL     1      53.199   5.506  -7.354  1.00  0.00     0.001 A 
HETATM   25  C21 UNL     1      53.136   4.287  -6.694  1.00  0.00     0.014 A 
ENDBRANCH  11  20
ENDBRANCH   4   7
BRANCH   1  26
HETATM   26  N1  UNL     1      57.198   0.552 -10.591  1.00  0.00    -0.355 N 
BRANCH  26  27
HETATM   27  C2  UNL     1      58.381   1.155 -10.162  1.00  0.00     0.060 C 
HETATM   28  C1  UNL     1      59.021   2.039 -11.218  1.00  0.00     0.055 C 
ENDBRANCH  26  27
BRANCH  26  29
HETATM   29  C3  UNL     1      56.931  -0.113 -11.824  1.00  0.00     0.191 C 
BRANCH  29  30
HETATM   30  C4  UNL     1      57.698  -1.372 -12.078  1.00  0.00     0.096 A 
HETATM   31  N2  UNL     1      58.921  -1.415 -12.603  1.00  0.00    -0.362 N 
HETATM   32  C5  UNL     1      59.442  -2.589 -12.971  1.00  0.00     0.105 A 
ATOM     33  H2  UNL     1      59.457  -0.556 -12.723  1.00  0.00     0.165 HD
HETATM   34  C6  UNL     1      58.728  -3.773 -12.814  1.00  0.00     0.108 A 
HETATM   35  N3  UNL     1      57.484  -3.695 -12.277  1.00  0.00    -0.331 N 
HETATM   36  C7  UNL     1      56.967  -2.541 -11.913  1.00  0.00     0.269 A 
ATOM     37  H3  UNL     1      56.938  -4.548 -12.154  1.00  0.00     0.168 HD
HETATM   38  O1  UNL     1      55.799  -2.471 -11.404  1.00  0.00    -0.266 OA
ENDBRANCH  29  30
ENDBRANCH  26  29
ENDBRANCH   1  26
TORSDOF 7
ENDMDL
MODEL 3
REMARK VINA RESULT: -6.900478498      1.067      1.525
REMARK  7 active torsions:
REMARK  status: ('A' for Active; 'I' for Inactive)
REMARK    1  A    between atoms: C2_2  and  N1_3 
REMARK    2  A    between atoms: N1_3  and  C3_4 
REMARK    3  A    between atoms: N1_3  and  C8_14 
REMARK    4  A    between atoms: C3_4  and  C4_5 
REMARK    5  A    between atoms: C11_17  and  C12_18 
REMARK    6  A    between atoms: C13_20  and  N4_21 
REMARK       I    between atoms: N4_21  and  C14_23 
REMARK    7  A    between atoms: C15_30  and  C16_31 
ROOT
HETATM    1  C8  UNL     1      55.695  -0.860  -9.914  1.00  0.00     0.034 A 
HETATM    2  C9  UNL     1      56.348   0.170  -9.326  1.00  0.00     0.030 A 
HETATM    3  C10 UNL     1      55.600   1.173  -8.679  1.00  0.00     0.015 A 
HETATM    4  C11 UNL     1      54.243   1.104  -8.651  1.00  0.00    -0.017 A 
HETATM    5  C22 UNL     1      53.588   0.039  -9.255  1.00  0.00     0.015 A 
HETATM    6  C23 UNL     1      54.296  -0.949  -9.889  1.00  0.00     0.030 A 
ENDROOT
BRANCH   4   7
HETATM    7  C12 UNL     1      53.356   2.111  -8.030  1.00  0.00     0.046 A 
HETATM    8  S1  UNL     1      52.879   3.601  -8.700  1.00  0.00    -0.051 SA
HETATM    9  C13 UNL     1      51.965   4.183  -7.386  1.00  0.00     0.152 A 
HETATM   10  N7  UNL     1      52.065   3.210  -6.484  1.00  0.00    -0.335 N 
HETATM   11  C15 UNL     1      52.776   2.140  -6.805  1.00  0.00     0.062 A 
ATOM     12  H7  UNL     1      51.608   3.285  -5.575  1.00  0.00     0.168 HD
BRANCH   9  13
HETATM   13  N4  UNL     1      51.307   5.319  -7.257  1.00  0.00    -0.311 N 
HETATM   14  C14 UNL     1      49.960   5.195  -6.769  1.00  0.00     0.187 C 
HETATM   15  N5  UNL     1      49.668   5.814  -5.645  1.00  0.00    -0.373 N 
HETATM   16  N6  UNL     1      48.939   4.465  -7.382  1.00  0.00    -0.064 NA
ATOM     17  H52 UNL     1      50.413   6.347  -5.197  1.00  0.00     0.158 HD
ATOM     18  H51 UNL     1      48.712   5.726  -5.299  1.00  0.00     0.158 HD
ATOM     19  H4  UNL     1      51.723   6.222  -7.488  1.00  0.00     0.170 HD
ENDBRANCH   9  13
BRANCH  11  20
HETATM   20  C16 UNL     1      52.884   1.007  -5.836  1.00  0.00    -0.008 A 
HETATM   21  C17 UNL     1      53.879   1.065  -4.908  1.00  0.00     0.014 A 
HETATM   22  C18 UNL     1      54.074   0.048  -4.005  1.00  0.00     0.001 A 
HETATM   23  C19 UNL     1      53.238  -1.048  -4.044  1.00  0.00     0.000 A 
HETATM   24  C20 UNL     1      52.231  -1.109  -4.981  1.00  0.00     0.001 A 
HETATM   25  C21 UNL     1      52.034  -0.081  -5.893  1.00  0.00     0.014 A 
ENDBRANCH  11  20
ENDBRANCH   4   7
BRANCH   1  26
HETATM   26  N1  UNL     1      56.325  -1.964 -10.628  1.00  0.00    -0.355 N 
BRANCH  26  27
HETATM   27  C2  UNL     1      56.399  -3.218 -10.019  1.00  0.00     0.060 C 
HETATM   28  C1  UNL     1      57.394  -3.269  -8.873  1.00  0.00     0.055 C 
ENDBRANCH  26  27
BRANCH  26  29
HETATM   29  C3  UNL     1      56.874  -1.544 -11.876  1.00  0.00     0.191 C 
BRANCH  29  30
HETATM   30  C4  UNL     1      58.365  -1.580 -11.991  1.00  0.00     0.096 A 
HETATM   31  N2  UNL     1      59.175  -0.606 -11.580  1.00  0.00    -0.362 N 
HETATM   32  C5  UNL     1      60.471  -0.645 -11.902  1.00  0.00     0.105 A 
ATOM     33  H2  UNL     1      58.808   0.165 -11.023  1.00  0.00     0.165 HD
HETATM   34  C6  UNL     1      60.993  -1.689 -12.661  1.00  0.00     0.108 A 
HETATM   35  N3  UNL     1      60.141  -2.665 -13.064  1.00  0.00    -0.331 N 
HETATM   36  C7  UNL     1      58.863  -2.631 -12.749  1.00  0.00     0.269 A 
ATOM     37  H3  UNL     1      60.497  -3.441 -13.623  1.00  0.00     0.168 HD
HETATM   38  O1  UNL     1      58.065  -3.553 -13.126  1.00  0.00    -0.266 OA
ENDBRANCH  29  30
ENDBRANCH  26  29
ENDBRANCH   1  26
TORSDOF 7
ENDMDL
MODEL 4
REMARK VINA RESULT: -6.847547028      2.664      4.110
REMARK  7 active torsions:
REMARK  status: ('A' for Active; 'I' for Inactive)
REMARK    1  A    between atoms: C2_2  and  N1_3 
REMARK    2  A    between atoms: N1_3  and  C3_4 
REMARK    3  A    between atoms: N1_3  and  C8_14 
REMARK    4  A    between atoms: C3_4  and  C4_5 
REMARK    5  A    between atoms: C11_17  and  C12_18 
REMARK    6  A    between atoms: C13_20  and  N4_21 
REMARK       I    between atoms: N4_21  and  C14_23 
REMARK    7  A    between atoms: C15_30  and  C16_31 
ROOT
HETATM    1  C8  UNL     1      56.421  -1.872 -10.344  1.00  0.00     0.034 A 
HETATM    2  C9  UNL     1      55.143  -2.292 -10.187  1.00  0.00     0.030 A 
HETATM    3  C10 UNL     1      54.470  -2.001  -8.985  1.00  0.00     0.015 A 
HETATM    4  C11 UNL     1      55.100  -1.309  -7.999  1.00  0.00    -0.017 A 
HETATM    5  C22 UNL     1      56.409  -0.881  -8.176  1.00  0.00     0.015 A 
HETATM    6  C23 UNL     1      57.083  -1.153  -9.339  1.00  0.00     0.030 A 
ENDROOT
BRANCH   4   7
HETATM    7  C12 UNL     1      54.506  -0.973  -6.687  1.00  0.00     0.046 A 
HETATM    8  S1  UNL     1      54.602  -1.892  -5.259  1.00  0.00    -0.051 SA
HETATM    9  C13 UNL     1      53.633  -0.906  -4.263  1.00  0.00     0.152 A 
HETATM   10  N7  UNL     1      53.273   0.089  -5.070  1.00  0.00    -0.335 N 
HETATM   11  C15 UNL     1      53.716   0.066  -6.317  1.00  0.00     0.062 A 
ATOM     12  H7  UNL     1      52.674   0.846  -4.737  1.00  0.00     0.168 HD
BRANCH   9  13
HETATM   13  N4  UNL     1      53.298  -1.061  -2.997  1.00  0.00    -0.311 N 
HETATM   14  C14 UNL     1      51.887  -1.171  -2.745  1.00  0.00     0.187 C 
HETATM   15  N5  UNL     1      51.462  -2.276  -2.171  1.00  0.00    -0.373 N 
HETATM   16  N6  UNL     1      50.928  -0.207  -3.066  1.00  0.00    -0.064 NA
ATOM     17  H52 UNL     1      52.162  -2.980  -1.936  1.00  0.00     0.158 HD
ATOM     18  H51 UNL     1      50.461  -2.354  -1.992  1.00  0.00     0.158 HD
ATOM     19  H4  UNL     1      53.991  -1.100  -2.249  1.00  0.00     0.170 HD
ENDBRANCH   9  13
BRANCH  11  20
HETATM   20  C16 UNL     1      53.367   1.183  -7.246  1.00  0.00    -0.008 A 
HETATM   21  C17 UNL     1      54.170   2.283  -7.240  1.00  0.00     0.014 A 
HETATM   22  C18 UNL     1      53.899   3.371  -8.033  1.00  0.00     0.001 A 
HETATM   23  C19 UNL     1      52.791   3.338  -8.854  1.00  0.00     0.000 A 
HETATM   24  C20 UNL     1      51.978   2.227  -8.864  1.00  0.00     0.001 A 
HETATM   25  C21 UNL     1      52.253   1.128  -8.062  1.00  0.00     0.014 A 
ENDBRANCH  11  20
ENDBRANCH   4   7
BRANCH   1  26
HETATM   26  N1  UNL     1      57.250  -2.105 -11.521  1.00  0.00    -0.355 N 
BRANCH  26  27
HETATM   27  C2  UNL     1      57.467  -3.414 -11.955  1.00  0.00     0.060 C 
HETATM   28  C1  UNL     1      58.281  -4.242 -10.976  1.00  0.00     0.055 C 
ENDBRANCH  26  27
BRANCH  26  29
HETATM   29  C3  UNL     1      57.809  -0.893 -12.024  1.00  0.00     0.191 C 
BRANCH  29  30
HETATM   30  C4  UNL     1      59.285  -0.896 -12.270  1.00  0.00     0.096 A 
HETATM   31  N2  UNL     1      59.913  -1.759 -13.066  1.00  0.00    -0.362 N 
HETATM   32  C5  UNL     1      61.248  -1.805 -13.067  1.00  0.00     0.105 A 
ATOM     33  H2  UNL     1      59.378  -2.381 -13.670  1.00  0.00     0.165 HD
HETATM   34  C6  UNL     1      61.998  -0.964 -12.250  1.00  0.00     0.108 A 
HETATM   35  N3  UNL     1      61.327  -0.097 -11.450  1.00  0.00    -0.331 N 
HETATM   36  C7  UNL     1      60.012  -0.048 -11.445  1.00  0.00     0.269 A 
ATOM     37  H3  UNL     1      61.853   0.529 -10.840  1.00  0.00     0.168 HD
HETATM   38  O1  UNL     1      59.384   0.772 -10.695  1.00  0.00    -0.266 OA
ENDBRANCH  29  30
ENDBRANCH  26  29
ENDBRANCH   1  26
TORSDOF 7
ENDMDL
MODEL 5
REMARK VINA RESULT: -6.756116233      2.116      3.577
REMARK  7 active torsions:
REMARK  status: ('A' for Active; 'I' for Inactive)
REMARK    1  A    between atoms: C2_2  and  N1_3 
REMARK    2  A    between atoms: N1_3  and  C3_4 
REMARK    3  A    between atoms: N1_3  and  C8_14 
REMARK    4  A    between atoms: C3_4  and  C4_5 
REMARK    5  A    between atoms: C11_17  and  C12_18 
REMARK    6  A    between atoms: C13_20  and  N4_21 
REMARK       I    between atoms: N4_21  and  C14_23 
REMARK    7  A    between atoms: C15_30  and  C16_31 
ROOT
HETATM    1  C8  UNL     1      54.680  -1.549  -8.994  1.00  0.00     0.034 A 
HETATM    2  C9  UNL     1      54.128  -0.380  -9.400  1.00  0.00     0.030 A 
HETATM    3  C10 UNL     1      53.316   0.341  -8.504  1.00  0.00     0.015 A 
HETATM    4  C11 UNL     1      53.091  -0.135  -7.251  1.00  0.00    -0.017 A 
HETATM    5  C22 UNL     1      53.667  -1.332  -6.847  1.00  0.00     0.015 A 
HETATM    6  C23 UNL     1      54.462  -2.050  -7.703  1.00  0.00     0.030 A 
ENDROOT
BRANCH   4   7
HETATM    7  C12 UNL     1      52.235   0.519  -6.238  1.00  0.00     0.046 A 
HETATM    8  S1  UNL     1      51.387  -0.243  -4.974  1.00  0.00    -0.051 SA
HETATM    9  C13 UNL     1      50.610   1.130  -4.332  1.00  0.00     0.152 A 
HETATM   10  N7  UNL     1      51.033   2.119  -5.116  1.00  0.00    -0.335 N 
HETATM   11  C15 UNL     1      51.869   1.817  -6.097  1.00  0.00     0.062 A 
ATOM     12  H7  UNL     1      50.723   3.080  -4.965  1.00  0.00     0.168 HD
BRANCH   9  13
HETATM   13  N4  UNL     1      49.783   1.227  -3.309  1.00  0.00    -0.311 N 
HETATM   14  C14 UNL     1      49.229   2.536  -3.091  1.00  0.00     0.187 C 
HETATM   15  N5  UNL     1      47.920   2.651  -3.144  1.00  0.00    -0.373 N 
HETATM   16  N6  UNL     1      49.964   3.695  -2.836  1.00  0.00    -0.064 NA
ATOM     17  H52 UNL     1      47.382   1.805  -3.330  1.00  0.00     0.158 HD
ATOM     18  H51 UNL     1      47.526   3.580  -2.989  1.00  0.00     0.158 HD
ATOM     19  H4  UNL     1      49.553   0.430  -2.715  1.00  0.00     0.170 HD
ENDBRANCH   9  13
BRANCH  11  20
HETATM   20  C16 UNL     1      52.397   2.902  -6.978  1.00  0.00    -0.008 A 
HETATM   21  C17 UNL     1      53.629   3.406  -6.688  1.00  0.00     0.014 A 
HETATM   22  C18 UNL     1      54.174   4.432  -7.421  1.00  0.00     0.001 A 
HETATM   23  C19 UNL     1      53.453   4.953  -8.475  1.00  0.00     0.000 A 
HETATM   24  C20 UNL     1      52.208   4.446  -8.771  1.00  0.00     0.001 A 
HETATM   25  C21 UNL     1      51.659   3.410  -8.030  1.00  0.00     0.014 A 
ENDBRANCH  11  20
ENDBRANCH   4   7
BRANCH   1  26
HETATM   26  N1  UNL     1      55.530  -2.410  -9.807  1.00  0.00    -0.355 N 
BRANCH  26  27
HETATM   27  C2  UNL     1      56.167  -3.499  -9.209  1.00  0.00     0.060 C 
HETATM   28  C1  UNL     1      57.525  -3.151  -8.625  1.00  0.00     0.055 C 
ENDBRANCH  26  27
BRANCH  26  29
HETATM   29  C3  UNL     1      55.650  -1.929 -11.144  1.00  0.00     0.191 C 
BRANCH  29  30
HETATM   30  C4  UNL     1      56.931  -2.244 -11.850  1.00  0.00     0.096 A 
HETATM   31  N2  UNL     1      57.224  -3.429 -12.382  1.00  0.00    -0.362 N 
HETATM   32  C5  UNL     1      58.465  -3.670 -12.815  1.00  0.00     0.105 A 
ATOM     33  H2  UNL     1      56.505  -4.149 -12.458  1.00  0.00     0.165 HD
HETATM   34  C6  UNL     1      59.460  -2.702 -12.722  1.00  0.00     0.108 A 
HETATM   35  N3  UNL     1      59.128  -1.505 -12.174  1.00  0.00    -0.331 N 
HETATM   36  C7  UNL     1      57.908  -1.263 -11.745  1.00  0.00     0.269 A 
ATOM     37  H3  UNL     1      59.840  -0.779 -12.091  1.00  0.00     0.168 HD
HETATM   38  O1  UNL     1      57.598  -0.136 -11.234  1.00  0.00    -0.266 OA
ENDBRANCH  29  30
ENDBRANCH  26  29
ENDBRANCH   1  26
TORSDOF 7
ENDMDL
