MODEL 1
REMARK VINA RESULT: -7.679075278      0.000      0.000
REMARK  9 active torsions:
REMARK  status: ('A' for Active; 'I' for Inactive)
REMARK    1  A    between atoms: C2_2  and  C3_3 
REMARK    2  A    between atoms: C3_3  and  N1_4 
REMARK    3  A    between atoms: C3_3  and  N2_8 
REMARK       I    between atoms: N2_8  and  C4_10 
REMARK    4  A    between atoms: C4_10  and  C5_12 
REMARK    5  A    between atoms: C7_14  and  N3_15 
REMARK    6  A    between atoms: N3_15  and  C8_17 
REMARK    7  A    between atoms: C12_21  and  N4_22 
REMARK    8  A    between atoms: N4_22  and  C13_24 
REMARK    9  A    between atoms: C20_33  and  C21_34 
ROOT
HETATM    1  C5  UNL     1      59.677  -3.944  -5.985  1.00  0.00     0.103 A 
HETATM    2  C6  UNL     1      59.819  -3.131  -7.075  1.00  0.00     0.064 A 
HETATM    3  C7  UNL     1      60.315  -3.626  -8.251  1.00  0.00     0.037 A 
HETATM    4  C19 UNL     1      60.669  -4.957  -8.321  1.00  0.00     0.059 A 
HETATM    5  C20 UNL     1      60.513  -5.752  -7.200  1.00  0.00     0.045 A 
HETATM    6  N6  UNL     1      60.026  -5.260  -6.053  1.00  0.00    -0.351 N 
ATOM      7  H6  UNL     1      59.918  -5.864  -5.239  1.00  0.00     0.166 HD
ENDROOT
BRANCH   3   8
HETATM    8  N3  UNL     1      60.451  -2.848  -9.284  1.00  0.00    -0.356 N 
ATOM      9  H3  UNL     1      61.189  -2.146  -9.256  1.00  0.00     0.166 HD
BRANCH   8  10
HETATM   10  C8  UNL     1      59.647  -2.911 -10.439  1.00  0.00     0.034 A 
HETATM   11  C9  UNL     1      60.225  -3.012 -11.699  1.00  0.00     0.029 A 
HETATM   12  C10 UNL     1      59.442  -3.076 -12.831  1.00  0.00     0.004 A 
HETATM   13  C11 UNL     1      58.064  -3.043 -12.784  1.00  0.00     0.029 A 
HETATM   14  C12 UNL     1      57.486  -2.943 -11.537  1.00  0.00     0.035 A 
HETATM   15  C18 UNL     1      58.263  -2.879 -10.401  1.00  0.00     0.059 A 
BRANCH  14  16
HETATM   16  N4  UNL     1      56.064  -2.911 -11.495  1.00  0.00    -0.342 N 
ATOM     17  H4  UNL     1      55.516  -3.618 -11.985  1.00  0.00     0.167 HD
BRANCH  16  18
HETATM   18  C13 UNL     1      55.478  -1.976 -10.830  1.00  0.00     0.105 A 
HETATM   19  C14 UNL     1      54.788  -2.249  -9.693  1.00  0.00     0.048 A 
HETATM   20  C15 UNL     1      54.153  -1.264  -8.967  1.00  0.00     0.005 A 
HETATM   21  C16 UNL     1      54.247   0.041  -9.446  1.00  0.00     0.017 A 
HETATM   22  C17 UNL     1      54.941   0.320 -10.590  1.00  0.00     0.089 A 
HETATM   23  N5  UNL     1      55.535  -0.691 -11.249  1.00  0.00    -0.352 N 
ATOM     24  H5  UNL     1      56.052  -0.479 -12.102  1.00  0.00     0.166 HD
ENDBRANCH  16  18
ENDBRANCH  14  16
ENDBRANCH   8  10
ENDBRANCH   3   8
BRANCH   1  25
HETATM   25  C4  UNL     1      59.152  -3.441  -4.725  1.00  0.00     0.270 C 
HETATM   26  N2  UNL     1      59.141  -4.241  -3.571  1.00  0.00    -0.325 N 
ATOM     27  H2  UNL     1      59.504  -5.194  -3.603  1.00  0.00     0.165 HD
HETATM   28  O1  UNL     1      58.702  -2.272  -4.679  1.00  0.00    -0.266 OA
BRANCH  26  29
HETATM   29  C3  UNL     1      58.604  -3.701  -2.322  1.00  0.00     0.307 C 
BRANCH  29  30
HETATM   30  C2  UNL     1      58.909  -4.656  -1.245  1.00  0.00     0.016 C 
HETATM   31  C1  UNL     1      59.970  -5.452  -1.279  1.00  0.00     0.010 C 
ENDBRANCH  29  30
BRANCH  29  32
HETATM   32  N1  UNL     1      57.182  -3.465  -2.474  1.00  0.00    -0.055 N 
ATOM     33  H13 UNL     1      56.673  -4.344  -2.562  1.00  0.00     0.277 HD
ATOM     34  H12 UNL     1      56.773  -3.124  -1.605  1.00  0.00     0.277 HD
ATOM     35  H11 UNL     1      56.968  -2.839  -3.250  1.00  0.00     0.277 HD
ENDBRANCH  29  32
ENDBRANCH  26  29
ENDBRANCH   1  25
BRANCH   5  36
HETATM   36  C21 UNL     1      60.901  -7.181  -7.295  1.00  0.00    -0.009 A 
HETATM   37  C22 UNL     1      60.579  -8.050  -6.267  1.00  0.00     0.014 A 
HETATM   38  C23 UNL     1      60.943  -9.400  -6.353  1.00  0.00     0.001 A 
HETATM   39  C24 UNL     1      61.619  -9.878  -7.450  1.00  0.00     0.007 A 
HETATM   40  C25 UNL     1      61.941  -9.031  -8.468  1.00  0.00    -0.061 A 
HETATM   41  C26 UNL     1      62.675  -9.494  -9.683  1.00  0.00     0.048 C 
HETATM   42  C27 UNL     1      61.571  -7.676  -8.373  1.00  0.00     0.020 A 
ENDBRANCH   5  36
TORSDOF 9
ENDMDL
MODEL 2
REMARK VINA RESULT: -7.625053082      0.605      1.462
REMARK  9 active torsions:
REMARK  status: ('A' for Active; 'I' for Inactive)
REMARK    1  A    between atoms: C2_2  and  C3_3 
REMARK    2  A    between atoms: C3_3  and  N1_4 
REMARK    3  A    between atoms: C3_3  and  N2_8 
REMARK       I    between atoms: N2_8  and  C4_10 
REMARK    4  A    between atoms: C4_10  and  C5_12 
REMARK    5  A    between atoms: C7_14  and  N3_15 
REMARK    6  A    between atoms: N3_15  and  C8_17 
REMARK    7  A    between atoms: C12_21  and  N4_22 
REMARK    8  A    between atoms: N4_22  and  C13_24 
REMARK    9  A    between atoms: C20_33  and  C21_34 
ROOT
HETATM    1  C5  UNL     1      59.534  -3.853  -5.936  1.00  0.00     0.103 A 
HETATM    2  C6  UNL     1      59.577  -3.063  -7.052  1.00  0.00     0.064 A 
HETATM    3  C7  UNL     1      60.049  -3.560  -8.237  1.00  0.00     0.037 A 
HETATM    4  C19 UNL     1      60.482  -4.868  -8.290  1.00  0.00     0.059 A 
HETATM    5  C20 UNL     1      60.426  -5.639  -7.143  1.00  0.00     0.045 A 
HETATM    6  N6  UNL     1      59.961  -5.146  -5.987  1.00  0.00    -0.351 N 
ATOM      7  H6  UNL     1      59.927  -5.733  -5.154  1.00  0.00     0.166 HD
ENDROOT
BRANCH   3   8
HETATM    8  N3  UNL     1      60.091  -2.805  -9.294  1.00  0.00    -0.356 N 
ATOM      9  H3  UNL     1      60.787  -2.060  -9.319  1.00  0.00     0.166 HD
BRANCH   8  10
HETATM   10  C8  UNL     1      59.239  -2.945 -10.407  1.00  0.00     0.034 A 
HETATM   11  C9  UNL     1      59.755  -3.262 -11.658  1.00  0.00     0.029 A 
HETATM   12  C10 UNL     1      58.925  -3.403 -12.749  1.00  0.00     0.004 A 
HETATM   13  C11 UNL     1      57.558  -3.240 -12.667  1.00  0.00     0.029 A 
HETATM   14  C12 UNL     1      57.041  -2.926 -11.429  1.00  0.00     0.035 A 
HETATM   15  C18 UNL     1      57.865  -2.784 -10.334  1.00  0.00     0.059 A 
BRANCH  14  16
HETATM   16  N4  UNL     1      55.629  -2.760 -11.351  1.00  0.00    -0.342 N 
ATOM     17  H4  UNL     1      55.007  -3.390 -11.856  1.00  0.00     0.167 HD
BRANCH  16  18
HETATM   18  C13 UNL     1      55.150  -1.803 -10.635  1.00  0.00     0.105 A 
HETATM   19  C14 UNL     1      55.145  -0.522 -11.086  1.00  0.00     0.048 A 
HETATM   20  C15 UNL     1      54.638   0.517 -10.336  1.00  0.00     0.005 A 
HETATM   21  C16 UNL     1      54.122   0.204  -9.080  1.00  0.00     0.017 A 
HETATM   22  C17 UNL     1      54.126  -1.084  -8.623  1.00  0.00     0.089 A 
HETATM   23  N5  UNL     1      54.637  -2.048  -9.408  1.00  0.00    -0.352 N 
ATOM     24  H5  UNL     1      54.638  -3.008  -9.063  1.00  0.00     0.166 HD
ENDBRANCH  16  18
ENDBRANCH  14  16
ENDBRANCH   8  10
ENDBRANCH   3   8
BRANCH   1  25
HETATM   25  C4  UNL     1      59.035  -3.348  -4.667  1.00  0.00     0.270 C 
HETATM   26  N2  UNL     1      59.003  -4.162  -3.523  1.00  0.00    -0.325 N 
ATOM     27  H2  UNL     1      59.332  -5.126  -3.569  1.00  0.00     0.165 HD
HETATM   28  O1  UNL     1      58.628  -2.164  -4.603  1.00  0.00    -0.266 OA
BRANCH  26  29
HETATM   29  C3  UNL     1      58.494  -3.619  -2.263  1.00  0.00     0.307 C 
BRANCH  29  30
HETATM   30  C2  UNL     1      58.794  -4.587  -1.196  1.00  0.00     0.016 C 
HETATM   31  C1  UNL     1      59.912  -5.300  -1.176  1.00  0.00     0.010 C 
ENDBRANCH  29  30
BRANCH  29  32
HETATM   32  N1  UNL     1      57.075  -3.354  -2.395  1.00  0.00    -0.055 N 
ATOM     33  H13 UNL     1      56.533  -3.932  -1.753  1.00  0.00     0.277 HD
ATOM     34  H12 UNL     1      56.839  -2.433  -2.026  1.00  0.00     0.277 HD
ATOM     35  H11 UNL     1      56.742  -3.460  -3.353  1.00  0.00     0.277 HD
ENDBRANCH  29  32
ENDBRANCH  26  29
ENDBRANCH   1  25
BRANCH   5  36
HETATM   36  C21 UNL     1      60.897  -7.045  -7.219  1.00  0.00    -0.009 A 
HETATM   37  C22 UNL     1      61.598  -7.475  -8.332  1.00  0.00     0.014 A 
HETATM   38  C23 UNL     1      62.044  -8.801  -8.407  1.00  0.00     0.001 A 
HETATM   39  C24 UNL     1      61.795  -9.687  -7.387  1.00  0.00     0.007 A 
HETATM   40  C25 UNL     1      61.106  -9.273  -6.287  1.00  0.00    -0.061 A 
HETATM   41  C26 UNL     1      60.806 -10.191  -5.147  1.00  0.00     0.048 C 
HETATM   42  C27 UNL     1      60.661  -7.940  -6.218  1.00  0.00     0.020 A 
ENDBRANCH   5  36
TORSDOF 9
ENDMDL
MODEL 3
REMARK VINA RESULT: -7.595425991      2.544      6.373
REMARK  9 active torsions:
REMARK  status: ('A' for Active; 'I' for Inactive)
REMARK    1  A    between atoms: C2_2  and  C3_3 
REMARK    2  A    between atoms: C3_3  and  N1_4 
REMARK    3  A    between atoms: C3_3  and  N2_8 
REMARK       I    between atoms: N2_8  and  C4_10 
REMARK    4  A    between atoms: C4_10  and  C5_12 
REMARK    5  A    between atoms: C7_14  and  N3_15 
REMARK    6  A    between atoms: N3_15  and  C8_17 
REMARK    7  A    between atoms: C12_21  and  N4_22 
REMARK    8  A    between atoms: N4_22  and  C13_24 
REMARK    9  A    between atoms: C20_33  and  C21_34 
ROOT
HETATM    1  C5  UNL     1      60.600  -5.539  -8.339  1.00  0.00     0.103 A 
HETATM    2  C6  UNL     1      60.037  -5.294  -7.116  1.00  0.00     0.064 A 
HETATM    3  C7  UNL     1      59.058  -4.348  -6.980  1.00  0.00     0.037 A 
HETATM    4  C19 UNL     1      58.646  -3.644  -8.091  1.00  0.00     0.059 A 
HETATM    5  C20 UNL     1      59.237  -3.915  -9.313  1.00  0.00     0.045 A 
HETATM    6  N6  UNL     1      60.194  -4.844  -9.438  1.00  0.00    -0.351 N 
ATOM      7  H6  UNL     1      60.614  -5.029 -10.349  1.00  0.00     0.166 HD
ENDROOT
BRANCH   3   8
HETATM    8  N3  UNL     1      58.528  -4.117  -5.815  1.00  0.00    -0.356 N 
ATOM      9  H3  UNL     1      58.876  -4.653  -5.020  1.00  0.00     0.166 HD
BRANCH   8  10
HETATM   10  C8  UNL     1      57.506  -3.178  -5.578  1.00  0.00     0.034 A 
HETATM   11  C9  UNL     1      57.609  -2.267  -4.533  1.00  0.00     0.029 A 
HETATM   12  C10 UNL     1      56.612  -1.346  -4.299  1.00  0.00     0.004 A 
HETATM   13  C11 UNL     1      55.472  -1.273  -5.072  1.00  0.00     0.029 A 
HETATM   14  C12 UNL     1      55.364  -2.174  -6.109  1.00  0.00     0.035 A 
HETATM   15  C18 UNL     1      56.358  -3.098  -6.349  1.00  0.00     0.059 A 
BRANCH  14  16
HETATM   16  N4  UNL     1      54.186  -2.092  -6.903  1.00  0.00    -0.342 N 
ATOM     17  H4  UNL     1      53.272  -2.283  -6.493  1.00  0.00     0.167 HD
BRANCH  16  18
HETATM   18  C13 UNL     1      54.290  -1.775  -8.147  1.00  0.00     0.105 A 
HETATM   19  C14 UNL     1      54.521  -2.718  -9.096  1.00  0.00     0.048 A 
HETATM   20  C15 UNL     1      54.637  -2.400 -10.432  1.00  0.00     0.005 A 
HETATM   21  C16 UNL     1      54.506  -1.057 -10.781  1.00  0.00     0.017 A 
HETATM   22  C17 UNL     1      54.274  -0.105  -9.828  1.00  0.00     0.089 A 
HETATM   23  N5  UNL     1      54.173  -0.487  -8.543  1.00  0.00    -0.352 N 
ATOM     24  H5  UNL     1      54.000   0.227  -7.834  1.00  0.00     0.166 HD
ENDBRANCH  16  18
ENDBRANCH  14  16
ENDBRANCH   8  10
ENDBRANCH   3   8
BRANCH   1  25
HETATM   25  C4  UNL     1      61.641  -6.540  -8.509  1.00  0.00     0.270 C 
HETATM   26  N2  UNL     1      61.700  -7.676  -7.685  1.00  0.00    -0.325 N 
ATOM     27  H2  UNL     1      61.006  -7.813  -6.951  1.00  0.00     0.165 HD
HETATM   28  O1  UNL     1      62.498  -6.377  -9.410  1.00  0.00    -0.266 OA
BRANCH  26  29
HETATM   29  C3  UNL     1      62.762  -8.661  -7.887  1.00  0.00     0.307 C 
BRANCH  29  30
HETATM   30  C2  UNL     1      62.271  -9.964  -7.412  1.00  0.00     0.016 C 
HETATM   31  C1  UNL     1      61.234 -10.578  -7.967  1.00  0.00     0.010 C 
ENDBRANCH  29  30
BRANCH  29  32
HETATM   32  N1  UNL     1      63.957  -8.226  -7.190  1.00  0.00    -0.055 N 
ATOM     33  H13 UNL     1      63.722  -7.785  -6.301  1.00  0.00     0.277 HD
ATOM     34  H12 UNL     1      64.488  -9.024  -6.843  1.00  0.00     0.277 HD
ATOM     35  H11 UNL     1      64.544  -7.615  -7.758  1.00  0.00     0.277 HD
ENDBRANCH  29  32
ENDBRANCH  26  29
ENDBRANCH   1  25
BRANCH   5  36
HETATM   36  C21 UNL     1      58.781  -3.147 -10.498  1.00  0.00    -0.009 A 
HETATM   37  C22 UNL     1      58.590  -3.794 -11.705  1.00  0.00     0.014 A 
HETATM   38  C23 UNL     1      58.159  -3.072 -12.826  1.00  0.00     0.001 A 
HETATM   39  C24 UNL     1      57.923  -1.721 -12.744  1.00  0.00     0.007 A 
HETATM   40  C25 UNL     1      58.108  -1.073 -11.559  1.00  0.00    -0.061 A 
HETATM   41  C26 UNL     1      57.866   0.393 -11.411  1.00  0.00     0.048 C 
HETATM   42  C27 UNL     1      58.540  -1.806 -10.438  1.00  0.00     0.020 A 
ENDBRANCH   5  36
TORSDOF 9
ENDMDL
MODEL 4
REMARK VINA RESULT: -7.581765882      2.350      5.687
REMARK  9 active torsions:
REMARK  status: ('A' for Active; 'I' for Inactive)
REMARK    1  A    between atoms: C2_2  and  C3_3 
REMARK    2  A    between atoms: C3_3  and  N1_4 
REMARK    3  A    between atoms: C3_3  and  N2_8 
REMARK       I    between atoms: N2_8  and  C4_10 
REMARK    4  A    between atoms: C4_10  and  C5_12 
REMARK    5  A    between atoms: C7_14  and  N3_15 
REMARK    6  A    between atoms: N3_15  and  C8_17 
REMARK    7  A    between atoms: C12_21  and  N4_22 
REMARK    8  A    between atoms: N4_22  and  C13_24 
REMARK    9  A    between atoms: C20_33  and  C21_34 
ROOT
HETATM    1  C5  UNL     1      60.343  -5.713  -7.321  1.00  0.00     0.103 A 
HETATM    2  C6  UNL     1      59.840  -4.912  -6.332  1.00  0.00     0.064 A 
HETATM    3  C7  UNL     1      59.173  -3.759  -6.645  1.00  0.00     0.037 A 
HETATM    4  C19 UNL     1      59.015  -3.414  -7.971  1.00  0.00     0.059 A 
HETATM    5  C20 UNL     1      59.536  -4.246  -8.946  1.00  0.00     0.045 A 
HETATM    6  N6  UNL     1      60.186  -5.374  -8.632  1.00  0.00    -0.351 N 
ATOM      7  H6  UNL     1      60.561  -5.973  -9.367  1.00  0.00     0.166 HD
ENDROOT
BRANCH   3   8
HETATM    8  N3  UNL     1      58.700  -3.000  -5.702  1.00  0.00    -0.356 N 
ATOM      9  H3  UNL     1      59.331  -2.728  -4.949  1.00  0.00     0.166 HD
BRANCH   8  10
HETATM   10  C8  UNL     1      57.374  -2.528  -5.650  1.00  0.00     0.034 A 
HETATM   11  C9  UNL     1      56.897  -1.877  -4.518  1.00  0.00     0.029 A 
HETATM   12  C10 UNL     1      55.601  -1.412  -4.465  1.00  0.00     0.004 A 
HETATM   13  C11 UNL     1      54.714  -1.562  -5.510  1.00  0.00     0.029 A 
HETATM   14  C12 UNL     1      55.182  -2.207  -6.635  1.00  0.00     0.035 A 
HETATM   15  C18 UNL     1      56.476  -2.674  -6.695  1.00  0.00     0.059 A 
BRANCH  14  16
HETATM   16  N4  UNL     1      54.262  -2.358  -7.711  1.00  0.00    -0.342 N 
ATOM     17  H4  UNL     1      53.419  -2.920  -7.595  1.00  0.00     0.167 HD
BRANCH  16  18
HETATM   18  C13 UNL     1      54.510  -1.775  -8.832  1.00  0.00     0.105 A 
HETATM   19  C14 UNL     1      54.815  -2.491  -9.944  1.00  0.00     0.048 A 
HETATM   20  C15 UNL     1      55.084  -1.888 -11.154  1.00  0.00     0.005 A 
HETATM   21  C16 UNL     1      55.030  -0.495 -11.197  1.00  0.00     0.017 A 
HETATM   22  C17 UNL     1      54.723   0.229 -10.079  1.00  0.00     0.089 A 
HETATM   23  N5  UNL     1      54.473  -0.427  -8.932  1.00  0.00    -0.352 N 
ATOM     24  H5  UNL     1      54.244   0.117  -8.100  1.00  0.00     0.166 HD
ENDBRANCH  16  18
ENDBRANCH  14  16
ENDBRANCH   8  10
ENDBRANCH   3   8
BRANCH   1  25
HETATM   25  C4  UNL     1      61.054  -6.943  -7.014  1.00  0.00     0.270 C 
HETATM   26  N2  UNL     1      60.434  -7.985  -6.304  1.00  0.00    -0.325 N 
ATOM     27  H2  UNL     1      59.468  -7.889  -5.993  1.00  0.00     0.165 HD
HETATM   28  O1  UNL     1      62.243  -7.068  -7.393  1.00  0.00    -0.266 OA
BRANCH  26  29
HETATM   29  C3  UNL     1      61.182  -9.207  -6.014  1.00  0.00     0.307 C 
BRANCH  29  30
HETATM   30  C2  UNL     1      60.823 -10.212  -7.027  1.00  0.00     0.016 C 
HETATM   31  C1  UNL     1      61.631 -10.531  -8.029  1.00  0.00     0.010 C 
ENDBRANCH  29  30
BRANCH  29  32
HETATM   32  N1  UNL     1      60.882  -9.643  -4.664  1.00  0.00    -0.055 N 
ATOM     33  H13 UNL     1      60.997 -10.652  -4.571  1.00  0.00     0.277 HD
ATOM     34  H12 UNL     1      61.602  -9.334  -4.011  1.00  0.00     0.277 HD
ATOM     35  H11 UNL     1      59.956  -9.351  -4.352  1.00  0.00     0.277 HD
ENDBRANCH  29  32
ENDBRANCH  26  29
ENDBRANCH   1  25
BRANCH   5  36
HETATM   36  C21 UNL     1      59.356  -3.858 -10.367  1.00  0.00    -0.009 A 
HETATM   37  C22 UNL     1      58.226  -4.267 -11.054  1.00  0.00     0.014 A 
HETATM   38  C23 UNL     1      58.053  -3.903 -12.395  1.00  0.00     0.001 A 
HETATM   39  C24 UNL     1      58.993  -3.140 -13.044  1.00  0.00     0.007 A 
HETATM   40  C25 UNL     1      60.109  -2.731 -12.377  1.00  0.00    -0.061 A 
HETATM   41  C26 UNL     1      61.164  -1.901 -13.031  1.00  0.00     0.048 C 
HETATM   42  C27 UNL     1      60.276  -3.101 -11.030  1.00  0.00     0.020 A 
ENDBRANCH   5  36
TORSDOF 9
ENDMDL
MODEL 5
REMARK VINA RESULT: -7.505970321      2.251      7.876
REMARK  9 active torsions:
REMARK  status: ('A' for Active; 'I' for Inactive)
REMARK    1  A    between atoms: C2_2  and  C3_3 
REMARK    2  A    between atoms: C3_3  and  N1_4 
REMARK    3  A    between atoms: C3_3  and  N2_8 
REMARK       I    between atoms: N2_8  and  C4_10 
REMARK    4  A    between atoms: C4_10  and  C5_12 
REMARK    5  A    between atoms: C7_14  and  N3_15 
REMARK    6  A    between atoms: N3_15  and  C8_17 
REMARK    7  A    between atoms: C12_21  and  N4_22 
REMARK    8  A    between atoms: N4_22  and  C13_24 
REMARK    9  A    between atoms: C20_33  and  C21_34 
ROOT
HETATM    1  C5  UNL     1      59.329  -4.005  -6.314  1.00  0.00     0.103 A 
HETATM    2  C6  UNL     1      60.376  -4.884  -6.374  1.00  0.00     0.064 A 
HETATM    3  C7  UNL     1      60.770  -5.414  -7.572  1.00  0.00     0.037 A 
HETATM    4  C19 UNL     1      60.097  -5.051  -8.720  1.00  0.00     0.059 A 
HETATM    5  C20 UNL     1      59.042  -4.160  -8.624  1.00  0.00     0.045 A 
HETATM    6  N6  UNL     1      58.663  -3.645  -7.447  1.00  0.00    -0.351 N 
ATOM      7  H6  UNL     1      57.883  -2.989  -7.399  1.00  0.00     0.166 HD
ENDROOT
BRANCH   3   8
HETATM    8  N3  UNL     1      61.764  -6.250  -7.624  1.00  0.00    -0.356 N 
ATOM      9  H3  UNL     1      62.704  -5.866  -7.710  1.00  0.00     0.166 HD
BRANCH   8  10
HETATM   10  C8  UNL     1      61.629  -7.651  -7.569  1.00  0.00     0.034 A 
HETATM   11  C9  UNL     1      61.956  -8.438  -8.667  1.00  0.00     0.029 A 
HETATM   12  C10 UNL     1      61.827  -9.809  -8.615  1.00  0.00     0.004 A 
HETATM   13  C11 UNL     1      61.374 -10.471  -7.493  1.00  0.00     0.029 A 
HETATM   14  C12 UNL     1      61.049  -9.695  -6.402  1.00  0.00     0.035 A 
HETATM   15  C18 UNL     1      61.175  -8.324  -6.446  1.00  0.00     0.059 A 
BRANCH  14  16
HETATM   16  N4  UNL     1      60.583 -10.385  -5.247  1.00  0.00    -0.342 N 
ATOM     17  H4  UNL     1      59.773 -11.002  -5.305  1.00  0.00     0.167 HD
BRANCH  16  18
HETATM   18  C13 UNL     1      61.198 -10.218  -4.128  1.00  0.00     0.105 A 
HETATM   19  C14 UNL     1      60.569  -9.676  -3.054  1.00  0.00     0.048 A 
HETATM   20  C15 UNL     1      61.209  -9.488  -1.848  1.00  0.00     0.005 A 
HETATM   21  C16 UNL     1      62.544  -9.880  -1.767  1.00  0.00     0.017 A 
HETATM   22  C17 UNL     1      63.181 -10.426  -2.846  1.00  0.00     0.089 A 
HETATM   23  N5  UNL     1      62.494 -10.579  -3.993  1.00  0.00    -0.352 N 
ATOM     24  H5  UNL     1      62.973 -10.987  -4.796  1.00  0.00     0.166 HD
ENDBRANCH  16  18
ENDBRANCH  14  16
ENDBRANCH   8  10
ENDBRANCH   3   8
BRANCH   1  25
HETATM   25  C4  UNL     1      58.892  -3.428  -5.052  1.00  0.00     0.270 C 
HETATM   26  N2  UNL     1      59.065  -4.116  -3.840  1.00  0.00    -0.325 N 
ATOM     27  H2  UNL     1      59.503  -5.037  -3.830  1.00  0.00     0.165 HD
HETATM   28  O1  UNL     1      58.353  -2.296  -5.057  1.00  0.00    -0.266 OA
BRANCH  26  29
HETATM   29  C3  UNL     1      58.613  -3.504  -2.591  1.00  0.00     0.307 C 
BRANCH  29  30
HETATM   30  C2  UNL     1      59.087  -4.340  -1.476  1.00  0.00     0.016 C 
HETATM   31  C1  UNL     1      59.855  -5.405  -1.663  1.00  0.00     0.010 C 
ENDBRANCH  29  30
BRANCH  29  32
HETATM   32  N1  UNL     1      57.170  -3.372  -2.617  1.00  0.00    -0.055 N 
ATOM     33  H13 UNL     1      56.837  -3.173  -3.560  1.00  0.00     0.277 HD
ATOM     34  H12 UNL     1      56.717  -4.273  -2.469  1.00  0.00     0.277 HD
ATOM     35  H11 UNL     1      56.826  -2.677  -1.954  1.00  0.00     0.277 HD
ENDBRANCH  29  32
ENDBRANCH  26  29
ENDBRANCH   1  25
BRANCH   5  36
HETATM   36  C21 UNL     1      58.329  -3.782  -9.870  1.00  0.00    -0.009 A 
HETATM   37  C22 UNL     1      58.928  -3.999 -11.098  1.00  0.00     0.014 A 
HETATM   38  C23 UNL     1      58.258  -3.644 -12.275  1.00  0.00     0.001 A 
HETATM   39  C24 UNL     1      57.006  -3.079 -12.230  1.00  0.00     0.007 A 
HETATM   40  C25 UNL     1      56.407  -2.861 -11.025  1.00  0.00    -0.061 A 
HETATM   41  C26 UNL     1      55.048  -2.250 -10.915  1.00  0.00     0.048 C 
HETATM   42  C27 UNL     1      57.087  -3.221  -9.847  1.00  0.00     0.020 A 
ENDBRANCH   5  36
TORSDOF 9
ENDMDL
