MODEL 1
REMARK VINA RESULT: -7.728802240      0.000      0.000
REMARK  8 active torsions:
REMARK  status: ('A' for Active; 'I' for Inactive)
REMARK    1  A    between atoms: O1_2  and  C2_3 
REMARK    2  A    between atoms: C7_10  and  C8_11 
REMARK    3  A    between atoms: C10_13  and  N2_14 
REMARK    4  A    between atoms: N2_14  and  C11_16 
REMARK    5  A    between atoms: C11_16  and  C12_17 
REMARK    6  A    between atoms: C12_17  and  N3_18 
REMARK    7  A    between atoms: N3_18  and  C13_20 
REMARK    8  A    between atoms: N6_30  and  C19_32 
ROOT
HETATM    1  C8  UNL     1      54.438  -1.470  -7.422  1.00  0.00     0.065 A 
HETATM    2  C9  UNL     1      55.182  -2.375  -6.651  1.00  0.00     0.079 A 
HETATM    3  C10 UNL     1      56.265  -3.015  -7.186  1.00  0.00     0.119 A 
HETATM    4  N5  UNL     1      56.612  -2.763  -8.477  1.00  0.00    -0.177 N 
ATOM      5  H5  UNL     1      57.420  -3.242  -8.875  1.00  0.00     0.186 HD
HETATM    6  C18 UNL     1      55.925  -1.908  -9.235  1.00  0.00     0.684 A 
HETATM    7  N6  UNL     1      56.194  -1.627 -10.444  1.00  0.00    -0.192 N 
ATOM      8  H6  UNL     1      55.576  -0.953 -10.897  1.00  0.00     0.184 HD
HETATM    9  N7  UNL     1      54.846  -1.288  -8.662  1.00  0.00    -0.191 N 
ATOM     10  H7  UNL     1      54.318  -0.635  -9.240  1.00  0.00     0.184 HD
ENDROOT
BRANCH   3  11
HETATM   11  N2  UNL     1      56.952  -3.843  -6.497  1.00  0.00    -0.374 N 
ATOM     12  H2  UNL     1      56.581  -4.777  -6.322  1.00  0.00     0.161 HD
BRANCH  11  13
HETATM   13  C11 UNL     1      58.229  -3.483  -5.968  1.00  0.00     0.141 C 
BRANCH  13  14
HETATM   14  C12 UNL     1      59.393  -4.069  -6.746  1.00  0.00     0.141 C 
BRANCH  14  15
HETATM   15  N3  UNL     1      59.701  -5.353  -6.219  1.00  0.00    -0.375 N 
ATOM     16  H3  UNL     1      59.363  -5.582  -5.284  1.00  0.00     0.161 HD
BRANCH  15  17
HETATM   17  C13 UNL     1      60.378  -6.238  -6.848  1.00  0.00     0.100 A 
HETATM   18  C14 UNL     1      60.939  -6.027  -8.081  1.00  0.00     0.048 A 
HETATM   19  C15 UNL     1      61.669  -7.028  -8.725  1.00  0.00     0.005 A 
HETATM   20  C16 UNL     1      61.825  -8.245  -8.109  1.00  0.00     0.017 A 
HETATM   21  C17 UNL     1      61.249  -8.425  -6.872  1.00  0.00     0.089 A 
HETATM   22  N4  UNL     1      60.560  -7.453  -6.284  1.00  0.00    -0.353 N 
ATOM     23  H4  UNL     1      60.150  -7.631  -5.367  1.00  0.00     0.166 HD
ENDBRANCH  15  17
ENDBRANCH  14  15
ENDBRANCH  13  14
ENDBRANCH  11  13
ENDBRANCH   3  11
BRANCH   1  24
HETATM   24  C7  UNL     1      53.341  -0.786  -6.737  1.00  0.00     0.019 A 
HETATM   25  C6  UNL     1      52.642  -1.356  -5.661  1.00  0.00     0.103 A 
HETATM   26  N1  UNL     1      51.741  -0.482  -5.237  1.00  0.00    -0.364 N 
HETATM   27  C5  UNL     1      51.808   0.637  -5.975  1.00  0.00     0.043 A 
ATOM     28  H1  UNL     1      51.093  -0.636  -4.465  1.00  0.00     0.165 HD
HETATM   29  C4  UNL     1      51.107   1.834  -5.932  1.00  0.00     0.033 A 
HETATM   30  C25 UNL     1      52.801   0.469  -6.916  1.00  0.00     0.007 A 
HETATM   31  C3  UNL     1      51.410   2.831  -6.821  1.00  0.00     0.039 A 
HETATM   32  C2  UNL     1      52.398   2.690  -7.768  1.00  0.00     0.069 A 
HETATM   33  C26 UNL     1      53.107   1.485  -7.816  1.00  0.00     0.051 A 
BRANCH  32  34
HETATM   34  O1  UNL     1      52.700   3.689  -8.657  1.00  0.00    -0.356 OA
HETATM   35  C1  UNL     1      51.908   4.832  -8.820  1.00  0.00     0.210 C 
ENDBRANCH  32  34
ENDBRANCH   1  24
BRANCH   7  36
HETATM   36  C19 UNL     1      57.225  -2.127 -11.221  1.00  0.00     0.049 A 
HETATM   37  C20 UNL     1      57.060  -3.238 -12.007  1.00  0.00     0.030 A 
HETATM   38  C21 UNL     1      58.100  -3.729 -12.779  1.00  0.00     0.002 A 
HETATM   39  C22 UNL     1      59.317  -3.084 -12.751  1.00  0.00     0.000 A 
HETATM   40  C23 UNL     1      59.510  -1.976 -11.978  1.00  0.00     0.002 A 
HETATM   41  C24 UNL     1      58.452  -1.506 -11.215  1.00  0.00     0.030 A 
ENDBRANCH   7  36
TORSDOF 8
ENDMDL
MODEL 2
REMARK VINA RESULT: -7.677942049      3.245      4.352
REMARK  8 active torsions:
REMARK  status: ('A' for Active; 'I' for Inactive)
REMARK    1  A    between atoms: O1_2  and  C2_3 
REMARK    2  A    between atoms: C7_10  and  C8_11 
REMARK    3  A    between atoms: C10_13  and  N2_14 
REMARK    4  A    between atoms: N2_14  and  C11_16 
REMARK    5  A    between atoms: C11_16  and  C12_17 
REMARK    6  A    between atoms: C12_17  and  N3_18 
REMARK    7  A    between atoms: N3_18  and  C13_20 
REMARK    8  A    between atoms: N6_30  and  C19_32 
ROOT
HETATM    1  C8  UNL     1      54.824   1.163  -8.993  1.00  0.00     0.065 A 
HETATM    2  C9  UNL     1      55.834   1.197  -8.019  1.00  0.00     0.079 A 
HETATM    3  C10 UNL     1      57.021   0.552  -8.228  1.00  0.00     0.119 A 
HETATM    4  N5  UNL     1      57.211  -0.125  -9.392  1.00  0.00    -0.177 N 
ATOM      5  H5  UNL     1      58.097  -0.606  -9.547  1.00  0.00     0.186 HD
HETATM    6  C18 UNL     1      56.271  -0.176 -10.337  1.00  0.00     0.684 A 
HETATM    7  N6  UNL     1      56.383  -0.787 -11.445  1.00  0.00    -0.192 N 
ATOM      8  H6  UNL     1      55.577  -0.737 -12.069  1.00  0.00     0.184 HD
HETATM    9  N7  UNL     1      55.096   0.483 -10.089  1.00  0.00    -0.191 N 
ATOM     10  H7  UNL     1      54.375   0.445 -10.809  1.00  0.00     0.184 HD
ENDROOT
BRANCH   3  11
HETATM   11  N2  UNL     1      57.949   0.573  -7.350  1.00  0.00    -0.374 N 
ATOM     12  H2  UNL     1      58.862   0.952  -7.597  1.00  0.00     0.161 HD
BRANCH  11  13
HETATM   13  C11 UNL     1      57.728   0.075  -6.029  1.00  0.00     0.141 C 
BRANCH  13  14
HETATM   14  C12 UNL     1      58.109  -1.384  -5.861  1.00  0.00     0.141 C 
BRANCH  14  15
HETATM   15  N3  UNL     1      56.924  -2.162  -5.753  1.00  0.00    -0.375 N 
ATOM     16  H3  UNL     1      56.678  -2.537  -4.836  1.00  0.00     0.161 HD
BRANCH  15  17
HETATM   17  C13 UNL     1      56.146  -2.419  -6.736  1.00  0.00     0.100 A 
HETATM   18  C14 UNL     1      56.513  -3.191  -7.808  1.00  0.00     0.048 A 
HETATM   19  C15 UNL     1      55.626  -3.441  -8.857  1.00  0.00     0.005 A 
HETATM   20  C16 UNL     1      54.364  -2.901  -8.810  1.00  0.00     0.017 A 
HETATM   21  C17 UNL     1      54.027  -2.131  -7.720  1.00  0.00     0.089 A 
HETATM   22  N4  UNL     1      54.894  -1.911  -6.737  1.00  0.00    -0.353 N 
ATOM     23  H4  UNL     1      54.601  -1.333  -5.949  1.00  0.00     0.166 HD
ENDBRANCH  15  17
ENDBRANCH  14  15
ENDBRANCH  13  14
ENDBRANCH  11  13
ENDBRANCH   3  11
BRANCH   1  24
HETATM   24  C7  UNL     1      53.620   1.942  -8.704  1.00  0.00     0.019 A 
HETATM   25  C6  UNL     1      52.325   1.416  -8.831  1.00  0.00     0.103 A 
HETATM   26  N1  UNL     1      51.458   2.348  -8.463  1.00  0.00    -0.364 N 
HETATM   27  C5  UNL     1      52.111   3.462  -8.099  1.00  0.00     0.043 A 
ATOM     28  H1  UNL     1      50.444   2.236  -8.458  1.00  0.00     0.165 HD
HETATM   29  C4  UNL     1      51.678   4.694  -7.630  1.00  0.00     0.033 A 
HETATM   30  C25 UNL     1      53.462   3.230  -8.240  1.00  0.00     0.007 A 
HETATM   31  C3  UNL     1      52.595   5.661  -7.313  1.00  0.00     0.039 A 
HETATM   32  C2  UNL     1      53.949   5.454  -7.443  1.00  0.00     0.069 A 
HETATM   33  C26 UNL     1      54.391   4.214  -7.916  1.00  0.00     0.051 A 
BRANCH  32  34
HETATM   34  O1  UNL     1      54.865   6.423  -7.125  1.00  0.00    -0.356 OA
HETATM   35  C1  UNL     1      56.108   6.139  -6.547  1.00  0.00     0.210 C 
ENDBRANCH  32  34
ENDBRANCH   1  24
BRANCH   7  36
HETATM   36  C19 UNL     1      57.468  -1.513 -11.905  1.00  0.00     0.049 A 
HETATM   37  C20 UNL     1      58.677  -0.917 -12.157  1.00  0.00     0.030 A 
HETATM   38  C21 UNL     1      59.755  -1.655 -12.618  1.00  0.00     0.002 A 
HETATM   39  C22 UNL     1      59.602  -3.008 -12.824  1.00  0.00     0.000 A 
HETATM   40  C23 UNL     1      58.410  -3.628 -12.582  1.00  0.00     0.002 A 
HETATM   41  C24 UNL     1      57.347  -2.865 -12.121  1.00  0.00     0.030 A 
ENDBRANCH   7  36
TORSDOF 8
ENDMDL
MODEL 3
REMARK VINA RESULT: -7.664457266      1.804      2.742
REMARK  8 active torsions:
REMARK  status: ('A' for Active; 'I' for Inactive)
REMARK    1  A    between atoms: O1_2  and  C2_3 
REMARK    2  A    between atoms: C7_10  and  C8_11 
REMARK    3  A    between atoms: C10_13  and  N2_14 
REMARK    4  A    between atoms: N2_14  and  C11_16 
REMARK    5  A    between atoms: C11_16  and  C12_17 
REMARK    6  A    between atoms: C12_17  and  N3_18 
REMARK    7  A    between atoms: N3_18  and  C13_20 
REMARK    8  A    between atoms: N6_30  and  C19_32 
ROOT
HETATM    1  C8  UNL     1      54.170  -0.436  -8.182  1.00  0.00     0.065 A 
HETATM    2  C9  UNL     1      54.609  -1.420  -7.282  1.00  0.00     0.079 A 
HETATM    3  C10 UNL     1      55.606  -2.287  -7.634  1.00  0.00     0.119 A 
HETATM    4  N5  UNL     1      56.168  -2.183  -8.868  1.00  0.00    -0.177 N 
ATOM      5  H5  UNL     1      56.911  -2.831  -9.130  1.00  0.00     0.186 HD
HETATM    6  C18 UNL     1      55.773  -1.260  -9.746  1.00  0.00     0.684 A 
HETATM    7  N6  UNL     1      56.253  -1.108 -10.912  1.00  0.00    -0.192 N 
ATOM      8  H6  UNL     1      55.849  -0.357 -11.471  1.00  0.00     0.184 HD
HETATM    9  N7  UNL     1      54.771  -0.412  -9.355  1.00  0.00    -0.191 N 
ATOM     10  H7  UNL     1      54.466   0.295 -10.024  1.00  0.00     0.184 HD
ENDROOT
BRANCH   3  11
HETATM   11  N2  UNL     1      56.015  -3.187  -6.827  1.00  0.00    -0.374 N 
ATOM     12  H2  UNL     1      55.867  -4.170  -7.057  1.00  0.00     0.161 HD
BRANCH  11  13
HETATM   13  C11 UNL     1      56.677  -2.843  -5.608  1.00  0.00     0.141 C 
BRANCH  13  14
HETATM   14  C12 UNL     1      58.189  -2.845  -5.719  1.00  0.00     0.141 C 
BRANCH  14  15
HETATM   15  N3  UNL     1      58.646  -4.190  -5.785  1.00  0.00    -0.375 N 
ATOM     16  H3  UNL     1      58.427  -4.810  -5.005  1.00  0.00     0.161 HD
BRANCH  15  17
HETATM   17  C13 UNL     1      59.316  -4.669  -6.764  1.00  0.00     0.100 A 
HETATM   18  C14 UNL     1      59.298  -4.133  -8.027  1.00  0.00     0.048 A 
HETATM   19  C15 UNL     1      60.047  -4.696  -9.061  1.00  0.00     0.005 A 
HETATM   20  C16 UNL     1      60.815  -5.806  -8.807  1.00  0.00     0.017 A 
HETATM   21  C17 UNL     1      60.811  -6.318  -7.529  1.00  0.00     0.089 A 
HETATM   22  N4  UNL     1      60.086  -5.761  -6.565  1.00  0.00    -0.353 N 
ATOM     23  H4  UNL     1      60.113  -6.176  -5.633  1.00  0.00     0.166 HD
ENDBRANCH  15  17
ENDBRANCH  14  15
ENDBRANCH  13  14
ENDBRANCH  11  13
ENDBRANCH   3  11
BRANCH   1  24
HETATM   24  C7  UNL     1      53.149   0.485  -7.685  1.00  0.00     0.019 A 
HETATM   25  C6  UNL     1      52.673   1.572  -8.436  1.00  0.00     0.103 A 
HETATM   26  N1  UNL     1      51.734   2.187  -7.733  1.00  0.00    -0.364 N 
HETATM   27  C5  UNL     1      51.563   1.565  -6.556  1.00  0.00     0.043 A 
ATOM     28  H1  UNL     1      51.218   3.012  -8.039  1.00  0.00     0.165 HD
HETATM   29  C4  UNL     1      50.710   1.797  -5.486  1.00  0.00     0.033 A 
HETATM   30  C25 UNL     1      52.434   0.499  -6.507  1.00  0.00     0.007 A 
HETATM   31  C3  UNL     1      50.745   0.966  -4.397  1.00  0.00     0.039 A 
HETATM   32  C2  UNL     1      51.603  -0.106  -4.324  1.00  0.00     0.069 A 
HETATM   33  C26 UNL     1      52.465  -0.344  -5.400  1.00  0.00     0.051 A 
BRANCH  32  34
HETATM   34  O1  UNL     1      51.636  -0.936  -3.234  1.00  0.00    -0.356 OA
HETATM   35  C1  UNL     1      52.809  -1.224  -2.527  1.00  0.00     0.210 C 
ENDBRANCH  32  34
ENDBRANCH   1  24
BRANCH   7  36
HETATM   36  C19 UNL     1      57.261  -1.842 -11.514  1.00  0.00     0.049 A 
HETATM   37  C20 UNL     1      57.014  -3.059 -12.098  1.00  0.00     0.030 A 
HETATM   38  C21 UNL     1      58.031  -3.783 -12.697  1.00  0.00     0.002 A 
HETATM   39  C22 UNL     1      59.308  -3.267 -12.702  1.00  0.00     0.000 A 
HETATM   40  C23 UNL     1      59.583  -2.059 -12.129  1.00  0.00     0.002 A 
HETATM   41  C24 UNL     1      58.546  -1.355 -11.536  1.00  0.00     0.030 A 
ENDBRANCH   7  36
TORSDOF 8
ENDMDL
MODEL 4
REMARK VINA RESULT: -7.628364692      0.831      1.360
REMARK  8 active torsions:
REMARK  status: ('A' for Active; 'I' for Inactive)
REMARK    1  A    between atoms: O1_2  and  C2_3 
REMARK    2  A    between atoms: C7_10  and  C8_11 
REMARK    3  A    between atoms: C10_13  and  N2_14 
REMARK    4  A    between atoms: N2_14  and  C11_16 
REMARK    5  A    between atoms: C11_16  and  C12_17 
REMARK    6  A    between atoms: C12_17  and  N3_18 
REMARK    7  A    between atoms: N3_18  and  C13_20 
REMARK    8  A    between atoms: N6_30  and  C19_32 
ROOT
HETATM    1  C8  UNL     1      54.156  -1.035  -7.473  1.00  0.00     0.065 A 
HETATM    2  C9  UNL     1      54.793  -1.951  -6.622  1.00  0.00     0.079 A 
HETATM    3  C10 UNL     1      55.864  -2.678  -7.063  1.00  0.00     0.119 A 
HETATM    4  N5  UNL     1      56.304  -2.502  -8.337  1.00  0.00    -0.177 N 
ATOM      5  H5  UNL     1      57.102  -3.045  -8.665  1.00  0.00     0.186 HD
HETATM    6  C18 UNL     1      55.720  -1.639  -9.170  1.00  0.00     0.684 A 
HETATM    7  N6  UNL     1      56.079  -1.425 -10.369  1.00  0.00    -0.192 N 
ATOM      8  H6  UNL     1      55.535  -0.734 -10.886  1.00  0.00     0.184 HD
HETATM    9  N7  UNL     1      54.650  -0.931  -8.691  1.00  0.00    -0.191 N 
ATOM     10  H7  UNL     1      54.201  -0.271  -9.325  1.00  0.00     0.184 HD
ENDROOT
BRANCH   3  11
HETATM   11  N2  UNL     1      56.453  -3.516  -6.301  1.00  0.00    -0.374 N 
ATOM     12  H2  UNL     1      56.348  -4.515  -6.480  1.00  0.00     0.161 HD
BRANCH  11  13
HETATM   13  C11 UNL     1      57.255  -3.080  -5.202  1.00  0.00     0.141 C 
BRANCH  13  14
HETATM   14  C12 UNL     1      58.738  -3.033  -5.517  1.00  0.00     0.141 C 
BRANCH  14  15
HETATM   15  N3  UNL     1      59.235  -4.364  -5.602  1.00  0.00    -0.375 N 
ATOM     16  H3  UNL     1      59.190  -4.946  -4.766  1.00  0.00     0.161 HD
BRANCH  15  17
HETATM   17  C13 UNL     1      59.733  -4.872  -6.665  1.00  0.00     0.100 A 
HETATM   18  C14 UNL     1      59.633  -4.289  -7.902  1.00  0.00     0.048 A 
HETATM   19  C15 UNL     1      60.196  -4.887  -9.031  1.00  0.00     0.005 A 
HETATM   20  C16 UNL     1      60.860  -6.082  -8.897  1.00  0.00     0.017 A 
HETATM   21  C17 UNL     1      60.942  -6.641  -7.642  1.00  0.00     0.089 A 
HETATM   22  N4  UNL     1      60.396  -6.047  -6.585  1.00  0.00    -0.353 N 
ATOM     23  H4  UNL     1      60.481  -6.499  -5.674  1.00  0.00     0.166 HD
ENDBRANCH  15  17
ENDBRANCH  14  15
ENDBRANCH  13  14
ENDBRANCH  11  13
ENDBRANCH   3  11
BRANCH   1  24
HETATM   24  C7  UNL     1      53.065  -0.258  -6.886  1.00  0.00     0.019 A 
HETATM   25  C6  UNL     1      52.215  -0.768  -5.891  1.00  0.00     0.103 A 
HETATM   26  N1  UNL     1      51.361   0.182  -5.542  1.00  0.00    -0.364 N 
HETATM   27  C5  UNL     1      51.601   1.296  -6.252  1.00  0.00     0.043 A 
ATOM     28  H1  UNL     1      50.630   0.083  -4.838  1.00  0.00     0.165 HD
HETATM   29  C4  UNL     1      51.011   2.551  -6.257  1.00  0.00     0.033 A 
HETATM   30  C25 UNL     1      52.661   1.043  -7.096  1.00  0.00     0.007 A 
HETATM   31  C3  UNL     1      51.489   3.523  -7.097  1.00  0.00     0.039 A 
HETATM   32  C2  UNL     1      52.547   3.298  -7.947  1.00  0.00     0.069 A 
HETATM   33  C26 UNL     1      53.145   2.033  -7.946  1.00  0.00     0.051 A 
BRANCH  32  34
HETATM   34  O1  UNL     1      53.024   4.271  -8.786  1.00  0.00    -0.356 OA
HETATM   35  C1  UNL     1      52.438   5.537  -8.899  1.00  0.00     0.210 C 
ENDBRANCH  32  34
ENDBRANCH   1  24
BRANCH   7  36
HETATM   36  C19 UNL     1      57.123  -2.019 -11.059  1.00  0.00     0.049 A 
HETATM   37  C20 UNL     1      58.415  -1.576 -10.930  1.00  0.00     0.030 A 
HETATM   38  C21 UNL     1      59.449  -2.179 -11.626  1.00  0.00     0.002 A 
HETATM   39  C22 UNL     1      59.169  -3.240 -12.458  1.00  0.00     0.000 A 
HETATM   40  C23 UNL     1      57.893  -3.702 -12.605  1.00  0.00     0.002 A 
HETATM   41  C24 UNL     1      56.875  -3.080 -11.897  1.00  0.00     0.030 A 
ENDBRANCH   7  36
TORSDOF 8
ENDMDL
MODEL 5
REMARK VINA RESULT: -7.558315236      1.977      2.817
REMARK  8 active torsions:
REMARK  status: ('A' for Active; 'I' for Inactive)
REMARK    1  A    between atoms: O1_2  and  C2_3 
REMARK    2  A    between atoms: C7_10  and  C8_11 
REMARK    3  A    between atoms: C10_13  and  N2_14 
REMARK    4  A    between atoms: N2_14  and  C11_16 
REMARK    5  A    between atoms: C11_16  and  C12_17 
REMARK    6  A    between atoms: C12_17  and  N3_18 
REMARK    7  A    between atoms: N3_18  and  C13_20 
REMARK    8  A    between atoms: N6_30  and  C19_32 
ROOT
HETATM    1  C8  UNL     1      54.279   0.551  -9.081  1.00  0.00     0.065 A 
HETATM    2  C9  UNL     1      54.395  -0.499  -8.157  1.00  0.00     0.079 A 
HETATM    3  C10 UNL     1      55.290  -1.511  -8.366  1.00  0.00     0.119 A 
HETATM    4  N5  UNL     1      56.068  -1.487  -9.481  1.00  0.00    -0.177 N 
ATOM      5  H5  UNL     1      56.735  -2.243  -9.636  1.00  0.00     0.186 HD
HETATM    6  C18 UNL     1      55.982  -0.504 -10.377  1.00  0.00     0.684 A 
HETATM    7  N6  UNL     1      56.676  -0.420 -11.438  1.00  0.00    -0.192 N 
ATOM      8  H6  UNL     1      56.498   0.392 -12.029  1.00  0.00     0.184 HD
HETATM    9  N7  UNL     1      55.072   0.490 -10.132  1.00  0.00    -0.191 N 
ATOM     10  H7  UNL     1      55.003   1.243 -10.816  1.00  0.00     0.184 HD
ENDROOT
BRANCH   3  11
HETATM   11  N2  UNL     1      55.406  -2.474  -7.535  1.00  0.00    -0.374 N 
ATOM     12  H2  UNL     1      55.044  -3.395  -7.782  1.00  0.00     0.161 HD
BRANCH  11  13
HETATM   13  C11 UNL     1      56.034  -2.284  -6.266  1.00  0.00     0.141 C 
BRANCH  13  14
HETATM   14  C12 UNL     1      57.180  -3.243  -6.008  1.00  0.00     0.141 C 
BRANCH  14  15
HETATM   15  N3  UNL     1      58.271  -2.898  -6.852  1.00  0.00    -0.375 N 
ATOM     16  H3  UNL     1      58.522  -1.913  -6.933  1.00  0.00     0.161 HD
BRANCH  15  17
HETATM   17  C13 UNL     1      58.956  -3.750  -7.516  1.00  0.00     0.100 A 
HETATM   18  C14 UNL     1      58.965  -3.811  -8.887  1.00  0.00     0.048 A 
HETATM   19  C15 UNL     1      59.731  -4.761  -9.564  1.00  0.00     0.005 A 
HETATM   20  C16 UNL     1      60.488  -5.651  -8.841  1.00  0.00     0.017 A 
HETATM   21  C17 UNL     1      60.457  -5.563  -7.468  1.00  0.00     0.089 A 
HETATM   22  N4  UNL     1      59.718  -4.647  -6.851  1.00  0.00    -0.353 N 
ATOM     23  H4  UNL     1      59.725  -4.619  -5.831  1.00  0.00     0.166 HD
ENDBRANCH  15  17
ENDBRANCH  14  15
ENDBRANCH  13  14
ENDBRANCH  11  13
ENDBRANCH   3  11
BRANCH   1  24
HETATM   24  C7  UNL     1      53.343   1.619  -8.732  1.00  0.00     0.019 A 
HETATM   25  C6  UNL     1      51.950   1.446  -8.748  1.00  0.00     0.103 A 
HETATM   26  N1  UNL     1      51.384   2.576  -8.350  1.00  0.00    -0.364 N 
HETATM   27  C5  UNL     1      52.328   3.487  -8.070  1.00  0.00     0.043 A 
ATOM     28  H1  UNL     1      50.379   2.730  -8.269  1.00  0.00     0.165 HD
HETATM   29  C4  UNL     1      52.265   4.795  -7.612  1.00  0.00     0.033 A 
HETATM   30  C25 UNL     1      53.558   2.910  -8.300  1.00  0.00     0.007 A 
HETATM   31  C3  UNL     1      53.423   5.494  -7.393  1.00  0.00     0.039 A 
HETATM   32  C2  UNL     1      54.663   4.942  -7.612  1.00  0.00     0.069 A 
HETATM   33  C26 UNL     1      54.732   3.623  -8.075  1.00  0.00     0.051 A 
BRANCH  32  34
HETATM   34  O1  UNL     1      55.819   5.643  -7.392  1.00  0.00    -0.356 OA
HETATM   35  C1  UNL     1      57.080   5.183  -7.790  1.00  0.00     0.210 C 
ENDBRANCH  32  34
ENDBRANCH   1  24
BRANCH   7  36
HETATM   36  C19 UNL     1      57.646  -1.300 -11.886  1.00  0.00     0.049 A 
HETATM   37  C20 UNL     1      57.326  -2.558 -12.331  1.00  0.00     0.030 A 
HETATM   38  C21 UNL     1      58.307  -3.429 -12.777  1.00  0.00     0.002 A 
HETATM   39  C22 UNL     1      59.621  -3.018 -12.770  1.00  0.00     0.000 A 
HETATM   40  C23 UNL     1      59.969  -1.773 -12.333  1.00  0.00     0.002 A 
HETATM   41  C24 UNL     1      58.968  -0.921 -11.892  1.00  0.00     0.030 A 
ENDBRANCH   7  36
TORSDOF 8
ENDMDL
