MODEL 1
REMARK VINA RESULT: -8.107147788      0.000      0.000
REMARK  5 active torsions:
REMARK  status: ('A' for Active; 'I' for Inactive)
REMARK    1  A    between atoms: C1_2  and  C2_4 
REMARK    2  A    between atoms: C2_4  and  C3_5 
REMARK    3  A    between atoms: C3_5  and  N2_6 
REMARK    4  A    between atoms: C3_5  and  C13_21 
REMARK       I    between atoms: N2_6  and  C4_8 
REMARK    5  A    between atoms: C4_8  and  C5_10 
REMARK       I    between atoms: C13_21  and  N4_23 
ROOT
HETATM    1  C3  UNL     1      -4.345  13.553  10.998  1.00  0.00     0.185 C 
ENDROOT
BRANCH   1   2
HETATM    2  C2  UNL     1      -4.482  12.200  11.671  1.00  0.00     0.134 C 
BRANCH   2   3
HETATM    3  C1  UNL     1      -4.123  12.197  13.098  1.00  0.00     0.233 C 
HETATM    4  N1  UNL     1      -2.973  11.447  13.464  1.00  0.00    -0.062 NA
HETATM    5  O1  UNL     1      -4.733  12.790  14.017  1.00  0.00    -0.277 OA
ENDBRANCH   2   3
ENDBRANCH   1   2
BRANCH   1   6
HETATM    6  N2  UNL     1      -5.558  14.289  11.361  1.00  0.00    -0.346 N 
HETATM    7  C4  UNL     1      -5.372  15.568  11.954  1.00  0.00     0.240 C 
HETATM    8  O2  UNL     1      -4.232  16.064  12.163  1.00  0.00    -0.271 OA
ATOM      9  H2  UNL     1      -6.489  13.904  11.197  1.00  0.00     0.163 HD
BRANCH   7  10
HETATM   10  C5  UNL     1      -6.581  16.361  12.345  1.00  0.00     0.170 C 
HETATM   11  C6  UNL     1      -7.741  16.149  11.437  1.00  0.00     0.049 C 
HETATM   12  C7  UNL     1      -9.102  16.268  12.088  1.00  0.00     0.049 C 
HETATM   13  C8  UNL     1      -9.281  17.401  13.000  1.00  0.00     0.015 C 
HETATM   14  S1  UNL     1      -9.494  14.643  12.768  1.00  0.00    -0.162 SA
HETATM   15  C9  UNL     1      -8.995  17.264  14.422  1.00  0.00     0.003 C 
HETATM   16  C10 UNL     1      -8.733  15.900  14.970  1.00  0.00     0.025 C 
HETATM   17  C11 UNL     1      -7.467  15.277  14.352  1.00  0.00     0.086 C 
HETATM   18  C12 UNL     1      -7.935  14.113  13.568  1.00  0.00     0.099 C 
HETATM   19  N3  UNL     1      -6.790  16.307  13.722  1.00  0.00    -0.404 N 
ATOM     20  H3  UNL     1      -6.424  17.067  14.295  1.00  0.00     0.154 HD
ENDBRANCH   7  10
ENDBRANCH   1   6
BRANCH   1  21
HETATM   21  C13 UNL     1      -4.176  13.483   9.546  1.00  0.00     0.243 C 
HETATM   22  O3  UNL     1      -3.024  13.830   9.098  1.00  0.00    -0.271 OA
HETATM   23  N4  UNL     1      -5.121  13.081   8.588  1.00  0.00    -0.350 N 
HETATM   24  C14 UNL     1      -6.434  12.620   8.972  1.00  0.00     0.130 C 
HETATM   25  C19 UNL     1      -4.817  13.123   7.174  1.00  0.00     0.130 C 
HETATM   26  C15 UNL     1      -7.437  13.625   8.420  1.00  0.00     0.056 C 
HETATM   27  C16 UNL     1      -7.158  13.736   6.967  1.00  0.00    -0.052 C 
HETATM   28  C17 UNL     1      -7.874  14.568   6.202  1.00  0.00     0.059 C 
HETATM   29  C18 UNL     1      -6.077  12.911   6.375  1.00  0.00     0.056 C 
HETATM   30 BR1  UNL     1      -9.257  15.612   6.992  1.00  0.00    -0.043 Br
HETATM   31 BR2  UNL     1      -7.551  14.740   4.333  1.00  0.00    -0.043 Br
ENDBRANCH   1  21
TORSDOF 5
ENDMDL
MODEL 2
REMARK VINA RESULT: -7.903496059      2.437      4.310
REMARK  5 active torsions:
REMARK  status: ('A' for Active; 'I' for Inactive)
REMARK    1  A    between atoms: C1_2  and  C2_4 
REMARK    2  A    between atoms: C2_4  and  C3_5 
REMARK    3  A    between atoms: C3_5  and  N2_6 
REMARK    4  A    between atoms: C3_5  and  C13_21 
REMARK       I    between atoms: N2_6  and  C4_8 
REMARK    5  A    between atoms: C4_8  and  C5_10 
REMARK       I    between atoms: C13_21  and  N4_23 
ROOT
HETATM    1  C3  UNL     1      -5.321  14.222  10.685  1.00  0.00     0.185 C 
ENDROOT
BRANCH   1   2
HETATM    2  C2  UNL     1      -4.923  15.613  11.142  1.00  0.00     0.134 C 
BRANCH   2   3
HETATM    3  C1  UNL     1      -5.463  15.994  12.457  1.00  0.00     0.233 C 
HETATM    4  N1  UNL     1      -6.833  15.700  12.693  1.00  0.00    -0.062 NA
HETATM    5  O1  UNL     1      -4.832  16.550  13.384  1.00  0.00    -0.277 OA
ENDBRANCH   2   3
ENDBRANCH   1   2
BRANCH   1   6
HETATM    6  N2  UNL     1      -4.823  13.318  11.724  1.00  0.00    -0.346 N 
HETATM    7  C4  UNL     1      -5.718  12.305  12.165  1.00  0.00     0.240 C 
HETATM    8  O2  UNL     1      -6.882  12.171  11.700  1.00  0.00    -0.271 OA
ATOM      9  H2  UNL     1      -3.884  13.411  12.112  1.00  0.00     0.163 HD
BRANCH   7  10
HETATM   10  C5  UNL     1      -5.259  11.355  13.229  1.00  0.00     0.170 C 
HETATM   11  C6  UNL     1      -3.900  11.669  13.749  1.00  0.00     0.049 C 
HETATM   12  C7  UNL     1      -3.662  11.306  15.199  1.00  0.00     0.049 C 
HETATM   13  C8  UNL     1      -4.154   9.992  15.621  1.00  0.00     0.015 C 
HETATM   14  S1  UNL     1      -4.229  12.710  16.182  1.00  0.00    -0.162 SA
HETATM   15  C9  UNL     1      -5.498   9.838  16.161  1.00  0.00     0.003 C 
HETATM   16  C10 UNL     1      -6.283  11.067  16.484  1.00  0.00     0.025 C 
HETATM   17  C11 UNL     1      -6.565  11.905  15.224  1.00  0.00     0.086 C 
HETATM   18  C12 UNL     1      -5.824  13.172  15.410  1.00  0.00     0.099 C 
HETATM   19  N3  UNL     1      -6.280  11.092  14.140  1.00  0.00    -0.404 N 
ATOM     20  H3  UNL     1      -6.847  10.256  14.000  1.00  0.00     0.154 HD
ENDBRANCH   7  10
ENDBRANCH   1   6
BRANCH   1  21
HETATM   21  C13 UNL     1      -4.803  13.858   9.365  1.00  0.00     0.243 C 
HETATM   22  O3  UNL     1      -3.545  14.038   9.188  1.00  0.00    -0.271 OA
HETATM   23  N4  UNL     1      -5.517  13.336   8.275  1.00  0.00    -0.350 N 
HETATM   24  C14 UNL     1      -6.927  13.041   8.369  1.00  0.00     0.130 C 
HETATM   25  C19 UNL     1      -4.866  13.080   7.008  1.00  0.00     0.130 C 
HETATM   26  C15 UNL     1      -7.642  13.978   7.404  1.00  0.00     0.056 C 
HETATM   27  C16 UNL     1      -6.998  13.785   6.081  1.00  0.00    -0.052 C 
HETATM   28  C17 UNL     1      -7.402  14.493   5.021  1.00  0.00     0.059 C 
HETATM   29  C18 UNL     1      -5.902  12.794   5.951  1.00  0.00     0.056 C 
HETATM   30 BR1  UNL     1      -8.814  15.756   5.220  1.00  0.00    -0.043 Br
HETATM   31 BR2  UNL     1      -6.605  14.275   3.306  1.00  0.00    -0.043 Br
ENDBRANCH   1  21
TORSDOF 5
ENDMDL
MODEL 3
REMARK VINA RESULT: -7.851529087      5.417      7.223
REMARK  5 active torsions:
REMARK  status: ('A' for Active; 'I' for Inactive)
REMARK    1  A    between atoms: C1_2  and  C2_4 
REMARK    2  A    between atoms: C2_4  and  C3_5 
REMARK    3  A    between atoms: C3_5  and  N2_6 
REMARK    4  A    between atoms: C3_5  and  C13_21 
REMARK       I    between atoms: N2_6  and  C4_8 
REMARK    5  A    between atoms: C4_8  and  C5_10 
REMARK       I    between atoms: C13_21  and  N4_23 
ROOT
HETATM    1  C3  UNL     1     -11.796  15.192   5.694  1.00  0.00     0.185 C 
ENDROOT
BRANCH   1   2
HETATM    2  C2  UNL     1     -13.152  14.919   5.070  1.00  0.00     0.134 C 
BRANCH   2   3
HETATM    3  C1  UNL     1     -13.484  13.491   4.947  1.00  0.00     0.233 C 
HETATM    4  N1  UNL     1     -13.331  12.908   3.660  1.00  0.00    -0.062 NA
HETATM    5  O1  UNL     1     -13.885  12.741   5.867  1.00  0.00    -0.277 OA
ENDBRANCH   2   3
ENDBRANCH   1   2
BRANCH   1   6
HETATM    6  N2  UNL     1     -12.080  15.939   6.922  1.00  0.00    -0.346 N 
HETATM    7  C4  UNL     1     -12.207  15.174   8.114  1.00  0.00     0.240 C 
HETATM    8  O2  UNL     1     -12.083  13.921   8.138  1.00  0.00    -0.271 OA
ATOM      9  H2  UNL     1     -12.183  16.954   6.921  1.00  0.00     0.163 HD
BRANCH   7  10
HETATM   10  C5  UNL     1     -12.500  15.890   9.397  1.00  0.00     0.170 C 
HETATM   11  C6  UNL     1     -13.271  15.065  10.367  1.00  0.00     0.049 C 
HETATM   12  C7  UNL     1     -12.990  15.352  11.827  1.00  0.00     0.049 C 
HETATM   13  C8  UNL     1     -12.918  16.767  12.201  1.00  0.00     0.015 C 
HETATM   14  S1  UNL     1     -11.565  14.344  12.287  1.00  0.00    -0.162 SA
HETATM   15  C9  UNL     1     -11.647  17.480  12.172  1.00  0.00     0.003 C 
HETATM   16  C10 UNL     1     -10.392  16.696  11.973  1.00  0.00     0.025 C 
HETATM   17  C11 UNL     1     -10.372  16.002  10.600  1.00  0.00     0.086 C 
HETATM   18  C12 UNL     1     -10.409  14.550  10.883  1.00  0.00     0.099 C 
HETATM   19  N3  UNL     1     -11.380  16.584   9.850  1.00  0.00    -0.404 N 
ATOM     20  H3  UNL     1     -11.298  17.574   9.616  1.00  0.00     0.154 HD
ENDBRANCH   7  10
ENDBRANCH   1   6
BRANCH   1  21
HETATM   21  C13 UNL     1     -10.875  15.924   4.823  1.00  0.00     0.243 C 
HETATM   22  O3  UNL     1     -11.419  16.626   3.897  1.00  0.00    -0.271 OA
HETATM   23  N4  UNL     1      -9.473  15.949   4.881  1.00  0.00    -0.350 N 
HETATM   24  C14 UNL     1      -8.748  15.241   5.909  1.00  0.00     0.130 C 
HETATM   25  C19 UNL     1      -8.697  16.681   3.903  1.00  0.00     0.130 C 
HETATM   26  C15 UNL     1      -7.935  14.157   5.213  1.00  0.00     0.056 C 
HETATM   27  C16 UNL     1      -7.132  14.842   4.171  1.00  0.00    -0.052 C 
HETATM   28  C17 UNL     1      -6.320  14.142   3.371  1.00  0.00     0.059 C 
HETATM   29  C18 UNL     1      -7.240  16.316   4.030  1.00  0.00     0.056 C 
HETATM   30 BR1  UNL     1      -6.201  12.253   3.578  1.00  0.00    -0.043 Br
HETATM   31 BR2  UNL     1      -5.270  14.983   2.023  1.00  0.00    -0.043 Br
ENDBRANCH   1  21
TORSDOF 5
ENDMDL
MODEL 4
REMARK VINA RESULT: -7.805997994      4.854      6.793
REMARK  5 active torsions:
REMARK  status: ('A' for Active; 'I' for Inactive)
REMARK    1  A    between atoms: C1_2  and  C2_4 
REMARK    2  A    between atoms: C2_4  and  C3_5 
REMARK    3  A    between atoms: C3_5  and  N2_6 
REMARK    4  A    between atoms: C3_5  and  C13_21 
REMARK       I    between atoms: N2_6  and  C4_8 
REMARK    5  A    between atoms: C4_8  and  C5_10 
REMARK       I    between atoms: C13_21  and  N4_23 
ROOT
HETATM    1  C3  UNL     1     -11.376  15.174   6.027  1.00  0.00     0.185 C 
ENDROOT
BRANCH   1   2
HETATM    2  C2  UNL     1     -12.849  15.312   5.693  1.00  0.00     0.134 C 
BRANCH   2   3
HETATM    3  C1  UNL     1     -13.499  14.053   5.297  1.00  0.00     0.233 C 
HETATM    4  N1  UNL     1     -13.783  13.889   3.915  1.00  0.00    -0.062 NA
HETATM    5  O1  UNL     1     -13.825  13.115   6.060  1.00  0.00    -0.277 OA
ENDBRANCH   2   3
ENDBRANCH   1   2
BRANCH   1   6
HETATM    6  N2  UNL     1     -11.222  15.783   7.350  1.00  0.00    -0.346 N 
HETATM    7  C4  UNL     1     -11.226  14.896   8.461  1.00  0.00     0.240 C 
HETATM    8  O2  UNL     1     -11.352  13.648   8.338  1.00  0.00    -0.271 OA
ATOM      9  H2  UNL     1     -11.117  16.791   7.468  1.00  0.00     0.163 HD
BRANCH   7  10
HETATM   10  C5  UNL     1     -11.074  15.468   9.837  1.00  0.00     0.170 C 
HETATM   11  C6  UNL     1     -11.275  14.463  10.917  1.00  0.00     0.049 C 
HETATM   12  C7  UNL     1     -10.475  14.702  12.180  1.00  0.00     0.049 C 
HETATM   13  C8  UNL     1     -10.448  16.082  12.672  1.00  0.00     0.015 C 
HETATM   14  S1  UNL     1      -8.865  13.927  11.925  1.00  0.00    -0.162 SA
HETATM   15  C9  UNL     1      -9.402  17.003  12.247  1.00  0.00     0.003 C 
HETATM   16  C10 UNL     1      -8.239  16.461  11.483  1.00  0.00     0.025 C 
HETATM   17  C11 UNL     1      -8.677  15.868  10.132  1.00  0.00     0.086 C 
HETATM   18  C12 UNL     1      -8.405  14.417  10.222  1.00  0.00     0.099 C 
HETATM   19  N3  UNL     1      -9.969  16.315   9.907  1.00  0.00    -0.404 N 
ATOM     20  H3  UNL     1     -10.120  17.316   9.787  1.00  0.00     0.154 HD
ENDBRANCH   7  10
ENDBRANCH   1   6
BRANCH   1  21
HETATM   21  C13 UNL     1     -10.482  15.792   5.046  1.00  0.00     0.243 C 
HETATM   22  O3  UNL     1     -11.053  16.453   4.106  1.00  0.00    -0.271 OA
HETATM   23  N4  UNL     1      -9.079  15.746   5.012  1.00  0.00    -0.350 N 
HETATM   24  C14 UNL     1      -8.321  15.077   6.043  1.00  0.00     0.130 C 
HETATM   25  C19 UNL     1      -8.337  16.364   3.934  1.00  0.00     0.130 C 
HETATM   26  C15 UNL     1      -7.610  13.904   5.379  1.00  0.00     0.056 C 
HETATM   27  C16 UNL     1      -6.847  14.469   4.239  1.00  0.00    -0.052 C 
HETATM   28  C17 UNL     1      -6.126  13.671   3.444  1.00  0.00     0.059 C 
HETATM   29  C18 UNL     1      -6.894  15.932   3.995  1.00  0.00     0.056 C 
HETATM   30 BR1  UNL     1      -6.084  11.798   3.786  1.00  0.00    -0.043 Br
HETATM   31 BR2  UNL     1      -5.131  14.355   1.973  1.00  0.00    -0.043 Br
ENDBRANCH   1  21
TORSDOF 5
ENDMDL
MODEL 5
REMARK VINA RESULT: -7.757114897      4.416      6.209
REMARK  5 active torsions:
REMARK  status: ('A' for Active; 'I' for Inactive)
REMARK    1  A    between atoms: C1_2  and  C2_4 
REMARK    2  A    between atoms: C2_4  and  C3_5 
REMARK    3  A    between atoms: C3_5  and  N2_6 
REMARK    4  A    between atoms: C3_5  and  C13_21 
REMARK       I    between atoms: N2_6  and  C4_8 
REMARK    5  A    between atoms: C4_8  and  C5_10 
REMARK       I    between atoms: C13_21  and  N4_23 
ROOT
HETATM    1  C3  UNL     1     -10.908  15.017   6.522  1.00  0.00     0.185 C 
ENDROOT
BRANCH   1   2
HETATM    2  C2  UNL     1     -12.412  15.154   6.373  1.00  0.00     0.134 C 
BRANCH   2   3
HETATM    3  C1  UNL     1     -13.188  14.160   7.131  1.00  0.00     0.233 C 
HETATM    4  N1  UNL     1     -13.689  13.050   6.400  1.00  0.00    -0.062 NA
HETATM    5  O1  UNL     1     -13.447  14.199   8.355  1.00  0.00    -0.277 OA
ENDBRANCH   2   3
ENDBRANCH   1   2
BRANCH   1   6
HETATM    6  N2  UNL     1     -10.595  15.611   7.824  1.00  0.00    -0.346 N 
HETATM    7  C4  UNL     1     -10.136  14.722   8.834  1.00  0.00     0.240 C 
HETATM    8  O2  UNL     1      -9.997  13.484   8.642  1.00  0.00    -0.271 OA
ATOM      9  H2  UNL     1     -10.700  16.611   7.996  1.00  0.00     0.163 HD
BRANCH   7  10
HETATM   10  C5  UNL     1      -9.803  15.279  10.184  1.00  0.00     0.170 C 
HETATM   11  C6  UNL     1      -9.546  14.228  11.206  1.00  0.00     0.049 C 
HETATM   12  C7  UNL     1      -8.552  14.604  12.284  1.00  0.00     0.049 C 
HETATM   13  C8  UNL     1      -8.703  15.944  12.858  1.00  0.00     0.015 C 
HETATM   14  S1  UNL     1      -6.914  14.206  11.638  1.00  0.00    -0.162 SA
HETATM   15  C9  UNL     1      -7.993  17.082  12.288  1.00  0.00     0.003 C 
HETATM   16  C10 UNL     1      -6.943  16.826  11.258  1.00  0.00     0.025 C 
HETATM   17  C11 UNL     1      -7.539  16.186   9.991  1.00  0.00     0.086 C 
HETATM   18  C12 UNL     1      -6.957  14.827   9.917  1.00  0.00     0.099 C 
HETATM   19  N3  UNL     1      -8.912  16.345  10.079  1.00  0.00    -0.404 N 
ATOM     20  H3  UNL     1      -9.290  17.292  10.066  1.00  0.00     0.154 HD
ENDBRANCH   7  10
ENDBRANCH   1   6
BRANCH   1  21
HETATM   21  C13 UNL     1     -10.142  15.647   5.447  1.00  0.00     0.243 C 
HETATM   22  O3  UNL     1     -10.824  16.319   4.592  1.00  0.00    -0.271 OA
HETATM   23  N4  UNL     1      -8.754  15.603   5.240  1.00  0.00    -0.350 N 
HETATM   24  C14 UNL     1      -7.875  14.922   6.161  1.00  0.00     0.130 C 
HETATM   25  C19 UNL     1      -8.150  16.235   4.086  1.00  0.00     0.130 C 
HETATM   26  C15 UNL     1      -7.252  13.758   5.400  1.00  0.00     0.056 C 
HETATM   27  C16 UNL     1      -6.635  14.338   4.182  1.00  0.00    -0.052 C 
HETATM   28  C17 UNL     1      -6.018  13.550   3.294  1.00  0.00     0.059 C 
HETATM   29  C18 UNL     1      -6.711  15.803   3.964  1.00  0.00     0.056 C 
HETATM   30 BR1  UNL     1      -5.936  11.673   3.605  1.00  0.00    -0.043 Br
HETATM   31 BR2  UNL     1      -5.211  14.253   1.720  1.00  0.00    -0.043 Br
ENDBRANCH   1  21
TORSDOF 5
ENDMDL
