MODEL 1
REMARK VINA RESULT: -8.024991402      0.000      0.000
REMARK  5 active torsions:
REMARK  status: ('A' for Active; 'I' for Inactive)
REMARK    1  A    between atoms: N1_2  and  C2_3 
REMARK    2  A    between atoms: N1_2  and  S1_27 
REMARK    3  A    between atoms: C2_3  and  C3_4 
REMARK    4  A    between atoms: C3_4  and  N2_5 
REMARK    5  A    between atoms: N2_5  and  C4_7 
ROOT
HETATM    1  C4  UNL     1      -4.671  12.564  10.377  1.00  0.00     0.681 C 
HETATM    2  N3  UNL     1      -3.321  12.522  10.292  1.00  0.00    -0.155 N 
ATOM      3  H3  UNL     1      -2.824  12.568  11.181  1.00  0.00     0.187 HD
HETATM    4  C5  UNL     1      -2.546  12.428   9.201  1.00  0.00     0.272 C 
HETATM    5  O1  UNL     1      -1.379  12.031   9.357  1.00  0.00    -0.267 OA
HETATM    6  C6  UNL     1      -2.930  12.738   7.897  1.00  0.00     0.063 A 
HETATM    7  C7  UNL     1      -2.067  12.739   6.818  1.00  0.00     0.106 A 
HETATM    8  N4  UNL     1      -2.802  13.085   5.744  1.00  0.00    -0.363 N 
ATOM      9  H4  UNL     1      -2.440  13.170   4.794  1.00  0.00     0.165 HD
HETATM   10  C8  UNL     1      -4.081  13.301   6.100  1.00  0.00     0.064 A 
HETATM   11  C9  UNL     1      -5.229  13.668   5.417  1.00  0.00     0.057 A 
HETATM   12 BR1  UNL     1      -5.145  13.978   3.529  1.00  0.00    -0.047 Br
HETATM   13  C10 UNL     1      -6.438  13.813   6.098  1.00  0.00     0.050 A 
HETATM   14 BR2  UNL     1      -7.995  14.320   5.120  1.00  0.00    -0.048 Br
HETATM   15  C11 UNL     1      -6.497  13.587   7.471  1.00  0.00     0.058 A 
HETATM   16 BR3  UNL     1      -8.146  13.780   8.417  1.00  0.00    -0.047 Br
HETATM   17  C12 UNL     1      -5.369  13.223   8.154  1.00  0.00     0.081 A 
HETATM   18  N5  UNL     1      -5.557  13.034   9.472  1.00  0.00    -0.190 N 
ATOM     19  H5  UNL     1      -6.480  13.276   9.832  1.00  0.00     0.184 HD
HETATM   20  C13 UNL     1      -4.185  13.089   7.445  1.00  0.00     0.038 A 
ENDROOT
BRANCH   1  21
HETATM   21  N2  UNL     1      -5.164  12.089  11.469  1.00  0.00    -0.225 N 
ATOM     22  H2  UNL     1      -4.616  11.424  12.014  1.00  0.00     0.177 HD
BRANCH  21  23
HETATM   23  C3  UNL     1      -6.458  12.471  11.937  1.00  0.00     0.153 C 
BRANCH  23  24
HETATM   24  C2  UNL     1      -6.438  13.697  12.815  1.00  0.00     0.127 C 
BRANCH  24  25
HETATM   25  N1  UNL     1      -6.695  14.911  12.090  1.00  0.00    -0.214 NA
HETATM   26  C1  UNL     1      -7.723  15.641  12.816  1.00  0.00     0.129 C 
BRANCH  25  27
HETATM   27  S1  UNL     1      -5.254  15.865  12.142  1.00  0.00     0.207 S 
HETATM   28  C14 UNL     1      -5.448  17.376  11.229  1.00  0.00     0.180 C 
HETATM   29  O2  UNL     1      -4.070  15.135  11.602  1.00  0.00    -0.212 OA
HETATM   30  O3  UNL     1      -5.044  16.242  13.594  1.00  0.00    -0.212 OA
ENDBRANCH  25  27
ENDBRANCH  24  25
ENDBRANCH  23  24
ENDBRANCH  21  23
ENDBRANCH   1  21
TORSDOF 5
ENDMDL
MODEL 2
REMARK VINA RESULT: -7.755276068      3.814      6.417
REMARK  5 active torsions:
REMARK  status: ('A' for Active; 'I' for Inactive)
REMARK    1  A    between atoms: N1_2  and  C2_3 
REMARK    2  A    between atoms: N1_2  and  S1_27 
REMARK    3  A    between atoms: C2_3  and  C3_4 
REMARK    4  A    between atoms: C3_4  and  N2_5 
REMARK    5  A    between atoms: N2_5  and  C4_7 
ROOT
HETATM    1  C4  UNL     1      -5.780  13.341   6.729  1.00  0.00     0.681 C 
HETATM    2  N3  UNL     1      -4.541  13.098   6.245  1.00  0.00    -0.155 N 
ATOM      3  H3  UNL     1      -4.478  12.991   5.233  1.00  0.00     0.187 HD
HETATM    4  C5  UNL     1      -3.382  12.978   6.912  1.00  0.00     0.272 C 
HETATM    5  O1  UNL     1      -2.331  13.131   6.269  1.00  0.00    -0.267 OA
HETATM    6  C6  UNL     1      -3.247  12.695   8.270  1.00  0.00     0.063 A 
HETATM    7  C7  UNL     1      -2.037  12.465   8.894  1.00  0.00     0.106 A 
HETATM    8  N4  UNL     1      -2.315  12.230  10.191  1.00  0.00    -0.363 N 
ATOM      9  H4  UNL     1      -1.619  12.027  10.908  1.00  0.00     0.165 HD
HETATM   10  C8  UNL     1      -3.640  12.301  10.406  1.00  0.00     0.064 A 
HETATM   11  C9  UNL     1      -4.452  12.149  11.520  1.00  0.00     0.057 A 
HETATM   12 BR1  UNL     1      -3.661  11.741  13.215  1.00  0.00    -0.047 Br
HETATM   13  C10 UNL     1      -5.835  12.290  11.408  1.00  0.00     0.050 A 
HETATM   14 BR2  UNL     1      -6.915  12.073  12.964  1.00  0.00    -0.048 Br
HETATM   15  C11 UNL     1      -6.409  12.587  10.173  1.00  0.00     0.058 A 
HETATM   16 BR3  UNL     1      -8.302  12.784  10.004  1.00  0.00    -0.047 Br
HETATM   17  C12 UNL     1      -5.616  12.739   9.069  1.00  0.00     0.081 A 
HETATM   18  N5  UNL     1      -6.289  13.024   7.940  1.00  0.00    -0.190 N 
ATOM     19  H5  UNL     1      -7.306  12.996   8.005  1.00  0.00     0.184 HD
HETATM   20  C13 UNL     1      -4.245  12.591   9.217  1.00  0.00     0.038 A 
ENDROOT
BRANCH   1  21
HETATM   21  N2  UNL     1      -6.571  13.958   5.919  1.00  0.00    -0.225 N 
ATOM     22  H2  UNL     1      -6.749  14.952   6.058  1.00  0.00     0.177 HD
BRANCH  21  23
HETATM   23  C3  UNL     1      -7.204  13.284   4.830  1.00  0.00     0.153 C 
BRANCH  23  24
HETATM   24  C2  UNL     1      -6.808  13.828   3.480  1.00  0.00     0.127 C 
BRANCH  24  25
HETATM   25  N1  UNL     1      -5.403  13.692   3.210  1.00  0.00    -0.214 NA
HETATM   26  C1  UNL     1      -5.270  13.121   1.879  1.00  0.00     0.129 C 
BRANCH  25  27
HETATM   27  S1  UNL     1      -4.725  15.281   3.160  1.00  0.00     0.207 S 
HETATM   28  C14 UNL     1      -5.995  16.522   3.096  1.00  0.00     0.180 C 
HETATM   29  O2  UNL     1      -3.816  15.474   1.994  1.00  0.00    -0.212 OA
HETATM   30  O3  UNL     1      -3.981  15.468   4.467  1.00  0.00    -0.212 OA
ENDBRANCH  25  27
ENDBRANCH  24  25
ENDBRANCH  23  24
ENDBRANCH  21  23
ENDBRANCH   1  21
TORSDOF 5
ENDMDL
MODEL 3
REMARK VINA RESULT: -7.716816216      2.082      2.572
REMARK  5 active torsions:
REMARK  status: ('A' for Active; 'I' for Inactive)
REMARK    1  A    between atoms: N1_2  and  C2_3 
REMARK    2  A    between atoms: N1_2  and  S1_27 
REMARK    3  A    between atoms: C2_3  and  C3_4 
REMARK    4  A    between atoms: C3_4  and  N2_5 
REMARK    5  A    between atoms: N2_5  and  C4_7 
ROOT
HETATM    1  C4  UNL     1      -4.965  12.539  10.345  1.00  0.00     0.681 C 
HETATM    2  N3  UNL     1      -3.614  12.483  10.380  1.00  0.00    -0.155 N 
ATOM      3  H3  UNL     1      -3.196  12.522  11.309  1.00  0.00     0.187 HD
HETATM    4  C5  UNL     1      -2.747  12.383   9.361  1.00  0.00     0.272 C 
HETATM    5  O1  UNL     1      -1.602  11.973   9.618  1.00  0.00    -0.267 OA
HETATM    6  C6  UNL     1      -3.011  12.699   8.029  1.00  0.00     0.063 A 
HETATM    7  C7  UNL     1      -2.057  12.694   7.030  1.00  0.00     0.106 A 
HETATM    8  N4  UNL     1      -2.690  13.049   5.896  1.00  0.00    -0.363 N 
ATOM      9  H4  UNL     1      -2.245  13.133   4.983  1.00  0.00     0.165 HD
HETATM   10  C8  UNL     1      -3.993  13.278   6.139  1.00  0.00     0.064 A 
HETATM   11  C9  UNL     1      -5.073  13.660   5.358  1.00  0.00     0.057 A 
HETATM   12 BR1  UNL     1      -4.820  13.972   3.486  1.00  0.00    -0.047 Br
HETATM   13  C10 UNL     1      -6.336  13.815   5.931  1.00  0.00     0.050 A 
HETATM   14 BR2  UNL     1      -7.795  14.341   4.821  1.00  0.00    -0.048 Br
HETATM   15  C11 UNL     1      -6.518  13.587   7.293  1.00  0.00     0.058 A 
HETATM   16 BR3  UNL     1      -8.241  13.796   8.091  1.00  0.00    -0.047 Br
HETATM   17  C12 UNL     1      -5.457  13.210   8.071  1.00  0.00     0.081 A 
HETATM   18  N5  UNL     1      -5.763  13.021   9.367  1.00  0.00    -0.190 N 
ATOM     19  H5  UNL     1      -6.712  13.271   9.646  1.00  0.00     0.184 HD
HETATM   20  C13 UNL     1      -4.217  13.065   7.469  1.00  0.00     0.038 A 
ENDROOT
BRANCH   1  21
HETATM   21  N2  UNL     1      -5.558  12.067  11.389  1.00  0.00    -0.225 N 
ATOM     22  H2  UNL     1      -5.394  11.097  11.657  1.00  0.00     0.177 HD
BRANCH  21  23
HETATM   23  C3  UNL     1      -6.437  12.869  12.179  1.00  0.00     0.153 C 
BRANCH  23  24
HETATM   24  C2  UNL     1      -6.263  12.659  13.662  1.00  0.00     0.127 C 
BRANCH  24  25
HETATM   25  N1  UNL     1      -4.996  13.127  14.151  1.00  0.00    -0.214 NA
HETATM   26  C1  UNL     1      -5.249  13.870  15.376  1.00  0.00     0.129 C 
BRANCH  25  27
HETATM   27  S1  UNL     1      -4.056  11.739  14.577  1.00  0.00     0.207 S 
HETATM   28  C14 UNL     1      -5.095  10.350  14.960  1.00  0.00     0.180 C 
HETATM   29  O2  UNL     1      -3.160  11.995  15.741  1.00  0.00    -0.212 OA
HETATM   30  O3  UNL     1      -3.255  11.373  13.343  1.00  0.00    -0.212 OA
ENDBRANCH  25  27
ENDBRANCH  24  25
ENDBRANCH  23  24
ENDBRANCH  21  23
ENDBRANCH   1  21
TORSDOF 5
ENDMDL
MODEL 4
REMARK VINA RESULT: -7.602230591      5.421      6.477
REMARK  5 active torsions:
REMARK  status: ('A' for Active; 'I' for Inactive)
REMARK    1  A    between atoms: N1_2  and  C2_3 
REMARK    2  A    between atoms: N1_2  and  S1_27 
REMARK    3  A    between atoms: C2_3  and  C3_4 
REMARK    4  A    between atoms: C3_4  and  N2_5 
REMARK    5  A    between atoms: N2_5  and  C4_7 
ROOT
HETATM    1  C4  UNL     1      -8.304  14.659   5.805  1.00  0.00     0.681 C 
HETATM    2  N3  UNL     1      -7.865  14.659   4.525  1.00  0.00    -0.155 N 
ATOM      3  H3  UNL     1      -8.589  14.742   3.812  1.00  0.00     0.187 HD
HETATM    4  C5  UNL     1      -6.609  14.565   4.064  1.00  0.00     0.272 C 
HETATM    5  O1  UNL     1      -6.391  14.957   2.905  1.00  0.00    -0.267 OA
HETATM    6  C6  UNL     1      -5.515  14.063   4.768  1.00  0.00     0.063 A 
HETATM    7  C7  UNL     1      -4.262  13.875   4.217  1.00  0.00     0.106 A 
HETATM    8  N4  UNL     1      -3.485  13.381   5.199  1.00  0.00    -0.363 N 
ATOM      9  H4  UNL     1      -2.499  13.140   5.096  1.00  0.00     0.165 HD
HETATM   10  C8  UNL     1      -4.192  13.250   6.336  1.00  0.00     0.064 A 
HETATM   11  C9  UNL     1      -3.898  12.804   7.615  1.00  0.00     0.057 A 
HETATM   12 BR1  UNL     1      -2.126  12.201   8.020  1.00  0.00    -0.047 Br
HETATM   13  C10 UNL     1      -4.885  12.793   8.601  1.00  0.00     0.050 A 
HETATM   14 BR2  UNL     1      -4.439  12.172  10.348  1.00  0.00    -0.048 Br
HETATM   15  C11 UNL     1      -6.173  13.233   8.304  1.00  0.00     0.058 A 
HETATM   16 BR3  UNL     1      -7.535  13.224   9.644  1.00  0.00    -0.047 Br
HETATM   17  C12 UNL     1      -6.472  13.675   7.044  1.00  0.00     0.081 A 
HETATM   18  N5  UNL     1      -7.747  14.072   6.886  1.00  0.00    -0.190 N 
ATOM     19  H5  UNL     1      -8.369  13.909   7.678  1.00  0.00     0.184 HD
HETATM   20  C13 UNL     1      -5.467  13.671   6.090  1.00  0.00     0.038 A 
ENDROOT
BRANCH   1  21
HETATM   21  N2  UNL     1      -9.399  15.309   6.006  1.00  0.00    -0.225 N 
ATOM     22  H2  UNL     1      -9.971  15.579   5.205  1.00  0.00     0.177 HD
BRANCH  21  23
HETATM   23  C3  UNL     1      -9.833  15.662   7.320  1.00  0.00     0.153 C 
BRANCH  23  24
HETATM   24  C2  UNL     1     -11.327  15.835   7.429  1.00  0.00     0.127 C 
BRANCH  24  25
HETATM   25  N1  UNL     1     -12.041  14.588   7.396  1.00  0.00    -0.214 NA
HETATM   26  C1  UNL     1     -12.890  14.542   8.576  1.00  0.00     0.129 C 
BRANCH  25  27
HETATM   27  S1  UNL     1     -13.080  14.618   6.015  1.00  0.00     0.207 S 
HETATM   28  C14 UNL     1     -14.159  16.029   6.050  1.00  0.00     0.180 C 
HETATM   29  O2  UNL     1     -13.915  13.387   5.905  1.00  0.00    -0.212 OA
HETATM   30  O3  UNL     1     -12.178  14.773   4.807  1.00  0.00    -0.212 OA
ENDBRANCH  25  27
ENDBRANCH  24  25
ENDBRANCH  23  24
ENDBRANCH  21  23
ENDBRANCH   1  21
TORSDOF 5
ENDMDL
MODEL 5
REMARK VINA RESULT: -7.562415786      1.307      1.499
REMARK  5 active torsions:
REMARK  status: ('A' for Active; 'I' for Inactive)
REMARK    1  A    between atoms: N1_2  and  C2_3 
REMARK    2  A    between atoms: N1_2  and  S1_27 
REMARK    3  A    between atoms: C2_3  and  C3_4 
REMARK    4  A    between atoms: C3_4  and  N2_5 
REMARK    5  A    between atoms: N2_5  and  C4_7 
ROOT
HETATM    1  C4  UNL     1      -4.961  12.872  10.333  1.00  0.00     0.681 C 
HETATM    2  N3  UNL     1      -3.610  12.807  10.366  1.00  0.00    -0.155 N 
ATOM      3  H3  UNL     1      -3.187  12.920  11.286  1.00  0.00     0.187 HD
HETATM    4  C5  UNL     1      -2.750  12.615   9.354  1.00  0.00     0.272 C 
HETATM    5  O1  UNL     1      -1.608  12.218   9.638  1.00  0.00    -0.267 OA
HETATM    6  C6  UNL     1      -3.019  12.821   8.002  1.00  0.00     0.063 A 
HETATM    7  C7  UNL     1      -2.071  12.723   7.002  1.00  0.00     0.106 A 
HETATM    8  N4  UNL     1      -2.708  12.989   5.846  1.00  0.00    -0.363 N 
ATOM      9  H4  UNL     1      -2.268  12.992   4.926  1.00  0.00     0.165 HD
HETATM   10  C8  UNL     1      -4.008  13.249   6.076  1.00  0.00     0.064 A 
HETATM   11  C9  UNL     1      -5.089  13.573   5.271  1.00  0.00     0.057 A 
HETATM   12 BR1  UNL     1      -4.845  13.726   3.378  1.00  0.00    -0.047 Br
HETATM   13  C10 UNL     1      -6.347  13.788   5.835  1.00  0.00     0.050 A 
HETATM   14 BR2  UNL     1      -7.808  14.232   4.693  1.00  0.00    -0.048 Br
HETATM   15  C11 UNL     1      -6.523  13.676   7.212  1.00  0.00     0.058 A 
HETATM   16 BR3  UNL     1      -8.240  13.966   7.999  1.00  0.00    -0.047 Br
HETATM   17  C12 UNL     1      -5.461  13.355   8.014  1.00  0.00     0.081 A 
HETATM   18  N5  UNL     1      -5.761  13.278   9.323  1.00  0.00    -0.190 N 
ATOM     19  H5  UNL     1      -6.706  13.559   9.585  1.00  0.00     0.184 HD
HETATM   20  C13 UNL     1      -4.226  13.150   7.420  1.00  0.00     0.038 A 
ENDROOT
BRANCH   1  21
HETATM   21  N2  UNL     1      -5.551  12.495  11.416  1.00  0.00    -0.225 N 
ATOM     22  H2  UNL     1      -6.253  11.756  11.368  1.00  0.00     0.177 HD
BRANCH  21  23
HETATM   23  C3  UNL     1      -5.247  13.083  12.681  1.00  0.00     0.153 C 
BRANCH  23  24
HETATM   24  C2  UNL     1      -6.453  13.669  13.372  1.00  0.00     0.127 C 
BRANCH  24  25
HETATM   25  N1  UNL     1      -6.547  15.095  13.225  1.00  0.00    -0.214 NA
HETATM   26  C1  UNL     1      -5.208  15.593  12.950  1.00  0.00     0.129 C 
BRANCH  25  27
HETATM   27  S1  UNL     1      -7.512  15.413  11.826  1.00  0.00     0.207 S 
HETATM   28  C14 UNL     1      -8.704  16.692  12.142  1.00  0.00     0.180 C 
HETATM   29  O2  UNL     1      -8.235  14.200  11.347  1.00  0.00    -0.212 OA
HETATM   30  O3  UNL     1      -6.564  15.936  10.765  1.00  0.00    -0.212 OA
ENDBRANCH  25  27
ENDBRANCH  24  25
ENDBRANCH  23  24
ENDBRANCH  21  23
ENDBRANCH   1  21
TORSDOF 5
ENDMDL
