MODEL 1
REMARK VINA RESULT: -7.979771289      0.000      0.000
REMARK  5 active torsions:
REMARK  status: ('A' for Active; 'I' for Inactive)
REMARK    1  A    between atoms: C9_11  and  C10_12 
REMARK    2  A    between atoms: C11_16  and  C12_17 
REMARK    3  A    between atoms: C11_16  and  C13_19 
REMARK    4  A    between atoms: C13_19  and  C14_20 
REMARK    5  A    between atoms: C14_20  and  C15_21 
ROOT
HETATM    1  O1  UNL     1      -1.606  12.909   9.777  1.00  0.00    -0.274 OA
HETATM    2  C1  UNL     1      -2.834  13.113  10.115  1.00  0.00     0.218 C 
HETATM    3  C2  UNL     1      -3.749  14.039   9.423  1.00  0.00     0.114 C 
HETATM    4  C3  UNL     1      -5.136  13.602   9.867  1.00  0.00    -0.009 C 
HETATM    5  C4  UNL     1      -5.604  12.583   8.795  1.00  0.00     0.013 C 
HETATM    6  C5  UNL     1      -7.033  12.185   9.049  1.00  0.00     0.017 C 
HETATM    7  C6  UNL     1      -7.888  13.460   8.769  1.00  0.00     0.065 C 
HETATM    8 BR1  UNL     1      -7.315  13.927   6.994  1.00  0.00    -0.091 Br
HETATM    9  C7  UNL     1      -7.531  14.344   9.862  1.00  0.00     0.043 C 
HETATM   10  C8  UNL     1      -6.067  14.722   9.816  1.00  0.00     0.044 C 
HETATM   11  C9  UNL     1      -6.008  15.894  10.672  1.00  0.00     0.228 C 
HETATM   12  O4  UNL     1      -7.343  16.316  10.947  1.00  0.00    -0.362 OA
HETATM   13  C11 UNL     1      -8.214  15.579  10.161  1.00  0.00     0.076 C 
HETATM   14  C19 UNL     1      -4.923  12.813  11.084  1.00  0.00     0.133 C 
HETATM   15  N2  UNL     1      -3.513  12.501  11.188  1.00  0.00    -0.360 N 
ATOM     16  H2  UNL     1      -3.082  11.933  11.917  1.00  0.00     0.162 HD
ENDROOT
BRANCH  13  17
HETATM   17  C12 UNL     1      -8.745  16.501   9.151  1.00  0.00     0.123 C 
HETATM   18 BR2  UNL     1     -10.528  16.050   8.485  1.00  0.00    -0.093 Br
ENDBRANCH  13  17
BRANCH  13  19
HETATM   19  C13 UNL     1      -9.378  15.226  11.123  1.00  0.00     0.040 C 
BRANCH  19  20
HETATM   20  C14 UNL     1      -9.580  16.305  12.120  1.00  0.00     0.019 C 
BRANCH  20  21
HETATM   21  C15 UNL     1     -10.991  16.830  12.190  1.00  0.00     0.106 C 
HETATM   22  C16 UNL     1     -11.923  16.027  12.992  1.00  0.00     0.230 C 
HETATM   23  O5  UNL     1     -11.931  14.819  13.328  1.00  0.00    -0.273 OA
HETATM   24  N1  UNL     1     -12.953  16.978  13.376  1.00  0.00    -0.296 N 
HETATM   25  C17 UNL     1     -12.432  18.296  13.270  1.00  0.00     0.243 C 
ATOM     26  H1  UNL     1     -13.899  16.738  13.673  1.00  0.00     0.171 HD
HETATM   27  O6  UNL     1     -13.075  19.364  13.405  1.00  0.00    -0.271 OA
HETATM   28  C18 UNL     1     -10.976  18.133  12.967  1.00  0.00     0.187 C 
HETATM   29 CL1  UNL     1     -10.155  17.885  14.523  1.00  0.00    -0.114 Cl
ENDBRANCH  20  21
ENDBRANCH  19  20
ENDBRANCH  13  19
BRANCH  11  30
HETATM   30  C10 UNL     1      -5.386  15.879  11.988  1.00  0.00     0.203 C 
HETATM   31  O2  UNL     1      -4.222  16.225  12.210  1.00  0.00    -0.646 OA
HETATM   32  O3  UNL     1      -6.062  15.464  13.159  1.00  0.00    -0.646 OA
ENDBRANCH  11  30
TORSDOF 5
ENDMDL
MODEL 2
REMARK VINA RESULT: -7.910954733      4.224      7.455
REMARK  5 active torsions:
REMARK  status: ('A' for Active; 'I' for Inactive)
REMARK    1  A    between atoms: C9_11  and  C10_12 
REMARK    2  A    between atoms: C11_16  and  C12_17 
REMARK    3  A    between atoms: C11_16  and  C13_19 
REMARK    4  A    between atoms: C13_19  and  C14_20 
REMARK    5  A    between atoms: C14_20  and  C15_21 
ROOT
HETATM    1  O1  UNL     1      -8.344  15.791  15.339  1.00  0.00    -0.274 OA
HETATM    2  C1  UNL     1      -7.978  15.192  14.257  1.00  0.00     0.218 C 
HETATM    3  C2  UNL     1      -6.576  14.999  13.840  1.00  0.00     0.114 C 
HETATM    4  C3  UNL     1      -6.640  13.889  12.803  1.00  0.00    -0.009 C 
HETATM    5  C4  UNL     1      -6.422  12.576  13.600  1.00  0.00     0.013 C 
HETATM    6  C5  UNL     1      -6.318  11.409  12.655  1.00  0.00     0.017 C 
HETATM    7  C6  UNL     1      -4.984  11.611  11.872  1.00  0.00     0.065 C 
HETATM    8 BR1  UNL     1      -3.718  11.809  13.306  1.00  0.00    -0.091 Br
HETATM    9  C7  UNL     1      -5.262  12.764  11.036  1.00  0.00     0.043 C 
HETATM   10  C8  UNL     1      -5.531  14.000  11.866  1.00  0.00     0.044 C 
HETATM   11  C9  UNL     1      -5.354  15.077  10.907  1.00  0.00     0.228 C 
HETATM   12  O4  UNL     1      -4.764  14.535   9.727  1.00  0.00    -0.362 OA
HETATM   13  C11 UNL     1      -4.401  13.220   9.973  1.00  0.00     0.076 C 
HETATM   14  C19 UNL     1      -8.037  13.847  12.364  1.00  0.00     0.133 C 
HETATM   15  N2  UNL     1      -8.834  14.623  13.292  1.00  0.00    -0.360 N 
ATOM     16  H2  UNL     1      -9.846  14.739  13.254  1.00  0.00     0.162 HD
ENDROOT
BRANCH  13  17
HETATM   17  C12 UNL     1      -2.936  13.195  10.022  1.00  0.00     0.123 C 
HETATM   18 BR2  UNL     1      -2.082  12.232   8.548  1.00  0.00    -0.093 Br
ENDBRANCH  13  17
BRANCH  13  19
HETATM   19  C13 UNL     1      -4.835  12.466   8.689  1.00  0.00     0.040 C 
BRANCH  19  20
HETATM   20  C14 UNL     1      -5.252  13.422   7.635  1.00  0.00     0.019 C 
BRANCH  20  21
HETATM   21  C15 UNL     1      -5.724  12.773   6.359  1.00  0.00     0.106 C 
HETATM   22  C16 UNL     1      -6.747  13.519   5.615  1.00  0.00     0.230 C 
HETATM   23  O5  UNL     1      -7.594  14.376   5.962  1.00  0.00    -0.273 OA
HETATM   24  N1  UNL     1      -6.597  13.040   4.250  1.00  0.00    -0.296 N 
HETATM   25  C17 UNL     1      -5.300  12.480   4.095  1.00  0.00     0.243 C 
ATOM     26  H1  UNL     1      -7.309  13.097   3.522  1.00  0.00     0.171 HD
HETATM   27  O6  UNL     1      -4.871  11.866   3.089  1.00  0.00    -0.271 OA
HETATM   28  C18 UNL     1      -4.575  12.777   5.369  1.00  0.00     0.187 C 
HETATM   29 CL1  UNL     1      -3.929  14.425   5.217  1.00  0.00    -0.114 Cl
ENDBRANCH  20  21
ENDBRANCH  19  20
ENDBRANCH  13  19
BRANCH  11  30
HETATM   30  C10 UNL     1      -6.464  15.865  10.393  1.00  0.00     0.203 C 
HETATM   31  O2  UNL     1      -6.698  17.033  10.720  1.00  0.00    -0.646 OA
HETATM   32  O3  UNL     1      -7.398  15.367   9.455  1.00  0.00    -0.646 OA
ENDBRANCH  11  30
TORSDOF 5
ENDMDL
MODEL 3
REMARK VINA RESULT: -7.830221472      4.326      7.696
REMARK  5 active torsions:
REMARK  status: ('A' for Active; 'I' for Inactive)
REMARK    1  A    between atoms: C9_11  and  C10_12 
REMARK    2  A    between atoms: C11_16  and  C12_17 
REMARK    3  A    between atoms: C11_16  and  C13_19 
REMARK    4  A    between atoms: C13_19  and  C14_20 
REMARK    5  A    between atoms: C14_20  and  C15_21 
ROOT
HETATM    1  O1  UNL     1      -8.690  15.335  14.596  1.00  0.00    -0.274 OA
HETATM    2  C1  UNL     1      -8.318  14.700  13.536  1.00  0.00     0.218 C 
HETATM    3  C2  UNL     1      -7.026  14.896  12.853  1.00  0.00     0.114 C 
HETATM    4  C3  UNL     1      -6.865  13.657  11.987  1.00  0.00    -0.009 C 
HETATM    5  C4  UNL     1      -6.074  12.650  12.863  1.00  0.00     0.013 C 
HETATM    6  C5  UNL     1      -5.724  11.428  12.057  1.00  0.00     0.017 C 
HETATM    7  C6  UNL     1      -4.692  11.903  10.988  1.00  0.00     0.065 C 
HETATM    8 BR1  UNL     1      -3.360  12.752  12.086  1.00  0.00    -0.091 Br
HETATM    9  C7  UNL     1      -5.488  12.735  10.106  1.00  0.00     0.043 C 
HETATM   10  C8  UNL     1      -6.033  13.948  10.828  1.00  0.00     0.044 C 
HETATM   11  C9  UNL     1      -6.403  14.833   9.738  1.00  0.00     0.228 C 
HETATM   12  O4  UNL     1      -5.861  14.306   8.528  1.00  0.00    -0.362 OA
HETATM   13  C11 UNL     1      -5.026  13.245   8.838  1.00  0.00     0.076 C 
HETATM   14  C19 UNL     1      -8.211  13.090  11.866  1.00  0.00     0.133 C 
HETATM   15  N2  UNL     1      -9.066  13.723  12.848  1.00  0.00    -0.360 N 
ATOM     16  H2  UNL     1     -10.047  13.499  13.015  1.00  0.00     0.162 HD
ENDROOT
BRANCH  13  17
HETATM   17  C12 UNL     1      -3.658  13.701   8.574  1.00  0.00     0.123 C 
HETATM   18 BR2  UNL     1      -2.384  12.276   8.159  1.00  0.00    -0.093 Br
ENDBRANCH  13  17
BRANCH  13  19
HETATM   19  C13 UNL     1      -5.372  12.173   7.771  1.00  0.00     0.040 C 
BRANCH  19  20
HETATM   20  C14 UNL     1      -6.005  12.799   6.585  1.00  0.00     0.019 C 
BRANCH  20  21
HETATM   21  C15 UNL     1      -5.128  12.839   5.361  1.00  0.00     0.106 C 
HETATM   22  C16 UNL     1      -5.626  12.084   4.204  1.00  0.00     0.230 C 
HETATM   23  O5  UNL     1      -6.412  11.112   4.099  1.00  0.00    -0.273 OA
HETATM   24  N1  UNL     1      -4.982  12.725   3.070  1.00  0.00    -0.296 N 
HETATM   25  C17 UNL     1      -4.572  14.033   3.448  1.00  0.00     0.243 C 
ATOM     26  H1  UNL     1      -4.845  12.305   2.151  1.00  0.00     0.171 HD
HETATM   27  O6  UNL     1      -3.879  14.823   2.763  1.00  0.00    -0.271 OA
HETATM   28  C18 UNL     1      -5.135  14.255   4.816  1.00  0.00     0.187 C 
HETATM   29 CL1  UNL     1      -6.813  14.796   4.596  1.00  0.00    -0.114 Cl
ENDBRANCH  20  21
ENDBRANCH  19  20
ENDBRANCH  13  19
BRANCH  11  30
HETATM   30  C10 UNL     1      -7.787  15.117   9.387  1.00  0.00     0.203 C 
HETATM   31  O2  UNL     1      -8.442  14.468   8.565  1.00  0.00    -0.646 OA
HETATM   32  O3  UNL     1      -8.529  16.176   9.958  1.00  0.00    -0.646 OA
ENDBRANCH  11  30
TORSDOF 5
ENDMDL
MODEL 4
REMARK VINA RESULT: -7.748759612      3.170      7.681
REMARK  5 active torsions:
REMARK  status: ('A' for Active; 'I' for Inactive)
REMARK    1  A    between atoms: C9_11  and  C10_12 
REMARK    2  A    between atoms: C11_16  and  C12_17 
REMARK    3  A    between atoms: C11_16  and  C13_19 
REMARK    4  A    between atoms: C13_19  and  C14_20 
REMARK    5  A    between atoms: C14_20  and  C15_21 
ROOT
HETATM    1  O1  UNL     1     -11.254  16.880  13.920  1.00  0.00    -0.274 OA
HETATM    2  C1  UNL     1     -10.148  16.673  13.288  1.00  0.00     0.218 C 
HETATM    3  C2  UNL     1      -9.615  15.341  12.948  1.00  0.00     0.114 C 
HETATM    4  C3  UNL     1      -8.593  15.610  11.854  1.00  0.00    -0.009 C 
HETATM    5  C4  UNL     1      -9.377  15.467  10.523  1.00  0.00     0.013 C 
HETATM    6  C5  UNL     1      -8.433  15.570   9.355  1.00  0.00     0.017 C 
HETATM    7  C6  UNL     1      -7.538  14.293   9.415  1.00  0.00     0.065 C 
HETATM    8 BR1  UNL     1      -8.860  12.897   9.472  1.00  0.00    -0.091 Br
HETATM    9  C7  UNL     1      -6.723  14.516  10.594  1.00  0.00     0.043 C 
HETATM   10  C8  UNL     1      -7.565  14.579  11.849  1.00  0.00     0.044 C 
HETATM   11  C9  UNL     1      -6.589  14.369  12.904  1.00  0.00     0.228 C 
HETATM   12  O4  UNL     1      -5.366  13.943  12.306  1.00  0.00    -0.362 OA
HETATM   13  C11 UNL     1      -5.588  13.703  10.959  1.00  0.00     0.076 C 
HETATM   14  C19 UNL     1      -8.274  17.036  11.964  1.00  0.00     0.133 C 
HETATM   15  N2  UNL     1      -9.262  17.664  12.818  1.00  0.00    -0.360 N 
ATOM     16  H2  UNL     1      -9.308  18.657  13.042  1.00  0.00     0.162 HD
ENDROOT
BRANCH  13  17
HETATM   17  C12 UNL     1      -5.513  12.251  10.777  1.00  0.00     0.123 C 
HETATM   18 BR2  UNL     1      -4.951  11.252  12.362  1.00  0.00    -0.093 Br
ENDBRANCH  13  17
BRANCH  13  19
HETATM   19  C13 UNL     1      -4.350  14.323  10.261  1.00  0.00     0.040 C 
BRANCH  19  20
HETATM   20  C14 UNL     1      -3.483  13.263   9.692  1.00  0.00     0.019 C 
BRANCH  20  21
HETATM   21  C15 UNL     1      -2.979  13.551   8.302  1.00  0.00     0.106 C 
HETATM   22  C16 UNL     1      -2.039  12.564   7.755  1.00  0.00     0.230 C 
HETATM   23  O5  UNL     1      -1.265  11.738   8.296  1.00  0.00    -0.273 OA
HETATM   24  N1  UNL     1      -2.172  12.722   6.316  1.00  0.00    -0.296 N 
HETATM   25  C17 UNL     1      -3.417  13.344   6.031  1.00  0.00     0.243 C 
ATOM     26  H1  UNL     1      -1.481  12.433   5.623  1.00  0.00     0.171 HD
HETATM   27  O6  UNL     1      -3.809  13.743   4.907  1.00  0.00    -0.271 OA
HETATM   28  C18 UNL     1      -4.142  13.419   7.337  1.00  0.00     0.187 C 
HETATM   29 CL1  UNL     1      -4.933  11.845   7.573  1.00  0.00    -0.114 Cl
ENDBRANCH  20  21
ENDBRANCH  19  20
ENDBRANCH  13  19
BRANCH  11  30
HETATM   30  C10 UNL     1      -6.166  15.428  13.809  1.00  0.00     0.203 C 
HETATM   31  O2  UNL     1      -6.675  15.643  14.913  1.00  0.00    -0.646 OA
HETATM   32  O3  UNL     1      -5.116  16.327  13.510  1.00  0.00    -0.646 OA
ENDBRANCH  11  30
TORSDOF 5
ENDMDL
MODEL 5
REMARK VINA RESULT: -7.718792777      1.550      1.874
REMARK  5 active torsions:
REMARK  status: ('A' for Active; 'I' for Inactive)
REMARK    1  A    between atoms: C9_11  and  C10_12 
REMARK    2  A    between atoms: C11_16  and  C12_17 
REMARK    3  A    between atoms: C11_16  and  C13_19 
REMARK    4  A    between atoms: C13_19  and  C14_20 
REMARK    5  A    between atoms: C14_20  and  C15_21 
ROOT
HETATM    1  O1  UNL     1      -1.660  12.730   9.768  1.00  0.00    -0.274 OA
HETATM    2  C1  UNL     1      -2.880  12.987  10.100  1.00  0.00     0.218 C 
HETATM    3  C2  UNL     1      -3.761  13.930   9.386  1.00  0.00     0.114 C 
HETATM    4  C3  UNL     1      -5.163  13.556   9.839  1.00  0.00    -0.009 C 
HETATM    5  C4  UNL     1      -5.668  12.530   8.791  1.00  0.00     0.013 C 
HETATM    6  C5  UNL     1      -7.111  12.191   9.054  1.00  0.00     0.017 C 
HETATM    7  C6  UNL     1      -7.918  13.490   8.743  1.00  0.00     0.065 C 
HETATM    8 BR1  UNL     1      -7.328  13.894   6.958  1.00  0.00    -0.091 Br
HETATM    9  C7  UNL     1      -7.528  14.386   9.815  1.00  0.00     0.043 C 
HETATM   10  C8  UNL     1      -6.051  14.707   9.761  1.00  0.00     0.044 C 
HETATM   11  C9  UNL     1      -5.948  15.896  10.589  1.00  0.00     0.228 C 
HETATM   12  O4  UNL     1      -7.266  16.374  10.854  1.00  0.00    -0.362 OA
HETATM   13  C11 UNL     1      -8.165  15.652  10.085  1.00  0.00     0.076 C 
HETATM   14  C19 UNL     1      -4.979  12.788  11.074  1.00  0.00     0.133 C 
HETATM   15  N2  UNL     1      -3.581  12.426  11.187  1.00  0.00    -0.360 N 
ATOM     16  H2  UNL     1      -3.172  11.859  11.929  1.00  0.00     0.162 HD
ENDROOT
BRANCH  13  17
HETATM   17  C12 UNL     1      -8.661  16.569   9.053  1.00  0.00     0.123 C 
HETATM   18 BR2  UNL     1     -10.411  16.102   8.314  1.00  0.00    -0.093 Br
ENDBRANCH  13  17
BRANCH  13  19
HETATM   19  C13 UNL     1      -9.341  15.365  11.054  1.00  0.00     0.040 C 
BRANCH  19  20
HETATM   20  C14 UNL     1      -9.667  16.570  11.854  1.00  0.00     0.019 C 
BRANCH  20  21
HETATM   21  C15 UNL     1      -9.474  16.402  13.339  1.00  0.00     0.106 C 
HETATM   22  C16 UNL     1      -8.672  17.444  13.992  1.00  0.00     0.230 C 
HETATM   23  O5  UNL     1      -7.799  18.236  13.565  1.00  0.00    -0.273 OA
HETATM   24  N1  UNL     1      -9.111  17.398  15.377  1.00  0.00    -0.296 N 
HETATM   25  C17 UNL     1     -10.389  16.781  15.439  1.00  0.00     0.243 C 
ATOM     26  H1  UNL     1      -8.585  17.752  16.177  1.00  0.00     0.171 HD
HETATM   27  O6  UNL     1     -11.014  16.466  16.481  1.00  0.00    -0.271 OA
HETATM   28  C18 UNL     1     -10.817  16.590  14.018  1.00  0.00     0.187 C 
HETATM   29 CL1  UNL     1     -11.536  18.128  13.492  1.00  0.00    -0.114 Cl
ENDBRANCH  20  21
ENDBRANCH  19  20
ENDBRANCH  13  19
BRANCH  11  30
HETATM   30  C10 UNL     1      -5.327  15.890  11.906  1.00  0.00     0.203 C 
HETATM   31  O2  UNL     1      -4.174  16.269  12.132  1.00  0.00    -0.646 OA
HETATM   32  O3  UNL     1      -5.990  15.443  13.072  1.00  0.00    -0.646 OA
ENDBRANCH  11  30
TORSDOF 5
ENDMDL
