MODEL 1
REMARK VINA RESULT: -8.071566053      0.000      0.000
REMARK  5 active torsions:
REMARK  status: ('A' for Active; 'I' for Inactive)
REMARK    1  A    between atoms: C1_2  and  C2_4 
REMARK    2  A    between atoms: C2_4  and  C10_18 
REMARK    3  A    between atoms: N2_5  and  N3_7 
REMARK       I    between atoms: N3_7  and  C3_9 
REMARK    4  A    between atoms: C3_9  and  C4_11 
REMARK    5  A    between atoms: C14_22  and  N4_23 
ROOT
HETATM    1  C2  UNL     1      -4.413 -18.519  -8.013  1.00  0.00     0.123 C 
HETATM    2  N2  UNL     1      -5.073 -17.496  -8.410  1.00  0.00    -0.292 N 
ATOM      3  H2  UNL     1      -4.636 -16.600  -8.192  1.00  0.00     0.187 HD
ENDROOT
BRANCH   1   4
HETATM    4  C1  UNL     1      -4.871 -19.868  -8.230  1.00  0.00     0.283 C 
HETATM    5  N1  UNL     1      -6.138 -20.273  -7.663  1.00  0.00    -0.056 NA
HETATM    6  O1  UNL     1      -4.300 -20.769  -8.867  1.00  0.00    -0.269 OA
ENDBRANCH   1   4
BRANCH   1   7
HETATM    7  C10 UNL     1      -3.142 -18.278  -7.312  1.00  0.00    -0.001 A 
HETATM    8  C11 UNL     1      -2.188 -17.402  -7.681  1.00  0.00     0.014 A 
HETATM    9  C12 UNL     1      -0.995 -17.231  -6.951  1.00  0.00     0.003 A 
HETATM   10  C13 UNL     1      -0.768 -17.968  -5.819  1.00  0.00     0.036 A 
HETATM   11  C14 UNL     1      -1.728 -18.869  -5.422  1.00  0.00     0.103 A 
HETATM   12  C15 UNL     1      -2.881 -19.017  -6.150  1.00  0.00     0.050 A 
BRANCH  11  13
HETATM   13  N4  UNL     1      -1.507 -19.637  -4.256  1.00  0.00    -0.116 N 
HETATM   14  O3  UNL     1      -0.502 -19.407  -3.563  1.00  0.00    -0.532 OA
HETATM   15  O4  UNL     1      -2.363 -20.619  -3.870  1.00  0.00    -0.532 OA
ENDBRANCH  11  13
ENDBRANCH   1   7
BRANCH   2  16
HETATM   16  N3  UNL     1      -6.241 -17.402  -9.065  1.00  0.00    -0.265 N 
HETATM   17  C3  UNL     1      -6.314 -17.322 -10.511  1.00  0.00     0.271 C 
HETATM   18  O2  UNL     1      -5.213 -17.349 -11.112  1.00  0.00    -0.266 OA
ATOM     19  H3  UNL     1      -7.107 -17.386  -8.526  1.00  0.00     0.190 HD
BRANCH  17  20
HETATM   20  C4  UNL     1      -7.515 -17.215 -11.271  1.00  0.00     0.055 A 
HETATM   21  C5  UNL     1      -7.822 -15.987 -11.833  1.00  0.00     0.019 A 
HETATM   22  C6  UNL     1      -8.970 -15.790 -12.568  1.00  0.00     0.001 A 
HETATM   23  C7  UNL     1      -9.848 -16.836 -12.759  1.00  0.00     0.002 A 
HETATM   24  C8  UNL     1      -9.562 -18.080 -12.206  1.00  0.00     0.025 A 
HETATM   25  C9  UNL     1      -8.386 -18.250 -11.463  1.00  0.00     0.049 A 
HETATM   26 CL1  UNL     1      -8.012 -19.811 -10.786  1.00  0.00    -0.083 Cl
ENDBRANCH  17  20
ENDBRANCH   2  16
TORSDOF 5
ENDMDL
MODEL 2
REMARK VINA RESULT: -8.069718606      3.260      8.381
REMARK  5 active torsions:
REMARK  status: ('A' for Active; 'I' for Inactive)
REMARK    1  A    between atoms: C1_2  and  C2_4 
REMARK    2  A    between atoms: C2_4  and  C10_18 
REMARK    3  A    between atoms: N2_5  and  N3_7 
REMARK       I    between atoms: N3_7  and  C3_9 
REMARK    4  A    between atoms: C3_9  and  C4_11 
REMARK    5  A    between atoms: C14_22  and  N4_23 
ROOT
HETATM    1  C2  UNL     1      -6.724 -17.256 -11.292  1.00  0.00     0.123 C 
HETATM    2  N2  UNL     1      -5.895 -16.365 -10.892  1.00  0.00    -0.292 N 
ATOM      3  H2  UNL     1      -6.225 -15.404 -10.993  1.00  0.00     0.187 HD
ENDROOT
BRANCH   1   4
HETATM    4  C1  UNL     1      -6.436 -18.665 -11.228  1.00  0.00     0.283 C 
HETATM    5  N1  UNL     1      -6.448 -19.322  -9.939  1.00  0.00    -0.056 NA
HETATM    6  O1  UNL     1      -6.166 -19.427 -12.171  1.00  0.00    -0.269 OA
ENDBRANCH   1   4
BRANCH   1   7
HETATM    7  C10 UNL     1      -8.011 -16.792 -11.832  1.00  0.00    -0.001 A 
HETATM    8  C11 UNL     1      -9.094 -17.558 -12.067  1.00  0.00     0.014 A 
HETATM    9  C12 UNL     1     -10.293 -17.034 -12.588  1.00  0.00     0.003 A 
HETATM   10  C13 UNL     1     -10.394 -15.699 -12.877  1.00  0.00     0.036 A 
HETATM   11  C14 UNL     1      -9.301 -14.896 -12.646  1.00  0.00     0.103 A 
HETATM   12  C15 UNL     1      -8.145 -15.431 -12.138  1.00  0.00     0.050 A 
BRANCH  11  13
HETATM   13  N4  UNL     1      -9.390 -13.516 -12.940  1.00  0.00    -0.116 N 
HETATM   14  O3  UNL     1      -8.503 -12.987 -13.629  1.00  0.00    -0.532 OA
HETATM   15  O4  UNL     1     -10.420 -12.751 -12.492  1.00  0.00    -0.532 OA
ENDBRANCH  11  13
ENDBRANCH   1   7
BRANCH   2  16
HETATM   16  N3  UNL     1      -4.667 -16.480 -10.362  1.00  0.00    -0.265 N 
HETATM   17  C3  UNL     1      -4.440 -16.490  -8.929  1.00  0.00     0.271 C 
HETATM   18  O2  UNL     1      -5.468 -16.387  -8.217  1.00  0.00    -0.266 OA
ATOM     19  H3  UNL     1      -3.866 -16.563 -10.989  1.00  0.00     0.190 HD
BRANCH  17  20
HETATM   20  C4  UNL     1      -3.168 -16.602  -8.297  1.00  0.00     0.055 A 
HETATM   21  C5  UNL     1      -2.337 -15.495  -8.306  1.00  0.00     0.019 A 
HETATM   22  C6  UNL     1      -1.085 -15.520  -7.733  1.00  0.00     0.001 A 
HETATM   23  C7  UNL     1      -0.631 -16.675  -7.130  1.00  0.00     0.002 A 
HETATM   24  C8  UNL     1      -1.448 -17.802  -7.108  1.00  0.00     0.025 A 
HETATM   25  C9  UNL     1      -2.717 -17.745  -7.698  1.00  0.00     0.049 A 
HETATM   26 CL1  UNL     1      -3.751 -19.146  -7.654  1.00  0.00    -0.083 Cl
ENDBRANCH  17  20
ENDBRANCH   2  16
TORSDOF 5
ENDMDL
MODEL 3
REMARK VINA RESULT: -7.881643158      3.810      6.650
REMARK  5 active torsions:
REMARK  status: ('A' for Active; 'I' for Inactive)
REMARK    1  A    between atoms: C1_2  and  C2_4 
REMARK    2  A    between atoms: C2_4  and  C10_18 
REMARK    3  A    between atoms: N2_5  and  N3_7 
REMARK       I    between atoms: N3_7  and  C3_9 
REMARK    4  A    between atoms: C3_9  and  C4_11 
REMARK    5  A    between atoms: C14_22  and  N4_23 
ROOT
HETATM    1  C2  UNL     1      -2.832 -19.456  -6.184  1.00  0.00     0.123 C 
HETATM    2  N2  UNL     1      -3.694 -20.205  -6.765  1.00  0.00    -0.292 N 
ATOM      3  H2  UNL     1      -4.074 -19.820  -7.630  1.00  0.00     0.187 HD
ENDROOT
BRANCH   1   4
HETATM    4  C1  UNL     1      -2.187 -19.831  -4.952  1.00  0.00     0.283 C 
HETATM    5  N1  UNL     1      -3.006 -20.226  -3.828  1.00  0.00    -0.056 NA
HETATM    6  O1  UNL     1      -0.968 -19.861  -4.714  1.00  0.00    -0.269 OA
ENDBRANCH   1   4
BRANCH   1   7
HETATM    7  C10 UNL     1      -2.509 -18.171  -6.823  1.00  0.00    -0.001 A 
HETATM    8  C11 UNL     1      -1.369 -17.472  -6.664  1.00  0.00     0.014 A 
HETATM    9  C12 UNL     1      -1.136 -16.245  -7.315  1.00  0.00     0.003 A 
HETATM   10  C13 UNL     1      -2.087 -15.715  -8.147  1.00  0.00     0.036 A 
HETATM   11  C14 UNL     1      -3.260 -16.411  -8.326  1.00  0.00     0.103 A 
HETATM   12  C15 UNL     1      -3.462 -17.604  -7.680  1.00  0.00     0.050 A 
BRANCH  11  13
HETATM   13  N4  UNL     1      -4.251 -15.876  -9.181  1.00  0.00    -0.116 N 
HETATM   14  O3  UNL     1      -4.054 -14.773  -9.718  1.00  0.00    -0.532 OA
HETATM   15  O4  UNL     1      -5.412 -16.535  -9.434  1.00  0.00    -0.532 OA
ENDBRANCH  11  13
ENDBRANCH   1   7
BRANCH   2  16
HETATM   16  N3  UNL     1      -4.183 -21.409  -6.428  1.00  0.00    -0.265 N 
HETATM   17  C3  UNL     1      -4.348 -22.476  -7.397  1.00  0.00     0.271 C 
HETATM   18  O2  UNL     1      -4.001 -22.200  -8.571  1.00  0.00    -0.266 OA
ATOM     19  H3  UNL     1      -4.447 -21.579  -5.457  1.00  0.00     0.190 HD
BRANCH  17  20
HETATM   20  C4  UNL     1      -4.864 -23.774  -7.113  1.00  0.00     0.055 A 
HETATM   21  C5  UNL     1      -4.131 -24.598  -6.277  1.00  0.00     0.019 A 
HETATM   22  C6  UNL     1      -4.548 -25.873  -5.964  1.00  0.00     0.001 A 
HETATM   23  C7  UNL     1      -5.728 -26.356  -6.490  1.00  0.00     0.002 A 
HETATM   24  C8  UNL     1      -6.484 -25.546  -7.332  1.00  0.00     0.025 A 
HETATM   25  C9  UNL     1      -6.034 -24.254  -7.633  1.00  0.00     0.049 A 
HETATM   26 CL1  UNL     1      -6.987 -23.229  -8.669  1.00  0.00    -0.083 Cl
ENDBRANCH  17  20
ENDBRANCH   2  16
TORSDOF 5
ENDMDL
MODEL 4
REMARK VINA RESULT: -7.767182352      3.058      4.501
REMARK  5 active torsions:
REMARK  status: ('A' for Active; 'I' for Inactive)
REMARK    1  A    between atoms: C1_2  and  C2_4 
REMARK    2  A    between atoms: C2_4  and  C10_18 
REMARK    3  A    between atoms: N2_5  and  N3_7 
REMARK       I    between atoms: N3_7  and  C3_9 
REMARK    4  A    between atoms: C3_9  and  C4_11 
REMARK    5  A    between atoms: C14_22  and  N4_23 
ROOT
HETATM    1  C2  UNL     1      -4.263 -19.039  -7.956  1.00  0.00     0.123 C 
HETATM    2  N2  UNL     1      -4.255 -20.247  -8.382  1.00  0.00    -0.292 N 
ATOM      3  H2  UNL     1      -3.380 -20.747  -8.220  1.00  0.00     0.187 HD
ENDROOT
BRANCH   1   4
HETATM    4  C1  UNL     1      -5.409 -18.178  -8.093  1.00  0.00     0.283 C 
HETATM    5  N1  UNL     1      -6.724 -18.720  -7.832  1.00  0.00    -0.056 NA
HETATM    6  O1  UNL     1      -5.421 -16.979  -8.421  1.00  0.00    -0.269 OA
ENDBRANCH   1   4
BRANCH   1   7
HETATM    7  C10 UNL     1      -3.041 -18.541  -7.305  1.00  0.00    -0.001 A 
HETATM    8  C11 UNL     1      -2.178 -17.644  -7.820  1.00  0.00     0.014 A 
HETATM    9  C12 UNL     1      -1.027 -17.218  -7.129  1.00  0.00     0.003 A 
HETATM   10  C13 UNL     1      -0.747 -17.715  -5.884  1.00  0.00     0.036 A 
HETATM   11  C14 UNL     1      -1.614 -18.632  -5.336  1.00  0.00     0.103 A 
HETATM   12  C15 UNL     1      -2.728 -19.032  -6.030  1.00  0.00     0.050 A 
BRANCH  11  13
HETATM   13  N4  UNL     1      -1.337 -19.155  -4.052  1.00  0.00    -0.116 N 
HETATM   14  O3  UNL     1      -1.724 -20.301  -3.770  1.00  0.00    -0.532 OA
HETATM   15  O4  UNL     1      -0.657 -18.440  -3.118  1.00  0.00    -0.532 OA
ENDBRANCH  11  13
ENDBRANCH   1   7
BRANCH   2  16
HETATM   16  N3  UNL     1      -5.201 -20.967  -9.005  1.00  0.00    -0.265 N 
HETATM   17  C3  UNL     1      -5.404 -22.378  -8.735  1.00  0.00     0.271 C 
HETATM   18  O2  UNL     1      -4.638 -22.881  -7.879  1.00  0.00    -0.266 OA
ATOM     19  H3  UNL     1      -5.798 -20.505  -9.692  1.00  0.00     0.190 HD
BRANCH  17  20
HETATM   20  C4  UNL     1      -6.382 -23.204  -9.361  1.00  0.00     0.055 A 
HETATM   21  C5  UNL     1      -5.952 -24.116 -10.310  1.00  0.00     0.019 A 
HETATM   22  C6  UNL     1      -6.831 -24.942 -10.975  1.00  0.00     0.001 A 
HETATM   23  C7  UNL     1      -8.180 -24.871 -10.699  1.00  0.00     0.002 A 
HETATM   24  C8  UNL     1      -8.637 -23.962  -9.749  1.00  0.00     0.025 A 
HETATM   25  C9  UNL     1      -7.719 -23.135  -9.088  1.00  0.00     0.049 A 
HETATM   26 CL1  UNL     1      -8.284 -22.012  -7.883  1.00  0.00    -0.083 Cl
ENDBRANCH  17  20
ENDBRANCH   2  16
TORSDOF 5
ENDMDL
MODEL 5
REMARK VINA RESULT: -7.732483712      1.106      1.521
REMARK  5 active torsions:
REMARK  status: ('A' for Active; 'I' for Inactive)
REMARK    1  A    between atoms: C1_2  and  C2_4 
REMARK    2  A    between atoms: C2_4  and  C10_18 
REMARK    3  A    between atoms: N2_5  and  N3_7 
REMARK       I    between atoms: N3_7  and  C3_9 
REMARK    4  A    between atoms: C3_9  and  C4_11 
REMARK    5  A    between atoms: C14_22  and  N4_23 
ROOT
HETATM    1  C2  UNL     1      -4.426 -18.818  -8.037  1.00  0.00     0.123 C 
HETATM    2  N2  UNL     1      -5.216 -17.914  -8.485  1.00  0.00    -0.292 N 
ATOM      3  H2  UNL     1      -4.887 -16.958  -8.349  1.00  0.00     0.187 HD
ENDROOT
BRANCH   1   4
HETATM    4  C1  UNL     1      -4.721 -20.224  -8.138  1.00  0.00     0.283 C 
HETATM    5  N1  UNL     1      -5.933 -20.727  -7.530  1.00  0.00    -0.056 NA
HETATM    6  O1  UNL     1      -4.046 -21.101  -8.701  1.00  0.00    -0.269 OA
ENDBRANCH   1   4
BRANCH   1   7
HETATM    7  C10 UNL     1      -3.178 -18.372  -7.399  1.00  0.00    -0.001 A 
HETATM    8  C11 UNL     1      -2.330 -17.443  -7.880  1.00  0.00     0.014 A 
HETATM    9  C12 UNL     1      -1.151 -17.072  -7.205  1.00  0.00     0.003 A 
HETATM   10  C13 UNL     1      -0.825 -17.660  -6.012  1.00  0.00     0.036 A 
HETATM   11  C14 UNL     1      -1.676 -18.612  -5.499  1.00  0.00     0.103 A 
HETATM   12  C15 UNL     1      -2.818 -18.956  -6.177  1.00  0.00     0.050 A 
BRANCH  11  13
HETATM   13  N4  UNL     1      -1.352 -19.228  -4.269  1.00  0.00    -0.116 N 
HETATM   14  O3  UNL     1      -0.507 -18.697  -3.531  1.00  0.00    -0.532 OA
HETATM   15  O4  UNL     1      -1.941 -20.386  -3.870  1.00  0.00    -0.532 OA
ENDBRANCH  11  13
ENDBRANCH   1   7
BRANCH   2  16
HETATM   16  N3  UNL     1      -6.404 -18.012  -9.104  1.00  0.00    -0.265 N 
HETATM   17  C3  UNL     1      -6.530 -17.964 -10.548  1.00  0.00     0.271 C 
HETATM   18  O2  UNL     1      -5.456 -17.826 -11.182  1.00  0.00    -0.266 OA
ATOM     19  H3  UNL     1      -7.246 -18.125  -8.539  1.00  0.00     0.190 HD
BRANCH  17  20
HETATM   20  C4  UNL     1      -7.754 -18.054 -11.272  1.00  0.00     0.055 A 
HETATM   21  C5  UNL     1      -8.350 -19.299 -11.391  1.00  0.00     0.019 A 
HETATM   22  C6  UNL     1      -9.525 -19.479 -12.086  1.00  0.00     0.001 A 
HETATM   23  C7  UNL     1     -10.138 -18.399 -12.686  1.00  0.00     0.002 A 
HETATM   24  C8  UNL     1      -9.560 -17.138 -12.580  1.00  0.00     0.025 A 
HETATM   25  C9  UNL     1      -8.364 -16.985 -11.866  1.00  0.00     0.049 A 
HETATM   26 CL1  UNL     1      -7.648 -15.405 -11.712  1.00  0.00    -0.083 Cl
ENDBRANCH  17  20
ENDBRANCH   2  16
TORSDOF 5
ENDMDL
