MODEL 1
REMARK VINA RESULT: -7.679669477      0.000      0.000
REMARK  7 active torsions:
REMARK  status: ('A' for Active; 'I' for Inactive)
REMARK    1  A    between atoms: C1_2  and  C2_3 
REMARK       I    between atoms: C1_2  and  N1_15 
REMARK    2  A    between atoms: C2_3  and  O2_4 
REMARK    3  A    between atoms: O2_4  and  C3_5 
REMARK    4  A    between atoms: C3_5  and  C4_7 
REMARK    5  A    between atoms: C4_7  and  C5_8 
REMARK    6  A    between atoms: N1_15  and  N2_17 
REMARK       I    between atoms: N2_17  and  C11_19 
REMARK    7  A    between atoms: C11_19  and  C12_21 
ROOT
HETATM    1  O1  UNL     1      -3.195 -22.469  -5.733  1.00  0.00    -0.269 OA
HETATM    2  C1  UNL     1      -3.906 -21.544  -5.291  1.00  0.00     0.260 C 
HETATM    3  N1  UNL     1      -5.223 -21.426  -5.796  1.00  0.00    -0.265 N 
ATOM      4  H1  UNL     1      -5.816 -20.677  -5.440  1.00  0.00     0.190 HD
ENDROOT
BRANCH   2   5
HETATM    5  C2  UNL     1      -3.354 -20.622  -4.274  1.00  0.00     0.283 C 
BRANCH   5   6
HETATM    6  O2  UNL     1      -2.044 -20.236  -4.623  1.00  0.00    -0.312 OA
BRANCH   6   7
HETATM    7  C3  UNL     1      -1.681 -18.888  -4.598  1.00  0.00     0.263 C 
HETATM    8  O3  UNL     1      -1.941 -18.220  -3.579  1.00  0.00    -0.265 OA
BRANCH   7   9
HETATM    9  C4  UNL     1      -1.003 -18.320  -5.781  1.00  0.00     0.149 C 
BRANCH   9  10
HETATM   10  C5  UNL     1      -1.907 -17.609  -6.690  1.00  0.00    -0.049 A 
HETATM   11  C6  UNL     1      -3.209 -18.000  -6.880  1.00  0.00     0.009 A 
HETATM   12  C7  UNL     1      -4.033 -17.314  -7.739  1.00  0.00     0.024 A 
HETATM   13  C8  UNL     1      -3.577 -16.217  -8.432  1.00  0.00     0.034 A 
HETATM   14 CL1  UNL     1      -4.630 -15.343  -9.521  1.00  0.00    -0.084 Cl
HETATM   15  C9  UNL     1      -2.271 -15.826  -8.240  1.00  0.00     0.024 A 
HETATM   16  C10 UNL     1      -1.449 -16.511  -7.383  1.00  0.00     0.009 A 
ENDBRANCH   9  10
ENDBRANCH   7   9
ENDBRANCH   6   7
ENDBRANCH   5   6
ENDBRANCH   2   5
BRANCH   3  17
HETATM   17  N2  UNL     1      -5.748 -22.291  -6.760  1.00  0.00    -0.263 N 
HETATM   18  C11 UNL     1      -5.671 -21.944  -8.121  1.00  0.00     0.277 C 
HETATM   19  O4  UNL     1      -5.129 -20.852  -8.459  1.00  0.00    -0.265 OA
ATOM     20  H2  UNL     1      -6.183 -23.168  -6.478  1.00  0.00     0.190 HD
BRANCH  18  21
HETATM   21  C12 UNL     1      -6.193 -22.791  -9.188  1.00  0.00     0.074 A 
HETATM   22  C13 UNL     1      -6.000 -24.122  -9.448  1.00  0.00     0.025 A 
HETATM   23  C14 UNL     1      -6.610 -24.640 -10.516  1.00  0.00     0.009 A 
HETATM   24  C15 UNL     1      -7.384 -23.807 -11.277  1.00  0.00     0.050 A 
HETATM   25  S1  UNL     1      -7.235 -22.313 -10.466  1.00  0.00    -0.097 SA
ENDBRANCH  18  21
ENDBRANCH   3  17
TORSDOF 7
ENDMDL
MODEL 2
REMARK VINA RESULT: -7.662770595      1.134      1.611
REMARK  7 active torsions:
REMARK  status: ('A' for Active; 'I' for Inactive)
REMARK    1  A    between atoms: C1_2  and  C2_3 
REMARK       I    between atoms: C1_2  and  N1_15 
REMARK    2  A    between atoms: C2_3  and  O2_4 
REMARK    3  A    between atoms: O2_4  and  C3_5 
REMARK    4  A    between atoms: C3_5  and  C4_7 
REMARK    5  A    between atoms: C4_7  and  C5_8 
REMARK    6  A    between atoms: N1_15  and  N2_17 
REMARK       I    between atoms: N2_17  and  C11_19 
REMARK    7  A    between atoms: C11_19  and  C12_21 
ROOT
HETATM    1  O1  UNL     1      -4.939 -20.891  -5.237  1.00  0.00    -0.269 OA
HETATM    2  C1  UNL     1      -3.797 -21.393  -5.260  1.00  0.00     0.260 C 
HETATM    3  N1  UNL     1      -3.516 -22.346  -6.268  1.00  0.00    -0.265 N 
ATOM      4  H1  UNL     1      -2.584 -22.761  -6.300  1.00  0.00     0.190 HD
ENDROOT
BRANCH   2   5
HETATM    5  C2  UNL     1      -2.800 -20.979  -4.248  1.00  0.00     0.283 C 
BRANCH   5   6
HETATM    6  O2  UNL     1      -2.949 -19.611  -3.944  1.00  0.00    -0.312 OA
BRANCH   6   7
HETATM    7  C3  UNL     1      -1.909 -18.718  -4.209  1.00  0.00     0.263 C 
HETATM    8  O3  UNL     1      -1.526 -17.962  -3.296  1.00  0.00    -0.265 OA
BRANCH   7   9
HETATM    9  C4  UNL     1      -1.311 -18.715  -5.560  1.00  0.00     0.149 C 
BRANCH   9  10
HETATM   10  C5  UNL     1      -2.027 -17.865  -6.517  1.00  0.00    -0.049 A 
HETATM   11  C6  UNL     1      -1.412 -16.832  -7.180  1.00  0.00     0.009 A 
HETATM   12  C7  UNL     1      -2.110 -16.052  -8.071  1.00  0.00     0.024 A 
HETATM   13  C8  UNL     1      -3.442 -16.285  -8.324  1.00  0.00     0.034 A 
HETATM   14 CL1  UNL     1      -4.325 -15.294  -9.462  1.00  0.00    -0.084 Cl
HETATM   15  C9  UNL     1      -4.056 -17.321  -7.657  1.00  0.00     0.024 A 
HETATM   16  C10 UNL     1      -3.360 -18.099  -6.768  1.00  0.00     0.009 A 
ENDBRANCH   9  10
ENDBRANCH   7   9
ENDBRANCH   6   7
ENDBRANCH   5   6
ENDBRANCH   2   5
BRANCH   3  17
HETATM   17  N2  UNL     1      -4.456 -22.743  -7.221  1.00  0.00    -0.263 N 
HETATM   18  C11 UNL     1      -4.538 -22.056  -8.446  1.00  0.00     0.277 C 
HETATM   19  O4  UNL     1      -3.760 -21.084  -8.672  1.00  0.00    -0.265 OA
ATOM     20  H2  UNL     1      -5.079 -23.528  -7.031  1.00  0.00     0.190 HD
BRANCH  18  21
HETATM   21  C12 UNL     1      -5.490 -22.409  -9.494  1.00  0.00     0.074 A 
HETATM   22  C13 UNL     1      -6.070 -21.642 -10.468  1.00  0.00     0.025 A 
HETATM   23  C14 UNL     1      -6.924 -22.239 -11.303  1.00  0.00     0.009 A 
HETATM   24  C15 UNL     1      -7.158 -23.576 -11.127  1.00  0.00     0.050 A 
HETATM   25  S1  UNL     1      -6.169 -23.958  -9.790  1.00  0.00    -0.097 SA
ENDBRANCH  18  21
ENDBRANCH   3  17
TORSDOF 7
ENDMDL
MODEL 3
REMARK VINA RESULT: -7.632928269      1.065      1.208
REMARK  7 active torsions:
REMARK  status: ('A' for Active; 'I' for Inactive)
REMARK    1  A    between atoms: C1_2  and  C2_3 
REMARK       I    between atoms: C1_2  and  N1_15 
REMARK    2  A    between atoms: C2_3  and  O2_4 
REMARK    3  A    between atoms: O2_4  and  C3_5 
REMARK    4  A    between atoms: C3_5  and  C4_7 
REMARK    5  A    between atoms: C4_7  and  C5_8 
REMARK    6  A    between atoms: N1_15  and  N2_17 
REMARK       I    between atoms: N2_17  and  C11_19 
REMARK    7  A    between atoms: C11_19  and  C12_21 
ROOT
HETATM    1  O1  UNL     1      -5.030 -20.889  -5.313  1.00  0.00    -0.269 OA
HETATM    2  C1  UNL     1      -3.877 -21.365  -5.305  1.00  0.00     0.260 C 
HETATM    3  N1  UNL     1      -3.558 -22.337  -6.282  1.00  0.00    -0.265 N 
ATOM      4  H1  UNL     1      -2.617 -22.731  -6.289  1.00  0.00     0.190 HD
ENDROOT
BRANCH   2   5
HETATM    5  C2  UNL     1      -2.905 -20.900  -4.290  1.00  0.00     0.283 C 
BRANCH   5   6
HETATM    6  O2  UNL     1      -1.835 -20.223  -4.910  1.00  0.00    -0.312 OA
BRANCH   6   7
HETATM    7  C3  UNL     1      -1.632 -18.864  -4.665  1.00  0.00     0.263 C 
HETATM    8  O3  UNL     1      -2.005 -18.392  -3.575  1.00  0.00    -0.265 OA
BRANCH   7   9
HETATM    9  C4  UNL     1      -0.979 -18.050  -5.712  1.00  0.00     0.149 C 
BRANCH   9  10
HETATM   10  C5  UNL     1      -1.923 -17.438  -6.652  1.00  0.00    -0.049 A 
HETATM   11  C6  UNL     1      -3.220 -17.870  -6.772  1.00  0.00     0.009 A 
HETATM   12  C7  UNL     1      -4.081 -17.276  -7.663  1.00  0.00     0.024 A 
HETATM   13  C8  UNL     1      -3.669 -16.233  -8.458  1.00  0.00     0.034 A 
HETATM   14 CL1  UNL     1      -4.770 -15.476  -9.587  1.00  0.00    -0.084 Cl
HETATM   15  C9  UNL     1      -2.367 -15.801  -8.337  1.00  0.00     0.024 A 
HETATM   16  C10 UNL     1      -1.508 -16.394  -7.448  1.00  0.00     0.009 A 
ENDBRANCH   9  10
ENDBRANCH   7   9
ENDBRANCH   6   7
ENDBRANCH   5   6
ENDBRANCH   2   5
BRANCH   3  17
HETATM   17  N2  UNL     1      -4.473 -22.782  -7.239  1.00  0.00    -0.263 N 
HETATM   18  C11 UNL     1      -4.591 -22.096  -8.461  1.00  0.00     0.277 C 
HETATM   19  O4  UNL     1      -3.869 -21.081  -8.682  1.00  0.00    -0.265 OA
ATOM     20  H2  UNL     1      -5.052 -23.600  -7.052  1.00  0.00     0.190 HD
BRANCH  18  21
HETATM   21  C12 UNL     1      -5.521 -22.497  -9.511  1.00  0.00     0.074 A 
HETATM   22  C13 UNL     1      -6.099 -21.770 -10.518  1.00  0.00     0.025 A 
HETATM   23  C14 UNL     1      -6.930 -22.407 -11.346  1.00  0.00     0.009 A 
HETATM   24  C15 UNL     1      -7.146 -23.741 -11.132  1.00  0.00     0.050 A 
HETATM   25  S1  UNL     1      -6.171 -24.065  -9.769  1.00  0.00    -0.097 SA
ENDBRANCH  18  21
ENDBRANCH   3  17
TORSDOF 7
ENDMDL
MODEL 4
REMARK VINA RESULT: -7.581351006      2.519      2.982
REMARK  7 active torsions:
REMARK  status: ('A' for Active; 'I' for Inactive)
REMARK    1  A    between atoms: C1_2  and  C2_3 
REMARK       I    between atoms: C1_2  and  N1_15 
REMARK    2  A    between atoms: C2_3  and  O2_4 
REMARK    3  A    between atoms: O2_4  and  C3_5 
REMARK    4  A    between atoms: C3_5  and  C4_7 
REMARK    5  A    between atoms: C4_7  and  C5_8 
REMARK    6  A    between atoms: N1_15  and  N2_17 
REMARK       I    between atoms: N2_17  and  C11_19 
REMARK    7  A    between atoms: C11_19  and  C12_21 
ROOT
HETATM    1  O1  UNL     1      -5.648 -21.007  -6.170  1.00  0.00    -0.269 OA
HETATM    2  C1  UNL     1      -4.470 -21.188  -6.540  1.00  0.00     0.260 C 
HETATM    3  N1  UNL     1      -4.045 -20.543  -7.725  1.00  0.00    -0.265 N 
ATOM      4  H1  UNL     1      -3.083 -20.680  -8.036  1.00  0.00     0.190 HD
ENDROOT
BRANCH   2   5
HETATM    5  C2  UNL     1      -3.581 -22.056  -5.737  1.00  0.00     0.283 C 
BRANCH   5   6
HETATM    6  O2  UNL     1      -2.436 -21.341  -5.329  1.00  0.00    -0.312 OA
BRANCH   6   7
HETATM    7  C3  UNL     1      -2.541 -20.353  -4.348  1.00  0.00     0.263 C 
HETATM    8  O3  UNL     1      -3.399 -20.488  -3.455  1.00  0.00    -0.265 OA
BRANCH   7   9
HETATM    9  C4  UNL     1      -1.626 -19.195  -4.416  1.00  0.00     0.149 C 
BRANCH   9  10
HETATM   10  C5  UNL     1      -1.956 -18.248  -5.485  1.00  0.00    -0.049 A 
HETATM   11  C6  UNL     1      -3.227 -17.761  -5.663  1.00  0.00     0.009 A 
HETATM   12  C7  UNL     1      -3.506 -16.874  -6.676  1.00  0.00     0.024 A 
HETATM   13  C8  UNL     1      -2.521 -16.450  -7.537  1.00  0.00     0.034 A 
HETATM   14 CL1  UNL     1      -2.879 -15.318  -8.821  1.00  0.00    -0.084 Cl
HETATM   15  C9  UNL     1      -1.247 -16.940  -7.357  1.00  0.00     0.024 A 
HETATM   16  C10 UNL     1      -0.969 -17.825  -6.347  1.00  0.00     0.009 A 
ENDBRANCH   9  10
ENDBRANCH   7   9
ENDBRANCH   6   7
ENDBRANCH   5   6
ENDBRANCH   2   5
BRANCH   3  17
HETATM   17  N2  UNL     1      -4.882 -19.727  -8.489  1.00  0.00    -0.263 N 
HETATM   18  C11 UNL     1      -5.573 -20.272  -9.586  1.00  0.00     0.277 C 
HETATM   19  O4  UNL     1      -5.429 -21.496  -9.872  1.00  0.00    -0.265 OA
ATOM     20  H2  UNL     1      -4.992 -18.741  -8.252  1.00  0.00     0.190 HD
BRANCH  18  21
HETATM   21  C12 UNL     1      -6.467 -19.489 -10.432  1.00  0.00     0.074 A 
HETATM   22  C13 UNL     1      -7.360 -18.500 -10.114  1.00  0.00     0.025 A 
HETATM   23  C14 UNL     1      -8.061 -17.953 -11.110  1.00  0.00     0.009 A 
HETATM   24  C15 UNL     1      -7.837 -18.416 -12.378  1.00  0.00     0.050 A 
HETATM   25  S1  UNL     1      -6.644 -19.612 -12.136  1.00  0.00    -0.097 SA
ENDBRANCH  18  21
ENDBRANCH   3  17
TORSDOF 7
ENDMDL
MODEL 5
REMARK VINA RESULT: -7.399531542      3.247      4.449
REMARK  7 active torsions:
REMARK  status: ('A' for Active; 'I' for Inactive)
REMARK    1  A    between atoms: C1_2  and  C2_3 
REMARK       I    between atoms: C1_2  and  N1_15 
REMARK    2  A    between atoms: C2_3  and  O2_4 
REMARK    3  A    between atoms: O2_4  and  C3_5 
REMARK    4  A    between atoms: C3_5  and  C4_7 
REMARK    5  A    between atoms: C4_7  and  C5_8 
REMARK    6  A    between atoms: N1_15  and  N2_17 
REMARK       I    between atoms: N2_17  and  C11_19 
REMARK    7  A    between atoms: C11_19  and  C12_21 
ROOT
HETATM    1  O1  UNL     1      -6.652 -18.827  -7.691  1.00  0.00    -0.269 OA
HETATM    2  C1  UNL     1      -5.644 -18.527  -8.363  1.00  0.00     0.260 C 
HETATM    3  N1  UNL     1      -4.517 -19.379  -8.277  1.00  0.00    -0.265 N 
ATOM      4  H1  UNL     1      -3.688 -19.147  -8.824  1.00  0.00     0.190 HD
ENDROOT
BRANCH   2   5
HETATM    5  C2  UNL     1      -5.667 -17.313  -9.208  1.00  0.00     0.283 C 
BRANCH   5   6
HETATM    6  O2  UNL     1      -4.359 -16.965  -9.601  1.00  0.00    -0.312 OA
BRANCH   6   7
HETATM    7  C3  UNL     1      -3.884 -15.669  -9.385  1.00  0.00     0.263 C 
HETATM    8  O3  UNL     1      -4.536 -14.712  -9.843  1.00  0.00    -0.265 OA
BRANCH   7   9
HETATM    9  C4  UNL     1      -2.633 -15.497  -8.619  1.00  0.00     0.149 C 
BRANCH   9  10
HETATM   10  C5  UNL     1      -2.507 -16.418  -7.485  1.00  0.00    -0.049 A 
HETATM   11  C6  UNL     1      -3.347 -16.360  -6.401  1.00  0.00     0.009 A 
HETATM   12  C7  UNL     1      -3.205 -17.238  -5.352  1.00  0.00     0.024 A 
HETATM   13  C8  UNL     1      -2.219 -18.197  -5.360  1.00  0.00     0.034 A 
HETATM   14 CL1  UNL     1      -2.045 -19.315  -4.026  1.00  0.00    -0.084 Cl
HETATM   15  C9  UNL     1      -1.379 -18.253  -6.449  1.00  0.00     0.024 A 
HETATM   16  C10 UNL     1      -1.520 -17.378  -7.495  1.00  0.00     0.009 A 
ENDBRANCH   9  10
ENDBRANCH   7   9
ENDBRANCH   6   7
ENDBRANCH   5   6
ENDBRANCH   2   5
BRANCH   3  17
HETATM   17  N2  UNL     1      -4.489 -20.523  -7.476  1.00  0.00    -0.263 N 
HETATM   18  C11 UNL     1      -4.699 -21.785  -8.060  1.00  0.00     0.277 C 
HETATM   19  O4  UNL     1      -4.913 -21.873  -9.304  1.00  0.00    -0.265 OA
ATOM     20  H2  UNL     1      -4.317 -20.443  -6.475  1.00  0.00     0.190 HD
BRANCH  18  21
HETATM   21  C12 UNL     1      -4.684 -23.028  -7.294  1.00  0.00     0.074 A 
HETATM   22  C13 UNL     1      -4.070 -23.341  -6.111  1.00  0.00     0.025 A 
HETATM   23  C14 UNL     1      -4.228 -24.580  -5.639  1.00  0.00     0.009 A 
HETATM   24  C15 UNL     1      -4.992 -25.449  -6.369  1.00  0.00     0.050 A 
HETATM   25  S1  UNL     1      -5.470 -24.499  -7.702  1.00  0.00    -0.097 SA
ENDBRANCH  18  21
ENDBRANCH   3  17
TORSDOF 7
ENDMDL
