MODEL 1
REMARK VINA RESULT: -6.851202995      0.000      0.000
REMARK  7 active torsions:
REMARK  status: ('A' for Active; 'I' for Inactive)
REMARK    1  A    between atoms: C2_2  and  C3_3 
REMARK    2  A    between atoms: C2_2  and  N2_13 
REMARK    3  A    between atoms: C3_3  and  N1_4 
REMARK       I    between atoms: N1_4  and  C4_6 
REMARK    4  A    between atoms: C4_6  and  O2_8 
REMARK    5  A    between atoms: O2_8  and  C5_9 
REMARK    6  A    between atoms: N2_13  and  S1_15 
REMARK    7  A    between atoms: S1_15  and  C9_18 
ROOT
HETATM    1  C1  UNL     1      -1.240 -19.257  -4.239  1.00  0.00     0.034 C 
HETATM    2  C2  UNL     1      -2.329 -19.721  -5.242  1.00  0.00     0.107 C 
ENDROOT
BRANCH   2   3
HETATM    3  C3  UNL     1      -2.856 -20.992  -4.601  1.00  0.00     0.150 C 
BRANCH   3   4
HETATM    4  N1  UNL     1      -3.288 -22.020  -5.469  1.00  0.00    -0.335 N 
HETATM    5  C4  UNL     1      -4.628 -21.982  -5.945  1.00  0.00     0.361 C 
HETATM    6  O1  UNL     1      -5.438 -21.072  -5.620  1.00  0.00    -0.238 OA
ATOM      7  H1  UNL     1      -2.655 -22.770  -5.748  1.00  0.00     0.164 HD
BRANCH   5   8
HETATM    8  O2  UNL     1      -5.122 -22.955  -6.799  1.00  0.00    -0.294 OA
BRANCH   8   9
HETATM    9  C5  UNL     1      -5.569 -22.623  -8.104  1.00  0.00     0.061 C 
HETATM   10  C6  UNL     1      -6.925 -21.974  -8.095  1.00  0.00     0.046 C 
HETATM   11  C7  UNL     1      -4.558 -21.779  -8.848  1.00  0.00     0.046 C 
HETATM   12  C8  UNL     1      -5.706 -23.948  -8.851  1.00  0.00     0.046 C 
ENDBRANCH   8   9
ENDBRANCH   5   8
ENDBRANCH   3   4
ENDBRANCH   2   3
BRANCH   2  13
HETATM   13  N2  UNL     1      -3.336 -18.748  -5.431  1.00  0.00    -0.309 N 
ATOM     14  H2  UNL     1      -4.138 -18.724  -4.801  1.00  0.00     0.172 HD
BRANCH  13  15
HETATM   15  S1  UNL     1      -3.229 -17.647  -6.664  1.00  0.00     0.260 S 
HETATM   16  O3  UNL     1      -3.110 -16.227  -6.086  1.00  0.00    -0.200 OA
HETATM   17  O4  UNL     1      -1.878 -17.781  -7.420  1.00  0.00    -0.200 OA
BRANCH  15  18
HETATM   18  C9  UNL     1      -4.455 -17.603  -7.890  1.00  0.00     0.101 A 
HETATM   19  C10 UNL     1      -5.541 -18.419  -7.943  1.00  0.00     0.027 A 
HETATM   20  C11 UNL     1      -6.444 -18.313  -8.990  1.00  0.00     0.002 A 
HETATM   21  C12 UNL     1      -6.231 -17.379  -9.972  1.00  0.00     0.002 A 
HETATM   22  C13 UNL     1      -5.142 -16.539  -9.947  1.00  0.00     0.025 A 
HETATM   23  C14 UNL     1      -4.260 -16.653  -8.910  1.00  0.00     0.057 A 
HETATM   24 CL1  UNL     1      -2.879 -15.575  -8.898  1.00  0.00    -0.083 Cl
ENDBRANCH  15  18
ENDBRANCH  13  15
ENDBRANCH   2  13
TORSDOF 7
ENDMDL
MODEL 2
REMARK VINA RESULT: -6.806210588      2.880      4.982
REMARK  7 active torsions:
REMARK  status: ('A' for Active; 'I' for Inactive)
REMARK    1  A    between atoms: C2_2  and  C3_3 
REMARK    2  A    between atoms: C2_2  and  N2_13 
REMARK    3  A    between atoms: C3_3  and  N1_4 
REMARK       I    between atoms: N1_4  and  C4_6 
REMARK    4  A    between atoms: C4_6  and  O2_8 
REMARK    5  A    between atoms: O2_8  and  C5_9 
REMARK    6  A    between atoms: N2_13  and  S1_15 
REMARK    7  A    between atoms: S1_15  and  C9_18 
ROOT
HETATM    1  C1  UNL     1      -3.601 -22.965  -5.738  1.00  0.00     0.034 C 
HETATM    2  C2  UNL     1      -4.284 -21.574  -5.824  1.00  0.00     0.107 C 
ENDROOT
BRANCH   2   3
HETATM    3  C3  UNL     1      -3.499 -20.751  -4.819  1.00  0.00     0.150 C 
BRANCH   3   4
HETATM    4  N1  UNL     1      -3.248 -19.400  -5.148  1.00  0.00    -0.335 N 
HETATM    5  C4  UNL     1      -1.896 -18.964  -5.215  1.00  0.00     0.361 C 
HETATM    6  O1  UNL     1      -0.921 -19.732  -4.992  1.00  0.00    -0.238 OA
ATOM      7  H1  UNL     1      -4.016 -18.755  -5.332  1.00  0.00     0.164 HD
BRANCH   5   8
HETATM    8  O2  UNL     1      -1.572 -17.653  -5.532  1.00  0.00    -0.294 OA
BRANCH   8   9
HETATM    9  C5  UNL     1      -1.864 -17.119  -6.813  1.00  0.00     0.061 C 
HETATM   10  C6  UNL     1      -2.101 -18.191  -7.839  1.00  0.00     0.046 C 
HETATM   11  C7  UNL     1      -3.014 -16.137  -6.765  1.00  0.00     0.046 C 
HETATM   12  C8  UNL     1      -0.616 -16.348  -7.241  1.00  0.00     0.046 C 
ENDBRANCH   8   9
ENDBRANCH   5   8
ENDBRANCH   3   4
ENDBRANCH   2   3
BRANCH   2  13
HETATM   13  N2  UNL     1      -4.234 -21.031  -7.128  1.00  0.00    -0.309 N 
ATOM     14  H2  UNL     1      -3.404 -21.174  -7.703  1.00  0.00     0.172 HD
BRANCH  13  15
HETATM   15  S1  UNL     1      -5.511 -20.166  -7.734  1.00  0.00     0.260 S 
HETATM   16  O3  UNL     1      -6.825 -20.674  -7.117  1.00  0.00    -0.200 OA
HETATM   17  O4  UNL     1      -5.485 -18.697  -7.225  1.00  0.00    -0.200 OA
BRANCH  15  18
HETATM   18  C9  UNL     1      -5.751 -20.070  -9.449  1.00  0.00     0.101 A 
HETATM   19  C10 UNL     1      -5.790 -18.920 -10.172  1.00  0.00     0.027 A 
HETATM   20  C11 UNL     1      -6.018 -18.962 -11.540  1.00  0.00     0.002 A 
HETATM   21  C12 UNL     1      -6.205 -20.174 -12.155  1.00  0.00     0.002 A 
HETATM   22  C13 UNL     1      -6.171 -21.355 -11.451  1.00  0.00     0.025 A 
HETATM   23  C14 UNL     1      -5.945 -21.300 -10.105  1.00  0.00     0.057 A 
HETATM   24 CL1  UNL     1      -5.907 -22.815  -9.227  1.00  0.00    -0.083 Cl
ENDBRANCH  15  18
ENDBRANCH  13  15
ENDBRANCH   2  13
TORSDOF 7
ENDMDL
MODEL 3
REMARK VINA RESULT: -6.772281636      3.366      6.413
REMARK  7 active torsions:
REMARK  status: ('A' for Active; 'I' for Inactive)
REMARK    1  A    between atoms: C2_2  and  C3_3 
REMARK    2  A    between atoms: C2_2  and  N2_13 
REMARK    3  A    between atoms: C3_3  and  N1_4 
REMARK       I    between atoms: N1_4  and  C4_6 
REMARK    4  A    between atoms: C4_6  and  O2_8 
REMARK    5  A    between atoms: O2_8  and  C5_9 
REMARK    6  A    between atoms: N2_13  and  S1_15 
REMARK    7  A    between atoms: S1_15  and  C9_18 
ROOT
HETATM    1  C1  UNL     1      -7.295 -16.307 -11.752  1.00  0.00     0.034 C 
HETATM    2  C2  UNL     1      -6.266 -17.200 -11.010  1.00  0.00     0.107 C 
ENDROOT
BRANCH   2   3
HETATM    3  C3  UNL     1      -5.386 -16.184 -10.305  1.00  0.00     0.150 C 
BRANCH   3   4
HETATM    4  N1  UNL     1      -5.072 -16.435  -8.950  1.00  0.00    -0.335 N 
HETATM    5  C4  UNL     1      -3.832 -15.953  -8.446  1.00  0.00     0.361 C 
HETATM    6  O1  UNL     1      -3.009 -15.318  -9.159  1.00  0.00    -0.238 OA
ATOM      7  H1  UNL     1      -5.718 -16.947  -8.350  1.00  0.00     0.164 HD
BRANCH   5   8
HETATM    8  O2  UNL     1      -3.456 -16.160  -7.128  1.00  0.00    -0.294 OA
BRANCH   8   9
HETATM    9  C5  UNL     1      -2.652 -17.271  -6.764  1.00  0.00     0.061 C 
HETATM   10  C6  UNL     1      -3.059 -18.529  -7.479  1.00  0.00     0.046 C 
HETATM   11  C7  UNL     1      -1.178 -16.984  -6.946  1.00  0.00     0.046 C 
HETATM   12  C8  UNL     1      -2.898 -17.497  -5.273  1.00  0.00     0.046 C 
ENDBRANCH   8   9
ENDBRANCH   5   8
ENDBRANCH   3   4
ENDBRANCH   2   3
BRANCH   2  13
HETATM   13  N2  UNL     1      -6.885 -18.100 -10.113  1.00  0.00    -0.309 N 
ATOM     14  H2  UNL     1      -7.496 -17.741  -9.379  1.00  0.00     0.172 HD
BRANCH  13  15
HETATM   15  S1  UNL     1      -6.629 -19.732 -10.240  1.00  0.00     0.260 S 
HETATM   16  O3  UNL     1      -7.966 -20.451 -10.492  1.00  0.00    -0.200 OA
HETATM   17  O4  UNL     1      -5.849 -20.078 -11.539  1.00  0.00    -0.200 OA
BRANCH  15  18
HETATM   18  C9  UNL     1      -5.821 -20.580  -8.962  1.00  0.00     0.101 A 
HETATM   19  C10 UNL     1      -4.764 -21.419  -9.123  1.00  0.00     0.027 A 
HETATM   20  C11 UNL     1      -4.214 -22.069  -8.027  1.00  0.00     0.002 A 
HETATM   21  C12 UNL     1      -4.747 -21.857  -6.781  1.00  0.00     0.002 A 
HETATM   22  C13 UNL     1      -5.817 -21.015  -6.585  1.00  0.00     0.025 A 
HETATM   23  C14 UNL     1      -6.349 -20.381  -7.672  1.00  0.00     0.057 A 
HETATM   24 CL1  UNL     1      -7.711 -19.313  -7.401  1.00  0.00    -0.083 Cl
ENDBRANCH  15  18
ENDBRANCH  13  15
ENDBRANCH   2  13
TORSDOF 7
ENDMDL
MODEL 4
REMARK VINA RESULT: -6.754398961      2.870      5.231
REMARK  7 active torsions:
REMARK  status: ('A' for Active; 'I' for Inactive)
REMARK    1  A    between atoms: C2_2  and  C3_3 
REMARK    2  A    between atoms: C2_2  and  N2_13 
REMARK    3  A    between atoms: C3_3  and  N1_4 
REMARK       I    between atoms: N1_4  and  C4_6 
REMARK    4  A    between atoms: C4_6  and  O2_8 
REMARK    5  A    between atoms: O2_8  and  C5_9 
REMARK    6  A    between atoms: N2_13  and  S1_15 
REMARK    7  A    between atoms: S1_15  and  C9_18 
ROOT
HETATM    1  C1  UNL     1      -0.372 -15.525  -7.667  1.00  0.00     0.034 C 
HETATM    2  C2  UNL     1      -1.637 -16.264  -7.158  1.00  0.00     0.107 C 
ENDROOT
BRANCH   2   3
HETATM    3  C3  UNL     1      -2.729 -15.726  -8.065  1.00  0.00     0.150 C 
BRANCH   3   4
HETATM    4  N1  UNL     1      -3.266 -16.616  -9.022  1.00  0.00    -0.335 N 
HETATM    5  C4  UNL     1      -4.274 -16.130  -9.901  1.00  0.00     0.361 C 
HETATM    6  O1  UNL     1      -4.702 -14.945  -9.856  1.00  0.00    -0.238 OA
ATOM      7  H1  UNL     1      -2.941 -17.580  -9.081  1.00  0.00     0.164 HD
BRANCH   5   8
HETATM    8  O2  UNL     1      -4.848 -16.944 -10.865  1.00  0.00    -0.294 OA
BRANCH   8   9
HETATM    9  C5  UNL     1      -6.056 -17.641 -10.608  1.00  0.00     0.061 C 
HETATM   10  C6  UNL     1      -6.308 -17.822  -9.137  1.00  0.00     0.046 C 
HETATM   11  C7  UNL     1      -7.238 -16.994 -11.295  1.00  0.00     0.046 C 
HETATM   12  C8  UNL     1      -5.875 -19.033 -11.211  1.00  0.00     0.046 C 
ENDBRANCH   8   9
ENDBRANCH   5   8
ENDBRANCH   3   4
ENDBRANCH   2   3
BRANCH   2  13
HETATM   13  N2  UNL     1      -1.506 -17.669  -7.237  1.00  0.00    -0.309 N 
ATOM     14  H2  UNL     1      -0.937 -18.082  -7.976  1.00  0.00     0.172 HD
BRANCH  13  15
HETATM   15  S1  UNL     1      -2.267 -18.653  -6.142  1.00  0.00     0.260 S 
HETATM   16  O3  UNL     1      -1.225 -19.328  -5.235  1.00  0.00    -0.200 OA
HETATM   17  O4  UNL     1      -3.077 -17.821  -5.108  1.00  0.00    -0.200 OA
BRANCH  15  18
HETATM   18  C9  UNL     1      -3.345 -19.892  -6.700  1.00  0.00     0.101 A 
HETATM   19  C10 UNL     1      -3.727 -20.076  -7.992  1.00  0.00     0.027 A 
HETATM   20  C11 UNL     1      -4.620 -21.086  -8.319  1.00  0.00     0.002 A 
HETATM   21  C12 UNL     1      -5.115 -21.896  -7.328  1.00  0.00     0.002 A 
HETATM   22  C13 UNL     1      -4.748 -21.735  -6.012  1.00  0.00     0.025 A 
HETATM   23  C14 UNL     1      -3.867 -20.737  -5.703  1.00  0.00     0.057 A 
HETATM   24 CL1  UNL     1      -3.414 -20.548  -4.021  1.00  0.00    -0.083 Cl
ENDBRANCH  15  18
ENDBRANCH  13  15
ENDBRANCH   2  13
TORSDOF 7
ENDMDL
MODEL 5
REMARK VINA RESULT: -6.746163497      2.776      5.047
REMARK  7 active torsions:
REMARK  status: ('A' for Active; 'I' for Inactive)
REMARK    1  A    between atoms: C2_2  and  C3_3 
REMARK    2  A    between atoms: C2_2  and  N2_13 
REMARK    3  A    between atoms: C3_3  and  N1_4 
REMARK       I    between atoms: N1_4  and  C4_6 
REMARK    4  A    between atoms: C4_6  and  O2_8 
REMARK    5  A    between atoms: O2_8  and  C5_9 
REMARK    6  A    between atoms: N2_13  and  S1_15 
REMARK    7  A    between atoms: S1_15  and  C9_18 
ROOT
HETATM    1  C1  UNL     1      -4.353 -24.885  -6.835  1.00  0.00     0.034 C 
HETATM    2  C2  UNL     1      -4.832 -23.410  -6.879  1.00  0.00     0.107 C 
ENDROOT
BRANCH   2   3
HETATM    3  C3  UNL     1      -4.116 -22.788  -5.694  1.00  0.00     0.150 C 
BRANCH   3   4
HETATM    4  N1  UNL     1      -3.193 -21.754  -5.970  1.00  0.00    -0.335 N 
HETATM    5  C4  UNL     1      -2.760 -20.933  -4.892  1.00  0.00     0.361 C 
HETATM    6  O1  UNL     1      -3.168 -21.092  -3.710  1.00  0.00    -0.238 OA
ATOM      7  H1  UNL     1      -2.847 -21.601  -6.917  1.00  0.00     0.164 HD
BRANCH   5   8
HETATM    8  O2  UNL     1      -1.856 -19.899  -5.086  1.00  0.00    -0.294 OA
BRANCH   8   9
HETATM    9  C5  UNL     1      -2.302 -18.567  -5.280  1.00  0.00     0.061 C 
HETATM   10  C6  UNL     1      -3.591 -18.502  -6.050  1.00  0.00     0.046 C 
HETATM   11  C7  UNL     1      -2.400 -17.809  -3.974  1.00  0.00     0.046 C 
HETATM   12  C8  UNL     1      -1.231 -17.885  -6.130  1.00  0.00     0.046 C 
ENDBRANCH   8   9
ENDBRANCH   5   8
ENDBRANCH   3   4
ENDBRANCH   2   3
BRANCH   2  13
HETATM   13  N2  UNL     1      -4.513 -22.777  -8.101  1.00  0.00    -0.309 N 
ATOM     14  H2  UNL     1      -3.536 -22.676  -8.377  1.00  0.00     0.172 HD
BRANCH  13  15
HETATM   15  S1  UNL     1      -5.707 -22.198  -9.092  1.00  0.00     0.260 S 
HETATM   16  O3  UNL     1      -5.542 -22.782 -10.505  1.00  0.00    -0.200 OA
HETATM   17  O4  UNL     1      -7.096 -22.767  -8.689  1.00  0.00    -0.200 OA
BRANCH  15  18
HETATM   18  C9  UNL     1      -5.929 -20.486  -9.266  1.00  0.00     0.101 A 
HETATM   19  C10 UNL     1      -5.595 -19.759 -10.364  1.00  0.00     0.027 A 
HETATM   20  C11 UNL     1      -5.791 -18.386 -10.379  1.00  0.00     0.002 A 
HETATM   21  C12 UNL     1      -6.324 -17.769  -9.276  1.00  0.00     0.002 A 
HETATM   22  C13 UNL     1      -6.672 -18.477  -8.149  1.00  0.00     0.025 A 
HETATM   23  C14 UNL     1      -6.475 -19.829  -8.147  1.00  0.00     0.057 A 
HETATM   24 CL1  UNL     1      -6.924 -20.711  -6.702  1.00  0.00    -0.083 Cl
ENDBRANCH  15  18
ENDBRANCH  13  15
ENDBRANCH   2  13
TORSDOF 7
ENDMDL
