MODEL 1
REMARK VINA RESULT: -6.845223123      0.000      0.000
REMARK  8 active torsions:
REMARK  status: ('A' for Active; 'I' for Inactive)
REMARK    1  A    between atoms: C2_2  and  N1_3 
REMARK    2  A    between atoms: C2_2  and  C8_12 
REMARK    3  A    between atoms: N1_3  and  C3_5 
REMARK    4  A    between atoms: C8_12  and  O1_14 
REMARK    5  A    between atoms: C8_12  and  C10_16 
REMARK    6  A    between atoms: C10_16  and  O2_17 
REMARK    7  A    between atoms: O2_17  and  C11_18 
REMARK    8  A    between atoms: C11_18  and  C12_20 
ROOT
HETATM    1  C8  UNL     1      -6.459 -18.606  -9.300  1.00  0.00     0.096 C 
HETATM    2  C9  UNL     1      -5.817 -18.864 -10.678  1.00  0.00     0.050 C 
ENDROOT
BRANCH   1   3
HETATM    3  C2  UNL     1      -6.238 -19.839  -8.438  1.00  0.00     0.113 C 
HETATM    4  C1  UNL     1      -7.320 -20.017  -7.415  1.00  0.00     0.035 C 
BRANCH   3   5
HETATM    5  N1  UNL     1      -4.929 -19.828  -7.832  1.00  0.00    -0.383 N 
ATOM      6  H1  UNL     1      -4.392 -18.961  -7.883  1.00  0.00     0.160 HD
BRANCH   5   7
HETATM    7  C3  UNL     1      -4.391 -20.827  -7.233  1.00  0.00     0.030 A 
HETATM    8  C4  UNL     1      -3.873 -20.687  -5.968  1.00  0.00     0.046 A 
HETATM    9  C5  UNL     1      -3.282 -21.730  -5.279  1.00  0.00     0.089 A 
HETATM   10  N2  UNL     1      -3.217 -22.927  -5.884  1.00  0.00    -0.375 N 
HETATM   11  C6  UNL     1      -3.710 -23.116  -7.124  1.00  0.00     0.089 A 
ATOM     12  H2  UNL     1      -2.784 -23.710  -5.394  1.00  0.00     0.164 HD
HETATM   13  C7  UNL     1      -4.301 -22.080  -7.819  1.00  0.00     0.046 A 
ENDBRANCH   5   7
ENDBRANCH   3   5
ENDBRANCH   1   3
BRANCH   1  14
HETATM   14  O1  UNL     1      -7.798 -18.423  -9.560  1.00  0.00    -0.386 OA
ATOM     15  H1  UNL     1      -8.061 -18.901 -10.338  1.00  0.00     0.210 HD
ENDBRANCH   1  14
BRANCH   1  16
HETATM   16  C10 UNL     1      -5.847 -17.387  -8.715  1.00  0.00     0.218 C 
BRANCH  16  17
HETATM   17  O2  UNL     1      -4.632 -17.010  -9.203  1.00  0.00    -0.314 OA
BRANCH  17  18
HETATM   18  C11 UNL     1      -3.549 -16.389  -8.697  1.00  0.00     0.300 C 
HETATM   19  O3  UNL     1      -3.184 -15.319  -9.230  1.00  0.00    -0.259 OA
BRANCH  18  20
HETATM   20  C12 UNL     1      -2.768 -16.884  -7.561  1.00  0.00     0.081 A 
HETATM   21  C13 UNL     1      -1.479 -17.323  -7.572  1.00  0.00     0.027 A 
HETATM   22  C14 UNL     1      -0.956 -17.735  -6.409  1.00  0.00     0.033 A 
HETATM   23  C15 UNL     1      -1.767 -17.678  -5.302  1.00  0.00     0.075 A 
HETATM   24 CL1  UNL     1      -1.358 -18.150  -3.642  1.00  0.00    -0.076 Cl
HETATM   25  S1  UNL     1      -3.225 -17.053  -5.931  1.00  0.00    -0.072 SA
ENDBRANCH  18  20
ENDBRANCH  17  18
ENDBRANCH  16  17
ENDBRANCH   1  16
TORSDOF 8
ENDMDL
MODEL 2
REMARK VINA RESULT: -6.716451817      3.334      5.053
REMARK  8 active torsions:
REMARK  status: ('A' for Active; 'I' for Inactive)
REMARK    1  A    between atoms: C2_2  and  N1_3 
REMARK    2  A    between atoms: C2_2  and  C8_12 
REMARK    3  A    between atoms: N1_3  and  C3_5 
REMARK    4  A    between atoms: C8_12  and  O1_14 
REMARK    5  A    between atoms: C8_12  and  C10_16 
REMARK    6  A    between atoms: C10_16  and  O2_17 
REMARK    7  A    between atoms: O2_17  and  C11_18 
REMARK    8  A    between atoms: C11_18  and  C12_20 
ROOT
HETATM    1  C8  UNL     1      -4.377 -23.576  -6.725  1.00  0.00     0.096 C 
HETATM    2  C9  UNL     1      -4.508 -24.851  -5.868  1.00  0.00     0.050 C 
ENDROOT
BRANCH   1   3
HETATM    3  C2  UNL     1      -5.507 -23.572  -7.742  1.00  0.00     0.113 C 
HETATM    4  C1  UNL     1      -6.234 -24.882  -7.787  1.00  0.00     0.035 C 
BRANCH   3   5
HETATM    5  N1  UNL     1      -5.037 -23.179  -9.048  1.00  0.00    -0.383 N 
ATOM      6  H1  UNL     1      -4.373 -23.796  -9.516  1.00  0.00     0.160 HD
BRANCH   5   7
HETATM    7  C3  UNL     1      -5.393 -22.111  -9.664  1.00  0.00     0.030 A 
HETATM    8  C4  UNL     1      -5.062 -20.874  -9.166  1.00  0.00     0.046 A 
HETATM    9  C5  UNL     1      -5.421 -19.693  -9.790  1.00  0.00     0.089 A 
HETATM   10  N2  UNL     1      -6.124 -19.773 -10.931  1.00  0.00    -0.375 N 
HETATM   11  C6  UNL     1      -6.475 -20.962 -11.460  1.00  0.00     0.089 A 
ATOM     12  H2  UNL     1      -6.400 -18.914 -11.407  1.00  0.00     0.164 HD
HETATM   13  C7  UNL     1      -6.120 -22.146 -10.844  1.00  0.00     0.046 A 
ENDBRANCH   5   7
ENDBRANCH   3   5
ENDBRANCH   1   3
BRANCH   1  14
HETATM   14  O1  UNL     1      -3.156 -23.689  -7.347  1.00  0.00    -0.386 OA
ATOM     15  H1  UNL     1      -2.570 -24.246  -6.847  1.00  0.00     0.210 HD
ENDBRANCH   1  14
BRANCH   1  16
HETATM   16  C10 UNL     1      -4.421 -22.396  -5.824  1.00  0.00     0.218 C 
BRANCH  16  17
HETATM   17  O2  UNL     1      -3.230 -21.821  -5.501  1.00  0.00    -0.314 OA
BRANCH  17  18
HETATM   18  C11 UNL     1      -2.850 -20.642  -4.970  1.00  0.00     0.300 C 
HETATM   19  O3  UNL     1      -2.489 -20.627  -3.773  1.00  0.00    -0.259 OA
BRANCH  18  20
HETATM   20  C12 UNL     1      -2.830 -19.374  -5.702  1.00  0.00     0.081 A 
HETATM   21  C13 UNL     1      -3.879 -18.754  -6.311  1.00  0.00     0.027 A 
HETATM   22  C14 UNL     1      -3.635 -17.590  -6.929  1.00  0.00     0.033 A 
HETATM   23  C15 UNL     1      -2.345 -17.121  -6.895  1.00  0.00     0.075 A 
HETATM   24 CL1  UNL     1      -1.724 -15.624  -7.616  1.00  0.00    -0.076 Cl
HETATM   25  S1  UNL     1      -1.527 -18.323  -6.003  1.00  0.00    -0.072 SA
ENDBRANCH  18  20
ENDBRANCH  17  18
ENDBRANCH  16  17
ENDBRANCH   1  16
TORSDOF 8
ENDMDL
MODEL 3
REMARK VINA RESULT: -6.696899843      2.915      4.873
REMARK  8 active torsions:
REMARK  status: ('A' for Active; 'I' for Inactive)
REMARK    1  A    between atoms: C2_2  and  N1_3 
REMARK    2  A    between atoms: C2_2  and  C8_12 
REMARK    3  A    between atoms: N1_3  and  C3_5 
REMARK    4  A    between atoms: C8_12  and  O1_14 
REMARK    5  A    between atoms: C8_12  and  C10_16 
REMARK    6  A    between atoms: C10_16  and  O2_17 
REMARK    7  A    between atoms: O2_17  and  C11_18 
REMARK    8  A    between atoms: C11_18  and  C12_20 
ROOT
HETATM    1  C8  UNL     1      -5.864 -21.772  -7.279  1.00  0.00     0.096 C 
HETATM    2  C9  UNL     1      -6.825 -20.678  -6.772  1.00  0.00     0.050 C 
ENDROOT
BRANCH   1   3
HETATM    3  C2  UNL     1      -5.233 -21.283  -8.573  1.00  0.00     0.113 C 
HETATM    4  C1  UNL     1      -3.741 -21.428  -8.567  1.00  0.00     0.035 C 
BRANCH   3   5
HETATM    5  N1  UNL     1      -5.635 -19.931  -8.876  1.00  0.00    -0.383 N 
ATOM      6  H1  UNL     1      -5.709 -19.275  -8.098  1.00  0.00     0.160 HD
BRANCH   5   7
HETATM    7  C3  UNL     1      -5.906 -19.493 -10.051  1.00  0.00     0.030 A 
HETATM    8  C4  UNL     1      -5.945 -18.143 -10.302  1.00  0.00     0.046 A 
HETATM    9  C5  UNL     1      -6.232 -17.619 -11.550  1.00  0.00     0.089 A 
HETATM   10  N2  UNL     1      -6.483 -18.478 -12.550  1.00  0.00    -0.375 N 
HETATM   11  C6  UNL     1      -6.458 -19.812 -12.356  1.00  0.00     0.089 A 
ATOM     12  H2  UNL     1      -6.698 -18.113 -13.478  1.00  0.00     0.164 HD
HETATM   13  C7  UNL     1      -6.172 -20.343 -11.114  1.00  0.00     0.046 A 
ENDBRANCH   5   7
ENDBRANCH   3   5
ENDBRANCH   1   3
BRANCH   1  14
HETATM   14  O1  UNL     1      -6.662 -22.869  -7.506  1.00  0.00    -0.386 OA
ATOM     15  H1  UNL     1      -7.459 -22.821  -6.991  1.00  0.00     0.210 HD
ENDBRANCH   1  14
BRANCH   1  16
HETATM   16  C10 UNL     1      -4.855 -22.041  -6.223  1.00  0.00     0.218 C 
BRANCH  16  17
HETATM   17  O2  UNL     1      -4.705 -21.094  -5.256  1.00  0.00    -0.314 OA
BRANCH  17  18
HETATM   18  C11 UNL     1      -3.688 -20.325  -4.822  1.00  0.00     0.300 C 
HETATM   19  O3  UNL     1      -3.202 -20.574  -3.697  1.00  0.00    -0.259 OA
BRANCH  18  20
HETATM   20  C12 UNL     1      -3.112 -19.211  -5.579  1.00  0.00     0.081 A 
HETATM   21  C13 UNL     1      -3.763 -18.354  -6.413  1.00  0.00     0.027 A 
HETATM   22  C14 UNL     1      -3.035 -17.399  -7.009  1.00  0.00     0.033 A 
HETATM   23  C15 UNL     1      -1.692 -17.366  -6.725  1.00  0.00     0.075 A 
HETATM   24 CL1  UNL     1      -0.486 -16.229  -7.356  1.00  0.00    -0.076 Cl
HETATM   25  S1  UNL     1      -1.501 -18.669  -5.641  1.00  0.00    -0.072 SA
ENDBRANCH  18  20
ENDBRANCH  17  18
ENDBRANCH  16  17
ENDBRANCH   1  16
TORSDOF 8
ENDMDL
MODEL 4
REMARK VINA RESULT: -6.605269238      2.966      4.907
REMARK  8 active torsions:
REMARK  status: ('A' for Active; 'I' for Inactive)
REMARK    1  A    between atoms: C2_2  and  N1_3 
REMARK    2  A    between atoms: C2_2  and  C8_12 
REMARK    3  A    between atoms: N1_3  and  C3_5 
REMARK    4  A    between atoms: C8_12  and  O1_14 
REMARK    5  A    between atoms: C8_12  and  C10_16 
REMARK    6  A    between atoms: C10_16  and  O2_17 
REMARK    7  A    between atoms: O2_17  and  C11_18 
REMARK    8  A    between atoms: C11_18  and  C12_20 
ROOT
HETATM    1  C8  UNL     1      -4.292 -23.510  -6.759  1.00  0.00     0.096 C 
HETATM    2  C9  UNL     1      -4.646 -24.960  -6.371  1.00  0.00     0.050 C 
ENDROOT
BRANCH   1   3
HETATM    3  C2  UNL     1      -5.480 -22.916  -7.498  1.00  0.00     0.113 C 
HETATM    4  C1  UNL     1      -6.234 -23.947  -8.283  1.00  0.00     0.035 C 
BRANCH   3   5
HETATM    5  N1  UNL     1      -5.082 -21.804  -8.326  1.00  0.00    -0.383 N 
ATOM      6  H1  UNL     1      -4.201 -21.885  -8.834  1.00  0.00     0.160 HD
BRANCH   5   7
HETATM    7  C3  UNL     1      -5.754 -20.720  -8.470  1.00  0.00     0.030 A 
HETATM    8  C4  UNL     1      -5.479 -19.860  -9.505  1.00  0.00     0.046 A 
HETATM    9  C5  UNL     1      -6.173 -18.680  -9.707  1.00  0.00     0.089 A 
HETATM   10  N2  UNL     1      -7.154 -18.373  -8.844  1.00  0.00    -0.375 N 
HETATM   11  C6  UNL     1      -7.462 -19.182  -7.811  1.00  0.00     0.089 A 
ATOM     12  H2  UNL     1      -7.678 -17.507  -8.972  1.00  0.00     0.164 HD
HETATM   13  C7  UNL     1      -6.775 -20.362  -7.603  1.00  0.00     0.046 A 
ENDBRANCH   5   7
ENDBRANCH   3   5
ENDBRANCH   1   3
BRANCH   1  14
HETATM   14  O1  UNL     1      -3.202 -23.620  -7.590  1.00  0.00    -0.386 OA
ATOM     15  H1  UNL     1      -2.844 -22.764  -7.795  1.00  0.00     0.210 HD
ENDBRANCH   1  14
BRANCH   1  16
HETATM   16  C10 UNL     1      -3.961 -22.758  -5.522  1.00  0.00     0.218 C 
BRANCH  16  17
HETATM   17  O2  UNL     1      -4.114 -21.406  -5.561  1.00  0.00    -0.314 OA
BRANCH  17  18
HETATM   18  C11 UNL     1      -3.473 -20.355  -5.014  1.00  0.00     0.300 C 
HETATM   19  O3  UNL     1      -3.159 -20.423  -3.806  1.00  0.00    -0.259 OA
BRANCH  18  20
HETATM   20  C12 UNL     1      -3.119 -19.133  -5.741  1.00  0.00     0.081 A 
HETATM   21  C13 UNL     1      -3.954 -18.313  -6.437  1.00  0.00     0.027 A 
HETATM   22  C14 UNL     1      -3.413 -17.240  -7.030  1.00  0.00     0.033 A 
HETATM   23  C15 UNL     1      -2.060 -17.059  -6.885  1.00  0.00     0.075 A 
HETATM   24 CL1  UNL     1      -1.072 -15.744  -7.549  1.00  0.00    -0.076 Cl
HETATM   25  S1  UNL     1      -1.599 -18.392  -5.927  1.00  0.00    -0.072 SA
ENDBRANCH  18  20
ENDBRANCH  17  18
ENDBRANCH  16  17
ENDBRANCH   1  16
TORSDOF 8
ENDMDL
MODEL 5
REMARK VINA RESULT: -6.544006576      3.487      4.781
REMARK  8 active torsions:
REMARK  status: ('A' for Active; 'I' for Inactive)
REMARK    1  A    between atoms: C2_2  and  N1_3 
REMARK    2  A    between atoms: C2_2  and  C8_12 
REMARK    3  A    between atoms: N1_3  and  C3_5 
REMARK    4  A    between atoms: C8_12  and  O1_14 
REMARK    5  A    between atoms: C8_12  and  C10_16 
REMARK    6  A    between atoms: C10_16  and  O2_17 
REMARK    7  A    between atoms: O2_17  and  C11_18 
REMARK    8  A    between atoms: C11_18  and  C12_20 
ROOT
HETATM    1  C8  UNL     1      -4.702 -21.603  -7.077  1.00  0.00     0.096 C 
HETATM    2  C9  UNL     1      -3.866 -21.022  -8.235  1.00  0.00     0.050 C 
ENDROOT
BRANCH   1   3
HETATM    3  C2  UNL     1      -5.225 -22.964  -7.508  1.00  0.00     0.113 C 
HETATM    4  C1  UNL     1      -4.600 -24.084  -6.733  1.00  0.00     0.035 C 
BRANCH   3   5
HETATM    5  N1  UNL     1      -5.081 -23.156  -8.931  1.00  0.00    -0.383 N 
ATOM      6  H1  UNL     1      -4.134 -23.169  -9.312  1.00  0.00     0.160 HD
BRANCH   5   7
HETATM    7  C3  UNL     1      -6.054 -23.311  -9.752  1.00  0.00     0.030 A 
HETATM    8  C4  UNL     1      -6.315 -24.543 -10.301  1.00  0.00     0.046 A 
HETATM    9  C5  UNL     1      -7.351 -24.765 -11.191  1.00  0.00     0.089 A 
HETATM   10  N2  UNL     1      -8.127 -23.722 -11.525  1.00  0.00    -0.375 N 
HETATM   11  C6  UNL     1      -7.912 -22.492 -11.015  1.00  0.00     0.089 A 
ATOM     12  H2  UNL     1      -8.896 -23.862 -12.181  1.00  0.00     0.164 HD
HETATM   13  C7  UNL     1      -6.881 -22.263 -10.126  1.00  0.00     0.046 A 
ENDBRANCH   5   7
ENDBRANCH   3   5
ENDBRANCH   1   3
BRANCH   1  14
HETATM   14  O1  UNL     1      -5.736 -20.713  -6.902  1.00  0.00    -0.386 OA
ATOM     15  H1  UNL     1      -5.800 -20.441  -5.994  1.00  0.00     0.210 HD
ENDBRANCH   1  14
BRANCH   1  16
HETATM   16  C10 UNL     1      -3.843 -21.684  -5.868  1.00  0.00     0.218 C 
BRANCH  16  17
HETATM   17  O2  UNL     1      -3.818 -20.593  -5.054  1.00  0.00    -0.314 OA
BRANCH  17  18
HETATM   18  C11 UNL     1      -2.935 -19.607  -4.802  1.00  0.00     0.300 C 
HETATM   19  O3  UNL     1      -2.375 -19.592  -3.685  1.00  0.00    -0.259 OA
BRANCH  18  20
HETATM   20  C12 UNL     1      -2.584 -18.549  -5.752  1.00  0.00     0.081 A 
HETATM   21  C13 UNL     1      -1.339 -18.096  -6.065  1.00  0.00     0.027 A 
HETATM   22  C14 UNL     1      -1.247 -17.112  -6.969  1.00  0.00     0.033 A 
HETATM   23  C15 UNL     1      -2.421 -16.642  -7.505  1.00  0.00     0.075 A 
HETATM   24 CL1  UNL     1      -2.616 -15.357  -8.711  1.00  0.00    -0.076 Cl
HETATM   25  S1  UNL     1      -3.603 -17.593  -6.725  1.00  0.00    -0.072 SA
ENDBRANCH  18  20
ENDBRANCH  17  18
ENDBRANCH  16  17
ENDBRANCH   1  16
TORSDOF 8
ENDMDL
