MODEL 1
REMARK VINA RESULT: -8.121685058      0.000      0.000
REMARK  5 active torsions:
REMARK  status: ('A' for Active; 'I' for Inactive)
REMARK       I    between atoms: C1_2  and  N1_3 
REMARK    1  A    between atoms: C1_2  and  C8_17 
REMARK    2  A    between atoms: N1_3  and  N2_5 
REMARK    3  A    between atoms: N2_5  and  S1_7 
REMARK    4  A    between atoms: S1_7  and  C2_10 
REMARK    5  A    between atoms: C11_20  and  N3_21 
ROOT
HETATM    1  O1  UNL     1      -3.836 -14.942  -9.617  1.00  0.00    -0.266 OA
HETATM    2  C1  UNL     1      -4.150 -16.132  -9.283  1.00  0.00     0.270 C 
HETATM    3  N1  UNL     1      -5.171 -16.815 -10.006  1.00  0.00    -0.256 N 
ATOM      4  H1  UNL     1      -5.412 -17.767  -9.734  1.00  0.00     0.191 HD
ENDROOT
BRANCH   3   5
HETATM    5  N2  UNL     1      -5.845 -16.234 -11.063  1.00  0.00    -0.220 N 
ATOM      6  H2  UNL     1      -5.644 -15.294 -11.402  1.00  0.00     0.200 HD
BRANCH   5   7
HETATM    7  S1  UNL     1      -7.042 -17.230 -11.747  1.00  0.00     0.276 S 
HETATM    8  O2  UNL     1      -6.991 -17.242 -13.271  1.00  0.00    -0.199 OA
HETATM    9  O3  UNL     1      -8.429 -16.745 -11.309  1.00  0.00    -0.199 OA
BRANCH   7  10
HETATM   10  C2  UNL     1      -6.955 -18.900 -11.238  1.00  0.00     0.081 A 
HETATM   11  C3  UNL     1      -6.268 -19.776 -12.071  1.00  0.00     0.027 A 
HETATM   12  C4  UNL     1      -6.119 -21.115 -11.768  1.00  0.00     0.025 A 
HETATM   13  C5  UNL     1      -6.689 -21.577 -10.577  1.00  0.00     0.034 A 
HETATM   14 CL1  UNL     1      -6.495 -23.261 -10.197  1.00  0.00    -0.084 Cl
HETATM   15  C6  UNL     1      -7.374 -20.690  -9.752  1.00  0.00     0.025 A 
HETATM   16  C7  UNL     1      -7.516 -19.356 -10.065  1.00  0.00     0.027 A 
ENDBRANCH   7  10
ENDBRANCH   5   7
ENDBRANCH   3   5
BRANCH   2  17
HETATM   17  C8  UNL     1      -3.439 -16.717  -8.174  1.00  0.00     0.033 A 
HETATM   18  C9  UNL     1      -2.091 -16.539  -7.947  1.00  0.00     0.019 A 
HETATM   19  C10 UNL     1      -1.459 -17.130  -6.875  1.00  0.00     0.037 A 
HETATM   20  C11 UNL     1      -2.131 -17.927  -5.972  1.00  0.00     0.102 A 
HETATM   21  C12 UNL     1      -3.478 -18.114  -6.183  1.00  0.00     0.037 A 
HETATM   22  C13 UNL     1      -4.118 -17.527  -7.255  1.00  0.00     0.019 A 
BRANCH  20  23
HETATM   23  N3  UNL     1      -1.464 -18.545  -4.866  1.00  0.00    -0.116 N 
HETATM   24  O4  UNL     1      -0.485 -19.282  -5.006  1.00  0.00    -0.532 OA
HETATM   25  O5  UNL     1      -1.914 -18.320  -3.591  1.00  0.00    -0.532 OA
ENDBRANCH  20  23
ENDBRANCH   2  17
TORSDOF 5
ENDMDL
MODEL 2
REMARK VINA RESULT: -8.100789114      0.105      1.008
REMARK  5 active torsions:
REMARK  status: ('A' for Active; 'I' for Inactive)
REMARK       I    between atoms: C1_2  and  N1_3 
REMARK    1  A    between atoms: C1_2  and  C8_17 
REMARK    2  A    between atoms: N1_3  and  N2_5 
REMARK    3  A    between atoms: N2_5  and  S1_7 
REMARK    4  A    between atoms: S1_7  and  C2_10 
REMARK    5  A    between atoms: C11_20  and  N3_21 
ROOT
HETATM    1  O1  UNL     1      -3.855 -14.959  -9.624  1.00  0.00    -0.266 OA
HETATM    2  C1  UNL     1      -4.161 -16.152  -9.294  1.00  0.00     0.270 C 
HETATM    3  N1  UNL     1      -5.172 -16.841 -10.026  1.00  0.00    -0.256 N 
ATOM      4  H1  UNL     1      -5.408 -17.797  -9.757  1.00  0.00     0.191 HD
ENDROOT
BRANCH   3   5
HETATM    5  N2  UNL     1      -5.844 -16.263 -11.085  1.00  0.00    -0.220 N 
ATOM      6  H2  UNL     1      -5.648 -15.321 -11.422  1.00  0.00     0.200 HD
BRANCH   5   7
HETATM    7  S1  UNL     1      -7.031 -17.267 -11.777  1.00  0.00     0.276 S 
HETATM    8  O2  UNL     1      -7.020 -17.219 -13.301  1.00  0.00    -0.199 OA
HETATM    9  O3  UNL     1      -8.419 -16.837 -11.286  1.00  0.00    -0.199 OA
BRANCH   7  10
HETATM   10  C2  UNL     1      -6.887 -18.951 -11.335  1.00  0.00     0.081 A 
HETATM   11  C3  UNL     1      -7.513 -19.349 -10.159  1.00  0.00     0.027 A 
HETATM   12  C4  UNL     1      -7.483 -20.655  -9.714  1.00  0.00     0.025 A 
HETATM   13  C5  UNL     1      -6.791 -21.589 -10.494  1.00  0.00     0.034 A 
HETATM   14 CL1  UNL     1      -6.759 -23.233  -9.933  1.00  0.00    -0.084 Cl
HETATM   15  C6  UNL     1      -6.169 -21.178 -11.669  1.00  0.00     0.025 A 
HETATM   16  C7  UNL     1      -6.206 -19.871 -12.102  1.00  0.00     0.027 A 
ENDBRANCH   7  10
ENDBRANCH   5   7
ENDBRANCH   3   5
BRANCH   2  17
HETATM   17  C8  UNL     1      -3.452 -16.734  -8.183  1.00  0.00     0.033 A 
HETATM   18  C9  UNL     1      -2.109 -16.537  -7.941  1.00  0.00     0.019 A 
HETATM   19  C10 UNL     1      -1.479 -17.126  -6.867  1.00  0.00     0.037 A 
HETATM   20  C11 UNL     1      -2.148 -17.940  -5.976  1.00  0.00     0.102 A 
HETATM   21  C12 UNL     1      -3.489 -18.147  -6.203  1.00  0.00     0.037 A 
HETATM   22  C13 UNL     1      -4.127 -17.562  -7.277  1.00  0.00     0.019 A 
BRANCH  20  23
HETATM   23  N3  UNL     1      -1.482 -18.555  -4.868  1.00  0.00    -0.116 N 
HETATM   24  O4  UNL     1      -0.498 -19.288  -5.006  1.00  0.00    -0.532 OA
HETATM   25  O5  UNL     1      -1.938 -18.334  -3.595  1.00  0.00    -0.532 OA
ENDBRANCH  20  23
ENDBRANCH   2  17
TORSDOF 5
ENDMDL
MODEL 3
REMARK VINA RESULT: -8.062503408      3.987      7.823
REMARK  5 active torsions:
REMARK  status: ('A' for Active; 'I' for Inactive)
REMARK       I    between atoms: C1_2  and  N1_3 
REMARK    1  A    between atoms: C1_2  and  C8_17 
REMARK    2  A    between atoms: N1_3  and  N2_5 
REMARK    3  A    between atoms: N2_5  and  S1_7 
REMARK    4  A    between atoms: S1_7  and  C2_10 
REMARK    5  A    between atoms: C11_20  and  N3_21 
ROOT
HETATM    1  O1  UNL     1      -5.138 -20.994  -5.141  1.00  0.00    -0.266 OA
HETATM    2  C1  UNL     1      -4.293 -21.088  -6.092  1.00  0.00     0.270 C 
HETATM    3  N1  UNL     1      -2.905 -20.922  -5.812  1.00  0.00    -0.256 N 
ATOM      4  H1  UNL     1      -2.237 -21.003  -6.578  1.00  0.00     0.191 HD
ENDROOT
BRANCH   3   5
HETATM    5  N2  UNL     1      -2.432 -20.656  -4.542  1.00  0.00    -0.220 N 
ATOM      6  H2  UNL     1      -2.489 -21.325  -3.775  1.00  0.00     0.200 HD
BRANCH   5   7
HETATM    7  S1  UNL     1      -1.745 -19.109  -4.374  1.00  0.00     0.276 S 
HETATM    8  O2  UNL     1      -0.233 -19.159  -4.182  1.00  0.00    -0.199 OA
HETATM    9  O3  UNL     1      -2.366 -18.398  -3.165  1.00  0.00    -0.199 OA
BRANCH   7  10
HETATM   10  C2  UNL     1      -2.035 -18.048  -5.732  1.00  0.00     0.081 A 
HETATM   11  C3  UNL     1      -3.334 -17.577  -5.895  1.00  0.00     0.027 A 
HETATM   12  C4  UNL     1      -3.682 -16.721  -6.920  1.00  0.00     0.025 A 
HETATM   13  C5  UNL     1      -2.674 -16.331  -7.809  1.00  0.00     0.034 A 
HETATM   14 CL1  UNL     1      -3.116 -15.250  -9.096  1.00  0.00    -0.084 Cl
HETATM   15  C6  UNL     1      -1.379 -16.809  -7.635  1.00  0.00     0.025 A 
HETATM   16  C7  UNL     1      -1.043 -17.664  -6.608  1.00  0.00     0.027 A 
ENDBRANCH   7  10
ENDBRANCH   5   7
ENDBRANCH   3   5
BRANCH   2  17
HETATM   17  C8  UNL     1      -4.808 -21.361  -7.410  1.00  0.00     0.033 A 
HETATM   18  C9  UNL     1      -5.231 -22.604  -7.827  1.00  0.00     0.019 A 
HETATM   19  C10 UNL     1      -5.707 -22.810  -9.104  1.00  0.00     0.037 A 
HETATM   20  C11 UNL     1      -5.789 -21.793 -10.032  1.00  0.00     0.102 A 
HETATM   21  C12 UNL     1      -5.371 -20.545  -9.632  1.00  0.00     0.037 A 
HETATM   22  C13 UNL     1      -4.892 -20.330  -8.356  1.00  0.00     0.019 A 
BRANCH  20  23
HETATM   23  N3  UNL     1      -6.276 -22.019 -11.359  1.00  0.00    -0.116 N 
HETATM   24  O4  UNL     1      -6.134 -21.198 -12.269  1.00  0.00    -0.532 OA
HETATM   25  O5  UNL     1      -6.927 -23.188 -11.653  1.00  0.00    -0.532 OA
ENDBRANCH  20  23
ENDBRANCH   2  17
TORSDOF 5
ENDMDL
MODEL 4
REMARK VINA RESULT: -8.057410981      4.368      8.024
REMARK  5 active torsions:
REMARK  status: ('A' for Active; 'I' for Inactive)
REMARK       I    between atoms: C1_2  and  N1_3 
REMARK    1  A    between atoms: C1_2  and  C8_17 
REMARK    2  A    between atoms: N1_3  and  N2_5 
REMARK    3  A    between atoms: N2_5  and  S1_7 
REMARK    4  A    between atoms: S1_7  and  C2_10 
REMARK    5  A    between atoms: C11_20  and  N3_21 
ROOT
HETATM    1  O1  UNL     1      -3.605 -23.602  -5.635  1.00  0.00    -0.266 OA
HETATM    2  C1  UNL     1      -3.897 -22.614  -6.387  1.00  0.00     0.270 C 
HETATM    3  N1  UNL     1      -3.447 -21.309  -6.032  1.00  0.00    -0.256 N 
ATOM      4  H1  UNL     1      -3.682 -20.526  -6.641  1.00  0.00     0.191 HD
ENDROOT
BRANCH   3   5
HETATM    5  N2  UNL     1      -2.704 -21.066  -4.893  1.00  0.00    -0.220 N 
ATOM      6  H2  UNL     1      -2.561 -21.763  -4.162  1.00  0.00     0.200 HD
BRANCH   5   7
HETATM    7  S1  UNL     1      -2.050 -19.498  -4.819  1.00  0.00     0.276 S 
HETATM    8  O2  UNL     1      -0.527 -19.496  -4.895  1.00  0.00    -0.199 OA
HETATM    9  O3  UNL     1      -2.473 -18.823  -3.509  1.00  0.00    -0.199 OA
BRANCH   7  10
HETATM   10  C2  UNL     1      -2.608 -18.433  -6.088  1.00  0.00     0.081 A 
HETATM   11  C3  UNL     1      -1.634 -17.742  -6.802  1.00  0.00     0.027 A 
HETATM   12  C4  UNL     1      -1.951 -16.884  -7.836  1.00  0.00     0.025 A 
HETATM   13  C5  UNL     1      -3.304 -16.725  -8.155  1.00  0.00     0.034 A 
HETATM   14 CL1  UNL     1      -3.697 -15.648  -9.460  1.00  0.00    -0.084 Cl
HETATM   15  C6  UNL     1      -4.267 -17.422  -7.433  1.00  0.00     0.025 A 
HETATM   16  C7  UNL     1      -3.940 -18.275  -6.402  1.00  0.00     0.027 A 
ENDBRANCH   7  10
ENDBRANCH   5   7
ENDBRANCH   3   5
BRANCH   2  17
HETATM   17  C8  UNL     1      -4.678 -22.889  -7.567  1.00  0.00     0.033 A 
HETATM   18  C9  UNL     1      -4.753 -22.042  -8.652  1.00  0.00     0.019 A 
HETATM   19  C10 UNL     1      -5.523 -22.351  -9.752  1.00  0.00     0.037 A 
HETATM   20  C11 UNL     1      -6.258 -23.516  -9.832  1.00  0.00     0.102 A 
HETATM   21  C12 UNL     1      -6.194 -24.372  -8.758  1.00  0.00     0.037 A 
HETATM   22  C13 UNL     1      -5.426 -24.070  -7.652  1.00  0.00     0.019 A 
BRANCH  20  23
HETATM   23  N3  UNL     1      -7.063 -23.823 -10.975  1.00  0.00    -0.116 N 
HETATM   24  O4  UNL     1      -6.926 -24.862 -11.627  1.00  0.00    -0.532 OA
HETATM   25  O5  UNL     1      -8.032 -22.942 -11.379  1.00  0.00    -0.532 OA
ENDBRANCH  20  23
ENDBRANCH   2  17
TORSDOF 5
ENDMDL
MODEL 5
REMARK VINA RESULT: -8.022393338      4.297      8.009
REMARK  5 active torsions:
REMARK  status: ('A' for Active; 'I' for Inactive)
REMARK       I    between atoms: C1_2  and  N1_3 
REMARK    1  A    between atoms: C1_2  and  C8_17 
REMARK    2  A    between atoms: N1_3  and  N2_5 
REMARK    3  A    between atoms: N2_5  and  S1_7 
REMARK    4  A    between atoms: S1_7  and  C2_10 
REMARK    5  A    between atoms: C11_20  and  N3_21 
ROOT
HETATM    1  O1  UNL     1      -3.482 -23.449  -5.721  1.00  0.00    -0.266 OA
HETATM    2  C1  UNL     1      -3.878 -22.447  -6.404  1.00  0.00     0.270 C 
HETATM    3  N1  UNL     1      -3.534 -21.132  -5.977  1.00  0.00    -0.256 N 
ATOM      4  H1  UNL     1      -3.851 -20.336  -6.532  1.00  0.00     0.191 HD
ENDROOT
BRANCH   3   5
HETATM    5  N2  UNL     1      -2.785 -20.893  -4.841  1.00  0.00    -0.220 N 
ATOM      6  H2  UNL     1      -2.705 -21.563  -4.077  1.00  0.00     0.200 HD
BRANCH   5   7
HETATM    7  S1  UNL     1      -2.009 -19.380  -4.833  1.00  0.00     0.276 S 
HETATM    8  O2  UNL     1      -0.489 -19.503  -4.879  1.00  0.00    -0.199 OA
HETATM    9  O3  UNL     1      -2.397 -18.607  -3.567  1.00  0.00    -0.199 OA
BRANCH   7  10
HETATM   10  C2  UNL     1      -2.459 -18.340  -6.164  1.00  0.00     0.081 A 
HETATM   11  C3  UNL     1      -3.819 -18.189  -6.411  1.00  0.00     0.027 A 
HETATM   12  C4  UNL     1      -4.297 -17.382  -7.424  1.00  0.00     0.025 A 
HETATM   13  C5  UNL     1      -3.359 -16.706  -8.212  1.00  0.00     0.034 A 
HETATM   14 CL1  UNL     1      -3.966 -15.689  -9.483  1.00  0.00    -0.084 Cl
HETATM   15  C6  UNL     1      -2.001 -16.866  -7.954  1.00  0.00     0.025 A 
HETATM   16  C7  UNL     1      -1.535 -17.674  -6.940  1.00  0.00     0.027 A 
ENDBRANCH   7  10
ENDBRANCH   5   7
ENDBRANCH   3   5
BRANCH   2  17
HETATM   17  C8  UNL     1      -4.663 -22.718  -7.582  1.00  0.00     0.033 A 
HETATM   18  C9  UNL     1      -4.676 -21.909  -8.698  1.00  0.00     0.019 A 
HETATM   19  C10 UNL     1      -5.454 -22.211  -9.795  1.00  0.00     0.037 A 
HETATM   20  C11 UNL     1      -6.256 -23.332  -9.842  1.00  0.00     0.102 A 
HETATM   21  C12 UNL     1      -6.254 -24.151  -8.737  1.00  0.00     0.037 A 
HETATM   22  C13 UNL     1      -5.480 -23.855  -7.634  1.00  0.00     0.019 A 
BRANCH  20  23
HETATM   23  N3  UNL     1      -7.068 -23.632 -10.983  1.00  0.00    -0.116 N 
HETATM   24  O4  UNL     1      -7.924 -22.856 -11.414  1.00  0.00    -0.532 OA
HETATM   25  O5  UNL     1      -6.902 -24.825 -11.637  1.00  0.00    -0.532 OA
ENDBRANCH  20  23
ENDBRANCH   2  17
TORSDOF 5
ENDMDL
