MODEL 1
REMARK VINA RESULT: -7.234347287      0.000      0.000
REMARK  7 active torsions:
REMARK  status: ('A' for Active; 'I' for Inactive)
REMARK    1  A    between atoms: C2_2  and  C3_3 
REMARK    2  A    between atoms: C3_3  and  C4_4 
REMARK    3  A    between atoms: C4_4  and  O2_6 
REMARK    4  A    between atoms: O2_6  and  C5_7 
REMARK    5  A    between atoms: C5_7  and  C6_8 
REMARK       I    between atoms: C6_8  and  N1_10 
REMARK    6  A    between atoms: C10_14  and  C12_16 
REMARK    7  A    between atoms: C13_19  and  C14_21 
ROOT
HETATM    1  O2  UNL     1       2.558   3.160  -0.786  1.00  0.00    -0.308 OA
ENDROOT
BRANCH   1   2
HETATM    2  C4  UNL     1       3.681   3.368   0.038  1.00  0.00     0.291 C 
HETATM    3  O1  UNL     1       4.348   4.400  -0.109  1.00  0.00    -0.260 OA
BRANCH   2   4
HETATM    4  C3  UNL     1       4.057   2.371   1.059  1.00  0.00     0.040 C 
HETATM    5  C13 UNL     1       3.690   2.512   2.293  1.00  0.00     0.068 C 
HETATM    6 CL1  UNL     1       2.717   3.976   2.657  1.00  0.00    -0.082 Cl
BRANCH   4   7
HETATM    7  C2  UNL     1       4.878   1.225   0.546  1.00  0.00     0.042 C 
HETATM    8  C1  UNL     1       6.348   1.520   0.582  1.00  0.00     0.010 C 
ENDBRANCH   4   7
BRANCH   5   9
HETATM    9  C14 UNL     1       3.898   1.657   3.442  1.00  0.00     0.021 C 
HETATM   10  C15 UNL     1       2.619   1.063   4.088  1.00  0.00     0.069 C 
HETATM   11  N2  UNL     1       4.924   1.302   4.024  1.00  0.00    -0.401 N 
ATOM     12  H22 UNL     1       5.765   1.692   3.599  1.00  0.00     0.156 HD
ATOM     13  H21 UNL     1       5.070   0.699   4.834  1.00  0.00     0.156 HD
ENDBRANCH   5   9
ENDBRANCH   2   4
ENDBRANCH   1   2
BRANCH   1  14
HETATM   14  C5  UNL     1       2.773   2.620  -2.050  1.00  0.00     0.281 C 
BRANCH  14  15
HETATM   15  C6  UNL     1       3.126   3.666  -3.040  1.00  0.00     0.245 C 
HETATM   16  O3  UNL     1       4.358   3.810  -3.306  1.00  0.00    -0.271 OA
HETATM   17  N1  UNL     1       2.130   4.459  -3.655  1.00  0.00    -0.331 N 
HETATM   18  C7  UNL     1       0.718   4.338  -3.395  1.00  0.00     0.127 C 
HETATM   19  C10 UNL     1       2.352   5.490  -4.617  1.00  0.00     0.120 C 
HETATM   20  C8  UNL     1       0.015   5.043  -4.529  1.00  0.00     0.023 C 
HETATM   21  C9  UNL     1       1.014   6.069  -4.992  1.00  0.00     0.044 C 
HETATM   22  C11 UNL     1       2.970   4.942  -5.899  1.00  0.00     0.050 C 
BRANCH  19  23
HETATM   23  C12 UNL     1       3.190   6.601  -4.075  1.00  0.00     0.202 C 
HETATM   24  O4  UNL     1       4.331   6.843  -4.519  1.00  0.00    -0.646 OA
HETATM   25  O5  UNL     1       2.702   7.393  -3.057  1.00  0.00    -0.646 OA
ENDBRANCH  19  23
ENDBRANCH  14  15
ENDBRANCH   1  14
TORSDOF 7
ENDMDL
MODEL 2
REMARK VINA RESULT: -7.153544286      2.820      6.853
REMARK  7 active torsions:
REMARK  status: ('A' for Active; 'I' for Inactive)
REMARK    1  A    between atoms: C2_2  and  C3_3 
REMARK    2  A    between atoms: C3_3  and  C4_4 
REMARK    3  A    between atoms: C4_4  and  O2_6 
REMARK    4  A    between atoms: O2_6  and  C5_7 
REMARK    5  A    between atoms: C5_7  and  C6_8 
REMARK       I    between atoms: C6_8  and  N1_10 
REMARK    6  A    between atoms: C10_14  and  C12_16 
REMARK    7  A    between atoms: C13_19  and  C14_21 
ROOT
HETATM    1  O2  UNL     1       2.970   3.598  -3.341  1.00  0.00    -0.308 OA
ENDROOT
BRANCH   1   2
HETATM    2  C4  UNL     1       2.085   4.636  -2.993  1.00  0.00     0.291 C 
HETATM    3  O1  UNL     1       2.548   5.693  -2.547  1.00  0.00    -0.260 OA
BRANCH   2   4
HETATM    4  C3  UNL     1       0.628   4.466  -3.158  1.00  0.00     0.040 C 
HETATM    5  C13 UNL     1       0.033   4.839  -4.246  1.00  0.00     0.068 C 
HETATM    6 CL1  UNL     1       1.089   5.563  -5.505  1.00  0.00    -0.082 Cl
BRANCH   4   7
HETATM    7  C2  UNL     1      -0.069   3.845  -1.983  1.00  0.00     0.042 C 
HETATM    8  C1  UNL     1      -0.145   2.351  -2.095  1.00  0.00     0.010 C 
ENDBRANCH   4   7
BRANCH   5   9
HETATM    9  C14 UNL     1      -1.353   4.734  -4.646  1.00  0.00     0.021 C 
HETATM   10  C15 UNL     1      -1.796   3.357  -5.207  1.00  0.00     0.069 C 
HETATM   11  N2  UNL     1      -2.275   5.550  -4.630  1.00  0.00    -0.401 N 
ATOM     12  H22 UNL     1      -1.984   6.456  -4.261  1.00  0.00     0.156 HD
ATOM     13  H21 UNL     1      -3.253   5.476  -4.912  1.00  0.00     0.156 HD
ENDBRANCH   5   9
ENDBRANCH   2   4
ENDBRANCH   1   2
BRANCH   1  14
HETATM   14  C5  UNL     1       3.215   2.611  -2.392  1.00  0.00     0.281 C 
BRANCH  14  15
HETATM   15  C6  UNL     1       4.225   3.045  -1.395  1.00  0.00     0.245 C 
HETATM   16  O3  UNL     1       5.358   3.397  -1.845  1.00  0.00    -0.271 OA
HETATM   17  N1  UNL     1       3.929   3.064  -0.013  1.00  0.00    -0.331 N 
HETATM   18  C7  UNL     1       2.662   2.679   0.553  1.00  0.00     0.127 C 
HETATM   19  C10 UNL     1       4.818   3.461   1.030  1.00  0.00     0.120 C 
HETATM   20  C8  UNL     1       2.636   3.237   1.956  1.00  0.00     0.023 C 
HETATM   21  C9  UNL     1       4.089   3.317   2.340  1.00  0.00     0.044 C 
HETATM   22  C11 UNL     1       5.216   4.928   0.906  1.00  0.00     0.050 C 
BRANCH  19  23
HETATM   23  C12 UNL     1       6.037   2.600   1.096  1.00  0.00     0.202 C 
HETATM   24  O4  UNL     1       7.187   3.082   1.059  1.00  0.00    -0.646 OA
HETATM   25  O5  UNL     1       5.904   1.231   1.202  1.00  0.00    -0.646 OA
ENDBRANCH  19  23
ENDBRANCH  14  15
ENDBRANCH   1  14
TORSDOF 7
ENDMDL
MODEL 3
REMARK VINA RESULT: -7.113155962      1.401      1.593
REMARK  7 active torsions:
REMARK  status: ('A' for Active; 'I' for Inactive)
REMARK    1  A    between atoms: C2_2  and  C3_3 
REMARK    2  A    between atoms: C3_3  and  C4_4 
REMARK    3  A    between atoms: C4_4  and  O2_6 
REMARK    4  A    between atoms: O2_6  and  C5_7 
REMARK    5  A    between atoms: C5_7  and  C6_8 
REMARK       I    between atoms: C6_8  and  N1_10 
REMARK    6  A    between atoms: C10_14  and  C12_16 
REMARK    7  A    between atoms: C13_19  and  C14_21 
ROOT
HETATM    1  O2  UNL     1       5.119   3.216  -1.819  1.00  0.00    -0.308 OA
ENDROOT
BRANCH   1   2
HETATM    2  C4  UNL     1       4.686   3.751  -0.590  1.00  0.00     0.291 C 
HETATM    3  O1  UNL     1       4.416   4.957  -0.524  1.00  0.00    -0.260 OA
BRANCH   2   4
HETATM    4  C3  UNL     1       4.557   2.887   0.599  1.00  0.00     0.040 C 
HETATM    5  C13 UNL     1       3.412   2.384   0.936  1.00  0.00     0.068 C 
HETATM    6 CL1  UNL     1       2.029   2.810  -0.126  1.00  0.00    -0.082 Cl
BRANCH   4   7
HETATM    7  C2  UNL     1       5.835   2.661   1.353  1.00  0.00     0.042 C 
HETATM    8  C1  UNL     1       6.619   1.506   0.804  1.00  0.00     0.010 C 
ENDBRANCH   4   7
BRANCH   5   9
HETATM    9  C14 UNL     1       3.056   1.490   2.017  1.00  0.00     0.021 C 
HETATM   10  C15 UNL     1       2.811   2.155   3.396  1.00  0.00     0.069 C 
HETATM   11  N2  UNL     1       2.910   0.268   2.055  1.00  0.00    -0.401 N 
ATOM     12  H22 UNL     1       3.071  -0.169   1.147  1.00  0.00     0.156 HD
ATOM     13  H21 UNL     1       2.658  -0.362   2.817  1.00  0.00     0.156 HD
ENDBRANCH   5   9
ENDBRANCH   2   4
ENDBRANCH   1   2
BRANCH   1  14
HETATM   14  C5  UNL     1       4.162   3.008  -2.807  1.00  0.00     0.281 C 
BRANCH  14  15
HETATM   15  C6  UNL     1       3.995   4.202  -3.670  1.00  0.00     0.245 C 
HETATM   16  O3  UNL     1       5.056   4.751  -4.099  1.00  0.00    -0.271 OA
HETATM   17  N1  UNL     1       2.712   4.698  -3.994  1.00  0.00    -0.331 N 
HETATM   18  C7  UNL     1       1.475   4.116  -3.539  1.00  0.00     0.127 C 
HETATM   19  C10 UNL     1       2.433   5.835  -4.812  1.00  0.00     0.120 C 
HETATM   20  C8  UNL     1       0.390   4.671  -4.430  1.00  0.00     0.023 C 
HETATM   21  C9  UNL     1       0.938   5.999  -4.881  1.00  0.00     0.044 C 
HETATM   22  C11 UNL     1       2.921   5.635  -6.243  1.00  0.00     0.050 C 
BRANCH  19  23
HETATM   23  C12 UNL     1       2.999   7.095  -4.244  1.00  0.00     0.202 C 
HETATM   24  O4  UNL     1       2.640   7.537  -3.134  1.00  0.00    -0.646 OA
HETATM   25  O5  UNL     1       3.948   7.801  -4.954  1.00  0.00    -0.646 OA
ENDBRANCH  19  23
ENDBRANCH  14  15
ENDBRANCH   1  14
TORSDOF 7
ENDMDL
MODEL 4
REMARK VINA RESULT: -7.108351940      2.550      7.208
REMARK  7 active torsions:
REMARK  status: ('A' for Active; 'I' for Inactive)
REMARK    1  A    between atoms: C2_2  and  C3_3 
REMARK    2  A    between atoms: C3_3  and  C4_4 
REMARK    3  A    between atoms: C4_4  and  O2_6 
REMARK    4  A    between atoms: O2_6  and  C5_7 
REMARK    5  A    between atoms: C5_7  and  C6_8 
REMARK       I    between atoms: C6_8  and  N1_10 
REMARK    6  A    between atoms: C10_14  and  C12_16 
REMARK    7  A    between atoms: C13_19  and  C14_21 
ROOT
HETATM    1  O2  UNL     1       2.126   3.061  -2.467  1.00  0.00    -0.308 OA
ENDROOT
BRANCH   1   2
HETATM    2  C4  UNL     1       1.167   4.059  -2.731  1.00  0.00     0.291 C 
HETATM    3  O1  UNL     1       0.228   4.211  -1.939  1.00  0.00    -0.260 OA
BRANCH   2   4
HETATM    4  C3  UNL     1       1.280   4.908  -3.932  1.00  0.00     0.040 C 
HETATM    5  C13 UNL     1       2.177   5.839  -4.007  1.00  0.00     0.068 C 
HETATM    6 CL1  UNL     1       3.243   6.015  -2.572  1.00  0.00    -0.082 Cl
BRANCH   4   7
HETATM    7  C2  UNL     1       0.289   4.599  -5.016  1.00  0.00     0.042 C 
HETATM    8  C1  UNL     1      -0.950   5.437  -4.905  1.00  0.00     0.010 C 
ENDBRANCH   4   7
BRANCH   5   9
HETATM    9  C14 UNL     1       2.502   6.752  -5.082  1.00  0.00     0.021 C 
HETATM   10  C15 UNL     1       3.265   6.140  -6.286  1.00  0.00     0.069 C 
HETATM   11  N2  UNL     1       2.285   7.955  -5.229  1.00  0.00    -0.401 N 
ATOM     12  H22 UNL     1       1.783   8.358  -4.437  1.00  0.00     0.156 HD
ATOM     13  H21 UNL     1       2.514   8.598  -5.987  1.00  0.00     0.156 HD
ENDBRANCH   5   9
ENDBRANCH   2   4
ENDBRANCH   1   2
BRANCH   1  14
HETATM   14  C5  UNL     1       2.245   2.609  -1.156  1.00  0.00     0.281 C 
BRANCH  14  15
HETATM   15  C6  UNL     1       3.551   2.985  -0.563  1.00  0.00     0.245 C 
HETATM   16  O3  UNL     1       4.531   3.098  -1.361  1.00  0.00    -0.271 OA
HETATM   17  N1  UNL     1       3.687   3.206   0.827  1.00  0.00    -0.331 N 
HETATM   18  C7  UNL     1       2.612   3.096   1.778  1.00  0.00     0.127 C 
HETATM   19  C10 UNL     1       4.890   3.570   1.505  1.00  0.00     0.120 C 
HETATM   20  C8  UNL     1       3.075   3.805   3.028  1.00  0.00     0.023 C 
HETATM   21  C9  UNL     1       4.575   3.693   2.972  1.00  0.00     0.044 C 
HETATM   22  C11 UNL     1       5.406   4.931   1.050  1.00  0.00     0.050 C 
BRANCH  19  23
HETATM   23  C12 UNL     1       5.959   2.537   1.359  1.00  0.00     0.202 C 
HETATM   24  O4  UNL     1       5.738   1.326   1.564  1.00  0.00    -0.646 OA
HETATM   25  O5  UNL     1       7.232   2.916   0.985  1.00  0.00    -0.646 OA
ENDBRANCH  19  23
ENDBRANCH  14  15
ENDBRANCH   1  14
TORSDOF 7
ENDMDL
MODEL 5
REMARK VINA RESULT: -7.084019869      2.964      6.864
REMARK  7 active torsions:
REMARK  status: ('A' for Active; 'I' for Inactive)
REMARK    1  A    between atoms: C2_2  and  C3_3 
REMARK    2  A    between atoms: C3_3  and  C4_4 
REMARK    3  A    between atoms: C4_4  and  O2_6 
REMARK    4  A    between atoms: O2_6  and  C5_7 
REMARK    5  A    between atoms: C5_7  and  C6_8 
REMARK       I    between atoms: C6_8  and  N1_10 
REMARK    6  A    between atoms: C10_14  and  C12_16 
REMARK    7  A    between atoms: C13_19  and  C14_21 
ROOT
HETATM    1  O2  UNL     1       3.125   4.349  -3.854  1.00  0.00    -0.308 OA
ENDROOT
BRANCH   1   2
HETATM    2  C4  UNL     1       2.138   5.195  -3.314  1.00  0.00     0.291 C 
HETATM    3  O1  UNL     1       2.485   6.256  -2.781  1.00  0.00    -0.260 OA
BRANCH   2   4
HETATM    4  C3  UNL     1       0.712   4.821  -3.382  1.00  0.00     0.040 C 
HETATM    5  C13 UNL     1      -0.012   5.139  -4.408  1.00  0.00     0.068 C 
HETATM    6 CL1  UNL     1       0.831   6.049  -5.707  1.00  0.00    -0.082 Cl
BRANCH   4   7
HETATM    7  C2  UNL     1       0.202   4.068  -2.188  1.00  0.00     0.042 C 
HETATM    8  C1  UNL     1       0.713   2.658  -2.147  1.00  0.00     0.010 C 
ENDBRANCH   4   7
BRANCH   5   9
HETATM    9  C14 UNL     1      -1.396   4.848  -4.712  1.00  0.00     0.021 C 
HETATM   10  C15 UNL     1      -1.705   3.391  -5.145  1.00  0.00     0.069 C 
HETATM   11  N2  UNL     1      -2.405   5.555  -4.697  1.00  0.00    -0.401 N 
ATOM     12  H22 UNL     1      -2.202   6.513  -4.412  1.00  0.00     0.156 HD
ATOM     13  H21 UNL     1      -3.381   5.349  -4.911  1.00  0.00     0.156 HD
ENDBRANCH   5   9
ENDBRANCH   2   4
ENDBRANCH   1   2
BRANCH   1  14
HETATM   14  C5  UNL     1       4.427   4.493  -3.387  1.00  0.00     0.281 C 
BRANCH  14  15
HETATM   15  C6  UNL     1       4.743   3.506  -2.326  1.00  0.00     0.245 C 
HETATM   16  O3  UNL     1       4.756   2.284  -2.667  1.00  0.00    -0.271 OA
HETATM   17  N1  UNL     1       5.016   3.917  -1.001  1.00  0.00    -0.331 N 
HETATM   18  C7  UNL     1       5.017   5.287  -0.558  1.00  0.00     0.127 C 
HETATM   19  C10 UNL     1       5.329   3.059   0.096  1.00  0.00     0.120 C 
HETATM   20  C8  UNL     1       5.748   5.306   0.763  1.00  0.00     0.023 C 
HETATM   21  C9  UNL     1       5.537   3.921   1.313  1.00  0.00     0.044 C 
HETATM   22  C11 UNL     1       6.632   2.301  -0.135  1.00  0.00     0.050 C 
BRANCH  19  23
HETATM   23  C12 UNL     1       4.224   2.103   0.404  1.00  0.00     0.202 C 
HETATM   24  O4  UNL     1       3.039   2.480   0.517  1.00  0.00    -0.646 OA
HETATM   25  O5  UNL     1       4.502   0.762   0.569  1.00  0.00    -0.646 OA
ENDBRANCH  19  23
ENDBRANCH  14  15
ENDBRANCH   1  14
TORSDOF 7
ENDMDL
