MODEL 1
REMARK VINA RESULT: -6.306777915      0.000      0.000
REMARK  9 active torsions:
REMARK  status: ('A' for Active; 'I' for Inactive)
REMARK    1  A    between atoms: N1_6  and  C6_8 
REMARK    2  A    between atoms: C6_8  and  C7_9 
REMARK    3  A    between atoms: C6_8  and  C12_17 
REMARK    4  A    between atoms: C7_9  and  C8_10 
REMARK    5  A    between atoms: C8_10  and  S1_11 
REMARK    6  A    between atoms: S1_11  and  C9_12 
REMARK    7  A    between atoms: C9_12  and  N2_14 
REMARK    8  A    between atoms: C12_17  and  O1_18 
REMARK    9  A    between atoms: N3_20  and  O2_22 
ROOT
HETATM    1  C1  UNL     1      -1.791   5.119  -5.073  1.00  0.00     0.013 C 
HETATM    2  C2  UNL     1      -0.631   5.446  -4.980  1.00  0.00    -0.100 C 
HETATM    3  C3  UNL     1       0.787   5.838  -4.883  1.00  0.00     0.080 A 
HETATM    4  C4  UNL     1       1.270   6.689  -6.028  1.00  0.00     0.037 C 
HETATM    5  C5  UNL     1       1.725   4.936  -4.216  1.00  0.00     0.026 A 
HETATM    6  N1  UNL     1       2.461   3.904  -4.143  1.00  0.00    -0.382 N 
ATOM      7  H1  UNL     1       2.504   3.268  -4.939  1.00  0.00     0.160 HD
HETATM    8  C13 UNL     1       1.251   6.167  -3.475  1.00  0.00     0.155 A 
HETATM    9 CL1  UNL     1       2.396   7.511  -3.315  1.00  0.00    -0.117 Cl
ENDROOT
BRANCH   6  10
HETATM   10  C6  UNL     1       3.243   3.606  -2.954  1.00  0.00     0.158 C 
BRANCH  10  11
HETATM   11  C7  UNL     1       2.550   2.548  -2.155  1.00  0.00     0.044 C 
BRANCH  11  12
HETATM   12  C8  UNL     1       1.841   3.051  -0.910  1.00  0.00     0.084 C 
BRANCH  12  13
HETATM   13  S1  UNL     1       2.724   2.672   0.572  1.00  0.00    -0.101 SA
BRANCH  13  14
HETATM   14  C9  UNL     1       4.468   2.610   0.460  1.00  0.00     0.135 C 
HETATM   15  S2  UNL     1       5.185   1.105   0.696  1.00  0.00    -0.053 SA
BRANCH  14  16
HETATM   16  N2  UNL     1       5.379   3.648   0.198  1.00  0.00    -0.375 N 
HETATM   17  C10 UNL     1       6.818   3.332   0.105  1.00  0.00     0.150 C 
HETATM   18  C11 UNL     1       4.987   5.016   0.032  1.00  0.00     0.150 C 
ENDBRANCH  14  16
ENDBRANCH  13  14
ENDBRANCH  12  13
ENDBRANCH  11  12
ENDBRANCH  10  11
BRANCH  10  19
HETATM   19  C12 UNL     1       4.644   3.377  -3.278  1.00  0.00     0.158 C 
HETATM   20  N3  UNL     1       5.400   4.224  -3.916  1.00  0.00    -0.249 N 
ATOM     21  H3  UNL     1       6.370   3.967  -4.094  1.00  0.00     0.196 HD
BRANCH  19  22
HETATM   22  O1  UNL     1       5.310   2.186  -2.916  1.00  0.00    -0.347 OA
ATOM     23  H1  UNL     1       6.163   1.961  -3.266  1.00  0.00     0.219 HD
ENDBRANCH  19  22
BRANCH  20  24
HETATM   24  O2  UNL     1       4.958   5.439  -4.357  1.00  0.00    -0.288 OA
ATOM     25  H2  UNL     1       4.677   5.598  -5.250  1.00  0.00     0.244 HD
ENDBRANCH  20  24
ENDBRANCH  10  19
ENDBRANCH   6  10
TORSDOF 9
ENDMDL
MODEL 2
REMARK VINA RESULT: -6.210579247      1.402      1.601
REMARK  9 active torsions:
REMARK  status: ('A' for Active; 'I' for Inactive)
REMARK    1  A    between atoms: N1_6  and  C6_8 
REMARK    2  A    between atoms: C6_8  and  C7_9 
REMARK    3  A    between atoms: C6_8  and  C12_17 
REMARK    4  A    between atoms: C7_9  and  C8_10 
REMARK    5  A    between atoms: C8_10  and  S1_11 
REMARK    6  A    between atoms: S1_11  and  C9_12 
REMARK    7  A    between atoms: C9_12  and  N2_14 
REMARK    8  A    between atoms: C12_17  and  O1_18 
REMARK    9  A    between atoms: N3_20  and  O2_22 
ROOT
HETATM    1  C1  UNL     1      -1.692   5.278  -5.299  1.00  0.00     0.013 C 
HETATM    2  C2  UNL     1      -0.529   5.566  -5.138  1.00  0.00    -0.100 C 
HETATM    3  C3  UNL     1       0.893   5.911  -4.959  1.00  0.00     0.080 A 
HETATM    4  C4  UNL     1       1.466   6.754  -6.067  1.00  0.00     0.037 C 
HETATM    5  C5  UNL     1       1.762   4.973  -4.250  1.00  0.00     0.026 A 
HETATM    6  N1  UNL     1       2.460   3.917  -4.146  1.00  0.00    -0.382 N 
ATOM      7  H1  UNL     1       2.526   3.286  -4.944  1.00  0.00     0.160 HD
HETATM    8  C13 UNL     1       1.289   6.214  -3.524  1.00  0.00     0.155 A 
HETATM    9 CL1  UNL     1       2.466   7.517  -3.289  1.00  0.00    -0.117 Cl
ENDROOT
BRANCH   6  10
HETATM   10  C6  UNL     1       3.165   3.585  -2.919  1.00  0.00     0.158 C 
BRANCH  10  11
HETATM   11  C7  UNL     1       2.398   2.537  -2.173  1.00  0.00     0.044 C 
BRANCH  11  12
HETATM   12  C8  UNL     1       2.022   2.914  -0.752  1.00  0.00     0.084 C 
BRANCH  12  13
HETATM   13  S1  UNL     1       3.254   2.443   0.423  1.00  0.00    -0.101 SA
BRANCH  13  14
HETATM   14  C9  UNL     1       4.135   3.734   1.207  1.00  0.00     0.135 C 
HETATM   15  S2  UNL     1       5.047   4.739   0.211  1.00  0.00    -0.053 SA
BRANCH  14  16
HETATM   16  N2  UNL     1       4.197   4.064   2.572  1.00  0.00    -0.375 N 
HETATM   17  C10 UNL     1       5.353   4.838   3.070  1.00  0.00     0.150 C 
HETATM   18  C11 UNL     1       3.200   3.674   3.523  1.00  0.00     0.150 C 
ENDBRANCH  14  16
ENDBRANCH  13  14
ENDBRANCH  12  13
ENDBRANCH  11  12
ENDBRANCH  10  11
BRANCH  10  19
HETATM   19  C12 UNL     1       4.575   3.320  -3.166  1.00  0.00     0.158 C 
HETATM   20  N3  UNL     1       5.360   4.097  -3.854  1.00  0.00    -0.249 N 
ATOM     21  H3  UNL     1       6.335   3.820  -3.970  1.00  0.00     0.196 HD
BRANCH  19  22
HETATM   22  O1  UNL     1       5.218   2.168  -2.664  1.00  0.00    -0.347 OA
ATOM     23  H1  UNL     1       4.737   1.376  -2.452  1.00  0.00     0.219 HD
ENDBRANCH  19  22
BRANCH  20  24
HETATM   24  O2  UNL     1       4.943   5.265  -4.428  1.00  0.00    -0.288 OA
ATOM     25  H2  UNL     1       5.454   6.066  -4.409  1.00  0.00     0.244 HD
ENDBRANCH  20  24
ENDBRANCH  10  19
ENDBRANCH   6  10
TORSDOF 9
ENDMDL
MODEL 3
REMARK VINA RESULT: -6.199949879      0.974      1.269
REMARK  9 active torsions:
REMARK  status: ('A' for Active; 'I' for Inactive)
REMARK    1  A    between atoms: N1_6  and  C6_8 
REMARK    2  A    between atoms: C6_8  and  C7_9 
REMARK    3  A    between atoms: C6_8  and  C12_17 
REMARK    4  A    between atoms: C7_9  and  C8_10 
REMARK    5  A    between atoms: C8_10  and  S1_11 
REMARK    6  A    between atoms: S1_11  and  C9_12 
REMARK    7  A    between atoms: C9_12  and  N2_14 
REMARK    8  A    between atoms: C12_17  and  O1_18 
REMARK    9  A    between atoms: N3_20  and  O2_22 
ROOT
HETATM    1  C1  UNL     1      -1.823   4.944  -4.681  1.00  0.00     0.013 C 
HETATM    2  C2  UNL     1      -0.662   5.280  -4.659  1.00  0.00    -0.100 C 
HETATM    3  C3  UNL     1       0.756   5.682  -4.649  1.00  0.00     0.080 A 
HETATM    4  C4  UNL     1       1.185   6.458  -5.866  1.00  0.00     0.037 C 
HETATM    5  C5  UNL     1       1.727   4.827  -3.966  1.00  0.00     0.026 A 
HETATM    6  N1  UNL     1       2.472   3.805  -3.858  1.00  0.00    -0.382 N 
ATOM      7  H1  UNL     1       2.484   3.118  -4.612  1.00  0.00     0.160 HD
HETATM    8  C13 UNL     1       1.279   6.103  -3.286  1.00  0.00     0.155 A 
HETATM    9 CL1  UNL     1       2.422   7.457  -3.264  1.00  0.00    -0.117 Cl
ENDROOT
BRANCH   6  10
HETATM   10  C6  UNL     1       3.306   3.587  -2.687  1.00  0.00     0.158 C 
BRANCH  10  11
HETATM   11  C7  UNL     1       2.658   2.575  -1.796  1.00  0.00     0.044 C 
BRANCH  11  12
HETATM   12  C8  UNL     1       2.719   2.898  -0.313  1.00  0.00     0.084 C 
BRANCH  12  13
HETATM   13  S1  UNL     1       3.886   1.891   0.550  1.00  0.00    -0.101 SA
BRANCH  13  14
HETATM   14  C9  UNL     1       5.334   2.679   1.132  1.00  0.00     0.135 C 
HETATM   15  S2  UNL     1       5.279   3.301   2.696  1.00  0.00    -0.053 SA
BRANCH  14  16
HETATM   16  N2  UNL     1       6.562   2.875   0.476  1.00  0.00    -0.375 N 
HETATM   17  C10 UNL     1       6.867   4.203  -0.093  1.00  0.00     0.150 C 
HETATM   18  C11 UNL     1       7.541   1.842   0.311  1.00  0.00     0.150 C 
ENDBRANCH  14  16
ENDBRANCH  13  14
ENDBRANCH  12  13
ENDBRANCH  11  12
ENDBRANCH  10  11
BRANCH  10  19
HETATM   19  C12 UNL     1       4.694   3.350  -3.055  1.00  0.00     0.158 C 
HETATM   20  N3  UNL     1       5.407   4.150  -3.793  1.00  0.00    -0.249 N 
ATOM     21  H3  UNL     1       6.373   3.891  -3.995  1.00  0.00     0.196 HD
BRANCH  19  22
HETATM   22  O1  UNL     1       5.394   2.200  -2.628  1.00  0.00    -0.347 OA
ATOM     23  H1  UNL     1       5.390   1.394  -3.130  1.00  0.00     0.219 HD
ENDBRANCH  19  22
BRANCH  20  24
HETATM   24  O2  UNL     1       4.927   5.319  -4.311  1.00  0.00    -0.288 OA
ATOM     25  H2  UNL     1       4.288   5.863  -3.866  1.00  0.00     0.244 HD
ENDBRANCH  20  24
ENDBRANCH  10  19
ENDBRANCH   6  10
TORSDOF 9
ENDMDL
MODEL 4
REMARK VINA RESULT: -6.117379942      3.402      7.021
REMARK  9 active torsions:
REMARK  status: ('A' for Active; 'I' for Inactive)
REMARK    1  A    between atoms: N1_6  and  C6_8 
REMARK    2  A    between atoms: C6_8  and  C7_9 
REMARK    3  A    between atoms: C6_8  and  C12_17 
REMARK    4  A    between atoms: C7_9  and  C8_10 
REMARK    5  A    between atoms: C8_10  and  S1_11 
REMARK    6  A    between atoms: S1_11  and  C9_12 
REMARK    7  A    between atoms: C9_12  and  N2_14 
REMARK    8  A    between atoms: C12_17  and  O1_18 
REMARK    9  A    between atoms: N3_20  and  O2_22 
ROOT
HETATM    1  C1  UNL     1       2.529   1.479   3.967  1.00  0.00     0.013 C 
HETATM    2  C2  UNL     1       3.331   1.863   3.148  1.00  0.00    -0.100 C 
HETATM    3  C3  UNL     1       4.307   2.347   2.155  1.00  0.00     0.080 A 
HETATM    4  C4  UNL     1       5.449   3.131   2.746  1.00  0.00     0.037 C 
HETATM    5  C5  UNL     1       3.842   2.667   0.806  1.00  0.00     0.026 A 
HETATM    6  N1  UNL     1       3.263   3.391  -0.061  1.00  0.00    -0.382 N 
ATOM      7  H1  UNL     1       2.847   4.276   0.230  1.00  0.00     0.160 HD
HETATM    8  C13 UNL     1       4.592   1.371   1.027  1.00  0.00     0.155 A 
HETATM    9 CL1  UNL     1       6.267   1.292   0.455  1.00  0.00    -0.117 Cl
ENDROOT
BRANCH   6  10
HETATM   10  C6  UNL     1       3.177   2.992  -1.456  1.00  0.00     0.158 C 
BRANCH  10  11
HETATM   11  C7  UNL     1       1.862   3.432  -2.019  1.00  0.00     0.044 C 
BRANCH  11  12
HETATM   12  C8  UNL     1       1.915   3.918  -3.457  1.00  0.00     0.084 C 
BRANCH  12  13
HETATM   13  S1  UNL     1       1.357   5.586  -3.628  1.00  0.00    -0.101 SA
BRANCH  13  14
HETATM   14  C9  UNL     1       0.415   5.963  -5.052  1.00  0.00     0.135 C 
HETATM   15  S2  UNL     1       1.183   6.866  -6.248  1.00  0.00    -0.053 SA
BRANCH  14  16
HETATM   16  N2  UNL     1      -0.915   5.619  -5.354  1.00  0.00    -0.375 N 
HETATM   17  C10 UNL     1      -1.509   6.099  -6.618  1.00  0.00     0.150 C 
HETATM   18  C11 UNL     1      -1.742   4.835  -4.486  1.00  0.00     0.150 C 
ENDBRANCH  14  16
ENDBRANCH  13  14
ENDBRANCH  12  13
ENDBRANCH  11  12
ENDBRANCH  10  11
BRANCH  10  19
HETATM   19  C12 UNL     1       4.372   3.371  -2.196  1.00  0.00     0.158 C 
HETATM   20  N3  UNL     1       4.928   4.546  -2.143  1.00  0.00    -0.249 N 
ATOM     21  H3  UNL     1       5.765   4.711  -2.703  1.00  0.00     0.196 HD
BRANCH  19  22
HETATM   22  O1  UNL     1       5.038   2.467  -3.053  1.00  0.00    -0.347 OA
ATOM     23  H1  UNL     1       5.733   1.900  -2.742  1.00  0.00     0.219 HD
ENDBRANCH  19  22
BRANCH  20  24
HETATM   24  O2  UNL     1       4.448   5.569  -1.376  1.00  0.00    -0.288 OA
ATOM     25  H2  UNL     1       4.750   6.466  -1.454  1.00  0.00     0.244 HD
ENDBRANCH  20  24
ENDBRANCH  10  19
ENDBRANCH   6  10
TORSDOF 9
ENDMDL
MODEL 5
REMARK VINA RESULT: -6.116275671      2.681      6.541
REMARK  9 active torsions:
REMARK  status: ('A' for Active; 'I' for Inactive)
REMARK    1  A    between atoms: N1_6  and  C6_8 
REMARK    2  A    between atoms: C6_8  and  C7_9 
REMARK    3  A    between atoms: C6_8  and  C12_17 
REMARK    4  A    between atoms: C7_9  and  C8_10 
REMARK    5  A    between atoms: C8_10  and  S1_11 
REMARK    6  A    between atoms: S1_11  and  C9_12 
REMARK    7  A    between atoms: C9_12  and  N2_14 
REMARK    8  A    between atoms: C12_17  and  O1_18 
REMARK    9  A    between atoms: N3_20  and  O2_22 
ROOT
HETATM    1  C1  UNL     1       8.506   1.878   0.236  1.00  0.00     0.013 C 
HETATM    2  C2  UNL     1       7.303   1.973   0.163  1.00  0.00    -0.100 C 
HETATM    3  C3  UNL     1       5.835   2.072   0.067  1.00  0.00     0.080 A 
HETATM    4  C4  UNL     1       5.098   0.909   0.676  1.00  0.00     0.037 C 
HETATM    5  C5  UNL     1       5.249   2.772  -1.076  1.00  0.00     0.026 A 
HETATM    6  N1  UNL     1       4.896   2.881  -2.290  1.00  0.00    -0.382 N 
ATOM      7  H1  UNL     1       5.066   2.104  -2.928  1.00  0.00     0.160 HD
HETATM    8  C13 UNL     1       5.287   3.475   0.264  1.00  0.00     0.155 A 
HETATM    9 CL1  UNL     1       3.761   3.608   1.157  1.00  0.00    -0.117 Cl
ENDROOT
BRANCH   6  10
HETATM   10  C6  UNL     1       4.255   4.085  -2.795  1.00  0.00     0.158 C 
BRANCH  10  11
HETATM   11  C7  UNL     1       2.916   4.245  -2.147  1.00  0.00     0.044 C 
BRANCH  11  12
HETATM   12  C8  UNL     1       1.908   3.163  -2.491  1.00  0.00     0.084 C 
BRANCH  12  13
HETATM   13  S1  UNL     1       0.240   3.688  -2.242  1.00  0.00    -0.101 SA
BRANCH  13  14
HETATM   14  C9  UNL     1      -0.715   3.998  -3.673  1.00  0.00     0.135 C 
HETATM   15  S2  UNL     1      -1.966   2.917  -3.994  1.00  0.00    -0.053 SA
BRANCH  14  16
HETATM   16  N2  UNL     1      -0.592   5.034  -4.616  1.00  0.00    -0.375 N 
HETATM   17  C10 UNL     1      -1.782   5.445  -5.388  1.00  0.00     0.150 C 
HETATM   18  C11 UNL     1       0.641   5.710  -4.886  1.00  0.00     0.150 C 
ENDBRANCH  14  16
ENDBRANCH  13  14
ENDBRANCH  12  13
ENDBRANCH  11  12
ENDBRANCH  10  11
BRANCH  10  19
HETATM   19  C12 UNL     1       5.153   5.230  -2.747  1.00  0.00     0.158 C 
HETATM   20  N3  UNL     1       6.073   5.481  -3.632  1.00  0.00    -0.249 N 
ATOM     21  H3  UNL     1       6.652   6.312  -3.505  1.00  0.00     0.196 HD
BRANCH  19  22
HETATM   22  O1  UNL     1       5.092   6.183  -1.707  1.00  0.00    -0.347 OA
ATOM     23  H1  UNL     1       5.876   6.563  -1.327  1.00  0.00     0.219 HD
ENDBRANCH  19  22
BRANCH  20  24
HETATM   24  O2  UNL     1       6.303   4.689  -4.720  1.00  0.00    -0.288 OA
ATOM     25  H2  UNL     1       5.694   4.609  -5.445  1.00  0.00     0.244 HD
ENDBRANCH  20  24
ENDBRANCH  10  19
ENDBRANCH   6  10
TORSDOF 9
ENDMDL
