MODEL 1
REMARK VINA RESULT: -7.913834170      0.000      0.000
REMARK  7 active torsions:
REMARK  status: ('A' for Active; 'I' for Inactive)
REMARK    1  A    between atoms: C2_2  and  N1_3 
REMARK    2  A    between atoms: C2_2  and  C10_16 
REMARK       I    between atoms: N1_3  and  C3_5 
REMARK    3  A    between atoms: C3_5  and  C4_7 
REMARK    4  A    between atoms: C7_10  and  N2_11 
REMARK       I    between atoms: C10_16  and  N3_18 
REMARK    5  A    between atoms: N3_18  and  N4_20 
REMARK    6  A    between atoms: N4_20  and  C11_21 
REMARK    7  A    between atoms: C11_21  and  C12_23 
ROOT
HETATM    1  C1  UNL     1       3.659   6.182  -2.497  1.00  0.00     0.042 C 
HETATM    2  C2  UNL     1       2.970   4.936  -3.016  1.00  0.00     0.175 C 
ENDROOT
BRANCH   2   3
HETATM    3  N1  UNL     1       1.677   5.219  -3.625  1.00  0.00    -0.344 N 
HETATM    4  C3  UNL     1       1.578   5.559  -5.001  1.00  0.00     0.252 C 
HETATM    5  O1  UNL     1       2.643   5.622  -5.661  1.00  0.00    -0.268 OA
ATOM      6  H1  UNL     1       0.831   5.171  -3.055  1.00  0.00     0.163 HD
BRANCH   4   7
HETATM    7  C4  UNL     1       0.283   5.824  -5.624  1.00  0.00     0.032 A 
HETATM    8  C5  UNL     1       0.226   6.680  -6.701  1.00  0.00     0.019 A 
HETATM    9  C6  UNL     1      -0.966   6.931  -7.368  1.00  0.00     0.037 A 
HETATM   10  C7  UNL     1      -2.138   6.328  -6.971  1.00  0.00     0.102 A 
HETATM   11  C8  UNL     1      -2.080   5.473  -5.894  1.00  0.00     0.037 A 
HETATM   12  C9  UNL     1      -0.878   5.212  -5.210  1.00  0.00     0.019 A 
BRANCH  10  13
HETATM   13  N2  UNL     1      -3.367   6.553  -7.655  1.00  0.00    -0.116 N 
HETATM   14  O2  UNL     1      -3.430   7.409  -8.531  1.00  0.00    -0.532 OA
HETATM   15  O3  UNL     1      -4.498   5.846  -7.371  1.00  0.00    -0.532 OA
ENDBRANCH  10  13
ENDBRANCH   4   7
ENDBRANCH   2   3
BRANCH   2  16
HETATM   16  C10 UNL     1       2.839   3.997  -1.902  1.00  0.00     0.268 C 
HETATM   17  O4  UNL     1       1.934   3.086  -1.871  1.00  0.00    -0.269 OA
HETATM   18  N3  UNL     1       3.717   4.009  -0.749  1.00  0.00    -0.200 N 
ATOM     19  H3  UNL     1       4.455   4.714  -0.741  1.00  0.00     0.205 HD
BRANCH  18  20
HETATM   20  N4  UNL     1       3.660   3.229   0.252  1.00  0.00    -0.311 NA
BRANCH  20  21
HETATM   21  C11 UNL     1       3.609   2.503   1.192  1.00  0.00     0.216 C 
HETATM   22 CL1  UNL     1       4.281   0.861   1.125  1.00  0.00    -0.048 Cl
BRANCH  21  23
HETATM   23  C12 UNL     1       3.022   2.883   2.521  1.00  0.00     0.164 C 
HETATM   24  C13 UNL     1       2.752   1.663   3.330  1.00  0.00     0.060 C 
HETATM   25  C14 UNL     1       3.870   3.868   3.247  1.00  0.00     0.060 C 
HETATM   26  F1  UNL     1       1.818   3.515   2.209  1.00  0.00    -0.235 F 
ENDBRANCH  21  23
ENDBRANCH  20  21
ENDBRANCH  18  20
ENDBRANCH   2  16
TORSDOF 7
ENDMDL
MODEL 2
REMARK VINA RESULT: -7.692159288      1.251      1.309
REMARK  7 active torsions:
REMARK  status: ('A' for Active; 'I' for Inactive)
REMARK    1  A    between atoms: C2_2  and  N1_3 
REMARK    2  A    between atoms: C2_2  and  C10_16 
REMARK       I    between atoms: N1_3  and  C3_5 
REMARK    3  A    between atoms: C3_5  and  C4_7 
REMARK    4  A    between atoms: C7_10  and  N2_11 
REMARK       I    between atoms: C10_16  and  N3_18 
REMARK    5  A    between atoms: N3_18  and  N4_20 
REMARK    6  A    between atoms: N4_20  and  C11_21 
REMARK    7  A    between atoms: C11_21  and  C12_23 
ROOT
HETATM    1  C1  UNL     1       4.729   6.000  -2.780  1.00  0.00     0.042 C 
HETATM    2  C2  UNL     1       3.734   4.860  -2.856  1.00  0.00     0.175 C 
ENDROOT
BRANCH   2   3
HETATM    3  N1  UNL     1       2.456   5.264  -3.430  1.00  0.00    -0.344 N 
HETATM    4  C3  UNL     1       2.265   5.287  -4.838  1.00  0.00     0.252 C 
HETATM    5  O1  UNL     1       3.238   4.964  -5.561  1.00  0.00    -0.268 OA
ATOM      6  H1  UNL     1       1.690   5.534  -2.813  1.00  0.00     0.163 HD
BRANCH   4   7
HETATM    7  C4  UNL     1       0.981   5.671  -5.421  1.00  0.00     0.032 A 
HETATM    8  C5  UNL     1       0.967   6.574  -6.460  1.00  0.00     0.019 A 
HETATM    9  C6  UNL     1      -0.216   6.938  -7.090  1.00  0.00     0.037 A 
HETATM   10  C7  UNL     1      -1.422   6.406  -6.692  1.00  0.00     0.102 A 
HETATM   11  C8  UNL     1      -1.406   5.504  -5.652  1.00  0.00     0.037 A 
HETATM   12  C9  UNL     1      -0.213   5.128  -5.006  1.00  0.00     0.019 A 
BRANCH  10  13
HETATM   13  N2  UNL     1      -2.643   6.748  -7.339  1.00  0.00    -0.116 N 
HETATM   14  O2  UNL     1      -2.780   7.860  -7.838  1.00  0.00    -0.532 OA
HETATM   15  O3  UNL     1      -3.689   5.877  -7.427  1.00  0.00    -0.532 OA
ENDBRANCH  10  13
ENDBRANCH   4   7
ENDBRANCH   2   3
BRANCH   2  16
HETATM   16  C10 UNL     1       3.563   4.321  -1.507  1.00  0.00     0.268 C 
HETATM   17  O4  UNL     1       2.672   3.440  -1.224  1.00  0.00    -0.269 OA
HETATM   18  N3  UNL     1       4.383   4.727  -0.383  1.00  0.00    -0.200 N 
ATOM     19  H3  UNL     1       5.108   5.420  -0.570  1.00  0.00     0.205 HD
BRANCH  18  20
HETATM   20  N4  UNL     1       4.289   4.305   0.811  1.00  0.00    -0.311 NA
BRANCH  20  21
HETATM   21  C11 UNL     1       4.205   3.914   1.931  1.00  0.00     0.216 C 
HETATM   22 CL1  UNL     1       5.308   4.492   3.195  1.00  0.00    -0.048 Cl
BRANCH  21  23
HETATM   23  C12 UNL     1       3.165   2.941   2.409  1.00  0.00     0.164 C 
HETATM   24  C13 UNL     1       3.305   1.646   1.687  1.00  0.00     0.060 C 
HETATM   25  C14 UNL     1       3.192   2.771   3.887  1.00  0.00     0.060 C 
HETATM   26  F1  UNL     1       1.946   3.533   2.076  1.00  0.00    -0.235 F 
ENDBRANCH  21  23
ENDBRANCH  20  21
ENDBRANCH  18  20
ENDBRANCH   2  16
TORSDOF 7
ENDMDL
MODEL 3
REMARK VINA RESULT: -7.685897221      1.323      1.468
REMARK  7 active torsions:
REMARK  status: ('A' for Active; 'I' for Inactive)
REMARK    1  A    between atoms: C2_2  and  N1_3 
REMARK    2  A    between atoms: C2_2  and  C10_16 
REMARK       I    between atoms: N1_3  and  C3_5 
REMARK    3  A    between atoms: C3_5  and  C4_7 
REMARK    4  A    between atoms: C7_10  and  N2_11 
REMARK       I    between atoms: C10_16  and  N3_18 
REMARK    5  A    between atoms: N3_18  and  N4_20 
REMARK    6  A    between atoms: N4_20  and  C11_21 
REMARK    7  A    between atoms: C11_21  and  C12_23 
ROOT
HETATM    1  C1  UNL     1       4.316   5.942  -2.350  1.00  0.00     0.042 C 
HETATM    2  C2  UNL     1       3.448   4.740  -2.663  1.00  0.00     0.175 C 
ENDROOT
BRANCH   2   3
HETATM    3  N1  UNL     1       2.188   5.104  -3.299  1.00  0.00    -0.344 N 
HETATM    4  C3  UNL     1       2.128   5.378  -4.693  1.00  0.00     0.252 C 
HETATM    5  O1  UNL     1       3.199   5.311  -5.344  1.00  0.00    -0.268 OA
ATOM      6  H1  UNL     1       1.339   5.162  -2.737  1.00  0.00     0.163 HD
BRANCH   4   7
HETATM    7  C4  UNL     1       0.865   5.724  -5.342  1.00  0.00     0.032 A 
HETATM    8  C5  UNL     1       0.874   6.649  -6.361  1.00  0.00     0.019 A 
HETATM    9  C6  UNL     1      -0.284   6.981  -7.052  1.00  0.00     0.037 A 
HETATM   10  C7  UNL     1      -1.488   6.391  -6.737  1.00  0.00     0.102 A 
HETATM   11  C8  UNL     1      -1.495   5.467  -5.717  1.00  0.00     0.037 A 
HETATM   12  C9  UNL     1      -0.327   5.124  -5.009  1.00  0.00     0.019 A 
BRANCH  10  13
HETATM   13  N2  UNL     1      -2.683   6.699  -7.448  1.00  0.00    -0.116 N 
HETATM   14  O2  UNL     1      -2.842   7.820  -7.918  1.00  0.00    -0.532 OA
HETATM   15  O3  UNL     1      -3.678   5.784  -7.629  1.00  0.00    -0.532 OA
ENDBRANCH  10  13
ENDBRANCH   4   7
ENDBRANCH   2   3
BRANCH   2  16
HETATM   16  C10 UNL     1       3.221   4.010  -1.415  1.00  0.00     0.268 C 
HETATM   17  O4  UNL     1       2.360   3.062  -1.318  1.00  0.00    -0.269 OA
HETATM   18  N3  UNL     1       3.949   4.288  -0.193  1.00  0.00    -0.200 N 
ATOM     19  H3  UNL     1       4.647   5.030  -0.233  1.00  0.00     0.205 HD
BRANCH  18  20
HETATM   20  N4  UNL     1       3.802   3.700   0.923  1.00  0.00    -0.311 NA
BRANCH  20  21
HETATM   21  C11 UNL     1       3.660   3.151   1.969  1.00  0.00     0.216 C 
HETATM   22 CL1  UNL     1       2.987   4.003   3.373  1.00  0.00    -0.048 Cl
BRANCH  21  23
HETATM   23  C12 UNL     1       3.988   1.706   2.214  1.00  0.00     0.164 C 
HETATM   24  C13 UNL     1       4.752   1.151   1.064  1.00  0.00     0.060 C 
HETATM   25  C14 UNL     1       4.690   1.503   3.512  1.00  0.00     0.060 C 
HETATM   26  F1  UNL     1       2.748   1.072   2.304  1.00  0.00    -0.235 F 
ENDBRANCH  21  23
ENDBRANCH  20  21
ENDBRANCH  18  20
ENDBRANCH   2  16
TORSDOF 7
ENDMDL
MODEL 4
REMARK VINA RESULT: -7.530723565      3.689      9.049
REMARK  7 active torsions:
REMARK  status: ('A' for Active; 'I' for Inactive)
REMARK    1  A    between atoms: C2_2  and  N1_3 
REMARK    2  A    between atoms: C2_2  and  C10_16 
REMARK       I    between atoms: N1_3  and  C3_5 
REMARK    3  A    between atoms: C3_5  and  C4_7 
REMARK    4  A    between atoms: C7_10  and  N2_11 
REMARK       I    between atoms: C10_16  and  N3_18 
REMARK    5  A    between atoms: N3_18  and  N4_20 
REMARK    6  A    between atoms: N4_20  and  C11_21 
REMARK    7  A    between atoms: C11_21  and  C12_23 
ROOT
HETATM    1  C1  UNL     1       4.642   4.486  -4.550  1.00  0.00     0.042 C 
HETATM    2  C2  UNL     1       3.481   4.866  -3.654  1.00  0.00     0.175 C 
ENDROOT
BRANCH   2   3
HETATM    3  N1  UNL     1       3.424   4.068  -2.436  1.00  0.00    -0.344 N 
HETATM    4  C3  UNL     1       4.028   4.530  -1.235  1.00  0.00     0.252 C 
HETATM    5  O1  UNL     1       4.622   5.635  -1.271  1.00  0.00    -0.268 OA
ATOM      6  H1  UNL     1       2.944   3.168  -2.445  1.00  0.00     0.163 HD
BRANCH   4   7
HETATM    7  C4  UNL     1       3.958   3.746  -0.003  1.00  0.00     0.032 A 
HETATM    8  C5  UNL     1       4.683   4.162   1.090  1.00  0.00     0.019 A 
HETATM    9  C6  UNL     1       4.618   3.490   2.304  1.00  0.00     0.037 A 
HETATM   10  C7  UNL     1       3.821   2.378   2.454  1.00  0.00     0.102 A 
HETATM   11  C8  UNL     1       3.097   1.963   1.358  1.00  0.00     0.037 A 
HETATM   12  C9  UNL     1       3.156   2.635   0.124  1.00  0.00     0.019 A 
BRANCH  10  13
HETATM   13  N2  UNL     1       3.721   1.688   3.696  1.00  0.00    -0.116 N 
HETATM   14  O2  UNL     1       4.727   1.223   4.219  1.00  0.00    -0.532 OA
HETATM   15  O3  UNL     1       2.530   1.516   4.339  1.00  0.00    -0.532 OA
ENDBRANCH  10  13
ENDBRANCH   4   7
ENDBRANCH   2   3
BRANCH   2  16
HETATM   16  C10 UNL     1       2.249   4.733  -4.434  1.00  0.00     0.268 C 
HETATM   17  O4  UNL     1       2.231   4.831  -5.715  1.00  0.00    -0.269 OA
HETATM   18  N3  UNL     1       0.956   4.474  -3.833  1.00  0.00    -0.200 N 
ATOM     19  H3  UNL     1       0.932   4.382  -2.817  1.00  0.00     0.205 HD
BRANCH  18  20
HETATM   20  N4  UNL     1      -0.150   4.351  -4.445  1.00  0.00    -0.311 NA
BRANCH  20  21
HETATM   21  C11 UNL     1      -1.188   4.233  -5.014  1.00  0.00     0.216 C 
HETATM   22 CL1  UNL     1      -2.098   2.711  -4.966  1.00  0.00    -0.048 Cl
BRANCH  21  23
HETATM   23  C12 UNL     1      -1.854   5.334  -5.789  1.00  0.00     0.164 C 
HETATM   24  C13 UNL     1      -0.835   6.295  -6.294  1.00  0.00     0.060 C 
HETATM   25  C14 UNL     1      -2.724   4.808  -6.875  1.00  0.00     0.060 C 
HETATM   26  F1  UNL     1      -2.679   5.971  -4.861  1.00  0.00    -0.235 F 
ENDBRANCH  21  23
ENDBRANCH  20  21
ENDBRANCH  18  20
ENDBRANCH   2  16
TORSDOF 7
ENDMDL
MODEL 5
REMARK VINA RESULT: -7.527178501      1.836      2.146
REMARK  7 active torsions:
REMARK  status: ('A' for Active; 'I' for Inactive)
REMARK    1  A    between atoms: C2_2  and  N1_3 
REMARK    2  A    between atoms: C2_2  and  C10_16 
REMARK       I    between atoms: N1_3  and  C3_5 
REMARK    3  A    between atoms: C3_5  and  C4_7 
REMARK    4  A    between atoms: C7_10  and  N2_11 
REMARK       I    between atoms: C10_16  and  N3_18 
REMARK    5  A    between atoms: N3_18  and  N4_20 
REMARK    6  A    between atoms: N4_20  and  C11_21 
REMARK    7  A    between atoms: C11_21  and  C12_23 
ROOT
HETATM    1  C1  UNL     1       5.101   7.095  -4.055  1.00  0.00     0.042 C 
HETATM    2  C2  UNL     1       4.665   5.689  -4.412  1.00  0.00     0.175 C 
ENDROOT
BRANCH   2   3
HETATM    3  N1  UNL     1       3.399   5.656  -5.134  1.00  0.00    -0.344 N 
HETATM    4  C3  UNL     1       2.255   6.332  -4.629  1.00  0.00     0.252 C 
HETATM    5  O1  UNL     1       2.375   6.939  -3.537  1.00  0.00    -0.268 OA
ATOM      6  H1  UNL     1       3.334   5.142  -6.013  1.00  0.00     0.163 HD
BRANCH   4   7
HETATM    7  C4  UNL     1       0.988   6.322  -5.357  1.00  0.00     0.032 A 
HETATM    8  C5  UNL     1       0.885   7.053  -6.519  1.00  0.00     0.019 A 
HETATM    9  C6  UNL     1      -0.275   7.043  -7.283  1.00  0.00     0.037 A 
HETATM   10  C7  UNL     1      -1.367   6.297  -6.901  1.00  0.00     0.102 A 
HETATM   11  C8  UNL     1      -1.262   5.568  -5.737  1.00  0.00     0.037 A 
HETATM   12  C9  UNL     1      -0.092   5.572  -4.955  1.00  0.00     0.019 A 
BRANCH  10  13
HETATM   13  N2  UNL     1      -2.557   6.254  -7.681  1.00  0.00    -0.116 N 
HETATM   14  O2  UNL     1      -3.035   5.174  -8.007  1.00  0.00    -0.532 OA
HETATM   15  O3  UNL     1      -3.199   7.386  -8.093  1.00  0.00    -0.532 OA
ENDBRANCH  10  13
ENDBRANCH   4   7
ENDBRANCH   2   3
BRANCH   2  16
HETATM   16  C10 UNL     1       4.589   4.913  -3.173  1.00  0.00     0.268 C 
HETATM   17  O4  UNL     1       4.606   3.628  -3.163  1.00  0.00    -0.269 OA
HETATM   18  N3  UNL     1       4.497   5.523  -1.862  1.00  0.00    -0.200 N 
ATOM     19  H3  UNL     1       4.490   6.542  -1.829  1.00  0.00     0.205 HD
BRANCH  18  20
HETATM   20  N4  UNL     1       4.425   4.913  -0.750  1.00  0.00    -0.311 NA
BRANCH  20  21
HETATM   21  C11 UNL     1       4.363   4.340   0.290  1.00  0.00     0.216 C 
HETATM   22 CL1  UNL     1       5.278   4.897   1.706  1.00  0.00    -0.048 Cl
BRANCH  21  23
HETATM   23  C12 UNL     1       3.503   3.134   0.538  1.00  0.00     0.164 C 
HETATM   24  C13 UNL     1       4.291   1.889   0.325  1.00  0.00     0.060 C 
HETATM   25  C14 UNL     1       2.856   3.173   1.879  1.00  0.00     0.060 C 
HETATM   26  F1  UNL     1       2.491   3.218  -0.419  1.00  0.00    -0.235 F 
ENDBRANCH  21  23
ENDBRANCH  20  21
ENDBRANCH  18  20
ENDBRANCH   2  16
TORSDOF 7
ENDMDL
