MODEL 1
REMARK VINA RESULT: -5.382421975      0.000      0.000
REMARK  2 active torsions:
REMARK  status: ('A' for Active; 'I' for Inactive)
REMARK    1  A    between atoms: C2_2  and  C3_3 
REMARK    2  A    between atoms: C5_6  and  C6_7 
ROOT
HETATM    1  C3  UNL     1      -6.138   4.534  14.779  1.00  0.00     0.234 C 
HETATM    2  C4  UNL     1      -5.202   3.464  14.216  1.00  0.00     0.207 C 
HETATM    3  O1  UNL     1      -5.426   2.419  15.105  1.00  0.00    -0.356 OA
HETATM    4  C5  UNL     1      -5.447   3.020  16.356  1.00  0.00     0.329 C 
HETATM    5  N1  UNL     1      -5.938   4.352  16.202  1.00  0.00    -0.039 N 
ATOM      6  H11 UNL     1      -6.769   4.549  16.761  1.00  0.00     0.281 HD
ATOM      7  H12 UNL     1      -5.338   5.061  16.625  1.00  0.00     0.281 HD
ENDROOT
BRANCH   4   8
HETATM    8  C6  UNL     1      -6.309   2.164  17.252  1.00  0.00     0.001 C 
HETATM    9  C7  UNL     1      -6.358   2.827  18.617  1.00  0.00     0.019 C 
HETATM   10  C8  UNL     1      -7.714   2.025  16.745  1.00  0.00     0.019 C 
HETATM   11  C9  UNL     1      -5.738   0.788  17.440  1.00  0.00     0.019 C 
ENDBRANCH   4   8
BRANCH   1  12
HETATM   12  C2  UNL     1      -5.766   5.878  14.303  1.00  0.00    -0.002 C 
HETATM   13  C1  UNL     1      -4.548   6.367  14.348  1.00  0.00     0.009 C 
ENDBRANCH   1  12
TORSDOF 2
ENDMDL
MODEL 2
REMARK VINA RESULT: -5.371612866      1.443      2.048
REMARK  2 active torsions:
REMARK  status: ('A' for Active; 'I' for Inactive)
REMARK    1  A    between atoms: C2_2  and  C3_3 
REMARK    2  A    between atoms: C5_6  and  C6_7 
ROOT
HETATM    1  C3  UNL     1      -4.812   5.070  15.233  1.00  0.00     0.234 C 
HETATM    2  C4  UNL     1      -6.150   5.732  15.560  1.00  0.00     0.207 C 
HETATM    3  O1  UNL     1      -6.715   4.788  16.411  1.00  0.00    -0.356 OA
HETATM    4  C5  UNL     1      -6.445   3.567  15.808  1.00  0.00     0.329 C 
HETATM    5  N1  UNL     1      -5.218   3.687  15.087  1.00  0.00    -0.039 N 
ATOM      6  H11 UNL     1      -4.506   3.018  15.378  1.00  0.00     0.281 HD
ATOM      7  H12 UNL     1      -5.283   3.381  14.116  1.00  0.00     0.281 HD
ENDROOT
BRANCH   4   8
HETATM    8  C6  UNL     1      -6.397   2.527  16.902  1.00  0.00     0.001 C 
HETATM    9  C7  UNL     1      -7.677   1.715  16.824  1.00  0.00     0.019 C 
HETATM   10  C8  UNL     1      -5.235   1.589  16.759  1.00  0.00     0.019 C 
HETATM   11  C9  UNL     1      -6.338   3.146  18.269  1.00  0.00     0.019 C 
ENDBRANCH   4   8
BRANCH   1  12
HETATM   12  C2  UNL     1      -4.216   5.637  14.011  1.00  0.00    -0.002 C 
HETATM   13  C1  UNL     1      -3.547   6.767  13.970  1.00  0.00     0.009 C 
ENDBRANCH   1  12
TORSDOF 2
ENDMDL
MODEL 3
REMARK VINA RESULT: -5.351955379      1.452      2.010
REMARK  2 active torsions:
REMARK  status: ('A' for Active; 'I' for Inactive)
REMARK    1  A    between atoms: C2_2  and  C3_3 
REMARK    2  A    between atoms: C5_6  and  C6_7 
ROOT
HETATM    1  C3  UNL     1      -4.774   5.108  15.233  1.00  0.00     0.234 C 
HETATM    2  C4  UNL     1      -6.129   5.768  15.487  1.00  0.00     0.207 C 
HETATM    3  O1  UNL     1      -6.728   4.834  16.324  1.00  0.00    -0.356 OA
HETATM    4  C5  UNL     1      -6.425   3.605  15.752  1.00  0.00     0.329 C 
HETATM    5  N1  UNL     1      -5.167   3.721  15.087  1.00  0.00    -0.039 N 
ATOM      6  H11 UNL     1      -4.465   3.060  15.421  1.00  0.00     0.281 HD
ATOM      7  H12 UNL     1      -5.184   3.400  14.119  1.00  0.00     0.281 HD
ENDROOT
BRANCH   4   8
HETATM    8  C6  UNL     1      -6.424   2.581  16.861  1.00  0.00     0.001 C 
HETATM    9  C7  UNL     1      -5.205   1.696  16.671  1.00  0.00     0.019 C 
HETATM   10  C8  UNL     1      -6.347   3.202  18.225  1.00  0.00     0.019 C 
HETATM   11  C9  UNL     1      -7.636   1.695  16.815  1.00  0.00     0.019 C 
ENDBRANCH   4   8
BRANCH   1  12
HETATM   12  C2  UNL     1      -4.123   5.661  14.032  1.00  0.00    -0.002 C 
HETATM   13  C1  UNL     1      -3.425   6.773  14.015  1.00  0.00     0.009 C 
ENDBRANCH   1  12
TORSDOF 2
ENDMDL
MODEL 4
REMARK VINA RESULT: -5.335163668      1.398      1.679
REMARK  2 active torsions:
REMARK  status: ('A' for Active; 'I' for Inactive)
REMARK    1  A    between atoms: C2_2  and  C3_3 
REMARK    2  A    between atoms: C5_6  and  C6_7 
ROOT
HETATM    1  C3  UNL     1      -4.941   3.518  14.216  1.00  0.00     0.234 C 
HETATM    2  C4  UNL     1      -4.674   2.022  14.375  1.00  0.00     0.207 C 
HETATM    3  O1  UNL     1      -5.470   1.724  15.476  1.00  0.00    -0.356 OA
HETATM    4  C5  UNL     1      -5.251   2.771  16.361  1.00  0.00     0.329 C 
HETATM    5  N1  UNL     1      -4.957   3.943  15.601  1.00  0.00    -0.039 N 
ATOM      6  H11 UNL     1      -5.594   4.719  15.783  1.00  0.00     0.281 HD
ATOM      7  H12 UNL     1      -4.102   4.417  15.893  1.00  0.00     0.281 HD
ENDROOT
BRANCH   4   8
HETATM    8  C6  UNL     1      -6.489   2.905  17.214  1.00  0.00     0.001 C 
HETATM    9  C7  UNL     1      -7.063   4.291  16.981  1.00  0.00     0.019 C 
HETATM   10  C8  UNL     1      -7.543   1.895  16.871  1.00  0.00     0.019 C 
HETATM   11  C9  UNL     1      -6.182   2.786  18.679  1.00  0.00     0.019 C 
ENDBRANCH   4   8
BRANCH   1  12
HETATM   12  C2  UNL     1      -3.889   4.170  13.416  1.00  0.00    -0.002 C 
HETATM   13  C1  UNL     1      -2.962   4.957  13.914  1.00  0.00     0.009 C 
ENDBRANCH   1  12
TORSDOF 2
ENDMDL
MODEL 5
REMARK VINA RESULT: -5.299502637      1.403      1.677
REMARK  2 active torsions:
REMARK  status: ('A' for Active; 'I' for Inactive)
REMARK    1  A    between atoms: C2_2  and  C3_3 
REMARK    2  A    between atoms: C5_6  and  C6_7 
ROOT
HETATM    1  C3  UNL     1      -4.873   3.592  14.252  1.00  0.00     0.234 C 
HETATM    2  C4  UNL     1      -4.696   2.078  14.366  1.00  0.00     0.207 C 
HETATM    3  O1  UNL     1      -5.529   1.792  15.442  1.00  0.00    -0.356 OA
HETATM    4  C5  UNL     1      -5.267   2.795  16.365  1.00  0.00     0.329 C 
HETATM    5  N1  UNL     1      -4.891   3.972  15.650  1.00  0.00    -0.039 N 
ATOM      6  H11 UNL     1      -5.485   4.778  15.847  1.00  0.00     0.281 HD
ATOM      7  H12 UNL     1      -4.016   4.385  15.973  1.00  0.00     0.281 HD
ENDROOT
BRANCH   4   8
HETATM    8  C6  UNL     1      -6.511   2.974  17.201  1.00  0.00     0.001 C 
HETATM    9  C7  UNL     1      -6.126   2.763  18.654  1.00  0.00     0.019 C 
HETATM   10  C8  UNL     1      -7.109   4.343  17.065  1.00  0.00     0.019 C 
HETATM   11  C9  UNL     1      -7.569   1.962  16.864  1.00  0.00     0.019 C 
ENDBRANCH   4   8
BRANCH   1  12
HETATM   12  C2  UNL     1      -3.769   4.206  13.493  1.00  0.00    -0.002 C 
HETATM   13  C1  UNL     1      -2.877   5.018  14.012  1.00  0.00     0.009 C 
ENDBRANCH   1  12
TORSDOF 2
ENDMDL
