MODEL 1
REMARK VINA RESULT: -5.479368670      0.000      0.000
REMARK  3 active torsions:
REMARK  status: ('A' for Active; 'I' for Inactive)
REMARK    1  A    between atoms: C2_2  and  C4_4 
REMARK    2  A    between atoms: C4_4  and  O1_5 
REMARK    3  A    between atoms: C4_4  and  C5_7 
ROOT
HETATM    1  C4  UNL     1      -4.706   2.615  16.439  1.00  0.00     0.127 C 
ENDROOT
BRANCH   1   2
HETATM    2  C2  UNL     1      -6.036   2.220  16.953  1.00  0.00     0.006 C 
HETATM    3  C1  UNL     1      -5.893   0.739  17.379  1.00  0.00     0.012 C 
HETATM    4  C3  UNL     1      -6.376   2.927  18.246  1.00  0.00     0.012 C 
ENDBRANCH   1   2
BRANCH   1   5
HETATM    5  O1  UNL     1      -3.901   1.433  16.363  1.00  0.00    -0.395 OA
ATOM      6  H1  UNL     1      -3.343   1.414  17.132  1.00  0.00     0.210 HD
ENDBRANCH   1   5
BRANCH   1   7
HETATM    7  C5  UNL     1      -4.586   3.257  15.141  1.00  0.00     0.040 C 
HETATM    8  C6  UNL     1      -3.738   4.460  14.962  1.00  0.00     0.035 C 
HETATM    9  C7  UNL     1      -4.117   4.757  13.494  1.00  0.00     0.168 C 
HETATM   10  O2  UNL     1      -5.425   4.366  13.361  1.00  0.00    -0.391 OA
HETATM   11  C8  UNL     1      -5.866   3.749  14.516  1.00  0.00     0.174 C 
ENDBRANCH   1   7
TORSDOF 3
ENDMDL
MODEL 2
REMARK VINA RESULT: -5.398007744      1.000      1.571
REMARK  3 active torsions:
REMARK  status: ('A' for Active; 'I' for Inactive)
REMARK    1  A    between atoms: C2_2  and  C4_4 
REMARK    2  A    between atoms: C4_4  and  O1_5 
REMARK    3  A    between atoms: C4_4  and  C5_7 
ROOT
HETATM    1  C4  UNL     1      -4.908   2.323  16.605  1.00  0.00     0.127 C 
ENDROOT
BRANCH   1   2
HETATM    2  C2  UNL     1      -5.970   1.843  17.516  1.00  0.00     0.006 C 
HETATM    3  C1  UNL     1      -6.293   3.040  18.442  1.00  0.00     0.012 C 
HETATM    4  C3  UNL     1      -7.273   1.601  16.786  1.00  0.00     0.012 C 
ENDBRANCH   1   2
BRANCH   1   5
HETATM    5  O1  UNL     1      -3.953   1.267  16.457  1.00  0.00    -0.395 OA
ATOM      6  H1  UNL     1      -3.563   1.109  17.309  1.00  0.00     0.210 HD
ENDBRANCH   1   5
BRANCH   1   7
HETATM    7  C5  UNL     1      -5.241   2.745  15.254  1.00  0.00     0.040 C 
HETATM    8  C6  UNL     1      -4.546   2.162  14.081  1.00  0.00     0.035 C 
HETATM    9  C7  UNL     1      -5.182   3.066  13.001  1.00  0.00     0.168 C 
HETATM   10  O2  UNL     1      -5.383   4.281  13.605  1.00  0.00    -0.391 OA
HETATM   11  C8  UNL     1      -5.076   4.212  14.950  1.00  0.00     0.174 C 
ENDBRANCH   1   7
TORSDOF 3
ENDMDL
MODEL 3
REMARK VINA RESULT: -5.311455677      1.738      4.017
REMARK  3 active torsions:
REMARK  status: ('A' for Active; 'I' for Inactive)
REMARK    1  A    between atoms: C2_2  and  C4_4 
REMARK    2  A    between atoms: C4_4  and  O1_5 
REMARK    3  A    between atoms: C4_4  and  C5_7 
ROOT
HETATM    1  C4  UNL     1      -5.050   3.888  15.056  1.00  0.00     0.127 C 
ENDROOT
BRANCH   1   2
HETATM    2  C2  UNL     1      -5.284   5.326  15.316  1.00  0.00     0.006 C 
HETATM    3  C1  UNL     1      -4.041   6.056  14.752  1.00  0.00     0.012 C 
HETATM    4  C3  UNL     1      -6.421   5.873  14.482  1.00  0.00     0.012 C 
ENDBRANCH   1   2
BRANCH   1   5
HETATM    5  O1  UNL     1      -3.753   3.560  15.568  1.00  0.00    -0.395 OA
ATOM      6  H1  UNL     1      -3.132   3.644  14.854  1.00  0.00     0.210 HD
ENDBRANCH   1   5
BRANCH   1   7
HETATM    7  C5  UNL     1      -5.954   2.891  15.605  1.00  0.00     0.040 C 
HETATM    8  C6  UNL     1      -6.694   3.146  16.864  1.00  0.00     0.035 C 
HETATM    9  C7  UNL     1      -7.331   1.745  17.011  1.00  0.00     0.168 C 
HETATM   10  O2  UNL     1      -6.416   0.866  16.490  1.00  0.00    -0.391 OA
HETATM   11  C8  UNL     1      -5.355   1.546  15.925  1.00  0.00     0.174 C 
ENDBRANCH   1   7
TORSDOF 3
ENDMDL
MODEL 4
REMARK VINA RESULT: -5.296455961      1.248      1.280
REMARK  3 active torsions:
REMARK  status: ('A' for Active; 'I' for Inactive)
REMARK    1  A    between atoms: C2_2  and  C4_4 
REMARK    2  A    between atoms: C4_4  and  O1_5 
REMARK    3  A    between atoms: C4_4  and  C5_7 
ROOT
HETATM    1  C4  UNL     1      -5.275   2.202  16.489  1.00  0.00     0.127 C 
ENDROOT
BRANCH   1   2
HETATM    2  C2  UNL     1      -6.522   2.811  17.002  1.00  0.00     0.006 C 
HETATM    3  C1  UNL     1      -7.603   1.711  16.877  1.00  0.00     0.012 C 
HETATM    4  C3  UNL     1      -6.454   3.070  18.491  1.00  0.00     0.012 C 
ENDBRANCH   1   2
BRANCH   1   5
HETATM    5  O1  UNL     1      -5.614   0.932  15.921  1.00  0.00    -0.395 OA
ATOM      6  H1  UNL     1      -5.008   0.764  15.209  1.00  0.00     0.210 HD
ENDBRANCH   1   5
BRANCH   1   7
HETATM    7  C5  UNL     1      -4.490   2.890  15.477  1.00  0.00     0.040 C 
HETATM    8  C6  UNL     1      -4.511   4.368  15.372  1.00  0.00     0.035 C 
HETATM    9  C7  UNL     1      -3.658   4.491  14.089  1.00  0.00     0.168 C 
HETATM   10  O2  UNL     1      -3.951   3.380  13.340  1.00  0.00    -0.391 OA
HETATM   11  C8  UNL     1      -4.775   2.524  14.043  1.00  0.00     0.174 C 
ENDBRANCH   1   7
TORSDOF 3
ENDMDL
MODEL 5
REMARK VINA RESULT: -5.198571380      1.662      1.931
REMARK  3 active torsions:
REMARK  status: ('A' for Active; 'I' for Inactive)
REMARK    1  A    between atoms: C2_2  and  C4_4 
REMARK    2  A    between atoms: C4_4  and  O1_5 
REMARK    3  A    between atoms: C4_4  and  C5_7 
ROOT
HETATM    1  C4  UNL     1      -5.158   2.064  16.727  1.00  0.00     0.127 C 
ENDROOT
BRANCH   1   2
HETATM    2  C2  UNL     1      -6.413   2.728  17.144  1.00  0.00     0.006 C 
HETATM    3  C1  UNL     1      -7.522   1.663  16.971  1.00  0.00     0.012 C 
HETATM    4  C3  UNL     1      -6.431   3.017  18.629  1.00  0.00     0.012 C 
ENDBRANCH   1   2
BRANCH   1   5
HETATM    5  O1  UNL     1      -5.331   0.654  16.911  1.00  0.00    -0.395 OA
ATOM      6  H1  UNL     1      -4.514   0.230  16.673  1.00  0.00     0.210 HD
ENDBRANCH   1   5
BRANCH   1   7
HETATM    7  C5  UNL     1      -4.663   2.227  15.370  1.00  0.00     0.040 C 
HETATM    8  C6  UNL     1      -5.354   3.120  14.410  1.00  0.00     0.035 C 
HETATM    9  C7  UNL     1      -4.505   2.775  13.165  1.00  0.00     0.168 C 
HETATM   10  O2  UNL     1      -4.156   1.456  13.309  1.00  0.00    -0.391 OA
HETATM   11  C8  UNL     1      -4.568   0.975  14.536  1.00  0.00     0.174 C 
ENDBRANCH   1   7
TORSDOF 3
ENDMDL
