MODEL 1
REMARK VINA RESULT: -6.013169500      0.000      0.000
REMARK  2 active torsions:
REMARK  status: ('A' for Active; 'I' for Inactive)
REMARK    1  A    between atoms: C2_2  and  N2_5 
REMARK    2  A    between atoms: N2_5  and  C4_7 
ROOT
HETATM    1  C1  UNL     1      -6.434   3.043  18.530  1.00  0.00     0.080 C 
HETATM    2  C2  UNL     1      -6.176   2.575  17.122  1.00  0.00     0.083 C 
HETATM    3  C3  UNL     1      -5.941   1.153  17.135  1.00  0.00     0.112 C 
HETATM    4  N1  UNL     1      -5.778  -0.015  17.138  1.00  0.00    -0.190 NA
ENDROOT
BRANCH   2   5
HETATM    5  N2  UNL     1      -5.366   3.347  16.324  1.00  0.00    -0.380 N 
ATOM      6  H2  UNL     1      -4.495   3.674  16.741  1.00  0.00     0.160 HD
BRANCH   5   7
HETATM    7  C4  UNL     1      -5.608   3.727  15.014  1.00  0.00     0.082 C 
HETATM    8  C5  UNL     1      -6.395   4.996  14.915  1.00  0.00     0.025 C 
HETATM    9  C6  UNL     1      -5.645   6.189  15.457  1.00  0.00     0.002 C 
HETATM   10  C7  UNL     1      -4.372   6.366  14.653  1.00  0.00     0.000 C 
HETATM   11  C8  UNL     1      -3.554   5.124  14.540  1.00  0.00     0.002 C 
HETATM   12  C9  UNL     1      -4.327   3.899  14.220  1.00  0.00     0.025 C 
ENDBRANCH   5   7
ENDBRANCH   2   5
TORSDOF 2
ENDMDL
MODEL 2
REMARK VINA RESULT: -5.747980022      1.194      1.209
REMARK  2 active torsions:
REMARK  status: ('A' for Active; 'I' for Inactive)
REMARK    1  A    between atoms: C2_2  and  N2_5 
REMARK    2  A    between atoms: N2_5  and  C4_7 
ROOT
HETATM    1  C1  UNL     1      -7.119   1.803  17.046  1.00  0.00     0.080 C 
HETATM    2  C2  UNL     1      -6.142   2.290  16.009  1.00  0.00     0.083 C 
HETATM    3  C3  UNL     1      -4.922   1.529  16.117  1.00  0.00     0.112 C 
HETATM    4  N1  UNL     1      -3.934   0.890  16.184  1.00  0.00    -0.190 NA
ENDROOT
BRANCH   2   5
HETATM    5  N2  UNL     1      -6.032   3.645  15.813  1.00  0.00    -0.380 N 
ATOM      6  H2  UNL     1      -5.892   4.217  16.646  1.00  0.00     0.160 HD
BRANCH   5   7
HETATM    7  C4  UNL     1      -6.091   4.319  14.603  1.00  0.00     0.082 C 
HETATM    8  C5  UNL     1      -6.363   5.782  14.767  1.00  0.00     0.025 C 
HETATM    9  C6  UNL     1      -5.245   6.505  15.478  1.00  0.00     0.002 C 
HETATM   10  C7  UNL     1      -3.977   6.355  14.659  1.00  0.00     0.000 C 
HETATM   11  C8  UNL     1      -3.661   4.945  14.290  1.00  0.00     0.002 C 
HETATM   12  C9  UNL     1      -4.818   4.160  13.794  1.00  0.00     0.025 C 
ENDBRANCH   5   7
ENDBRANCH   2   5
TORSDOF 2
ENDMDL
MODEL 3
REMARK VINA RESULT: -5.697514907      2.177      4.440
REMARK  2 active torsions:
REMARK  status: ('A' for Active; 'I' for Inactive)
REMARK    1  A    between atoms: C2_2  and  N2_5 
REMARK    2  A    between atoms: N2_5  and  C4_7 
ROOT
HETATM    1  C1  UNL     1      -3.678   4.307  13.103  1.00  0.00     0.080 C 
HETATM    2  C2  UNL     1      -4.676   3.212  13.377  1.00  0.00     0.083 C 
HETATM    3  C3  UNL     1      -5.184   2.715  12.123  1.00  0.00     0.112 C 
HETATM    4  N1  UNL     1      -5.581   2.285  11.099  1.00  0.00    -0.190 NA
ENDROOT
BRANCH   2   5
HETATM    5  N2  UNL     1      -5.574   3.400  14.399  1.00  0.00    -0.380 N 
ATOM      6  H2  UNL     1      -6.562   3.407  14.143  1.00  0.00     0.160 HD
BRANCH   5   7
HETATM    7  C4  UNL     1      -5.282   3.580  15.742  1.00  0.00     0.082 C 
HETATM    8  C5  UNL     1      -6.506   3.772  16.581  1.00  0.00     0.025 C 
HETATM    9  C6  UNL     1      -7.388   2.547  16.611  1.00  0.00     0.002 C 
HETATM   10  C7  UNL     1      -6.595   1.395  17.199  1.00  0.00     0.000 C 
HETATM   11  C8  UNL     1      -5.270   1.184  16.550  1.00  0.00     0.002 C 
HETATM   12  C9  UNL     1      -4.488   2.423  16.317  1.00  0.00     0.025 C 
ENDBRANCH   5   7
ENDBRANCH   2   5
TORSDOF 2
ENDMDL
MODEL 4
REMARK VINA RESULT: -5.511211963      2.456      4.017
REMARK  2 active torsions:
REMARK  status: ('A' for Active; 'I' for Inactive)
REMARK    1  A    between atoms: C2_2  and  N2_5 
REMARK    2  A    between atoms: N2_5  and  C4_7 
ROOT
HETATM    1  C1  UNL     1      -4.465   3.487  11.540  1.00  0.00     0.080 C 
HETATM    2  C2  UNL     1      -4.287   2.604  12.749  1.00  0.00     0.083 C 
HETATM    3  C3  UNL     1      -4.304   1.225  12.330  1.00  0.00     0.112 C 
HETATM    4  N1  UNL     1      -4.289   0.097  11.988  1.00  0.00    -0.190 NA
ENDROOT
BRANCH   2   5
HETATM    5  N2  UNL     1      -4.973   2.932  13.892  1.00  0.00    -0.380 N 
ATOM      6  H2  UNL     1      -5.963   2.687  13.916  1.00  0.00     0.160 HD
BRANCH   5   7
HETATM    7  C4  UNL     1      -4.464   3.560  15.018  1.00  0.00     0.082 C 
HETATM    8  C5  UNL     1      -4.907   4.984  15.138  1.00  0.00     0.025 C 
HETATM    9  C6  UNL     1      -6.397   5.113  15.350  1.00  0.00     0.002 C 
HETATM   10  C7  UNL     1      -6.764   4.400  16.637  1.00  0.00     0.000 C 
HETATM   11  C8  UNL     1      -6.249   3.003  16.719  1.00  0.00     0.002 C 
HETATM   12  C9  UNL     1      -4.837   2.837  16.298  1.00  0.00     0.025 C 
ENDBRANCH   5   7
ENDBRANCH   2   5
TORSDOF 2
ENDMDL
MODEL 5
REMARK VINA RESULT: -5.500215998      1.332      2.073
REMARK  2 active torsions:
REMARK  status: ('A' for Active; 'I' for Inactive)
REMARK    1  A    between atoms: C2_2  and  N2_5 
REMARK    2  A    between atoms: N2_5  and  C4_7 
ROOT
HETATM    1  C1  UNL     1      -6.774   2.081  17.256  1.00  0.00     0.080 C 
HETATM    2  C2  UNL     1      -6.074   2.129  15.923  1.00  0.00     0.083 C 
HETATM    3  C3  UNL     1      -4.871   1.339  15.995  1.00  0.00     0.112 C 
HETATM    4  N1  UNL     1      -3.901   0.670  16.040  1.00  0.00    -0.190 NA
ENDROOT
BRANCH   2   5
HETATM    5  N2  UNL     1      -6.004   3.339  15.276  1.00  0.00    -0.380 N 
ATOM      6  H2  UNL     1      -6.514   3.415  14.396  1.00  0.00     0.160 HD
BRANCH   5   7
HETATM    7  C4  UNL     1      -5.313   4.467  15.691  1.00  0.00     0.082 C 
HETATM    8  C5  UNL     1      -4.032   4.669  14.944  1.00  0.00     0.025 C 
HETATM    9  C6  UNL     1      -4.253   4.955  13.478  1.00  0.00     0.002 C 
HETATM   10  C7  UNL     1      -5.072   6.225  13.352  1.00  0.00     0.000 C 
HETATM   11  C8  UNL     1      -6.317   6.222  14.173  1.00  0.00     0.002 C 
HETATM   12  C9  UNL     1      -6.144   5.729  15.562  1.00  0.00     0.025 C 
ENDBRANCH   5   7
ENDBRANCH   2   5
TORSDOF 2
ENDMDL
