MODEL 1
REMARK VINA RESULT: -4.844523788      0.000      0.000
REMARK  2 active torsions:
REMARK  status: ('A' for Active; 'I' for Inactive)
REMARK    1  A    between atoms: C2_2  and  N1_3 
REMARK    2  A    between atoms: N1_3  and  C4_5 
ROOT
HETATM    1  C4  UNL     1      -4.836   3.209  14.723  1.00  0.00     0.117 C 
HETATM    2  C5  UNL     1      -6.128   3.966  15.153  1.00  0.00     0.111 C 
HETATM    3  C6  UNL     1      -6.752   3.173  16.142  1.00  0.00    -0.161 C 
HETATM    4  C7  UNL     1      -7.219   2.280  17.117  1.00  0.00     0.199 C 
HETATM    5  N2  UNL     1      -6.339   1.072  17.094  1.00  0.00    -0.390 N 
ATOM      6  H2  UNL     1      -6.621   0.165  17.466  1.00  0.00     0.159 HD
HETATM    7  C8  UNL     1      -5.042   1.320  16.489  1.00  0.00     0.081 C 
HETATM    8  C9  UNL     1      -4.888   1.738  15.127  1.00  0.00     0.016 C 
ENDROOT
BRANCH   1   9
HETATM    9  N1  UNL     1      -4.576   3.351  13.341  1.00  0.00    -0.386 N 
HETATM   10  C3  UNL     1      -4.412   4.652  12.753  1.00  0.00     0.149 C 
BRANCH   9  11
HETATM   11  C2  UNL     1      -4.468   2.223  12.496  1.00  0.00     0.075 C 
HETATM   12  C1  UNL     1      -5.098   2.107  11.344  1.00  0.00     0.029 C 
ENDBRANCH   9  11
ENDBRANCH   1   9
TORSDOF 2
ENDMDL
MODEL 2
REMARK VINA RESULT: -4.824866644      1.545      4.384
REMARK  2 active torsions:
REMARK  status: ('A' for Active; 'I' for Inactive)
REMARK    1  A    between atoms: C2_2  and  N1_3 
REMARK    2  A    between atoms: N1_3  and  C4_5 
ROOT
HETATM    1  C4  UNL     1      -5.799   4.116  14.860  1.00  0.00     0.117 C 
HETATM    2  C5  UNL     1      -4.986   5.426  15.087  1.00  0.00     0.111 C 
HETATM    3  C6  UNL     1      -3.853   5.351  14.246  1.00  0.00    -0.161 C 
HETATM    4  C7  UNL     1      -2.807   5.124  13.341  1.00  0.00     0.199 C 
HETATM    5  N2  UNL     1      -2.961   3.740  12.798  1.00  0.00    -0.390 N 
ATOM      6  H2  UNL     1      -2.196   3.215  12.373  1.00  0.00     0.159 HD
HETATM    7  C8  UNL     1      -4.309   3.217  12.935  1.00  0.00     0.081 C 
HETATM    8  C9  UNL     1      -4.943   3.033  14.207  1.00  0.00     0.016 C 
ENDROOT
BRANCH   1   9
HETATM    9  N1  UNL     1      -6.391   3.649  16.055  1.00  0.00    -0.386 N 
HETATM   10  C3  UNL     1      -6.984   4.566  16.990  1.00  0.00     0.149 C 
BRANCH   9  11
HETATM   11  C2  UNL     1      -6.421   2.271  16.368  1.00  0.00     0.075 C 
HETATM   12  C1  UNL     1      -7.433   1.678  16.969  1.00  0.00     0.029 C 
ENDBRANCH   9  11
ENDBRANCH   1   9
TORSDOF 2
ENDMDL
MODEL 3
REMARK VINA RESULT: -4.792375184      1.254      2.249
REMARK  2 active torsions:
REMARK  status: ('A' for Active; 'I' for Inactive)
REMARK    1  A    between atoms: C2_2  and  N1_3 
REMARK    2  A    between atoms: N1_3  and  C4_5 
ROOT
HETATM    1  C4  UNL     1      -4.980   3.977  15.391  1.00  0.00     0.117 C 
HETATM    2  C5  UNL     1      -6.329   4.423  16.032  1.00  0.00     0.111 C 
HETATM    3  C6  UNL     1      -6.849   3.298  16.708  1.00  0.00    -0.161 C 
HETATM    4  C7  UNL     1      -7.204   2.098  17.341  1.00  0.00     0.199 C 
HETATM    5  N2  UNL     1      -6.211   1.055  16.939  1.00  0.00    -0.390 N 
ATOM      6  H2  UNL     1      -6.395   0.053  16.998  1.00  0.00     0.159 HD
HETATM    7  C8  UNL     1      -4.960   1.611  16.456  1.00  0.00     0.081 C 
HETATM    8  C9  UNL     1      -4.880   2.456  15.301  1.00  0.00     0.016 C 
ENDROOT
BRANCH   1   9
HETATM    9  N1  UNL     1      -4.770   4.578  14.130  1.00  0.00    -0.386 N 
HETATM   10  C3  UNL     1      -4.571   3.774  12.955  1.00  0.00     0.149 C 
BRANCH   9  11
HETATM   11  C2  UNL     1      -4.751   5.984  13.983  1.00  0.00     0.075 C 
HETATM   12  C1  UNL     1      -3.794   6.758  14.456  1.00  0.00     0.029 C 
ENDBRANCH   9  11
ENDBRANCH   1   9
TORSDOF 2
ENDMDL
MODEL 4
REMARK VINA RESULT: -4.738212063      1.355      4.584
REMARK  2 active torsions:
REMARK  status: ('A' for Active; 'I' for Inactive)
REMARK    1  A    between atoms: C2_2  and  N1_3 
REMARK    2  A    between atoms: N1_3  and  C4_5 
ROOT
HETATM    1  C4  UNL     1      -5.482   3.273  14.952  1.00  0.00     0.117 C 
HETATM    2  C5  UNL     1      -4.690   4.570  15.299  1.00  0.00     0.111 C 
HETATM    3  C6  UNL     1      -3.726   4.741  14.280  1.00  0.00    -0.161 C 
HETATM    4  C7  UNL     1      -2.853   4.770  13.183  1.00  0.00     0.199 C 
HETATM    5  N2  UNL     1      -3.052   3.510  12.405  1.00  0.00    -0.390 N 
ATOM      6  H2  UNL     1      -2.358   3.134  11.758  1.00  0.00     0.159 HD
HETATM    7  C8  UNL     1      -4.332   2.874  12.660  1.00  0.00     0.081 C 
HETATM    8  C9  UNL     1      -4.719   2.402  13.956  1.00  0.00     0.016 C 
ENDROOT
BRANCH   1   9
HETATM    9  N1  UNL     1      -5.830   2.542  16.109  1.00  0.00    -0.386 N 
HETATM   10  C3  UNL     1      -5.296   1.227  16.338  1.00  0.00     0.149 C 
BRANCH   9  11
HETATM   11  C2  UNL     1      -6.710   3.078  17.077  1.00  0.00     0.075 C 
HETATM   12  C1  UNL     1      -6.472   3.060  18.374  1.00  0.00     0.029 C 
ENDBRANCH   9  11
ENDBRANCH   1   9
TORSDOF 2
ENDMDL
MODEL 5
REMARK VINA RESULT: -4.714824649      2.139      4.562
REMARK  2 active torsions:
REMARK  status: ('A' for Active; 'I' for Inactive)
REMARK    1  A    between atoms: C2_2  and  N1_3 
REMARK    2  A    between atoms: N1_3  and  C4_5 
ROOT
HETATM    1  C4  UNL     1      -5.718   4.421  15.133  1.00  0.00     0.117 C 
HETATM    2  C5  UNL     1      -5.815   5.964  15.326  1.00  0.00     0.111 C 
HETATM    3  C6  UNL     1      -4.613   6.512  14.826  1.00  0.00    -0.161 C 
HETATM    4  C7  UNL     1      -3.380   6.884  14.270  1.00  0.00     0.199 C 
HETATM    5  N2  UNL     1      -2.621   5.635  13.956  1.00  0.00    -0.390 N 
ATOM      6  H2  UNL     1      -1.608   5.609  13.838  1.00  0.00     0.159 HD
HETATM    7  C8  UNL     1      -3.470   4.464  13.837  1.00  0.00     0.081 C 
HETATM    8  C9  UNL     1      -4.274   3.974  14.918  1.00  0.00     0.016 C 
ENDROOT
BRANCH   1   9
HETATM    9  N1  UNL     1      -6.317   3.717  16.201  1.00  0.00    -0.386 N 
HETATM   10  C3  UNL     1      -7.079   4.411  17.204  1.00  0.00     0.149 C 
BRANCH   9  11
HETATM   11  C2  UNL     1      -6.190   2.314  16.317  1.00  0.00     0.075 C 
HETATM   12  C1  UNL     1      -7.053   1.551  16.959  1.00  0.00     0.029 C 
ENDBRANCH   9  11
ENDBRANCH   1   9
TORSDOF 2
ENDMDL
