MODEL 1
REMARK VINA RESULT: -7.145642510      0.000      0.000
REMARK  3 active torsions:
REMARK  status: ('A' for Active; 'I' for Inactive)
REMARK    1  A    between atoms: N2_5  and  C4_6 
REMARK    2  A    between atoms: C13_16  and  C14_17 
REMARK    3  A    between atoms: C14_17  and  N3_18 
ROOT
HETATM    1  C4  UNL     1      -3.365   3.453  10.537  1.00  0.00    -0.005 C 
HETATM    2  C5  UNL     1      -4.699   2.863  10.694  1.00  0.00     0.061 C 
HETATM    3  C6  UNL     1      -5.068   2.321  12.016  1.00  0.00     0.028 C 
HETATM    4  C7  UNL     1      -4.825   3.377  13.052  1.00  0.00     0.015 C 
HETATM    5  C8  UNL     1      -3.512   3.351  13.691  1.00  0.00    -0.000 C 
HETATM    6  C9  UNL     1      -3.823   3.320  15.116  1.00  0.00     0.013 C 
HETATM    7  C10 UNL     1      -4.699   2.036  15.191  1.00  0.00     0.084 C 
HETATM    8  C11 UNL     1      -4.501   1.080  14.077  1.00  0.00     0.156 C 
HETATM    9  O1  UNL     1      -4.371  -0.103  14.439  1.00  0.00    -0.293 OA
HETATM   10  C12 UNL     1      -4.410   1.126  12.567  1.00  0.00     0.000 C 
HETATM   11  C13 UNL     1      -3.092   0.723  12.014  1.00  0.00    -0.022 C 
HETATM   12  C15 UNL     1      -2.060   1.778  11.844  1.00  0.00     0.019 C 
HETATM   13  C16 UNL     1      -2.375   3.189  11.615  1.00  0.00    -0.031 C 
HETATM   14  C17 UNL     1      -2.582   4.063  12.873  1.00  0.00    -0.008 A 
HETATM   15  C18 UNL     1      -1.372   4.671  13.526  1.00  0.00     0.016 A 
HETATM   16  C19 UNL     1      -2.443   5.499  12.818  1.00  0.00     0.016 A 
ENDROOT
BRANCH   1  17
HETATM   17  N2  UNL     1      -3.245   4.814  10.105  1.00  0.00    -0.283 NA
HETATM   18  C3  UNL     1      -2.518   4.951   8.852  1.00  0.00     0.125 C 
HETATM   19  C2  UNL     1      -3.345   5.424   7.707  1.00  0.00     0.286 C 
HETATM   20  N1  UNL     1      -3.900   6.730   7.901  1.00  0.00     0.086 N 
HETATM   21  C1  UNL     1      -3.043   7.788   7.411  1.00  0.00     0.310 C 
HETATM   22  C21 UNL     1      -4.141   6.886   9.332  1.00  0.00     0.286 C 
HETATM   23  C20 UNL     1      -4.482   5.522   9.905  1.00  0.00     0.125 C 
ENDBRANCH   1  17
BRANCH  11  24
HETATM   24  C14 UNL     1      -3.181  -0.222  10.812  1.00  0.00     0.269 C 
BRANCH  24  25
HETATM   25  N3  UNL     1      -3.144  -1.619  11.232  1.00  0.00    -0.075 N 
ATOM     26  H33 UNL     1      -3.768  -1.791  12.020  1.00  0.00     0.274 HD
ATOM     27  H32 UNL     1      -3.589  -2.229  10.544  1.00  0.00     0.274 HD
ATOM     28  H31 UNL     1      -2.191  -1.920  11.437  1.00  0.00     0.274 HD
ENDBRANCH  24  25
ENDBRANCH  11  24
TORSDOF 3
ENDMDL
MODEL 2
REMARK VINA RESULT: -6.850663892      2.418      3.349
REMARK  3 active torsions:
REMARK  status: ('A' for Active; 'I' for Inactive)
REMARK    1  A    between atoms: N2_5  and  C4_6 
REMARK    2  A    between atoms: C13_16  and  C14_17 
REMARK    3  A    between atoms: C14_17  and  N3_18 
ROOT
HETATM    1  C4  UNL     1      -3.191   3.219  12.925  1.00  0.00    -0.005 C 
HETATM    2  C5  UNL     1      -4.473   2.516  12.812  1.00  0.00     0.061 C 
HETATM    3  C6  UNL     1      -5.548   2.874  13.758  1.00  0.00     0.028 C 
HETATM    4  C7  UNL     1      -5.747   4.359  13.718  1.00  0.00     0.015 C 
HETATM    5  C8  UNL     1      -4.981   5.130  14.693  1.00  0.00    -0.000 C 
HETATM    6  C9  UNL     1      -5.993   5.934  15.369  1.00  0.00     0.013 C 
HETATM    7  C10 UNL     1      -6.939   4.817  15.899  1.00  0.00     0.084 C 
HETATM    8  C11 UNL     1      -6.314   3.480  16.027  1.00  0.00     0.156 C 
HETATM    9  O1  UNL     1      -6.551   2.911  17.108  1.00  0.00    -0.293 OA
HETATM   10  C12 UNL     1      -5.441   2.569  15.193  1.00  0.00     0.000 C 
HETATM   11  C13 UNL     1      -4.095   2.308  15.765  1.00  0.00    -0.022 C 
HETATM   12  C15 UNL     1      -2.998   3.246  15.412  1.00  0.00     0.019 C 
HETATM   13  C16 UNL     1      -2.957   4.010  14.163  1.00  0.00    -0.031 C 
HETATM   14  C17 UNL     1      -3.675   5.379  14.168  1.00  0.00    -0.008 A 
HETATM   15  C18 UNL     1      -2.919   6.579  14.665  1.00  0.00     0.016 A 
HETATM   16  C19 UNL     1      -3.340   6.403  13.207  1.00  0.00     0.016 A 
ENDROOT
BRANCH   1  17
HETATM   17  N2  UNL     1      -2.683   3.943  11.798  1.00  0.00    -0.283 NA
HETATM   18  C3  UNL     1      -1.265   3.714  11.565  1.00  0.00     0.125 C 
HETATM   19  C2  UNL     1      -0.957   2.975  10.309  1.00  0.00     0.286 C 
HETATM   20  N1  UNL     1      -1.370   3.662   9.122  1.00  0.00     0.086 N 
HETATM   21  C1  UNL     1      -0.344   4.529   8.584  1.00  0.00     0.310 C 
HETATM   22  C21 UNL     1      -2.562   4.431   9.464  1.00  0.00     0.286 C 
HETATM   23  C20 UNL     1      -3.323   3.671  10.537  1.00  0.00     0.125 C 
ENDBRANCH   1  17
BRANCH  11  24
HETATM   24  C14 UNL     1      -3.665   0.840  15.705  1.00  0.00     0.269 C 
BRANCH  24  25
HETATM   25  N3  UNL     1      -4.816  -0.054  15.788  1.00  0.00    -0.075 N 
ATOM     26  H33 UNL     1      -5.640   0.355  15.348  1.00  0.00     0.274 HD
ATOM     27  H32 UNL     1      -4.703  -0.868  15.182  1.00  0.00     0.274 HD
ATOM     28  H31 UNL     1      -5.004  -0.329  16.752  1.00  0.00     0.274 HD
ENDBRANCH  24  25
ENDBRANCH  11  24
TORSDOF 3
ENDMDL
MODEL 3
REMARK VINA RESULT: -6.817975638      2.834      5.940
REMARK  3 active torsions:
REMARK  status: ('A' for Active; 'I' for Inactive)
REMARK    1  A    between atoms: N2_5  and  C4_6 
REMARK    2  A    between atoms: C13_16  and  C14_17 
REMARK    3  A    between atoms: C14_17  and  N3_18 
ROOT
HETATM    1  C4  UNL     1      -3.562   4.639  11.331  1.00  0.00    -0.005 C 
HETATM    2  C5  UNL     1      -2.440   5.317  10.675  1.00  0.00     0.061 C 
HETATM    3  C6  UNL     1      -1.952   6.581  11.261  1.00  0.00     0.028 C 
HETATM    4  C7  UNL     1      -1.665   6.355  12.715  1.00  0.00     0.015 C 
HETATM    5  C8  UNL     1      -2.761   6.648  13.634  1.00  0.00    -0.000 C 
HETATM    6  C9  UNL     1      -2.167   7.565  14.599  1.00  0.00     0.013 C 
HETATM    7  C10 UNL     1      -1.680   8.702  13.654  1.00  0.00     0.084 C 
HETATM    8  C11 UNL     1      -2.371   8.762  12.344  1.00  0.00     0.156 C 
HETATM    9  O1  UNL     1      -2.736   9.905  12.015  1.00  0.00    -0.293 OA
HETATM   10  C12 UNL     1      -2.774   7.801  11.248  1.00  0.00     0.000 C 
HETATM   11  C13 UNL     1      -4.240   7.667  11.051  1.00  0.00    -0.022 C 
HETATM   12  C15 UNL     1      -4.956   6.640  11.850  1.00  0.00     0.019 C 
HETATM   13  C16 UNL     1      -4.325   5.414  12.344  1.00  0.00    -0.031 C 
HETATM   14  C17 UNL     1      -3.617   5.507  13.716  1.00  0.00    -0.008 A 
HETATM   15  C18 UNL     1      -4.442   5.317  14.958  1.00  0.00     0.016 A 
HETATM   16  C19 UNL     1      -3.367   4.327  14.510  1.00  0.00     0.016 A 
ENDROOT
BRANCH   1  17
HETATM   17  N2  UNL     1      -3.398   3.291  11.790  1.00  0.00    -0.283 NA
HETATM   18  C3  UNL     1      -4.631   2.520  11.745  1.00  0.00     0.125 C 
HETATM   19  C2  UNL     1      -4.629   1.411  10.750  1.00  0.00     0.286 C 
HETATM   20  N1  UNL     1      -3.635   0.412  11.006  1.00  0.00     0.086 N 
HETATM   21  C1  UNL     1      -4.115  -0.662  11.849  1.00  0.00     0.310 C 
HETATM   22  C21 UNL     1      -2.501   1.085  11.631  1.00  0.00     0.286 C 
HETATM   23  C20 UNL     1      -2.429   2.498  11.080  1.00  0.00     0.125 C 
ENDBRANCH   1  17
BRANCH  11  24
HETATM   24  C14 UNL     1      -4.678   7.690   9.583  1.00  0.00     0.269 C 
BRANCH  24  25
HETATM   25  N3  UNL     1      -5.781   6.765   9.344  1.00  0.00    -0.075 N 
ATOM     26  H33 UNL     1      -6.270   6.534  10.209  1.00  0.00     0.274 HD
ATOM     27  H32 UNL     1      -6.548   7.217   8.845  1.00  0.00     0.274 HD
ATOM     28  H31 UNL     1      -5.462   5.925   8.859  1.00  0.00     0.274 HD
ENDBRANCH  24  25
ENDBRANCH  11  24
TORSDOF 3
ENDMDL
MODEL 4
REMARK VINA RESULT: -6.780678100      3.044      5.038
REMARK  3 active torsions:
REMARK  status: ('A' for Active; 'I' for Inactive)
REMARK    1  A    between atoms: N2_5  and  C4_6 
REMARK    2  A    between atoms: C13_16  and  C14_17 
REMARK    3  A    between atoms: C14_17  and  N3_18 
ROOT
HETATM    1  C4  UNL     1      -2.808   5.943  14.204  1.00  0.00    -0.005 C 
HETATM    2  C5  UNL     1      -1.935   4.775  14.046  1.00  0.00     0.061 C 
HETATM    3  C6  UNL     1      -2.357   3.713  13.112  1.00  0.00     0.028 C 
HETATM    4  C7  UNL     1      -2.663   4.337  11.784  1.00  0.00     0.015 C 
HETATM    5  C8  UNL     1      -4.054   4.726  11.569  1.00  0.00    -0.000 C 
HETATM    6  C9  UNL     1      -4.405   4.073  10.313  1.00  0.00     0.013 C 
HETATM    7  C10 UNL     1      -4.108   2.587  10.670  1.00  0.00     0.084 C 
HETATM    8  C11 UNL     1      -4.109   2.282  12.120  1.00  0.00     0.156 C 
HETATM    9  O1  UNL     1      -4.754   1.261  12.423  1.00  0.00    -0.293 OA
HETATM   10  C12 UNL     1      -3.532   2.871  13.387  1.00  0.00     0.000 C 
HETATM   11  C13 UNL     1      -4.542   3.359  14.360  1.00  0.00    -0.022 C 
HETATM   12  C15 UNL     1      -5.005   4.765  14.232  1.00  0.00     0.019 C 
HETATM   13  C16 UNL     1      -4.188   5.838  13.661  1.00  0.00    -0.031 C 
HETATM   14  C17 UNL     1      -4.266   6.024  12.128  1.00  0.00    -0.008 A 
HETATM   15  C18 UNL     1      -5.372   6.874  11.569  1.00  0.00     0.016 A 
HETATM   16  C19 UNL     1      -3.899   7.274  11.507  1.00  0.00     0.016 A 
ENDROOT
BRANCH   1  17
HETATM   17  N2  UNL     1      -2.289   7.251  13.932  1.00  0.00    -0.283 NA
HETATM   18  C3  UNL     1      -2.346   8.137  15.085  1.00  0.00     0.125 C 
HETATM   19  C2  UNL     1      -1.016   8.519  15.636  1.00  0.00     0.286 C 
HETATM   20  N1  UNL     1      -0.198   9.246  14.711  1.00  0.00     0.086 N 
HETATM   21  C1  UNL     1      -0.381  10.679  14.800  1.00  0.00     0.310 C 
HETATM   22  C21 UNL     1      -0.534   8.768  13.374  1.00  0.00     0.286 C 
HETATM   23  C20 UNL     1      -0.924   7.304  13.480  1.00  0.00     0.125 C 
ENDBRANCH   1  17
BRANCH  11  24
HETATM   24  C14 UNL     1      -4.260   2.955  15.810  1.00  0.00     0.269 C 
BRANCH  24  25
HETATM   25  N3  UNL     1      -3.473   1.728  15.875  1.00  0.00    -0.075 N 
ATOM     26  H33 UNL     1      -3.618   1.236  16.757  1.00  0.00     0.274 HD
ATOM     27  H32 UNL     1      -3.833   1.017  15.238  1.00  0.00     0.274 HD
ATOM     28  H31 UNL     1      -2.483   1.913  15.709  1.00  0.00     0.274 HD
ENDBRANCH  24  25
ENDBRANCH  11  24
TORSDOF 3
ENDMDL
MODEL 5
REMARK VINA RESULT: -6.652756713      2.410      4.238
REMARK  3 active torsions:
REMARK  status: ('A' for Active; 'I' for Inactive)
REMARK    1  A    between atoms: N2_5  and  C4_6 
REMARK    2  A    between atoms: C13_16  and  C14_17 
REMARK    3  A    between atoms: C14_17  and  N3_18 
ROOT
HETATM    1  C4  UNL     1      -3.293   4.014  12.748  1.00  0.00    -0.005 C 
HETATM    2  C5  UNL     1      -3.091   4.437  14.138  1.00  0.00     0.061 C 
HETATM    3  C6  UNL     1      -3.731   3.643  15.205  1.00  0.00     0.028 C 
HETATM    4  C7  UNL     1      -3.357   2.203  15.023  1.00  0.00     0.015 C 
HETATM    5  C8  UNL     1      -4.279   1.402  14.224  1.00  0.00    -0.000 C 
HETATM    6  C9  UNL     1      -4.582   0.264  15.085  1.00  0.00     0.013 C 
HETATM    7  C10 UNL     1      -5.144   0.995  16.339  1.00  0.00     0.084 C 
HETATM    8  C11 UNL     1      -5.652   2.364  16.087  1.00  0.00     0.156 C 
HETATM    9  O1  UNL     1      -6.764   2.595  16.597  1.00  0.00    -0.293 OA
HETATM   10  C12 UNL     1      -5.194   3.611  15.365  1.00  0.00     0.000 C 
HETATM   11  C13 UNL     1      -6.043   4.007  14.213  1.00  0.00    -0.022 C 
HETATM   12  C15 UNL     1      -5.715   3.435  12.881  1.00  0.00     0.019 C 
HETATM   13  C16 UNL     1      -4.366   3.019  12.489  1.00  0.00    -0.031 C 
HETATM   14  C17 UNL     1      -3.963   1.568  12.840  1.00  0.00    -0.008 A 
HETATM   15  C18 UNL     1      -4.338   0.472  11.882  1.00  0.00     0.016 A 
HETATM   16  C19 UNL     1      -2.893   0.899  12.139  1.00  0.00     0.016 A 
ENDROOT
BRANCH   1  17
HETATM   17  N2  UNL     1      -2.154   3.706  11.934  1.00  0.00    -0.283 NA
HETATM   18  C3  UNL     1      -2.328   4.092  10.541  1.00  0.00     0.125 C 
HETATM   19  C2  UNL     1      -1.439   5.199  10.092  1.00  0.00     0.286 C 
HETATM   20  N1  UNL     1      -0.044   4.879  10.164  1.00  0.00     0.086 N 
HETATM   21  C1  UNL     1       0.466   4.291   8.945  1.00  0.00     0.310 C 
HETATM   22  C21 UNL     1       0.129   3.963  11.287  1.00  0.00     0.286 C 
HETATM   23  C20 UNL     1      -0.910   4.305  12.340  1.00  0.00     0.125 C 
ENDBRANCH   1  17
BRANCH  11  24
HETATM   24  C14 UNL     1      -6.361   5.504  14.156  1.00  0.00     0.269 C 
BRANCH  24  25
HETATM   25  N3  UNL     1      -6.098   6.051  12.828  1.00  0.00    -0.075 N 
ATOM     26  H33 UNL     1      -6.624   6.910  12.667  1.00  0.00     0.274 HD
ATOM     27  H32 UNL     1      -5.153   6.431  12.760  1.00  0.00     0.274 HD
ATOM     28  H31 UNL     1      -6.278   5.360  12.100  1.00  0.00     0.274 HD
ENDBRANCH  24  25
ENDBRANCH  11  24
TORSDOF 3
ENDMDL
