MODEL 1
REMARK VINA RESULT: -7.380567316      0.000      0.000
REMARK  3 active torsions:
REMARK  status: ('A' for Active; 'I' for Inactive)
REMARK    1  A    between atoms: N1_2  and  C3_4 
REMARK    2  A    between atoms: C3_4  and  C4_5 
REMARK    3  A    between atoms: C4_5  and  N2_6 
ROOT
HETATM    1  N2  UNL     1      -4.035   1.834  14.380  1.00  0.00    -0.345 N 
HETATM    2  C5  UNL     1      -3.727   3.238  14.442  1.00  0.00     0.183 C 
HETATM    3  C6  UNL     1      -3.685   3.902  13.139  1.00  0.00     0.038 A 
HETATM    4  N3  UNL     1      -3.567   5.233  13.096  1.00  0.00    -0.360 N 
ATOM      5  H3  UNL     1      -3.511   5.738  13.981  1.00  0.00     0.165 HD
HETATM    6  C7  UNL     1      -3.519   5.949  11.952  1.00  0.00     0.020 A 
HETATM    7  C8  UNL     1      -3.593   5.292  10.712  1.00  0.00     0.024 A 
HETATM    8  C9  UNL     1      -3.711   3.935  10.763  1.00  0.00     0.189 A 
HETATM    9  O1  UNL     1      -3.779   3.313   9.699  1.00  0.00    -0.287 OA
HETATM   10  C10 UNL     1      -3.759   3.223  11.962  1.00  0.00     0.025 A 
HETATM   11  C11 UNL     1      -3.888   1.753  11.831  1.00  0.00     0.148 C 
HETATM   12  C12 UNL     1      -4.159   1.166  13.147  1.00  0.00     0.224 C 
HETATM   13  O2  UNL     1      -4.537  -0.037  13.164  1.00  0.00    -0.273 OA
HETATM   14  C13 UNL     1      -3.532   6.141   9.544  1.00  0.00    -0.007 C 
HETATM   15  C14 UNL     1      -2.090   6.628   9.392  1.00  0.00     0.014 C 
HETATM   16  C15 UNL     1      -1.442   5.675   8.413  1.00  0.00     0.001 C 
HETATM   17  C16 UNL     1      -2.568   5.226   7.525  1.00  0.00     0.001 C 
HETATM   18  C17 UNL     1      -3.859   5.629   8.218  1.00  0.00     0.014 C 
HETATM   19  C18 UNL     1      -4.453   7.343   9.821  1.00  0.00     0.015 C 
HETATM   20  C19 UNL     1      -3.956   8.183  10.941  1.00  0.00     0.007 C 
HETATM   21  C20 UNL     1      -3.383   7.413  12.082  1.00  0.00     0.058 C 
ENDROOT
BRANCH   1  22
HETATM   22  C4  UNL     1      -4.209   1.117  15.615  1.00  0.00     0.156 C 
BRANCH  22  23
HETATM   23  C3  UNL     1      -4.934   1.924  16.667  1.00  0.00     0.291 C 
BRANCH  23  24
HETATM   24  N1  UNL     1      -6.317   2.101  16.337  1.00  0.00     0.081 N 
HETATM   25  C1  UNL     1      -6.820   3.434  16.609  1.00  0.00     0.309 C 
HETATM   26  C2  UNL     1      -7.205   1.164  16.955  1.00  0.00     0.309 C 
ENDBRANCH  23  24
ENDBRANCH  22  23
ENDBRANCH   1  22
TORSDOF 3
ENDMDL
MODEL 2
REMARK VINA RESULT: -7.369888273      1.265      1.727
REMARK  3 active torsions:
REMARK  status: ('A' for Active; 'I' for Inactive)
REMARK    1  A    between atoms: N1_2  and  C3_4 
REMARK    2  A    between atoms: C3_4  and  C4_5 
REMARK    3  A    between atoms: C4_5  and  N2_6 
ROOT
HETATM    1  N2  UNL     1      -4.168   1.571  14.139  1.00  0.00    -0.345 N 
HETATM    2  C5  UNL     1      -3.716   2.936  14.157  1.00  0.00     0.183 C 
HETATM    3  C6  UNL     1      -3.152   3.401  12.890  1.00  0.00     0.038 A 
HETATM    4  N3  UNL     1      -2.852   4.696  12.753  1.00  0.00    -0.360 N 
ATOM      5  H3  UNL     1      -3.029   5.317  13.544  1.00  0.00     0.165 HD
HETATM    6  C7  UNL     1      -2.329   5.234  11.630  1.00  0.00     0.020 A 
HETATM    7  C8  UNL     1      -2.070   4.415  10.517  1.00  0.00     0.024 A 
HETATM    8  C9  UNL     1      -2.377   3.096  10.665  1.00  0.00     0.189 A 
HETATM    9  O1  UNL     1      -2.166   2.337   9.714  1.00  0.00    -0.287 OA
HETATM   10  C10 UNL     1      -2.917   2.570  11.839  1.00  0.00     0.025 A 
HETATM   11  C11 UNL     1      -3.188   1.114  11.825  1.00  0.00     0.148 C 
HETATM   12  C12 UNL     1      -3.960   0.747  13.016  1.00  0.00     0.224 C 
HETATM   13  O2  UNL     1      -4.476  -0.403  13.025  1.00  0.00    -0.273 OA
HETATM   14  C13 UNL     1      -1.510   5.080   9.362  1.00  0.00    -0.007 C 
HETATM   15  C14 UNL     1      -0.049   5.411   9.673  1.00  0.00     0.014 C 
HETATM   16  C15 UNL     1       0.757   4.274   9.087  1.00  0.00     0.001 C 
HETATM   17  C16 UNL     1      -0.056   3.805   7.914  1.00  0.00     0.001 C 
HETATM   18  C17 UNL     1      -1.438   4.415   8.066  1.00  0.00     0.014 C 
HETATM   19  C18 UNL     1      -2.303   6.386   9.175  1.00  0.00     0.015 C 
HETATM   20  C19 UNL     1      -2.103   7.331  10.304  1.00  0.00     0.007 C 
HETATM   21  C20 UNL     1      -2.052   6.684  11.646  1.00  0.00     0.058 C 
ENDROOT
BRANCH   1  22
HETATM   22  C4  UNL     1      -4.839   1.057  15.302  1.00  0.00     0.156 C 
BRANCH  22  23
HETATM   23  C3  UNL     1      -4.763   1.991  16.487  1.00  0.00     0.291 C 
BRANCH  23  24
HETATM   24  N1  UNL     1      -6.063   2.283  17.014  1.00  0.00     0.081 N 
HETATM   25  C1  UNL     1      -6.983   1.163  16.962  1.00  0.00     0.309 C 
HETATM   26  C2  UNL     1      -6.712   3.410  16.417  1.00  0.00     0.309 C 
ENDBRANCH  23  24
ENDBRANCH  22  23
ENDBRANCH   1  22
TORSDOF 3
ENDMDL
MODEL 3
REMARK VINA RESULT: -7.265274733      3.999      7.794
REMARK  3 active torsions:
REMARK  status: ('A' for Active; 'I' for Inactive)
REMARK    1  A    between atoms: N1_2  and  C3_4 
REMARK    2  A    between atoms: C3_4  and  C4_5 
REMARK    3  A    between atoms: C4_5  and  N2_6 
ROOT
HETATM    1  N2  UNL     1       1.306   4.934  11.267  1.00  0.00    -0.345 N 
HETATM    2  C5  UNL     1       0.792   3.612  11.025  1.00  0.00     0.183 C 
HETATM    3  C6  UNL     1      -0.550   3.380  11.557  1.00  0.00     0.038 A 
HETATM    4  N3  UNL     1      -1.181   2.243  11.248  1.00  0.00    -0.360 N 
ATOM      5  H3  UNL     1      -0.697   1.574  10.648  1.00  0.00     0.165 HD
HETATM    6  C7  UNL     1      -2.420   1.926  11.682  1.00  0.00     0.020 A 
HETATM    7  C8  UNL     1      -3.121   2.819  12.511  1.00  0.00     0.024 A 
HETATM    8  C9  UNL     1      -2.471   3.976  12.822  1.00  0.00     0.189 A 
HETATM    9  O1  UNL     1      -3.047   4.793  13.549  1.00  0.00    -0.287 OA
HETATM   10  C10 UNL     1      -1.190   4.276  12.358  1.00  0.00     0.025 A 
HETATM   11  C11 UNL     1      -0.636   5.577  12.797  1.00  0.00     0.148 C 
HETATM   12  C12 UNL     1       0.597   5.860  12.056  1.00  0.00     0.224 C 
HETATM   13  O2  UNL     1       1.051   7.033  12.137  1.00  0.00    -0.273 OA
HETATM   14  C13 UNL     1      -4.438   2.394  12.925  1.00  0.00    -0.007 C 
HETATM   15  C14 UNL     1      -4.268   1.290  13.971  1.00  0.00     0.014 C 
HETATM   16  C15 UNL     1      -4.355   1.986  15.311  1.00  0.00     0.001 C 
HETATM   17  C16 UNL     1      -5.259   3.161  15.064  1.00  0.00     0.001 C 
HETATM   18  C17 UNL     1      -5.370   3.320  13.558  1.00  0.00     0.014 C 
HETATM   19  C18 UNL     1      -5.130   1.815  11.677  1.00  0.00     0.015 C 
HETATM   20  C19 UNL     1      -4.459   0.585  11.184  1.00  0.00     0.007 C 
HETATM   21  C20 UNL     1      -2.970   0.626  11.251  1.00  0.00     0.058 C 
ENDROOT
BRANCH   1  22
HETATM   22  C4  UNL     1       2.571   5.293  10.686  1.00  0.00     0.156 C 
BRANCH  22  23
HETATM   23  C3  UNL     1       3.008   4.345   9.594  1.00  0.00     0.291 C 
BRANCH  23  24
HETATM   24  N1  UNL     1       4.325   4.654   9.121  1.00  0.00     0.081 N 
HETATM   25  C1  UNL     1       4.995   3.541   8.477  1.00  0.00     0.309 C 
HETATM   26  C2  UNL     1       5.209   5.181  10.115  1.00  0.00     0.309 C 
ENDBRANCH  23  24
ENDBRANCH  22  23
ENDBRANCH   1  22
TORSDOF 3
ENDMDL
MODEL 4
REMARK VINA RESULT: -7.236975340      4.051      7.560
REMARK  3 active torsions:
REMARK  status: ('A' for Active; 'I' for Inactive)
REMARK    1  A    between atoms: N1_2  and  C3_4 
REMARK    2  A    between atoms: C3_4  and  C4_5 
REMARK    3  A    between atoms: C4_5  and  N2_6 
ROOT
HETATM    1  N2  UNL     1       1.109   5.304  11.178  1.00  0.00    -0.345 N 
HETATM    2  C5  UNL     1       0.647   3.992  10.811  1.00  0.00     0.183 C 
HETATM    3  C6  UNL     1      -0.651   3.630  11.380  1.00  0.00     0.038 A 
HETATM    4  N3  UNL     1      -1.243   2.503  10.974  1.00  0.00    -0.360 N 
ATOM      5  H3  UNL     1      -0.763   1.932  10.277  1.00  0.00     0.165 HD
HETATM    6  C7  UNL     1      -2.439   2.072  11.431  1.00  0.00     0.020 A 
HETATM    7  C8  UNL     1      -3.134   2.827  12.391  1.00  0.00     0.024 A 
HETATM    8  C9  UNL     1      -2.524   3.974  12.801  1.00  0.00     0.189 A 
HETATM    9  O1  UNL     1      -3.096   4.672  13.645  1.00  0.00    -0.287 OA
HETATM   10  C10 UNL     1      -1.287   4.393  12.310  1.00  0.00     0.025 A 
HETATM   11  C11 UNL     1      -0.771   5.665  12.868  1.00  0.00     0.148 C 
HETATM   12  C12 UNL     1       0.403   6.096  12.103  1.00  0.00     0.224 C 
HETATM   13  O2  UNL     1       0.804   7.275  12.296  1.00  0.00    -0.273 OA
HETATM   14  C13 UNL     1      -4.404   2.287  12.819  1.00  0.00    -0.007 C 
HETATM   15  C14 UNL     1      -4.123   1.084  13.721  1.00  0.00     0.014 C 
HETATM   16  C15 UNL     1      -4.167   1.618  15.135  1.00  0.00     0.001 C 
HETATM   17  C16 UNL     1      -5.138   2.763  15.072  1.00  0.00     0.001 C 
HETATM   18  C17 UNL     1      -5.342   3.084  13.602  1.00  0.00     0.014 C 
HETATM   19  C18 UNL     1      -5.136   1.817  11.549  1.00  0.00     0.015 C 
HETATM   20  C19 UNL     1      -4.436   0.688  10.884  1.00  0.00     0.007 C 
HETATM   21  C20 UNL     1      -2.950   0.801  10.880  1.00  0.00     0.058 C 
ENDROOT
BRANCH   1  22
HETATM   22  C4  UNL     1       2.321   5.794  10.579  1.00  0.00     0.156 C 
BRANCH  22  23
HETATM   23  C3  UNL     1       3.527   4.946  10.912  1.00  0.00     0.291 C 
BRANCH  23  24
HETATM   24  N1  UNL     1       4.486   5.674  11.690  1.00  0.00     0.081 N 
HETATM   25  C1  UNL     1       5.865   5.356  11.371  1.00  0.00     0.309 C 
HETATM   26  C2  UNL     1       4.324   5.549  13.106  1.00  0.00     0.309 C 
ENDBRANCH  23  24
ENDBRANCH  22  23
ENDBRANCH   1  22
TORSDOF 3
ENDMDL
MODEL 5
REMARK VINA RESULT: -7.079547970      3.928      7.049
REMARK  3 active torsions:
REMARK  status: ('A' for Active; 'I' for Inactive)
REMARK    1  A    between atoms: N1_2  and  C3_4 
REMARK    2  A    between atoms: C3_4  and  C4_5 
REMARK    3  A    between atoms: C4_5  and  N2_6 
ROOT
HETATM    1  N2  UNL     1       1.195   5.562  11.205  1.00  0.00    -0.345 N 
HETATM    2  C5  UNL     1       0.074   5.876  12.050  1.00  0.00     0.183 C 
HETATM    3  C6  UNL     1      -0.890   4.786  12.201  1.00  0.00     0.038 A 
HETATM    4  N3  UNL     1      -1.880   4.917  13.089  1.00  0.00    -0.360 N 
ATOM      5  H3  UNL     1      -1.926   5.779  13.633  1.00  0.00     0.165 HD
HETATM    6  C7  UNL     1      -2.823   3.976  13.311  1.00  0.00     0.020 A 
HETATM    7  C8  UNL     1      -2.796   2.774  12.584  1.00  0.00     0.024 A 
HETATM    8  C9  UNL     1      -1.786   2.647  11.680  1.00  0.00     0.189 A 
HETATM    9  O1  UNL     1      -1.721   1.608  11.016  1.00  0.00    -0.287 OA
HETATM   10  C10 UNL     1      -0.824   3.638  11.472  1.00  0.00     0.025 A 
HETATM   11  C11 UNL     1       0.201   3.334  10.449  1.00  0.00     0.148 C 
HETATM   12  C12 UNL     1       1.263   4.343  10.503  1.00  0.00     0.224 C 
HETATM   13  O2  UNL     1       2.321   4.087   9.869  1.00  0.00    -0.273 OA
HETATM   14  C13 UNL     1      -3.846   1.828  12.890  1.00  0.00    -0.007 C 
HETATM   15  C14 UNL     1      -5.148   2.362  12.289  1.00  0.00     0.014 C 
HETATM   16  C15 UNL     1      -5.282   1.681  10.946  1.00  0.00     0.001 C 
HETATM   17  C16 UNL     1      -4.596   0.356  11.128  1.00  0.00     0.001 C 
HETATM   18  C17 UNL     1      -3.790   0.452  12.411  1.00  0.00     0.014 C 
HETATM   19  C18 UNL     1      -3.970   1.785  14.424  1.00  0.00     0.015 C 
HETATM   20  C19 UNL     1      -4.433   3.079  14.987  1.00  0.00     0.007 C 
HETATM   21  C20 UNL     1      -3.850   4.282  14.327  1.00  0.00     0.058 C 
ENDROOT
BRANCH   1  22
HETATM   22  C4  UNL     1       2.252   6.529  11.084  1.00  0.00     0.156 C 
BRANCH  22  23
HETATM   23  C3  UNL     1       2.716   7.065  12.419  1.00  0.00     0.291 C 
BRANCH  23  24
HETATM   24  N1  UNL     1       4.082   6.722  12.680  1.00  0.00     0.081 N 
HETATM   25  C1  UNL     1       4.290   5.316  12.969  1.00  0.00     0.309 C 
HETATM   26  C2  UNL     1       4.699   7.479  13.726  1.00  0.00     0.309 C 
ENDBRANCH  23  24
ENDBRANCH  22  23
ENDBRANCH   1  22
TORSDOF 3
ENDMDL
