MODEL 1
REMARK VINA RESULT: -8.000714488      0.000      0.000
REMARK  4 active torsions:
REMARK  status: ('A' for Active; 'I' for Inactive)
REMARK    1  A    between atoms: N1_4  and  C4_5 
REMARK    2  A    between atoms: C4_5  and  O1_6 
REMARK    3  A    between atoms: C5_8  and  N2_9 
REMARK       I    between atoms: N2_9  and  C6_11 
REMARK    4  A    between atoms: C6_11  and  C7_13 
ROOT
HETATM    1  N2  UNL     1      -3.010   2.224  12.175  1.00  0.00    -0.332 N 
ATOM      2  H2  UNL     1      -3.492   3.115  12.293  1.00  0.00     0.168 HD
HETATM    3  C6  UNL     1      -1.784   2.139  11.438  1.00  0.00     0.230 C 
HETATM    4  O2  UNL     1      -1.232   1.024  11.321  1.00  0.00    -0.272 OA
ENDROOT
BRANCH   1   5
HETATM    5  C5  UNL     1      -3.524   1.044  12.728  1.00  0.00     0.146 C 
HETATM    6  C4  UNL     1      -4.259   0.992  13.953  1.00  0.00     0.153 C 
BRANCH   6   7
HETATM    7  N1  UNL     1      -4.665   1.866  14.941  1.00  0.00    -0.356 N 
HETATM    8  C3  UNL     1      -4.707   3.292  14.900  1.00  0.00     0.156 C 
HETATM    9  C2  UNL     1      -6.144   3.798  14.992  1.00  0.00     0.136 C 
HETATM   10  C1  UNL     1      -6.189   5.196  15.567  1.00  0.00     0.041 C 
HETATM   11  O3  UNL     1      -6.965   2.896  15.634  1.00  0.00    -0.373 OA
HETATM   12  C18 UNL     1      -6.427   2.128  16.619  1.00  0.00     0.070 C 
HETATM   13  C17 UNL     1      -5.191   1.345  16.253  1.00  0.00     0.162 C 
HETATM   14  C19 UNL     1      -7.507   1.090  16.975  1.00  0.00     0.047 C 
HETATM   15  C20 UNL     1      -6.144   2.888  17.896  1.00  0.00     0.047 C 
ENDBRANCH   6   7
BRANCH   6  16
HETATM   16  O1  UNL     1      -4.667  -0.256  14.209  1.00  0.00    -0.345 OA
ATOM     17  H1  UNL     1      -4.466  -0.510  15.102  1.00  0.00     0.219 HD
ENDBRANCH   6  16
ENDBRANCH   1   5
BRANCH   3  18
HETATM   18  C7  UNL     1      -1.143   3.301  10.810  1.00  0.00     0.042 C 
HETATM   19  C8  UNL     1       0.154   3.645  11.486  1.00  0.00     0.024 C 
HETATM   20  C9  UNL     1       0.892   4.716  10.711  1.00  0.00    -0.013 C 
HETATM   21  C10 UNL     1       1.134   4.238   9.308  1.00  0.00     0.009 C 
HETATM   22  C14 UNL     1       0.048   5.966  10.737  1.00  0.00     0.009 C 
HETATM   23  C11 UNL     1      -0.180   4.047   8.613  1.00  0.00    -0.013 C 
HETATM   24  C12 UNL     1      -1.037   5.292   8.664  1.00  0.00     0.009 C 
HETATM   25  C16 UNL     1      -0.934   2.956   9.336  1.00  0.00     0.024 C 
HETATM   26  C13 UNL     1      -1.294   5.637  10.108  1.00  0.00    -0.013 C 
HETATM   27  C15 UNL     1      -2.013   4.537  10.838  1.00  0.00     0.024 C 
ENDBRANCH   3  18
TORSDOF 4
ENDMDL
MODEL 2
REMARK VINA RESULT: -7.954268449      3.717      6.057
REMARK  4 active torsions:
REMARK  status: ('A' for Active; 'I' for Inactive)
REMARK    1  A    between atoms: N1_4  and  C4_5 
REMARK    2  A    between atoms: C4_5  and  O1_6 
REMARK    3  A    between atoms: C5_8  and  N2_9 
REMARK       I    between atoms: N2_9  and  C6_11 
REMARK    4  A    between atoms: C6_11  and  C7_13 
ROOT
HETATM    1  N2  UNL     1      -5.233   5.252  13.263  1.00  0.00    -0.332 N 
ATOM      2  H2  UNL     1      -6.230   5.100  13.107  1.00  0.00     0.168 HD
HETATM    3  C6  UNL     1      -4.482   6.147  12.432  1.00  0.00     0.230 C 
HETATM    4  O2  UNL     1      -3.264   6.298  12.664  1.00  0.00    -0.272 OA
ENDROOT
BRANCH   1   5
HETATM    5  C5  UNL     1      -4.553   4.593  14.296  1.00  0.00     0.146 C 
HETATM    6  C4  UNL     1      -3.764   3.417  14.108  1.00  0.00     0.153 C 
BRANCH   6   7
HETATM    7  N1  UNL     1      -3.424   2.566  13.075  1.00  0.00    -0.356 N 
HETATM    8  C3  UNL     1      -4.088   1.374  12.655  1.00  0.00     0.156 C 
HETATM    9  C2  UNL     1      -4.663   1.536  11.250  1.00  0.00     0.136 C 
HETATM   10  C1  UNL     1      -4.791   0.197  10.560  1.00  0.00     0.041 C 
HETATM   11  O3  UNL     1      -3.976   2.483  10.521  1.00  0.00    -0.373 OA
HETATM   12  C18 UNL     1      -2.645   2.632  10.756  1.00  0.00     0.070 C 
HETATM   13  C17 UNL     1      -2.244   2.871  12.190  1.00  0.00     0.162 C 
HETATM   14  C19 UNL     1      -2.222   3.889   9.974  1.00  0.00     0.047 C 
HETATM   15  C20 UNL     1      -1.802   1.500  10.212  1.00  0.00     0.047 C 
ENDBRANCH   6   7
BRANCH   6  16
HETATM   16  O1  UNL     1      -3.194   3.038  15.257  1.00  0.00    -0.345 OA
ATOM     17  H1  UNL     1      -3.835   2.976  15.956  1.00  0.00     0.219 HD
ENDBRANCH   6  16
ENDBRANCH   1   5
BRANCH   3  18
HETATM   18  C7  UNL     1      -5.076   6.896  11.319  1.00  0.00     0.042 C 
HETATM   19  C8  UNL     1      -6.497   7.287  11.613  1.00  0.00     0.024 C 
HETATM   20  C9  UNL     1      -7.027   8.219  10.546  1.00  0.00    -0.013 C 
HETATM   21  C10 UNL     1      -6.148   9.434  10.463  1.00  0.00     0.009 C 
HETATM   22  C14 UNL     1      -7.052   7.458   9.243  1.00  0.00     0.009 C 
HETATM   23  C11 UNL     1      -4.775   9.026  10.020  1.00  0.00    -0.013 C 
HETATM   24  C12 UNL     1      -4.804   8.240   8.729  1.00  0.00     0.009 C 
HETATM   25  C16 UNL     1      -4.194   8.122  11.082  1.00  0.00     0.024 C 
HETATM   26  C13 UNL     1      -5.635   7.001   8.941  1.00  0.00    -0.013 C 
HETATM   27  C15 UNL     1      -5.078   6.118  10.023  1.00  0.00     0.024 C 
ENDBRANCH   3  18
TORSDOF 4
ENDMDL
MODEL 3
REMARK VINA RESULT: -7.897840482      3.715      5.896
REMARK  4 active torsions:
REMARK  status: ('A' for Active; 'I' for Inactive)
REMARK    1  A    between atoms: N1_4  and  C4_5 
REMARK    2  A    between atoms: C4_5  and  O1_6 
REMARK    3  A    between atoms: C5_8  and  N2_9 
REMARK       I    between atoms: N2_9  and  C6_11 
REMARK    4  A    between atoms: C6_11  and  C7_13 
ROOT
HETATM    1  N2  UNL     1      -5.236   5.274  13.230  1.00  0.00    -0.332 N 
ATOM      2  H2  UNL     1      -6.224   5.094  13.048  1.00  0.00     0.168 HD
HETATM    3  C6  UNL     1      -4.495   6.208  12.434  1.00  0.00     0.230 C 
HETATM    4  O2  UNL     1      -3.288   6.392  12.697  1.00  0.00    -0.272 OA
ENDROOT
BRANCH   1   5
HETATM    5  C5  UNL     1      -4.560   4.617  14.266  1.00  0.00     0.146 C 
HETATM    6  C4  UNL     1      -3.774   3.437  14.084  1.00  0.00     0.153 C 
BRANCH   6   7
HETATM    7  N1  UNL     1      -3.437   2.581  13.054  1.00  0.00    -0.356 N 
HETATM    8  C3  UNL     1      -4.110   1.395  12.632  1.00  0.00     0.156 C 
HETATM    9  C2  UNL     1      -4.674   1.560  11.224  1.00  0.00     0.136 C 
HETATM   10  C1  UNL     1      -4.811   0.221  10.535  1.00  0.00     0.041 C 
HETATM   11  O3  UNL     1      -3.973   2.499  10.498  1.00  0.00    -0.373 OA
HETATM   12  C18 UNL     1      -2.642   2.635  10.741  1.00  0.00     0.070 C 
HETATM   13  C17 UNL     1      -2.248   2.872  12.177  1.00  0.00     0.162 C 
HETATM   14  C19 UNL     1      -2.201   3.885   9.959  1.00  0.00     0.047 C 
HETATM   15  C20 UNL     1      -1.807   1.493  10.204  1.00  0.00     0.047 C 
ENDBRANCH   6   7
BRANCH   6  16
HETATM   16  O1  UNL     1      -3.207   3.061  15.235  1.00  0.00    -0.345 OA
ATOM     17  H1  UNL     1      -3.755   3.284  15.979  1.00  0.00     0.219 HD
ENDBRANCH   6  16
ENDBRANCH   1   5
BRANCH   3  18
HETATM   18  C7  UNL     1      -5.086   6.959  11.321  1.00  0.00     0.042 C 
HETATM   19  C8  UNL     1      -4.354   8.248  11.075  1.00  0.00     0.024 C 
HETATM   20  C9  UNL     1      -4.851   8.913   9.810  1.00  0.00    -0.013 C 
HETATM   21  C10 UNL     1      -4.676   7.974   8.652  1.00  0.00     0.009 C 
HETATM   22  C14 UNL     1      -6.301   9.275  10.021  1.00  0.00     0.009 C 
HETATM   23  C11 UNL     1      -5.538   6.764   8.856  1.00  0.00    -0.013 C 
HETATM   24  C12 UNL     1      -6.985   7.130   9.096  1.00  0.00     0.009 C 
HETATM   25  C16 UNL     1      -5.047   6.049  10.093  1.00  0.00     0.024 C 
HETATM   26  C13 UNL     1      -7.063   7.997  10.325  1.00  0.00    -0.013 C 
HETATM   27  C15 UNL     1      -6.541   7.299  11.550  1.00  0.00     0.024 C 
ENDBRANCH   3  18
TORSDOF 4
ENDMDL
MODEL 4
REMARK VINA RESULT: -7.893924406      3.729      6.140
REMARK  4 active torsions:
REMARK  status: ('A' for Active; 'I' for Inactive)
REMARK    1  A    between atoms: N1_4  and  C4_5 
REMARK    2  A    between atoms: C4_5  and  O1_6 
REMARK    3  A    between atoms: C5_8  and  N2_9 
REMARK       I    between atoms: N2_9  and  C6_11 
REMARK    4  A    between atoms: C6_11  and  C7_13 
ROOT
HETATM    1  N2  UNL     1      -3.655   6.177  13.089  1.00  0.00    -0.332 N 
ATOM      2  H2  UNL     1      -2.943   6.858  12.821  1.00  0.00     0.168 HD
HETATM    3  C6  UNL     1      -4.889   6.074  12.368  1.00  0.00     0.230 C 
HETATM    4  O2  UNL     1      -5.728   5.225  12.736  1.00  0.00    -0.272 OA
ENDROOT
BRANCH   1   5
HETATM    5  C5  UNL     1      -3.457   5.313  14.174  1.00  0.00     0.146 C 
HETATM    6  C4  UNL     1      -3.156   3.922  14.041  1.00  0.00     0.153 C 
BRANCH   6   7
HETATM    7  N1  UNL     1      -3.003   3.000  13.024  1.00  0.00    -0.356 N 
HETATM    8  C3  UNL     1      -3.806   1.855  12.738  1.00  0.00     0.156 C 
HETATM    9  C2  UNL     1      -4.513   2.007  11.395  1.00  0.00     0.136 C 
HETATM   10  C1  UNL     1      -4.827   0.655  10.793  1.00  0.00     0.041 C 
HETATM   11  O3  UNL     1      -3.832   2.857  10.550  1.00  0.00    -0.373 OA
HETATM   12  C18 UNL     1      -2.476   2.897  10.637  1.00  0.00     0.070 C 
HETATM   13  C17 UNL     1      -1.904   3.161  12.007  1.00  0.00     0.162 C 
HETATM   14  C19 UNL     1      -2.036   4.075   9.750  1.00  0.00     0.047 C 
HETATM   15  C20 UNL     1      -1.794   1.672  10.069  1.00  0.00     0.047 C 
ENDBRANCH   6   7
BRANCH   6  16
HETATM   16  O1  UNL     1      -2.971   3.359  15.240  1.00  0.00    -0.345 OA
ATOM     17  H1  UNL     1      -3.676   3.578  15.838  1.00  0.00     0.219 HD
ENDBRANCH   6  16
ENDBRANCH   1   5
BRANCH   3  18
HETATM   18  C7  UNL     1      -5.217   6.921  11.214  1.00  0.00     0.042 C 
HETATM   19  C8  UNL     1      -5.110   6.158   9.924  1.00  0.00     0.024 C 
HETATM   20  C9  UNL     1      -5.636   6.985   8.770  1.00  0.00    -0.013 C 
HETATM   21  C10 UNL     1      -7.061   7.371   9.043  1.00  0.00     0.009 C 
HETATM   22  C14 UNL     1      -4.746   8.195   8.630  1.00  0.00     0.009 C 
HETATM   23  C11 UNL     1      -7.115   8.256  10.252  1.00  0.00    -0.013 C 
HETATM   24  C12 UNL     1      -6.201   9.454  10.121  1.00  0.00     0.009 C 
HETATM   25  C16 UNL     1      -6.632   7.453  11.437  1.00  0.00     0.024 C 
HETATM   26  C13 UNL     1      -4.789   8.962   9.939  1.00  0.00    -0.013 C 
HETATM   27  C15 UNL     1      -4.320   8.132  11.102  1.00  0.00     0.024 C 
ENDBRANCH   3  18
TORSDOF 4
ENDMDL
MODEL 5
REMARK VINA RESULT: -7.791257577      1.725      3.259
REMARK  4 active torsions:
REMARK  status: ('A' for Active; 'I' for Inactive)
REMARK    1  A    between atoms: N1_4  and  C4_5 
REMARK    2  A    between atoms: C4_5  and  O1_6 
REMARK    3  A    between atoms: C5_8  and  N2_9 
REMARK       I    between atoms: N2_9  and  C6_11 
REMARK    4  A    between atoms: C6_11  and  C7_13 
ROOT
HETATM    1  N2  UNL     1      -0.992   1.923  11.360  1.00  0.00    -0.332 N 
ATOM      2  H2  UNL     1      -0.288   1.947  12.099  1.00  0.00     0.168 HD
HETATM    3  C6  UNL     1      -1.011   2.913  10.324  1.00  0.00     0.230 C 
HETATM    4  O2  UNL     1      -1.893   2.839   9.443  1.00  0.00    -0.272 OA
ENDROOT
BRANCH   1   5
HETATM    5  C5  UNL     1      -1.970   0.921  11.326  1.00  0.00     0.146 C 
HETATM    6  C4  UNL     1      -3.178   0.960  12.090  1.00  0.00     0.153 C 
BRANCH   6   7
HETATM    7  N1  UNL     1      -3.773   1.785  13.023  1.00  0.00    -0.356 N 
HETATM    8  C3  UNL     1      -4.565   1.418  14.153  1.00  0.00     0.156 C 
HETATM    9  C2  UNL     1      -3.869   1.802  15.455  1.00  0.00     0.136 C 
HETATM   10  C1  UNL     1      -4.874   2.015  16.564  1.00  0.00     0.041 C 
HETATM   11  O3  UNL     1      -2.993   2.852  15.278  1.00  0.00    -0.373 OA
HETATM   12  C18 UNL     1      -3.298   3.791  14.342  1.00  0.00     0.070 C 
HETATM   13  C17 UNL     1      -3.586   3.278  12.954  1.00  0.00     0.162 C 
HETATM   14  C19 UNL     1      -2.050   4.683  14.224  1.00  0.00     0.047 C 
HETATM   15  C20 UNL     1      -4.429   4.710  14.750  1.00  0.00     0.047 C 
ENDBRANCH   6   7
BRANCH   6  16
HETATM   16  O1  UNL     1      -3.945  -0.102  11.820  1.00  0.00    -0.345 OA
ATOM     17  H1  UNL     1      -3.435  -0.809  11.442  1.00  0.00     0.219 HD
ENDBRANCH   6  16
ENDBRANCH   1   5
BRANCH   3  18
HETATM   18  C7  UNL     1      -0.041   4.013  10.248  1.00  0.00     0.042 C 
HETATM   19  C8  UNL     1      -0.727   5.347  10.174  1.00  0.00     0.024 C 
HETATM   20  C9  UNL     1       0.278   6.472  10.292  1.00  0.00    -0.013 C 
HETATM   21  C10 UNL     1       1.033   6.333  11.582  1.00  0.00     0.009 C 
HETATM   22  C14 UNL     1       1.196   6.394   9.096  1.00  0.00     0.009 C 
HETATM   23  C11 UNL     1       1.827   5.061  11.561  1.00  0.00    -0.013 C 
HETATM   24  C12 UNL     1       2.725   4.971  10.348  1.00  0.00     0.009 C 
HETATM   25  C16 UNL     1       0.854   3.908  11.482  1.00  0.00     0.024 C 
HETATM   26  C13 UNL     1       1.868   5.032   9.111  1.00  0.00    -0.013 C 
HETATM   27  C15 UNL     1       0.874   3.905   9.049  1.00  0.00     0.024 C 
ENDBRANCH   3  18
TORSDOF 4
ENDMDL
