MODEL 1
REMARK VINA RESULT: -7.893446196      0.000      0.000
REMARK  4 active torsions:
REMARK  status: ('A' for Active; 'I' for Inactive)
REMARK       I    between atoms: C1_2  and  N1_3 
REMARK    1  A    between atoms: C1_2  and  C9_12 
REMARK    2  A    between atoms: N1_3  and  C2_5 
REMARK       I    between atoms: C9_12  and  N2_14 
REMARK    3  A    between atoms: C13_18  and  C14_19 
REMARK       I    between atoms: C14_19  and  N3_21 
REMARK    4  A    between atoms: N3_21  and  C15_23 
ROOT
HETATM    1  C9  UNL     1      -3.678   3.249  10.994  1.00  0.00     0.312 C 
HETATM    2  O2  UNL     1      -4.600   3.897  11.537  1.00  0.00    -0.262 OA
HETATM    3  N2  UNL     1      -3.593   1.863  11.171  1.00  0.00    -0.331 N 
HETATM    4  C10 UNL     1      -2.578   1.008  10.597  1.00  0.00     0.127 C 
HETATM    5  C11 UNL     1      -2.891  -0.409  11.017  1.00  0.00     0.022 C 
HETATM    6  C12 UNL     1      -4.252  -0.368  11.650  1.00  0.00     0.037 C 
HETATM    7  C13 UNL     1      -4.520   1.068  11.963  1.00  0.00     0.179 C 
ENDROOT
BRANCH   1   8
HETATM    8  C1  UNL     1      -2.702   3.943  10.182  1.00  0.00     0.309 C 
HETATM    9  O1  UNL     1      -2.938   4.324   8.992  1.00  0.00    -0.262 OA
HETATM   10  N1  UNL     1      -1.392   4.253  10.668  1.00  0.00    -0.348 N 
ATOM     11  H1  UNL     1      -1.155   3.969  11.619  1.00  0.00     0.163 HD
BRANCH  10  12
HETATM   12  C2  UNL     1      -0.385   4.945   9.894  1.00  0.00     0.084 C 
HETATM   13  C3  UNL     1       0.085   6.208  10.579  1.00  0.00     0.025 C 
HETATM   14  C4  UNL     1       0.577   6.003  11.965  1.00  0.00     0.002 C 
HETATM   15  C5  UNL     1       2.078   5.843  11.922  1.00  0.00     0.000 C 
HETATM   16  C6  UNL     1       2.343   4.467  11.307  1.00  0.00     0.000 C 
HETATM   17  C7  UNL     1       2.085   4.427   9.850  1.00  0.00     0.002 C 
HETATM   18  C8  UNL     1       0.711   4.076   9.423  1.00  0.00     0.025 C 
ENDBRANCH  10  12
ENDBRANCH   1   8
BRANCH   7  19
HETATM   19  C14 UNL     1      -4.441   1.396  13.399  1.00  0.00     0.241 C 
HETATM   20  O3  UNL     1      -3.502   0.968  14.119  1.00  0.00    -0.271 OA
HETATM   21  N3  UNL     1      -5.422   2.208  14.029  1.00  0.00    -0.355 N 
ATOM     22  H3  UNL     1      -6.193   2.566  13.465  1.00  0.00     0.162 HD
BRANCH  21  23
HETATM   23  C15 UNL     1      -5.377   2.549  15.431  1.00  0.00     0.088 C 
HETATM   24  C16 UNL     1      -5.951   1.371  16.228  1.00  0.00     0.051 C 
HETATM   25  C17 UNL     1      -5.754   1.684  17.683  1.00  0.00     0.169 C 
HETATM   26  O4  UNL     1      -6.432   2.843  17.990  1.00  0.00    -0.391 OA
HETATM   27  C18 UNL     1      -7.150   3.400  16.961  1.00  0.00     0.169 C 
HETATM   28  C19 UNL     1      -6.280   3.733  15.752  1.00  0.00     0.051 C 
ENDBRANCH  21  23
ENDBRANCH   7  19
TORSDOF 4
ENDMDL
MODEL 2
REMARK VINA RESULT: -7.585190924      3.382      5.921
REMARK  4 active torsions:
REMARK  status: ('A' for Active; 'I' for Inactive)
REMARK       I    between atoms: C1_2  and  N1_3 
REMARK    1  A    between atoms: C1_2  and  C9_12 
REMARK    2  A    between atoms: N1_3  and  C2_5 
REMARK       I    between atoms: C9_12  and  N2_14 
REMARK    3  A    between atoms: C13_18  and  C14_19 
REMARK       I    between atoms: C14_19  and  N3_21 
REMARK    4  A    between atoms: N3_21  and  C15_23 
ROOT
HETATM    1  C9  UNL     1      -3.711   4.003  14.465  1.00  0.00     0.312 C 
HETATM    2  O2  UNL     1      -2.606   3.444  14.285  1.00  0.00    -0.262 OA
HETATM    3  N2  UNL     1      -4.723   3.349  15.177  1.00  0.00    -0.331 N 
HETATM    4  C10 UNL     1      -6.037   3.888  15.449  1.00  0.00     0.127 C 
HETATM    5  C11 UNL     1      -6.784   2.866  16.271  1.00  0.00     0.022 C 
HETATM    6  C12 UNL     1      -5.774   1.825  16.665  1.00  0.00     0.037 C 
HETATM    7  C13 UNL     1      -4.604   2.019  15.757  1.00  0.00     0.179 C 
ENDROOT
BRANCH   1   8
HETATM    8  C1  UNL     1      -3.933   5.329  13.930  1.00  0.00     0.309 C 
HETATM    9  O1  UNL     1      -3.636   6.390  14.566  1.00  0.00    -0.262 OA
HETATM   10  N1  UNL     1      -4.507   5.540  12.637  1.00  0.00    -0.348 N 
ATOM     11  H1  UNL     1      -4.763   4.720  12.087  1.00  0.00     0.163 HD
BRANCH  10  12
HETATM   12  C2  UNL     1      -4.748   6.845  12.062  1.00  0.00     0.084 C 
HETATM   13  C3  UNL     1      -3.775   7.160  10.949  1.00  0.00     0.025 C 
HETATM   14  C4  UNL     1      -3.733   6.142   9.869  1.00  0.00     0.002 C 
HETATM   15  C5  UNL     1      -4.658   6.582   8.759  1.00  0.00     0.000 C 
HETATM   16  C6  UNL     1      -6.081   6.392   9.289  1.00  0.00     0.000 C 
HETATM   17  C7  UNL     1      -6.461   7.410  10.295  1.00  0.00     0.002 C 
HETATM   18  C8  UNL     1      -6.160   7.095  11.711  1.00  0.00     0.025 C 
ENDBRANCH  10  12
ENDBRANCH   1   8
BRANCH   7  19
HETATM   19  C14 UNL     1      -4.467   0.976  14.723  1.00  0.00     0.241 C 
HETATM   20  O3  UNL     1      -4.623  -0.243  14.995  1.00  0.00    -0.271 OA
HETATM   21  N3  UNL     1      -4.154   1.304  13.376  1.00  0.00    -0.355 N 
ATOM     22  H3  UNL     1      -4.023   2.285  13.132  1.00  0.00     0.162 HD
BRANCH  21  23
HETATM   23  C15 UNL     1      -4.014   0.311  12.338  1.00  0.00     0.088 C 
HETATM   24  C16 UNL     1      -2.642   0.502  11.678  1.00  0.00     0.051 C 
HETATM   25  C17 UNL     1      -2.456  -0.631  10.710  1.00  0.00     0.169 C 
HETATM   26  O4  UNL     1      -3.452  -0.581   9.762  1.00  0.00    -0.391 OA
HETATM   27  C18 UNL     1      -4.323   0.475   9.871  1.00  0.00     0.169 C 
HETATM   28  C19 UNL     1      -5.031   0.513  11.222  1.00  0.00     0.051 C 
ENDBRANCH  21  23
ENDBRANCH   7  19
TORSDOF 4
ENDMDL
MODEL 3
REMARK VINA RESULT: -7.514856110      2.291      3.144
REMARK  4 active torsions:
REMARK  status: ('A' for Active; 'I' for Inactive)
REMARK       I    between atoms: C1_2  and  N1_3 
REMARK    1  A    between atoms: C1_2  and  C9_12 
REMARK    2  A    between atoms: N1_3  and  C2_5 
REMARK       I    between atoms: C9_12  and  N2_14 
REMARK    3  A    between atoms: C13_18  and  C14_19 
REMARK       I    between atoms: C14_19  and  N3_21 
REMARK    4  A    between atoms: N3_21  and  C15_23 
ROOT
HETATM    1  C9  UNL     1      -2.116   3.794  11.697  1.00  0.00     0.312 C 
HETATM    2  O2  UNL     1      -1.809   3.226  12.768  1.00  0.00    -0.262 OA
HETATM    3  N2  UNL     1      -3.225   4.647  11.644  1.00  0.00    -0.331 N 
HETATM    4  C10 UNL     1      -3.679   5.357  10.469  1.00  0.00     0.127 C 
HETATM    5  C11 UNL     1      -4.878   6.181  10.874  1.00  0.00     0.022 C 
HETATM    6  C12 UNL     1      -4.952   6.105  12.372  1.00  0.00     0.037 C 
HETATM    7  C13 UNL     1      -4.094   4.949  12.772  1.00  0.00     0.179 C 
ENDROOT
BRANCH   1   8
HETATM    8  C1  UNL     1      -1.316   3.562  10.513  1.00  0.00     0.309 C 
HETATM    9  O1  UNL     1      -1.635   2.718   9.617  1.00  0.00    -0.262 OA
HETATM   10  N1  UNL     1      -0.099   4.274  10.267  1.00  0.00    -0.348 N 
ATOM     11  H1  UNL     1       0.200   4.963  10.958  1.00  0.00     0.163 HD
BRANCH  10  12
HETATM   12  C2  UNL     1       0.732   4.076   9.100  1.00  0.00     0.084 C 
HETATM   13  C3  UNL     1       0.486   5.130   8.046  1.00  0.00     0.025 C 
HETATM   14  C4  UNL     1       0.635   6.525   8.532  1.00  0.00     0.002 C 
HETATM   15  C5  UNL     1       2.037   6.993   8.221  1.00  0.00     0.000 C 
HETATM   16  C6  UNL     1       2.959   6.244   9.185  1.00  0.00     0.000 C 
HETATM   17  C7  UNL     1       3.130   4.817   8.829  1.00  0.00     0.002 C 
HETATM   18  C8  UNL     1       2.160   3.862   9.410  1.00  0.00     0.025 C 
ENDBRANCH  10  12
ENDBRANCH   1   8
BRANCH   7  19
HETATM   19  C14 UNL     1      -4.851   3.765  13.219  1.00  0.00     0.241 C 
HETATM   20  O3  UNL     1      -5.364   2.964  12.395  1.00  0.00    -0.271 OA
HETATM   21  N3  UNL     1      -5.034   3.479  14.599  1.00  0.00    -0.355 N 
ATOM     22  H3  UNL     1      -4.629   4.115  15.285  1.00  0.00     0.162 HD
BRANCH  21  23
HETATM   23  C15 UNL     1      -5.768   2.331  15.073  1.00  0.00     0.088 C 
HETATM   24  C16 UNL     1      -6.469   2.719  16.382  1.00  0.00     0.051 C 
HETATM   25  C17 UNL     1      -7.343   1.563  16.774  1.00  0.00     0.169 C 
HETATM   26  O4  UNL     1      -6.559   0.449  16.966  1.00  0.00    -0.391 OA
HETATM   27  C18 UNL     1      -5.208   0.643  16.818  1.00  0.00     0.169 C 
HETATM   28  C19 UNL     1      -4.840   1.179  15.437  1.00  0.00     0.051 C 
ENDBRANCH  21  23
ENDBRANCH   7  19
TORSDOF 4
ENDMDL
MODEL 4
REMARK VINA RESULT: -7.463423768      3.091      5.421
REMARK  4 active torsions:
REMARK  status: ('A' for Active; 'I' for Inactive)
REMARK       I    between atoms: C1_2  and  N1_3 
REMARK    1  A    between atoms: C1_2  and  C9_12 
REMARK    2  A    between atoms: N1_3  and  C2_5 
REMARK       I    between atoms: C9_12  and  N2_14 
REMARK    3  A    between atoms: C13_18  and  C14_19 
REMARK       I    between atoms: C14_19  and  N3_21 
REMARK    4  A    between atoms: N3_21  and  C15_23 
ROOT
HETATM    1  C9  UNL     1      -3.336   4.339  14.526  1.00  0.00     0.312 C 
HETATM    2  O2  UNL     1      -2.278   3.674  14.495  1.00  0.00    -0.262 OA
HETATM    3  N2  UNL     1      -4.490   3.801  15.107  1.00  0.00    -0.331 N 
HETATM    4  C10 UNL     1      -5.768   4.470  15.202  1.00  0.00     0.127 C 
HETATM    5  C11 UNL     1      -6.711   3.541  15.929  1.00  0.00     0.022 C 
HETATM    6  C12 UNL     1      -5.868   2.417  16.458  1.00  0.00     0.037 C 
HETATM    7  C13 UNL     1      -4.577   2.478  15.707  1.00  0.00     0.179 C 
ENDROOT
BRANCH   1   8
HETATM    8  C1  UNL     1      -3.357   5.669  13.957  1.00  0.00     0.309 C 
HETATM    9  O1  UNL     1      -4.239   6.052  13.123  1.00  0.00    -0.262 OA
HETATM   10  N1  UNL     1      -2.378   6.657  14.295  1.00  0.00    -0.348 N 
ATOM     11  H1  UNL     1      -1.648   6.399  14.960  1.00  0.00     0.163 HD
BRANCH  10  12
HETATM   12  C2  UNL     1      -2.359   7.997  13.752  1.00  0.00     0.084 C 
HETATM   13  C3  UNL     1      -2.146   9.039  14.826  1.00  0.00     0.025 C 
HETATM   14  C4  UNL     1      -0.934   8.821  15.655  1.00  0.00     0.002 C 
HETATM   15  C5  UNL     1       0.194   9.642  15.078  1.00  0.00     0.000 C 
HETATM   16  C6  UNL     1       0.600   8.952  13.774  1.00  0.00     0.000 C 
HETATM   17  C7  UNL     1      -0.383   9.151  12.686  1.00  0.00     0.002 C 
HETATM   18  C8  UNL     1      -1.475   8.157  12.580  1.00  0.00     0.025 C 
ENDBRANCH  10  12
ENDBRANCH   1   8
BRANCH   7  19
HETATM   19  C14 UNL     1      -4.413   1.406  14.707  1.00  0.00     0.241 C 
HETATM   20  O3  UNL     1      -4.649   0.202  14.990  1.00  0.00    -0.271 OA
HETATM   21  N3  UNL     1      -3.981   1.687  13.383  1.00  0.00    -0.355 N 
ATOM     22  H3  UNL     1      -3.782   2.655  13.131  1.00  0.00     0.162 HD
BRANCH  21  23
HETATM   23  C15 UNL     1      -3.809   0.665  12.379  1.00  0.00     0.088 C 
HETATM   24  C16 UNL     1      -2.548   0.997  11.570  1.00  0.00     0.051 C 
HETATM   25  C17 UNL     1      -2.307  -0.154  10.637  1.00  0.00     0.169 C 
HETATM   26  O4  UNL     1      -3.389  -0.289   9.798  1.00  0.00    -0.391 OA
HETATM   27  C18 UNL     1      -4.380   0.648   9.954  1.00  0.00     0.169 C 
HETATM   28  C19 UNL     1      -4.950   0.669  11.370  1.00  0.00     0.051 C 
ENDBRANCH  21  23
ENDBRANCH   7  19
TORSDOF 4
ENDMDL
MODEL 5
REMARK VINA RESULT: -7.391038741      2.408      3.346
REMARK  4 active torsions:
REMARK  status: ('A' for Active; 'I' for Inactive)
REMARK       I    between atoms: C1_2  and  N1_3 
REMARK    1  A    between atoms: C1_2  and  C9_12 
REMARK    2  A    between atoms: N1_3  and  C2_5 
REMARK       I    between atoms: C9_12  and  N2_14 
REMARK    3  A    between atoms: C13_18  and  C14_19 
REMARK       I    between atoms: C14_19  and  N3_21 
REMARK    4  A    between atoms: N3_21  and  C15_23 
ROOT
HETATM    1  C9  UNL     1      -2.115   3.772  11.603  1.00  0.00     0.312 C 
HETATM    2  O2  UNL     1      -1.944   2.620  12.058  1.00  0.00    -0.262 OA
HETATM    3  N2  UNL     1      -2.586   4.795  12.434  1.00  0.00    -0.331 N 
HETATM    4  C10 UNL     1      -2.824   6.162  12.026  1.00  0.00     0.127 C 
HETATM    5  C11 UNL     1      -3.291   6.922  13.245  1.00  0.00     0.022 C 
HETATM    6  C12 UNL     1      -3.085   6.005  14.416  1.00  0.00     0.037 C 
HETATM    7  C13 UNL     1      -2.910   4.636  13.845  1.00  0.00     0.179 C 
ENDROOT
BRANCH   1   8
HETATM    8  C1  UNL     1      -1.822   4.038  10.211  1.00  0.00     0.309 C 
HETATM    9  O1  UNL     1      -2.671   3.865   9.280  1.00  0.00    -0.262 OA
HETATM   10  N1  UNL     1      -0.545   4.520   9.782  1.00  0.00    -0.348 N 
ATOM     11  H1  UNL     1       0.172   4.676  10.492  1.00  0.00     0.163 HD
BRANCH  10  12
HETATM   12  C2  UNL     1      -0.207   4.800   8.404  1.00  0.00     0.084 C 
HETATM   13  C3  UNL     1       0.549   6.101   8.260  1.00  0.00     0.025 C 
HETATM   14  C4  UNL     1       1.770   6.193   9.100  1.00  0.00     0.002 C 
HETATM   15  C5  UNL     1       2.958   5.776   8.266  1.00  0.00     0.000 C 
HETATM   16  C6  UNL     1       2.839   4.262   8.082  1.00  0.00     0.000 C 
HETATM   17  C7  UNL     1       1.770   3.879   7.132  1.00  0.00     0.002 C 
HETATM   18  C8  UNL     1       0.418   3.664   7.697  1.00  0.00     0.025 C 
ENDBRANCH  10  12
ENDBRANCH   1   8
BRANCH   7  19
HETATM   19  C14 UNL     1      -4.069   3.747  14.048  1.00  0.00     0.241 C 
HETATM   20  O3  UNL     1      -5.031   3.726  13.237  1.00  0.00    -0.271 OA
HETATM   21  N3  UNL     1      -4.149   2.878  15.170  1.00  0.00    -0.355 N 
ATOM     22  H3  UNL     1      -3.381   2.878  15.841  1.00  0.00     0.162 HD
BRANCH  21  23
HETATM   23  C15 UNL     1      -5.266   1.994  15.402  1.00  0.00     0.088 C 
HETATM   24  C16 UNL     1      -6.206   2.669  16.409  1.00  0.00     0.051 C 
HETATM   25  C17 UNL     1      -7.429   1.804  16.518  1.00  0.00     0.169 C 
HETATM   26  O4  UNL     1      -7.061   0.557  16.970  1.00  0.00    -0.391 OA
HETATM   27  C18 UNL     1      -5.729   0.402  17.261  1.00  0.00     0.169 C 
HETATM   28  C19 UNL     1      -4.829   0.693  16.063  1.00  0.00     0.051 C 
ENDBRANCH  21  23
ENDBRANCH   7  19
TORSDOF 4
ENDMDL
