MODEL 1
REMARK VINA RESULT: -7.084069280      0.000      0.000
REMARK  7 active torsions:
REMARK  status: ('A' for Active; 'I' for Inactive)
REMARK    1  A    between atoms: C2_2  and  C3_3 
REMARK    2  A    between atoms: C2_2  and  N4_23 
REMARK    3  A    between atoms: C4_4  and  C5_5 
REMARK    4  A    between atoms: C5_5  and  N1_6 
REMARK    5  A    between atoms: C5_5  and  S1_19 
REMARK    6  A    between atoms: N1_6  and  C6_8 
REMARK    7  A    between atoms: S1_19  and  N3_20 
ROOT
HETATM    1  C5  UNL     1      -2.481   2.493  12.098  1.00  0.00     0.136 C 
ENDROOT
BRANCH   1   2
HETATM    2  C4  UNL     1      -3.619   2.775  12.925  1.00  0.00    -0.038 C 
HETATM    3  C3  UNL     1      -4.577   2.998  13.640  1.00  0.00    -0.063 C 
BRANCH   3   4
HETATM    4  C2  UNL     1      -5.717   3.260  14.519  1.00  0.00     0.297 C 
HETATM    5  C1  UNL     1      -5.927   4.760  14.700  1.00  0.00     0.056 C 
BRANCH   4   6
HETATM    6  N4  UNL     1      -5.517   2.704  15.843  1.00  0.00     0.104 N 
HETATM    7  C17 UNL     1      -6.732   2.882  16.598  1.00  0.00     0.274 C 
HETATM    8  C18 UNL     1      -6.831   1.700  17.535  1.00  0.00     0.032 C 
HETATM    9  C19 UNL     1      -5.787   0.718  17.108  1.00  0.00     0.032 C 
HETATM   10  C20 UNL     1      -5.225   1.302  15.838  1.00  0.00     0.274 C 
ENDBRANCH   4   6
ENDBRANCH   3   4
ENDBRANCH   1   2
BRANCH   1  11
HETATM   11  N1  UNL     1      -1.401   3.420  12.039  1.00  0.00    -0.372 N 
ATOM     12  H1  UNL     1      -0.908   3.654  12.901  1.00  0.00     0.161 HD
BRANCH  11  13
HETATM   13  C6  UNL     1      -0.975   4.044  10.804  1.00  0.00     0.087 C 
HETATM   14  C7  UNL     1       0.444   3.563  10.524  1.00  0.00     0.054 C 
HETATM   15  C8  UNL     1       1.121   4.402   9.494  1.00  0.00     0.021 C 
HETATM   16  C9  UNL     1       0.525   4.133   8.108  1.00  0.00     0.037 C 
HETATM   17  C10 UNL     1       2.571   3.917   9.403  1.00  0.00     0.037 C 
HETATM   18  N2  UNL     1       1.151   5.781   9.812  1.00  0.00    -0.405 N 
HETATM   19  C11 UNL     1       0.159   6.317  10.655  1.00  0.00     0.021 C 
ATOM     20  H2  UNL     1       1.884   6.381   9.434  1.00  0.00     0.154 HD
HETATM   21  C12 UNL     1      -0.309   7.711  10.194  1.00  0.00     0.037 C 
HETATM   22  C13 UNL     1       0.841   6.611  12.007  1.00  0.00     0.037 C 
HETATM   23  C14 UNL     1      -1.044   5.519  10.961  1.00  0.00     0.054 C 
ENDBRANCH  11  13
ENDBRANCH   1  11
BRANCH   1  24
HETATM   24  S1  UNL     1      -2.464   1.101  11.249  1.00  0.00    -0.015 SA
BRANCH  24  25
HETATM   25  N3  UNL     1      -3.698  -0.172  11.542  1.00  0.00    -0.261 NA
HETATM   26  C15 UNL     1      -3.161  -1.490  11.296  1.00  0.00     0.124 C 
HETATM   27  C16 UNL     1      -4.786   0.087  10.617  1.00  0.00     0.124 C 
ENDBRANCH  24  25
ENDBRANCH   1  24
TORSDOF 7
ENDMDL
MODEL 2
REMARK VINA RESULT: -7.018388334      1.375      2.631
REMARK  7 active torsions:
REMARK  status: ('A' for Active; 'I' for Inactive)
REMARK    1  A    between atoms: C2_2  and  C3_3 
REMARK    2  A    between atoms: C2_2  and  N4_23 
REMARK    3  A    between atoms: C4_4  and  C5_5 
REMARK    4  A    between atoms: C5_5  and  N1_6 
REMARK    5  A    between atoms: C5_5  and  S1_19 
REMARK    6  A    between atoms: N1_6  and  C6_8 
REMARK    7  A    between atoms: S1_19  and  N3_20 
ROOT
HETATM    1  C5  UNL     1      -2.756   2.565  11.819  1.00  0.00     0.136 C 
ENDROOT
BRANCH   1   2
HETATM    2  C4  UNL     1      -3.811   2.785  12.767  1.00  0.00    -0.038 C 
HETATM    3  C3  UNL     1      -4.706   2.993  13.564  1.00  0.00    -0.063 C 
BRANCH   3   4
HETATM    4  C2  UNL     1      -5.792   3.260  14.508  1.00  0.00     0.297 C 
HETATM    5  C1  UNL     1      -5.981   4.761  14.704  1.00  0.00     0.056 C 
BRANCH   4   6
HETATM    6  N4  UNL     1      -5.519   2.700  15.817  1.00  0.00     0.104 N 
HETATM    7  C17 UNL     1      -6.676   2.912  16.651  1.00  0.00     0.274 C 
HETATM    8  C18 UNL     1      -6.744   1.734  17.596  1.00  0.00     0.032 C 
HETATM    9  C19 UNL     1      -5.758   0.723  17.102  1.00  0.00     0.032 C 
HETATM   10  C20 UNL     1      -5.267   1.290  15.796  1.00  0.00     0.274 C 
ENDBRANCH   4   6
ENDBRANCH   3   4
ENDBRANCH   1   2
BRANCH   1  11
HETATM   11  N1  UNL     1      -1.977   3.665  11.358  1.00  0.00    -0.372 N 
ATOM     12  H1  UNL     1      -1.822   3.769  10.355  1.00  0.00     0.161 HD
BRANCH  11  13
HETATM   13  C6  UNL     1      -1.397   4.641  12.256  1.00  0.00     0.087 C 
HETATM   14  C7  UNL     1      -2.199   5.928  12.101  1.00  0.00     0.054 C 
HETATM   15  C8  UNL     1      -1.488   7.098  12.690  1.00  0.00     0.021 C 
HETATM   16  C9  UNL     1      -1.501   7.020  14.220  1.00  0.00     0.037 C 
HETATM   17  C10 UNL     1      -2.314   8.342  12.349  1.00  0.00     0.037 C 
HETATM   18  N2  UNL     1      -0.186   7.295  12.169  1.00  0.00    -0.405 N 
HETATM   19  C11 UNL     1       0.523   6.196  11.647  1.00  0.00     0.021 C 
ATOM     20  H2  UNL     1       0.235   8.224  12.171  1.00  0.00     0.154 HD
HETATM   21  C12 UNL     1       2.018   6.236  12.016  1.00  0.00     0.037 C 
HETATM   22  C13 UNL     1       0.540   6.371  10.114  1.00  0.00     0.037 C 
HETATM   23  C14 UNL     1       0.034   4.828  11.904  1.00  0.00     0.054 C 
ENDBRANCH  11  13
ENDBRANCH   1  11
BRANCH   1  24
HETATM   24  S1  UNL     1      -2.482   1.043  11.304  1.00  0.00    -0.015 SA
BRANCH  24  25
HETATM   25  N3  UNL     1      -3.707  -0.248  11.550  1.00  0.00    -0.261 NA
HETATM   26  C15 UNL     1      -3.143  -1.558  11.318  1.00  0.00     0.124 C 
HETATM   27  C16 UNL     1      -4.766  -0.001  10.588  1.00  0.00     0.124 C 
ENDBRANCH  24  25
ENDBRANCH   1  24
TORSDOF 7
ENDMDL
MODEL 3
REMARK VINA RESULT: -6.978441533      0.971      1.430
REMARK  7 active torsions:
REMARK  status: ('A' for Active; 'I' for Inactive)
REMARK    1  A    between atoms: C2_2  and  C3_3 
REMARK    2  A    between atoms: C2_2  and  N4_23 
REMARK    3  A    between atoms: C4_4  and  C5_5 
REMARK    4  A    between atoms: C5_5  and  N1_6 
REMARK    5  A    between atoms: C5_5  and  S1_19 
REMARK    6  A    between atoms: N1_6  and  C6_8 
REMARK    7  A    between atoms: S1_19  and  N3_20 
ROOT
HETATM    1  C5  UNL     1      -2.413   2.363  12.078  1.00  0.00     0.136 C 
ENDROOT
BRANCH   1   2
HETATM    2  C4  UNL     1      -3.555   2.671  12.891  1.00  0.00    -0.038 C 
HETATM    3  C3  UNL     1      -4.511   2.925  13.597  1.00  0.00    -0.063 C 
BRANCH   3   4
HETATM    4  C2  UNL     1      -5.648   3.233  14.465  1.00  0.00     0.297 C 
HETATM    5  C1  UNL     1      -5.816   4.740  14.623  1.00  0.00     0.056 C 
BRANCH   4   6
HETATM    6  N4  UNL     1      -5.473   2.690  15.798  1.00  0.00     0.104 N 
HETATM    7  C17 UNL     1      -6.699   2.883  16.531  1.00  0.00     0.274 C 
HETATM    8  C18 UNL     1      -6.819   1.711  17.480  1.00  0.00     0.032 C 
HETATM    9  C19 UNL     1      -5.772   0.720  17.080  1.00  0.00     0.032 C 
HETATM   10  C20 UNL     1      -5.188   1.287  15.813  1.00  0.00     0.274 C 
ENDBRANCH   4   6
ENDBRANCH   3   4
ENDBRANCH   1   2
BRANCH   1  11
HETATM   11  N1  UNL     1      -1.317   3.271  12.022  1.00  0.00    -0.372 N 
ATOM     12  H1  UNL     1      -1.101   3.831  12.846  1.00  0.00     0.161 HD
BRANCH  11  13
HETATM   13  C6  UNL     1      -0.497   3.430  10.839  1.00  0.00     0.087 C 
HETATM   14  C7  UNL     1       0.612   4.416  11.190  1.00  0.00     0.054 C 
HETATM   15  C8  UNL     1       1.295   4.938   9.972  1.00  0.00     0.021 C 
HETATM   16  C9  UNL     1       2.169   3.849   9.340  1.00  0.00     0.037 C 
HETATM   17  C10 UNL     1       2.279   6.015  10.438  1.00  0.00     0.037 C 
HETATM   18  N2  UNL     1       0.417   5.537   9.038  1.00  0.00    -0.405 N 
HETATM   19  C11 UNL     1      -0.933   5.137   9.004  1.00  0.00     0.021 C 
ATOM     20  H2  UNL     1       0.758   6.252   8.395  1.00  0.00     0.154 HD
HETATM   21  C12 UNL     1      -1.476   5.038   7.566  1.00  0.00     0.037 C 
HETATM   22  C13 UNL     1      -1.751   6.299   9.603  1.00  0.00     0.037 C 
HETATM   23  C14 UNL     1      -1.348   3.920   9.725  1.00  0.00     0.054 C 
ENDBRANCH  11  13
ENDBRANCH   1  11
BRANCH   1  24
HETATM   24  S1  UNL     1      -2.411   0.962  11.244  1.00  0.00    -0.015 SA
BRANCH  24  25
HETATM   25  N3  UNL     1      -3.655  -0.296  11.552  1.00  0.00    -0.261 NA
HETATM   26  C15 UNL     1      -3.135  -1.622  11.308  1.00  0.00     0.124 C 
HETATM   27  C16 UNL     1      -4.748  -0.031  10.634  1.00  0.00     0.124 C 
ENDBRANCH  24  25
ENDBRANCH   1  24
TORSDOF 7
ENDMDL
MODEL 4
REMARK VINA RESULT: -6.936791332      1.424      1.967
REMARK  7 active torsions:
REMARK  status: ('A' for Active; 'I' for Inactive)
REMARK    1  A    between atoms: C2_2  and  C3_3 
REMARK    2  A    between atoms: C2_2  and  N4_23 
REMARK    3  A    between atoms: C4_4  and  C5_5 
REMARK    4  A    between atoms: C5_5  and  N1_6 
REMARK    5  A    between atoms: C5_5  and  S1_19 
REMARK    6  A    between atoms: N1_6  and  C6_8 
REMARK    7  A    between atoms: S1_19  and  N3_20 
ROOT
HETATM    1  C5  UNL     1      -3.453   2.963  11.520  1.00  0.00     0.136 C 
ENDROOT
BRANCH   1   2
HETATM    2  C4  UNL     1      -4.363   3.139  12.615  1.00  0.00    -0.038 C 
HETATM    3  C3  UNL     1      -5.134   3.309  13.540  1.00  0.00    -0.063 C 
BRANCH   3   4
HETATM    4  C2  UNL     1      -6.069   3.534  14.643  1.00  0.00     0.297 C 
HETATM    5  C1  UNL     1      -6.169   5.020  14.974  1.00  0.00     0.056 C 
BRANCH   4   6
HETATM    6  N4  UNL     1      -5.645   2.864  15.856  1.00  0.00     0.104 N 
HETATM    7  C17 UNL     1      -6.733   2.906  16.801  1.00  0.00     0.274 C 
HETATM    8  C18 UNL     1      -6.641   1.635  17.616  1.00  0.00     0.032 C 
HETATM    9  C19 UNL     1      -5.641   0.754  16.936  1.00  0.00     0.032 C 
HETATM   10  C20 UNL     1      -5.306   1.486  15.662  1.00  0.00     0.274 C 
ENDBRANCH   4   6
ENDBRANCH   3   4
ENDBRANCH   1   2
BRANCH   1  11
HETATM   11  N1  UNL     1      -3.248   4.025  10.592  1.00  0.00    -0.372 N 
ATOM     12  H1  UNL     1      -3.840   4.072   9.763  1.00  0.00     0.161 HD
BRANCH  11  13
HETATM   13  C6  UNL     1      -2.231   5.038  10.779  1.00  0.00     0.087 C 
HETATM   14  C7  UNL     1      -0.880   4.333  10.740  1.00  0.00     0.054 C 
HETATM   15  C8  UNL     1       0.211   5.195  11.278  1.00  0.00     0.021 C 
HETATM   16  C9  UNL     1       0.531   6.328  10.297  1.00  0.00     0.037 C 
HETATM   17  C10 UNL     1       1.478   4.337  11.321  1.00  0.00     0.037 C 
HETATM   18  N2  UNL     1      -0.031   5.667  12.590  1.00  0.00    -0.405 N 
HETATM   19  C11 UNL     1      -1.357   5.799  13.044  1.00  0.00     0.021 C 
ATOM     20  H2  UNL     1       0.749   5.910  13.202  1.00  0.00     0.154 HD
HETATM   21  C12 UNL     1      -1.561   7.069  13.892  1.00  0.00     0.037 C 
HETATM   22  C13 UNL     1      -1.588   4.663  14.062  1.00  0.00     0.037 C 
HETATM   23  C14 UNL     1      -2.467   5.722  12.076  1.00  0.00     0.054 C 
ENDBRANCH  11  13
ENDBRANCH   1  11
BRANCH   1  24
HETATM   24  S1  UNL     1      -2.673   1.538  11.380  1.00  0.00    -0.015 SA
BRANCH  24  25
HETATM   25  N3  UNL     1      -3.405   0.172  10.471  1.00  0.00    -0.261 NA
HETATM   26  C15 UNL     1      -4.846   0.268  10.448  1.00  0.00     0.124 C 
HETATM   27  C16 UNL     1      -3.012  -1.042  11.163  1.00  0.00     0.124 C 
ENDBRANCH  24  25
ENDBRANCH   1  24
TORSDOF 7
ENDMDL
MODEL 5
REMARK VINA RESULT: -6.880687085      2.266      3.342
REMARK  7 active torsions:
REMARK  status: ('A' for Active; 'I' for Inactive)
REMARK    1  A    between atoms: C2_2  and  C3_3 
REMARK    2  A    between atoms: C2_2  and  N4_23 
REMARK    3  A    between atoms: C4_4  and  C5_5 
REMARK    4  A    between atoms: C5_5  and  N1_6 
REMARK    5  A    between atoms: C5_5  and  S1_19 
REMARK    6  A    between atoms: N1_6  and  C6_8 
REMARK    7  A    between atoms: S1_19  and  N3_20 
ROOT
HETATM    1  C5  UNL     1      -2.613   3.596  12.198  1.00  0.00     0.136 C 
ENDROOT
BRANCH   1   2
HETATM    2  C4  UNL     1      -3.744   3.555  13.081  1.00  0.00    -0.038 C 
HETATM    3  C3  UNL     1      -4.704   3.541  13.827  1.00  0.00    -0.063 C 
BRANCH   3   4
HETATM    4  C2  UNL     1      -5.867   3.545  14.715  1.00  0.00     0.297 C 
HETATM    5  C1  UNL     1      -6.255   4.970  15.092  1.00  0.00     0.056 C 
BRANCH   4   6
HETATM    6  N4  UNL     1      -5.602   2.842  15.955  1.00  0.00     0.104 N 
HETATM    7  C17 UNL     1      -6.807   2.851  16.747  1.00  0.00     0.274 C 
HETATM    8  C18 UNL     1      -6.813   1.558  17.531  1.00  0.00     0.032 C 
HETATM    9  C19 UNL     1      -5.724   0.702  16.965  1.00  0.00     0.032 C 
HETATM   10  C20 UNL     1      -5.229   1.472  15.769  1.00  0.00     0.274 C 
ENDBRANCH   4   6
ENDBRANCH   3   4
ENDBRANCH   1   2
BRANCH   1  11
HETATM   11  N1  UNL     1      -1.382   4.153  12.650  1.00  0.00    -0.372 N 
ATOM     12  H1  UNL     1      -0.688   3.534  13.069  1.00  0.00     0.161 HD
BRANCH  11  13
HETATM   13  C6  UNL     1      -1.077   5.564  12.538  1.00  0.00     0.087 C 
HETATM   14  C7  UNL     1      -1.439   6.210  13.871  1.00  0.00     0.054 C 
HETATM   15  C8  UNL     1      -1.516   7.695  13.764  1.00  0.00     0.021 C 
HETATM   16  C9  UNL     1      -0.114   8.294  13.609  1.00  0.00     0.037 C 
HETATM   17  C10 UNL     1      -2.023   8.214  15.113  1.00  0.00     0.037 C 
HETATM   18  N2  UNL     1      -2.413   8.149  12.767  1.00  0.00    -0.405 N 
HETATM   19  C11 UNL     1      -2.696   7.322  11.664  1.00  0.00     0.021 C 
ATOM     20  H2  UNL     1      -2.850   9.068  12.848  1.00  0.00     0.154 HD
HETATM   21  C12 UNL     1      -2.795   8.117  10.348  1.00  0.00     0.037 C 
HETATM   22  C13 UNL     1      -4.134   6.801  11.862  1.00  0.00     0.037 C 
HETATM   23  C14 UNL     1      -1.855   6.136  11.410  1.00  0.00     0.054 C 
ENDBRANCH  11  13
ENDBRANCH   1  11
BRANCH   1  24
HETATM   24  S1  UNL     1      -2.780   2.991  10.694  1.00  0.00    -0.015 SA
BRANCH  24  25
HETATM   25  N3  UNL     1      -3.204   1.264  10.437  1.00  0.00    -0.261 NA
HETATM   26  C15 UNL     1      -4.547   0.980  10.887  1.00  0.00     0.124 C 
HETATM   27  C16 UNL     1      -2.258   0.486  11.215  1.00  0.00     0.124 C 
ENDBRANCH  24  25
ENDBRANCH   1  24
TORSDOF 7
ENDMDL
