MODEL 1
REMARK VINA RESULT: -7.062972804      0.000      0.000
REMARK  5 active torsions:
REMARK  status: ('A' for Active; 'I' for Inactive)
REMARK    1  A    between atoms: N1_2  and  C2_4 
REMARK    2  A    between atoms: C2_4  and  N2_6 
REMARK    3  A    between atoms: N2_6  and  C3_8 
REMARK    4  A    between atoms: C3_8  and  C4_9 
REMARK    5  A    between atoms: N3_20  and  C13_21 
ROOT
HETATM    1  C4  UNL     1      -4.264   3.740  13.636  1.00  0.00     0.098 C 
HETATM    2  C5  UNL     1      -3.495   4.873  13.108  1.00  0.00     0.042 C 
HETATM    3  C6  UNL     1      -3.297   6.121  13.892  1.00  0.00     0.168 C 
HETATM    4  O1  UNL     1      -2.410   6.870  13.061  1.00  0.00    -0.389 OA
HETATM    5  C7  UNL     1      -1.109   6.473  13.145  1.00  0.00     0.193 C 
HETATM    6  C8  UNL     1      -0.367   6.271  11.873  1.00  0.00     0.193 C 
HETATM    7  O2  UNL     1      -0.957   5.560  10.882  1.00  0.00    -0.389 OA
HETATM    8  C9  UNL     1      -0.337   4.421  10.446  1.00  0.00     0.167 C 
HETATM    9  C10 UNL     1      -0.225   3.293  11.397  1.00  0.00     0.028 C 
HETATM   10  C11 UNL     1      -1.266   2.207  11.248  1.00  0.00     0.022 C 
HETATM   11  C12 UNL     1      -2.632   2.646  10.892  1.00  0.00     0.126 C 
HETATM   12  N3  UNL     1      -3.749   2.106  11.631  1.00  0.00    -0.347 N 
HETATM   13  C17 UNL     1      -4.576   2.788  12.549  1.00  0.00     0.226 C 
HETATM   14  O3  UNL     1      -5.837   2.538  12.420  1.00  0.00    -0.273 OA
ENDROOT
BRANCH   1  15
HETATM   15  C3  UNL     1      -5.425   4.173  14.438  1.00  0.00     0.136 C 
BRANCH  15  16
HETATM   16  N2  UNL     1      -6.311   3.201  14.954  1.00  0.00    -0.366 N 
ATOM     17  H2  UNL     1      -7.235   3.098  14.536  1.00  0.00     0.161 HD
BRANCH  16  18
HETATM   18  C2  UNL     1      -5.948   2.374  16.029  1.00  0.00     0.167 C 
HETATM   19  S1  UNL     1      -7.098   1.654  16.924  1.00  0.00    -0.041 SA
BRANCH  18  20
HETATM   20  N1  UNL     1      -4.582   2.124  16.387  1.00  0.00    -0.372 N 
HETATM   21  C1  UNL     1      -3.830   1.018  15.888  1.00  0.00     0.148 C 
ATOM     22  H1  UNL     1      -4.124   2.770  17.031  1.00  0.00     0.161 HD
ENDBRANCH  18  20
ENDBRANCH  16  18
ENDBRANCH  15  16
ENDBRANCH   1  15
BRANCH  12  23
HETATM   23  C13 UNL     1      -4.074   0.709  11.370  1.00  0.00     0.087 C 
HETATM   24  C14 UNL     1      -4.001  -0.334  12.367  1.00  0.00     0.025 C 
HETATM   25  C15 UNL     1      -3.543  -1.301  11.252  1.00  0.00     0.004 C 
HETATM   26  C16 UNL     1      -3.075  -0.051  10.518  1.00  0.00     0.025 C 
ENDBRANCH  12  23
TORSDOF 5
ENDMDL
MODEL 2
REMARK VINA RESULT: -6.891479968      3.138      5.612
REMARK  5 active torsions:
REMARK  status: ('A' for Active; 'I' for Inactive)
REMARK    1  A    between atoms: N1_2  and  C2_4 
REMARK    2  A    between atoms: C2_4  and  N2_6 
REMARK    3  A    between atoms: N2_6  and  C3_8 
REMARK    4  A    between atoms: C3_8  and  C4_9 
REMARK    5  A    between atoms: N3_20  and  C13_21 
ROOT
HETATM    1  C4  UNL     1      -2.180   4.214  13.699  1.00  0.00     0.098 C 
HETATM    2  C5  UNL     1      -2.257   3.650  12.346  1.00  0.00     0.042 C 
HETATM    3  C6  UNL     1      -1.138   3.783  11.376  1.00  0.00     0.168 C 
HETATM    4  O1  UNL     1      -1.590   2.999  10.272  1.00  0.00    -0.389 OA
HETATM    5  C7  UNL     1      -1.432   1.656  10.448  1.00  0.00     0.193 C 
HETATM    6  C8  UNL     1      -2.588   0.780  10.129  1.00  0.00     0.193 C 
HETATM    7  O2  UNL     1      -3.813   1.120  10.600  1.00  0.00    -0.389 OA
HETATM    8  C9  UNL     1      -4.452   0.243  11.432  1.00  0.00     0.167 C 
HETATM    9  C10 UNL     1      -3.846  -0.014  12.757  1.00  0.00     0.028 C 
HETATM   10  C11 UNL     1      -4.439   0.765  13.910  1.00  0.00     0.022 C 
HETATM   11  C12 UNL     1      -4.854   2.154  13.624  1.00  0.00     0.126 C 
HETATM   12  N3  UNL     1      -4.463   3.198  14.544  1.00  0.00    -0.347 N 
HETATM   13  C17 UNL     1      -3.522   4.225  14.319  1.00  0.00     0.226 C 
HETATM   14  O3  UNL     1      -3.896   5.391  14.730  1.00  0.00    -0.273 OA
ENDROOT
BRANCH   1  15
HETATM   15  C3  UNL     1      -1.467   5.505  13.732  1.00  0.00     0.136 C 
BRANCH  15  16
HETATM   16  N2  UNL     1      -1.961   6.589  12.973  1.00  0.00    -0.366 N 
ATOM     17  H2  UNL     1      -2.303   6.419  12.027  1.00  0.00     0.161 HD
BRANCH  16  18
HETATM   18  C2  UNL     1      -1.992   7.893  13.490  1.00  0.00     0.167 C 
HETATM   19  S1  UNL     1      -1.837   9.167  12.491  1.00  0.00    -0.041 SA
BRANCH  18  20
HETATM   20  N1  UNL     1      -2.157   8.168  14.888  1.00  0.00    -0.372 N 
HETATM   21  C1  UNL     1      -1.182   8.856  15.672  1.00  0.00     0.148 C 
ATOM     22  H1  UNL     1      -3.014   7.856  15.345  1.00  0.00     0.161 HD
ENDBRANCH  18  20
ENDBRANCH  16  18
ENDBRANCH  15  16
ENDBRANCH   1  15
BRANCH  12  23
HETATM   23  C13 UNL     1      -5.146   3.204  15.831  1.00  0.00     0.087 C 
HETATM   24  C14 UNL     1      -5.152   2.083  16.743  1.00  0.00     0.025 C 
HETATM   25  C15 UNL     1      -6.594   2.473  17.137  1.00  0.00     0.004 C 
HETATM   26  C16 UNL     1      -6.660   3.150  15.774  1.00  0.00     0.025 C 
ENDBRANCH  12  23
TORSDOF 5
ENDMDL
MODEL 3
REMARK VINA RESULT: -6.888596896      3.179      6.409
REMARK  5 active torsions:
REMARK  status: ('A' for Active; 'I' for Inactive)
REMARK    1  A    between atoms: N1_2  and  C2_4 
REMARK    2  A    between atoms: C2_4  and  N2_6 
REMARK    3  A    between atoms: N2_6  and  C3_8 
REMARK    4  A    between atoms: C3_8  and  C4_9 
REMARK    5  A    between atoms: N3_20  and  C13_21 
ROOT
HETATM    1  C4  UNL     1      -3.347   2.309  12.058  1.00  0.00     0.098 C 
HETATM    2  C5  UNL     1      -4.224   1.721  13.079  1.00  0.00     0.042 C 
HETATM    3  C6  UNL     1      -3.932   0.401  13.697  1.00  0.00     0.168 C 
HETATM    4  O1  UNL     1      -4.950   0.294  14.692  1.00  0.00    -0.389 OA
HETATM    5  C7  UNL     1      -4.692   1.011  15.823  1.00  0.00     0.193 C 
HETATM    6  C8  UNL     1      -5.786   1.858  16.365  1.00  0.00     0.193 C 
HETATM    7  O2  UNL     1      -6.474   2.656  15.514  1.00  0.00    -0.389 OA
HETATM    8  C9  UNL     1      -6.455   4.007  15.736  1.00  0.00     0.167 C 
HETATM    9  C10 UNL     1      -5.161   4.709  15.591  1.00  0.00     0.028 C 
HETATM   10  C11 UNL     1      -4.941   5.409  14.269  1.00  0.00     0.022 C 
HETATM   11  C12 UNL     1      -5.470   4.732  13.067  1.00  0.00     0.126 C 
HETATM   12  N3  UNL     1      -4.619   4.614  11.905  1.00  0.00    -0.347 N 
HETATM   13  C17 UNL     1      -4.030   3.438  11.393  1.00  0.00     0.226 C 
HETATM   14  O3  UNL     1      -4.098   3.323  10.108  1.00  0.00    -0.273 OA
ENDROOT
BRANCH   1  15
HETATM   15  C3  UNL     1      -2.787   1.294  11.145  1.00  0.00     0.136 C 
BRANCH  15  16
HETATM   16  N2  UNL     1      -1.420   1.358  10.794  1.00  0.00    -0.366 N 
ATOM     17  H2  UNL     1      -0.917   0.494  10.594  1.00  0.00     0.161 HD
BRANCH  16  18
HETATM   18  C2  UNL     1      -0.739   2.583  10.715  1.00  0.00     0.167 C 
HETATM   19  S1  UNL     1      -0.596   3.341   9.284  1.00  0.00    -0.041 SA
BRANCH  18  20
HETATM   20  N1  UNL     1      -0.149   3.217  11.858  1.00  0.00    -0.372 N 
HETATM   21  C1  UNL     1      -0.434   4.562  12.242  1.00  0.00     0.148 C 
ATOM     22  H1  UNL     1       0.507   2.680  12.426  1.00  0.00     0.161 HD
ENDBRANCH  18  20
ENDBRANCH  16  18
ENDBRANCH  15  16
ENDBRANCH   1  15
BRANCH  12  23
HETATM   23  C13 UNL     1      -4.373   5.846  11.166  1.00  0.00     0.087 C 
HETATM   24  C14 UNL     1      -3.499   6.899  11.627  1.00  0.00     0.025 C 
HETATM   25  C15 UNL     1      -4.465   7.918  10.983  1.00  0.00     0.004 C 
HETATM   26  C16 UNL     1      -5.524   6.834  11.130  1.00  0.00     0.025 C 
ENDBRANCH  12  23
TORSDOF 5
ENDMDL
MODEL 4
REMARK VINA RESULT: -6.786702914      2.420      4.704
REMARK  5 active torsions:
REMARK  status: ('A' for Active; 'I' for Inactive)
REMARK    1  A    between atoms: N1_2  and  C2_4 
REMARK    2  A    between atoms: C2_4  and  N2_6 
REMARK    3  A    between atoms: N2_6  and  C3_8 
REMARK    4  A    between atoms: C3_8  and  C4_9 
REMARK    5  A    between atoms: N3_20  and  C13_21 
ROOT
HETATM    1  C4  UNL     1      -4.829   2.561  12.147  1.00  0.00     0.098 C 
HETATM    2  C5  UNL     1      -3.716   3.376  11.645  1.00  0.00     0.042 C 
HETATM    3  C6  UNL     1      -3.567   3.696  10.200  1.00  0.00     0.168 C 
HETATM    4  O1  UNL     1      -2.452   4.586  10.194  1.00  0.00    -0.389 OA
HETATM    5  C7  UNL     1      -2.763   5.861  10.564  1.00  0.00     0.193 C 
HETATM    6  C8  UNL     1      -1.884   6.522  11.563  1.00  0.00     0.193 C 
HETATM    7  O2  UNL     1      -1.539   5.837  12.680  1.00  0.00    -0.389 OA
HETATM    8  C9  UNL     1      -1.897   6.358  13.894  1.00  0.00     0.167 C 
HETATM    9  C10 UNL     1      -3.341   6.443  14.207  1.00  0.00     0.028 C 
HETATM   10  C11 UNL     1      -3.891   5.326  15.065  1.00  0.00     0.022 C 
HETATM   11  C12 UNL     1      -3.339   3.977  14.825  1.00  0.00     0.126 C 
HETATM   12  N3  UNL     1      -4.254   2.865  14.703  1.00  0.00    -0.347 N 
HETATM   13  C17 UNL     1      -4.558   2.133  13.535  1.00  0.00     0.226 C 
HETATM   14  O3  UNL     1      -4.609   0.853  13.705  1.00  0.00    -0.273 OA
ENDROOT
BRANCH   1  15
HETATM   15  C3  UNL     1      -5.195   1.474  11.219  1.00  0.00     0.136 C 
BRANCH  15  16
HETATM   16  N2  UNL     1      -4.189   0.859  10.441  1.00  0.00    -0.366 N 
ATOM     17  H2  UNL     1      -4.150   1.047   9.439  1.00  0.00     0.161 HD
BRANCH  16  18
HETATM   18  C2  UNL     1      -3.242  -0.004  11.015  1.00  0.00     0.167 C 
HETATM   19  S1  UNL     1      -1.673   0.420  11.049  1.00  0.00    -0.041 SA
BRANCH  18  20
HETATM   20  N1  UNL     1      -3.595  -1.270  11.587  1.00  0.00    -0.372 N 
HETATM   21  C1  UNL     1      -2.857  -2.469  11.353  1.00  0.00     0.148 C 
ATOM     22  H1  UNL     1      -4.416  -1.317  12.191  1.00  0.00     0.161 HD
ENDBRANCH  18  20
ENDBRANCH  16  18
ENDBRANCH  15  16
ENDBRANCH   1  15
BRANCH  12  23
HETATM   23  C13 UNL     1      -4.906   2.436  15.934  1.00  0.00     0.087 C 
HETATM   24  C14 UNL     1      -5.148   1.053  16.276  1.00  0.00     0.025 C 
HETATM   25  C15 UNL     1      -6.466   1.499  16.946  1.00  0.00     0.004 C 
HETATM   26  C16 UNL     1      -6.396   2.705  16.018  1.00  0.00     0.025 C 
ENDBRANCH  12  23
TORSDOF 5
ENDMDL
MODEL 5
REMARK VINA RESULT: -6.780606993      3.937      7.599
REMARK  5 active torsions:
REMARK  status: ('A' for Active; 'I' for Inactive)
REMARK    1  A    between atoms: N1_2  and  C2_4 
REMARK    2  A    between atoms: C2_4  and  N2_6 
REMARK    3  A    between atoms: N2_6  and  C3_8 
REMARK    4  A    between atoms: C3_8  and  C4_9 
REMARK    5  A    between atoms: N3_20  and  C13_21 
ROOT
HETATM    1  C4  UNL     1      -0.530   3.919  11.307  1.00  0.00     0.098 C 
HETATM    2  C5  UNL     1      -1.729   3.106  11.077  1.00  0.00     0.042 C 
HETATM    3  C6  UNL     1      -1.652   1.744  10.484  1.00  0.00     0.168 C 
HETATM    4  O1  UNL     1      -3.005   1.295  10.563  1.00  0.00    -0.389 OA
HETATM    5  C7  UNL     1      -3.370   0.862  11.802  1.00  0.00     0.193 C 
HETATM    6  C8  UNL     1      -4.658   1.357  12.353  1.00  0.00     0.193 C 
HETATM    7  O2  UNL     1      -4.930   2.683  12.279  1.00  0.00    -0.389 OA
HETATM    8  C9  UNL     1      -5.133   3.367  13.446  1.00  0.00     0.167 C 
HETATM    9  C10 UNL     1      -3.987   3.499  14.373  1.00  0.00     0.028 C 
HETATM   10  C11 UNL     1      -3.232   4.807  14.299  1.00  0.00     0.022 C 
HETATM   11  C12 UNL     1      -3.075   5.403  12.956  1.00  0.00     0.126 C 
HETATM   12  N3  UNL     1      -1.771   5.882  12.558  1.00  0.00    -0.347 N 
HETATM   13  C17 UNL     1      -0.913   5.319  11.589  1.00  0.00     0.226 C 
HETATM   14  O3  UNL     1      -0.359   6.180  10.801  1.00  0.00    -0.273 OA
ENDROOT
BRANCH   1  15
HETATM   15  C3  UNL     1       0.478   3.751  10.243  1.00  0.00     0.136 C 
BRANCH  15  16
HETATM   16  N2  UNL     1       1.802   4.189  10.467  1.00  0.00    -0.366 N 
ATOM     17  H2  UNL     1       2.231   4.029  11.378  1.00  0.00     0.161 HD
BRANCH  16  18
HETATM   18  C2  UNL     1       2.540   4.839   9.465  1.00  0.00     0.167 C 
HETATM   19  S1  UNL     1       3.635   4.010   8.596  1.00  0.00    -0.041 SA
BRANCH  18  20
HETATM   20  N1  UNL     1       2.374   6.230   9.161  1.00  0.00    -0.372 N 
HETATM   21  C1  UNL     1       2.904   7.279   9.971  1.00  0.00     0.148 C 
ATOM     22  H1  UNL     1       1.849   6.484   8.323  1.00  0.00     0.161 HD
ENDBRANCH  18  20
ENDBRANCH  16  18
ENDBRANCH  15  16
ENDBRANCH   1  15
BRANCH  12  23
HETATM   23  C13 UNL     1      -1.313   7.103  13.210  1.00  0.00     0.087 C 
HETATM   24  C14 UNL     1      -1.496   7.381  14.615  1.00  0.00     0.025 C 
HETATM   25  C15 UNL     1      -1.679   8.870  14.248  1.00  0.00     0.004 C 
HETATM   26  C16 UNL     1      -2.087   8.361  12.871  1.00  0.00     0.025 C 
ENDBRANCH  12  23
TORSDOF 5
ENDMDL
