MODEL 1
REMARK VINA RESULT: -7.827326792      0.000      0.000
REMARK  4 active torsions:
REMARK  status: ('A' for Active; 'I' for Inactive)
REMARK    1  A    between atoms: C2_2  and  C4_4 
REMARK    2  A    between atoms: C6_6  and  C7_7 
REMARK       I    between atoms: C7_7  and  N1_9 
REMARK    3  A    between atoms: N1_9  and  C8_11 
REMARK       I    between atoms: N2_19  and  C16_20 
REMARK    4  A    between atoms: C16_20  and  C17_22 
ROOT
HETATM    1  C4  UNL     1       0.554   4.611  10.095  1.00  0.00     0.126 C 
HETATM    2  C5  UNL     1      -0.011   3.296  10.345  1.00  0.00     0.048 C 
HETATM    3  C6  UNL     1      -1.027   3.098  11.447  1.00  0.00     0.105 C 
HETATM    4  C12 UNL     1      -1.650   4.393  11.793  1.00  0.00     0.129 C 
HETATM    5  C13 UNL     1      -0.439   5.335  11.928  1.00  0.00     0.147 C 
HETATM    6  C14 UNL     1      -0.906   6.355  12.886  1.00  0.00     0.054 C 
HETATM    7  C15 UNL     1      -1.463   5.367  13.953  1.00  0.00     0.129 C 
HETATM    8  N2  UNL     1      -2.293   4.521  13.070  1.00  0.00    -0.342 N 
HETATM    9  C16 UNL     1      -3.519   3.987  13.530  1.00  0.00     0.251 C 
HETATM   10  O2  UNL     1      -4.175   3.278  12.725  1.00  0.00    -0.271 OA
HETATM   11  O3  UNL     1      -0.129   5.711  10.661  1.00  0.00    -0.378 OA
ENDROOT
BRANCH   9  12
HETATM   12  C17 UNL     1      -4.134   4.155  14.853  1.00  0.00     0.277 C 
HETATM   13  C18 UNL     1      -5.581   4.502  14.809  1.00  0.00     0.044 C 
HETATM   14  C19 UNL     1      -6.279   3.442  15.604  1.00  0.00     0.030 C 
HETATM   15  C20 UNL     1      -5.267   2.313  15.654  1.00  0.00     0.233 C 
HETATM   16  N3  UNL     1      -3.978   2.980  15.688  1.00  0.00    -0.062 N 
ATOM     17  H32 UNL     1      -3.198   2.382  15.415  1.00  0.00     0.278 HD
ATOM     18  H31 UNL     1      -3.647   3.186  16.630  1.00  0.00     0.278 HD
ENDBRANCH   9  12
BRANCH   3  19
HETATM   19  C7  UNL     1      -1.913   2.013  10.984  1.00  0.00     0.224 C 
HETATM   20  O1  UNL     1      -2.133   1.818   9.765  1.00  0.00    -0.273 OA
HETATM   21  N1  UNL     1      -2.549   1.154  11.911  1.00  0.00    -0.353 N 
ATOM     22  H1  UNL     1      -2.367   1.306  12.903  1.00  0.00     0.163 HD
BRANCH  21  23
HETATM   23  C8  UNL     1      -3.435   0.082  11.549  1.00  0.00     0.022 C 
HETATM   24  C9  UNL     1      -4.241  -0.341  12.761  1.00  0.00     0.037 C 
HETATM   25  C10 UNL     1      -4.464   0.532  10.512  1.00  0.00     0.037 C 
HETATM   26  C11 UNL     1      -2.732  -1.107  10.939  1.00  0.00     0.037 C 
ENDBRANCH  21  23
ENDBRANCH   3  19
BRANCH   1  27
HETATM   27  C2  UNL     1       2.011   4.790  10.428  1.00  0.00     0.006 C 
HETATM   28  C1  UNL     1       2.928   3.958   9.572  1.00  0.00     0.012 C 
HETATM   29  C3  UNL     1       2.429   6.237  10.254  1.00  0.00     0.012 C 
ENDBRANCH   1  27
TORSDOF 4
ENDMDL
MODEL 2
REMARK VINA RESULT: -7.508055411      1.993      7.202
REMARK  4 active torsions:
REMARK  status: ('A' for Active; 'I' for Inactive)
REMARK    1  A    between atoms: C2_2  and  C4_4 
REMARK    2  A    between atoms: C6_6  and  C7_7 
REMARK       I    between atoms: C7_7  and  N1_9 
REMARK    3  A    between atoms: N1_9  and  C8_11 
REMARK       I    between atoms: N2_19  and  C16_20 
REMARK    4  A    between atoms: C16_20  and  C17_22 
ROOT
HETATM    1  C4  UNL     1      -5.473   3.498  14.881  1.00  0.00     0.126 C 
HETATM    2  C5  UNL     1      -4.142   4.052  15.057  1.00  0.00     0.048 C 
HETATM    3  C6  UNL     1      -3.126   3.969  13.940  1.00  0.00     0.105 C 
HETATM    4  C12 UNL     1      -3.814   3.752  12.651  1.00  0.00     0.129 C 
HETATM    5  C13 UNL     1      -4.802   2.615  12.973  1.00  0.00     0.147 C 
HETATM    6  C14 UNL     1      -4.979   1.940  11.674  1.00  0.00     0.054 C 
HETATM    7  C15 UNL     1      -3.466   1.812  11.323  1.00  0.00     0.129 C 
HETATM    8  N2  UNL     1      -3.059   3.213  11.556  1.00  0.00    -0.342 N 
HETATM    9  C16 UNL     1      -2.070   3.819  10.746  1.00  0.00     0.251 C 
HETATM   10  O2  UNL     1      -1.774   5.014  10.999  1.00  0.00    -0.271 OA
HETATM   11  O3  UNL     1      -5.871   3.218  13.555  1.00  0.00    -0.378 OA
ENDROOT
BRANCH   9  12
HETATM   12  C17 UNL     1      -1.329   3.218   9.630  1.00  0.00     0.277 C 
HETATM   13  C18 UNL     1      -1.252   4.079   8.420  1.00  0.00     0.044 C 
HETATM   14  C19 UNL     1       0.208   4.248   8.131  1.00  0.00     0.030 C 
HETATM   15  C20 UNL     1       0.873   3.876   9.442  1.00  0.00     0.233 C 
HETATM   16  N3  UNL     1       0.022   2.843  10.002  1.00  0.00    -0.062 N 
ATOM     17  H32 UNL     1       0.149   2.703  11.005  1.00  0.00     0.278 HD
ATOM     18  H31 UNL     1       0.280   1.898   9.718  1.00  0.00     0.278 HD
ENDBRANCH   9  12
BRANCH   3  19
HETATM   19  C7  UNL     1      -2.284   5.174  14.074  1.00  0.00     0.224 C 
HETATM   20  O1  UNL     1      -1.223   5.164  14.742  1.00  0.00    -0.273 OA
HETATM   21  N1  UNL     1      -2.656   6.387  13.450  1.00  0.00    -0.353 N 
ATOM     22  H1  UNL     1      -3.515   6.396  12.900  1.00  0.00     0.163 HD
BRANCH  21  23
HETATM   23  C8  UNL     1      -1.903   7.609  13.537  1.00  0.00     0.022 C 
HETATM   24  C9  UNL     1      -0.454   7.339  13.183  1.00  0.00     0.037 C 
HETATM   25  C10 UNL     1      -2.387   8.638  12.516  1.00  0.00     0.037 C 
HETATM   26  C11 UNL     1      -2.002   8.288  14.882  1.00  0.00     0.037 C 
ENDBRANCH  21  23
ENDBRANCH   3  19
BRANCH   1  27
HETATM   27  C2  UNL     1      -5.806   2.279  15.699  1.00  0.00     0.006 C 
HETATM   28  C1  UNL     1      -4.627   1.717  16.447  1.00  0.00     0.012 C 
HETATM   29  C3  UNL     1      -6.877   2.595  16.725  1.00  0.00     0.012 C 
ENDBRANCH   1  27
TORSDOF 4
ENDMDL
MODEL 3
REMARK VINA RESULT: -7.279445426      2.848      5.559
REMARK  4 active torsions:
REMARK  status: ('A' for Active; 'I' for Inactive)
REMARK    1  A    between atoms: C2_2  and  C4_4 
REMARK    2  A    between atoms: C6_6  and  C7_7 
REMARK       I    between atoms: C7_7  and  N1_9 
REMARK    3  A    between atoms: N1_9  and  C8_11 
REMARK       I    between atoms: N2_19  and  C16_20 
REMARK    4  A    between atoms: C16_20  and  C17_22 
ROOT
HETATM    1  C4  UNL     1      -4.544   0.636  11.642  1.00  0.00     0.126 C 
HETATM    2  C5  UNL     1      -4.239   0.880  13.041  1.00  0.00     0.048 C 
HETATM    3  C6  UNL     1      -3.856   2.266  13.509  1.00  0.00     0.105 C 
HETATM    4  C12 UNL     1      -4.323   3.272  12.533  1.00  0.00     0.129 C 
HETATM    5  C13 UNL     1      -3.863   2.684  11.185  1.00  0.00     0.147 C 
HETATM    6  C14 UNL     1      -3.681   3.878  10.337  1.00  0.00     0.054 C 
HETATM    7  C15 UNL     1      -2.833   4.700  11.354  1.00  0.00     0.129 C 
HETATM    8  N2  UNL     1      -3.705   4.567  12.539  1.00  0.00    -0.342 N 
HETATM    9  C16 UNL     1      -3.833   5.633  13.460  1.00  0.00     0.251 C 
HETATM   10  O2  UNL     1      -4.594   5.452  14.445  1.00  0.00    -0.271 OA
HETATM   11  O3  UNL     1      -4.809   1.772  10.845  1.00  0.00    -0.378 OA
ENDROOT
BRANCH   9  12
HETATM   12  C17 UNL     1      -3.177   6.945  13.415  1.00  0.00     0.277 C 
HETATM   13  C18 UNL     1      -2.769   7.466  14.748  1.00  0.00     0.044 C 
HETATM   14  C19 UNL     1      -1.296   7.719  14.655  1.00  0.00     0.030 C 
HETATM   15  C20 UNL     1      -0.872   6.897  13.453  1.00  0.00     0.233 C 
HETATM   16  N3  UNL     1      -2.011   6.951  12.554  1.00  0.00    -0.062 N 
ATOM     17  H32 UNL     1      -2.015   6.212  11.850  1.00  0.00     0.278 HD
ATOM     18  H31 UNL     1      -1.983   7.735  11.902  1.00  0.00     0.278 HD
ENDBRANCH   9  12
BRANCH   3  19
HETATM   19  C7  UNL     1      -4.354   2.372  14.894  1.00  0.00     0.224 C 
HETATM   20  O1  UNL     1      -3.595   2.675  15.846  1.00  0.00    -0.273 OA
HETATM   21  N1  UNL     1      -5.716   2.131  15.192  1.00  0.00    -0.353 N 
ATOM     22  H1  UNL     1      -6.337   1.891  14.420  1.00  0.00     0.163 HD
BRANCH  21  23
HETATM   23  C8  UNL     1      -6.283   2.200  16.511  1.00  0.00     0.022 C 
HETATM   24  C9  UNL     1      -6.746   3.617  16.790  1.00  0.00     0.037 C 
HETATM   25  C10 UNL     1      -7.534   1.331  16.629  1.00  0.00     0.037 C 
HETATM   26  C11 UNL     1      -5.350   1.724  17.599  1.00  0.00     0.037 C 
ENDBRANCH  21  23
ENDBRANCH   3  19
BRANCH   1  27
HETATM   27  C2  UNL     1      -3.560  -0.207  10.878  1.00  0.00     0.006 C 
HETATM   28  C1  UNL     1      -2.147   0.307  10.948  1.00  0.00     0.012 C 
HETATM   29  C3  UNL     1      -3.544  -1.629  11.406  1.00  0.00     0.012 C 
ENDBRANCH   1  27
TORSDOF 4
ENDMDL
MODEL 4
REMARK VINA RESULT: -7.254779429      1.597      2.160
REMARK  4 active torsions:
REMARK  status: ('A' for Active; 'I' for Inactive)
REMARK    1  A    between atoms: C2_2  and  C4_4 
REMARK    2  A    between atoms: C6_6  and  C7_7 
REMARK       I    between atoms: C7_7  and  N1_9 
REMARK    3  A    between atoms: N1_9  and  C8_11 
REMARK       I    between atoms: N2_19  and  C16_20 
REMARK    4  A    between atoms: C16_20  and  C17_22 
ROOT
HETATM    1  C4  UNL     1      -1.866   6.043  10.461  1.00  0.00     0.126 C 
HETATM    2  C5  UNL     1      -2.024   4.599  10.447  1.00  0.00     0.048 C 
HETATM    3  C6  UNL     1      -2.680   3.891  11.611  1.00  0.00     0.105 C 
HETATM    4  C12 UNL     1      -3.499   4.849  12.384  1.00  0.00     0.129 C 
HETATM    5  C13 UNL     1      -2.552   6.051  12.558  1.00  0.00     0.147 C 
HETATM    6  C14 UNL     1      -3.017   6.671  13.814  1.00  0.00     0.054 C 
HETATM    7  C15 UNL     1      -3.058   5.364  14.661  1.00  0.00     0.129 C 
HETATM    8  N2  UNL     1      -3.841   4.518  13.737  1.00  0.00    -0.342 N 
HETATM    9  C16 UNL     1      -4.763   3.568  14.238  1.00  0.00     0.251 C 
HETATM   10  O2  UNL     1      -5.396   2.883  13.395  1.00  0.00    -0.271 OA
HETATM   11  O3  UNL     1      -2.643   6.756  11.401  1.00  0.00    -0.378 OA
ENDROOT
BRANCH   9  12
HETATM   12  C17 UNL     1      -5.077   3.272  15.641  1.00  0.00     0.277 C 
HETATM   13  C18 UNL     1      -6.523   3.030  15.900  1.00  0.00     0.044 C 
HETATM   14  C19 UNL     1      -6.603   1.670  16.524  1.00  0.00     0.030 C 
HETATM   15  C20 UNL     1      -5.277   1.033  16.155  1.00  0.00     0.233 C 
HETATM   16  N3  UNL     1      -4.332   2.136  16.147  1.00  0.00    -0.062 N 
ATOM     17  H32 UNL     1      -3.477   1.940  15.627  1.00  0.00     0.278 HD
ATOM     18  H31 UNL     1      -3.888   2.303  17.049  1.00  0.00     0.278 HD
ENDBRANCH   9  12
BRANCH   3  19
HETATM   19  C7  UNL     1      -3.362   2.717  11.032  1.00  0.00     0.224 C 
HETATM   20  O1  UNL     1      -4.090   2.813  10.016  1.00  0.00    -0.273 OA
HETATM   21  N1  UNL     1      -3.215   1.437  11.615  1.00  0.00    -0.353 N 
ATOM     22  H1  UNL     1      -2.618   1.354  12.438  1.00  0.00     0.163 HD
BRANCH  21  23
HETATM   23  C8  UNL     1      -3.850   0.244  11.126  1.00  0.00     0.022 C 
HETATM   24  C9  UNL     1      -2.930  -0.455  10.144  1.00  0.00     0.037 C 
HETATM   25  C10 UNL     1      -4.088  -0.765  12.249  1.00  0.00     0.037 C 
HETATM   26  C11 UNL     1      -5.203   0.489  10.502  1.00  0.00     0.037 C 
ENDBRANCH  21  23
ENDBRANCH   3  19
BRANCH   1  27
HETATM   27  C2  UNL     1      -0.459   6.562  10.582  1.00  0.00     0.006 C 
HETATM   28  C1  UNL     1       0.576   5.475  10.688  1.00  0.00     0.012 C 
HETATM   29  C3  UNL     1      -0.093   7.411   9.380  1.00  0.00     0.012 C 
ENDBRANCH   1  27
TORSDOF 4
ENDMDL
MODEL 5
REMARK VINA RESULT: -7.203808450      1.617      5.898
REMARK  4 active torsions:
REMARK  status: ('A' for Active; 'I' for Inactive)
REMARK    1  A    between atoms: C2_2  and  C4_4 
REMARK    2  A    between atoms: C6_6  and  C7_7 
REMARK       I    between atoms: C7_7  and  N1_9 
REMARK    3  A    between atoms: N1_9  and  C8_11 
REMARK       I    between atoms: N2_19  and  C16_20 
REMARK    4  A    between atoms: C16_20  and  C17_22 
ROOT
HETATM    1  C4  UNL     1      -4.806   3.456  14.926  1.00  0.00     0.126 C 
HETATM    2  C5  UNL     1      -4.985   3.090  13.532  1.00  0.00     0.048 C 
HETATM    3  C6  UNL     1      -3.926   3.436  12.510  1.00  0.00     0.105 C 
HETATM    4  C12 UNL     1      -2.635   3.678  13.186  1.00  0.00     0.129 C 
HETATM    5  C13 UNL     1      -3.023   4.618  14.344  1.00  0.00     0.147 C 
HETATM    6  C14 UNL     1      -1.788   5.389  14.584  1.00  0.00     0.054 C 
HETATM    7  C15 UNL     1      -1.517   5.774  13.099  1.00  0.00     0.129 C 
HETATM    8  N2  UNL     1      -1.631   4.432  12.491  1.00  0.00    -0.342 N 
HETATM    9  C16 UNL     1      -0.810   4.065  11.399  1.00  0.00     0.251 C 
HETATM   10  O2  UNL     1      -0.959   2.907  10.933  1.00  0.00    -0.271 OA
HETATM   11  O3  UNL     1      -3.497   3.808  15.325  1.00  0.00    -0.378 OA
ENDROOT
BRANCH   9  12
HETATM   12  C17 UNL     1       0.209   4.879  10.726  1.00  0.00     0.277 C 
HETATM   13  C18 UNL     1       1.600   4.604  11.178  1.00  0.00     0.044 C 
HETATM   14  C19 UNL     1       2.363   4.229   9.944  1.00  0.00     0.030 C 
HETATM   15  C20 UNL     1       1.276   3.858   8.955  1.00  0.00     0.233 C 
HETATM   16  N3  UNL     1       0.168   4.736   9.284  1.00  0.00    -0.062 N 
ATOM     17  H32 UNL     1      -0.733   4.414   8.928  1.00  0.00     0.278 HD
ATOM     18  H31 UNL     1       0.183   5.624   8.782  1.00  0.00     0.278 HD
ENDBRANCH   9  12
BRANCH   3  19
HETATM   19  C7  UNL     1      -3.980   2.361  11.499  1.00  0.00     0.224 C 
HETATM   20  O1  UNL     1      -4.312   2.590  10.312  1.00  0.00    -0.273 OA
HETATM   21  N1  UNL     1      -3.657   1.028  11.845  1.00  0.00    -0.353 N 
ATOM     22  H1  UNL     1      -3.379   0.840  12.809  1.00  0.00     0.163 HD
BRANCH  21  23
HETATM   23  C8  UNL     1      -3.693  -0.080  10.930  1.00  0.00     0.022 C 
HETATM   24  C9  UNL     1      -2.491  -0.017  10.009  1.00  0.00     0.037 C 
HETATM   25  C10 UNL     1      -3.575  -1.415  11.663  1.00  0.00     0.037 C 
HETATM   26  C11 UNL     1      -4.970  -0.164  10.130  1.00  0.00     0.037 C 
ENDBRANCH  21  23
ENDBRANCH   3  19
BRANCH   1  27
HETATM   27  C2  UNL     1      -5.722   4.523  15.463  1.00  0.00     0.006 C 
HETATM   28  C1  UNL     1      -6.506   5.235  14.394  1.00  0.00     0.012 C 
HETATM   29  C3  UNL     1      -6.726   3.931  16.434  1.00  0.00     0.012 C 
ENDBRANCH   1  27
TORSDOF 4
ENDMDL
