MODEL 1
REMARK VINA RESULT: -7.695912655      0.000      0.000
REMARK  4 active torsions:
REMARK  status: ('A' for Active; 'I' for Inactive)
REMARK       I    between atoms: N1_2  and  C2_4 
REMARK    1  A    between atoms: C2_4  and  C3_6 
REMARK    2  A    between atoms: C5_8  and  C6_9 
REMARK       I    between atoms: C6_9  and  N2_11 
REMARK    3  A    between atoms: N2_11  and  C7_13 
REMARK       I    between atoms: N4_20  and  C12_21 
REMARK    4  A    between atoms: C12_21  and  C13_23 
ROOT
HETATM    1  C3  UNL     1      -4.841   2.567  12.291  1.00  0.00     0.105 C 
HETATM    2  C4  UNL     1      -4.527   1.322  13.142  1.00  0.00     0.051 C 
HETATM    3  C5  UNL     1      -3.788   1.824  14.340  1.00  0.00     0.180 C 
HETATM    4  N3  UNL     1      -3.768   3.258  14.217  1.00  0.00    -0.330 N 
HETATM    5  C10 UNL     1      -2.898   4.198  14.816  1.00  0.00     0.238 C 
HETATM    6  O3  UNL     1      -1.881   3.912  15.488  1.00  0.00    -0.271 OA
HETATM    7  C11 UNL     1      -3.224   5.632  14.627  1.00  0.00     0.229 C 
HETATM    8  N4  UNL     1      -3.825   5.837  13.319  1.00  0.00    -0.336 N 
HETATM    9  C12 UNL     1      -3.267   6.822  12.483  1.00  0.00     0.238 C 
HETATM   10  O4  UNL     1      -2.251   7.452  12.938  1.00  0.00    -0.272 OA
HETATM   11  C15 UNL     1      -4.969   5.016  12.933  1.00  0.00     0.107 C 
HETATM   12  C16 UNL     1      -6.168   5.690  13.631  1.00  0.00     0.034 C 
HETATM   13  C17 UNL     1      -4.853   3.611  13.330  1.00  0.00     0.123 C 
ENDROOT
BRANCH   3  14
HETATM   14  C6  UNL     1      -4.342   1.349  15.614  1.00  0.00     0.241 C 
HETATM   15  O2  UNL     1      -3.763   0.535  16.379  1.00  0.00    -0.271 OA
HETATM   16  N2  UNL     1      -5.611   1.828  16.027  1.00  0.00    -0.355 N 
ATOM     17  H2  UNL     1      -6.106   2.489  15.428  1.00  0.00     0.162 HD
BRANCH  16  18
HETATM   18  C7  UNL     1      -6.232   1.410  17.271  1.00  0.00     0.076 C 
HETATM   19  C8  UNL     1      -7.681   1.058  16.966  1.00  0.00     0.032 C 
HETATM   20  C9  UNL     1      -6.254   2.518  18.299  1.00  0.00     0.032 C 
ENDBRANCH  16  18
ENDBRANCH   3  14
BRANCH   1  21
HETATM   21  C2  UNL     1      -3.857   2.611  11.243  1.00  0.00     0.223 C 
HETATM   22  N1  UNL     1      -2.693   1.802  11.396  1.00  0.00    -0.365 N 
HETATM   23  C1  UNL     1      -1.620   1.752  10.414  1.00  0.00     0.149 C 
ATOM     24  H1  UNL     1      -2.607   1.229  12.236  1.00  0.00     0.161 HD
HETATM   25  O1  UNL     1      -3.875   3.278  10.182  1.00  0.00    -0.273 OA
ENDBRANCH   1  21
BRANCH   9  26
HETATM   26  C13 UNL     1      -3.742   7.197  11.136  1.00  0.00     0.170 C 
HETATM   27  C14 UNL     1      -3.824   8.671  10.891  1.00  0.00     0.036 C 
HETATM   28 CL1  UNL     1      -2.684   6.492   9.901  1.00  0.00    -0.115 Cl
ENDBRANCH   9  26
TORSDOF 4
ENDMDL
MODEL 2
REMARK VINA RESULT: -7.550831406      1.922      2.165
REMARK  4 active torsions:
REMARK  status: ('A' for Active; 'I' for Inactive)
REMARK       I    between atoms: N1_2  and  C2_4 
REMARK    1  A    between atoms: C2_4  and  C3_6 
REMARK    2  A    between atoms: C5_8  and  C6_9 
REMARK       I    between atoms: C6_9  and  N2_11 
REMARK    3  A    between atoms: N2_11  and  C7_13 
REMARK       I    between atoms: N4_20  and  C12_21 
REMARK    4  A    between atoms: C12_21  and  C13_23 
ROOT
HETATM    1  C3  UNL     1      -4.335   3.053  11.420  1.00  0.00     0.105 C 
HETATM    2  C4  UNL     1      -4.992   2.122  12.457  1.00  0.00     0.051 C 
HETATM    3  C5  UNL     1      -4.518   2.600  13.790  1.00  0.00     0.180 C 
HETATM    4  N3  UNL     1      -3.726   3.773  13.529  1.00  0.00    -0.330 N 
HETATM    5  C10 UNL     1      -2.735   4.385  14.331  1.00  0.00     0.238 C 
HETATM    6  O3  UNL     1      -2.281   3.912  15.399  1.00  0.00    -0.271 OA
HETATM    7  C11 UNL     1      -2.198   5.685  13.864  1.00  0.00     0.229 C 
HETATM    8  N4  UNL     1      -2.163   5.715  12.410  1.00  0.00    -0.336 N 
HETATM    9  C12 UNL     1      -0.950   6.057  11.786  1.00  0.00     0.238 C 
HETATM   10  O4  UNL     1       0.043   6.297  12.556  1.00  0.00    -0.272 OA
HETATM   11  C15 UNL     1      -3.378   5.387  11.670  1.00  0.00     0.107 C 
HETATM   12  C16 UNL     1      -4.207   6.687  11.713  1.00  0.00     0.034 C 
HETATM   13  C17 UNL     1      -4.133   4.264  12.232  1.00  0.00     0.123 C 
ENDROOT
BRANCH   3  14
HETATM   14  C6  UNL     1      -5.604   2.825  14.754  1.00  0.00     0.241 C 
HETATM   15  O2  UNL     1      -6.535   3.655  14.590  1.00  0.00    -0.271 OA
HETATM   16  N2  UNL     1      -5.621   2.068  15.952  1.00  0.00    -0.355 N 
ATOM     17  H2  UNL     1      -4.879   1.386  16.113  1.00  0.00     0.162 HD
BRANCH  16  18
HETATM   18  C7  UNL     1      -6.656   2.227  16.957  1.00  0.00     0.076 C 
HETATM   19  C8  UNL     1      -5.998   2.081  18.321  1.00  0.00     0.032 C 
HETATM   20  C9  UNL     1      -7.716   1.153  16.861  1.00  0.00     0.032 C 
ENDBRANCH  16  18
ENDBRANCH   3  14
BRANCH   1  21
HETATM   21  C2  UNL     1      -3.200   2.347  10.891  1.00  0.00     0.223 C 
HETATM   22  N1  UNL     1      -2.938   1.040  11.398  1.00  0.00    -0.365 N 
HETATM   23  C1  UNL     1      -1.824   0.218  10.952  1.00  0.00     0.149 C 
ATOM     24  H1  UNL     1      -3.564   0.663  12.110  1.00  0.00     0.161 HD
HETATM   25  O1  UNL     1      -2.380   2.727  10.021  1.00  0.00    -0.273 OA
ENDBRANCH   1  21
BRANCH   9  26
HETATM   26  C13 UNL     1      -0.715   6.164  10.332  1.00  0.00     0.170 C 
HETATM   27  C14 UNL     1      -0.146   7.475   9.887  1.00  0.00     0.036 C 
HETATM   28 CL1  UNL     1       0.383   4.879   9.796  1.00  0.00    -0.115 Cl
ENDBRANCH   9  26
TORSDOF 4
ENDMDL
MODEL 3
REMARK VINA RESULT: -7.471686367      2.212      3.770
REMARK  4 active torsions:
REMARK  status: ('A' for Active; 'I' for Inactive)
REMARK       I    between atoms: N1_2  and  C2_4 
REMARK    1  A    between atoms: C2_4  and  C3_6 
REMARK    2  A    between atoms: C5_8  and  C6_9 
REMARK       I    between atoms: C6_9  and  N2_11 
REMARK    3  A    between atoms: N2_11  and  C7_13 
REMARK       I    between atoms: N4_20  and  C12_21 
REMARK    4  A    between atoms: C12_21  and  C13_23 
ROOT
HETATM    1  C3  UNL     1      -4.360   5.617  12.920  1.00  0.00     0.105 C 
HETATM    2  C4  UNL     1      -5.285   4.898  13.920  1.00  0.00     0.051 C 
HETATM    3  C5  UNL     1      -4.915   3.452  13.848  1.00  0.00     0.180 C 
HETATM    4  N3  UNL     1      -3.801   3.376  12.940  1.00  0.00    -0.330 N 
HETATM    5  C10 UNL     1      -3.316   2.269  12.204  1.00  0.00     0.238 C 
HETATM    6  O3  UNL     1      -3.878   1.153  12.130  1.00  0.00    -0.271 OA
HETATM    7  C11 UNL     1      -2.044   2.457  11.468  1.00  0.00     0.229 C 
HETATM    8  N4  UNL     1      -1.944   3.826  10.988  1.00  0.00    -0.336 N 
HETATM    9  C12 UNL     1      -1.674   4.029   9.622  1.00  0.00     0.238 C 
HETATM   10  O4  UNL     1      -1.556   2.980   8.899  1.00  0.00    -0.272 OA
HETATM   11  C15 UNL     1      -2.130   4.920  11.936  1.00  0.00     0.107 C 
HETATM   12  C16 UNL     1      -0.769   5.033  12.653  1.00  0.00     0.034 C 
HETATM   13  C17 UNL     1      -3.213   4.695  12.898  1.00  0.00     0.123 C 
ENDROOT
BRANCH   3  14
HETATM   14  C6  UNL     1      -4.649   2.847  15.159  1.00  0.00     0.241 C 
HETATM   15  O2  UNL     1      -3.499   2.659  15.632  1.00  0.00    -0.271 OA
HETATM   16  N2  UNL     1      -5.747   2.441  15.959  1.00  0.00    -0.355 N 
ATOM     17  H2  UNL     1      -6.693   2.580  15.603  1.00  0.00     0.162 HD
BRANCH  16  18
HETATM   18  C7  UNL     1      -5.573   1.834  17.267  1.00  0.00     0.076 C 
HETATM   19  C8  UNL     1      -5.990   0.375  17.154  1.00  0.00     0.032 C 
HETATM   20  C9  UNL     1      -6.462   2.467  18.312  1.00  0.00     0.032 C 
ENDBRANCH  16  18
ENDBRANCH   3  14
BRANCH   1  21
HETATM   21  C2  UNL     1      -5.131   5.830  11.724  1.00  0.00     0.223 C 
HETATM   22  N1  UNL     1      -5.897   7.030  11.636  1.00  0.00    -0.365 N 
HETATM   23  C1  UNL     1      -6.721   7.370  10.486  1.00  0.00     0.149 C 
ATOM     24  H1  UNL     1      -5.865   7.683  12.419  1.00  0.00     0.161 HD
HETATM   25  O1  UNL     1      -5.231   5.090  10.718  1.00  0.00    -0.273 OA
ENDBRANCH   1  21
BRANCH   9  26
HETATM   26  C13 UNL     1      -1.513   5.332   8.947  1.00  0.00     0.170 C 
HETATM   27  C14 UNL     1      -0.105   5.837   8.891  1.00  0.00     0.036 C 
HETATM   28 CL1  UNL     1      -2.129   5.238   7.288  1.00  0.00    -0.115 Cl
ENDBRANCH   9  26
TORSDOF 4
ENDMDL
MODEL 4
REMARK VINA RESULT: -7.444384614      3.315      5.104
REMARK  4 active torsions:
REMARK  status: ('A' for Active; 'I' for Inactive)
REMARK       I    between atoms: N1_2  and  C2_4 
REMARK    1  A    between atoms: C2_4  and  C3_6 
REMARK    2  A    between atoms: C5_8  and  C6_9 
REMARK       I    between atoms: C6_9  and  N2_11 
REMARK    3  A    between atoms: N2_11  and  C7_13 
REMARK       I    between atoms: N4_20  and  C12_21 
REMARK    4  A    between atoms: C12_21  and  C13_23 
ROOT
HETATM    1  C3  UNL     1      -0.117   5.972  11.102  1.00  0.00     0.105 C 
HETATM    2  C4  UNL     1      -0.115   4.449  10.867  1.00  0.00     0.051 C 
HETATM    3  C5  UNL     1      -1.037   3.878  11.894  1.00  0.00     0.180 C 
HETATM    4  N3  UNL     1      -1.590   5.005  12.597  1.00  0.00    -0.330 N 
HETATM    5  C10 UNL     1      -2.182   5.061  13.881  1.00  0.00     0.238 C 
HETATM    6  O3  UNL     1      -2.214   4.114  14.700  1.00  0.00    -0.271 OA
HETATM    7  C11 UNL     1      -2.809   6.344  14.277  1.00  0.00     0.229 C 
HETATM    8  N4  UNL     1      -2.071   7.458  13.701  1.00  0.00    -0.336 N 
HETATM    9  C12 UNL     1      -1.642   8.482  14.565  1.00  0.00     0.238 C 
HETATM   10  O4  UNL     1      -1.921   8.341  15.805  1.00  0.00    -0.272 OA
HETATM   11  C15 UNL     1      -1.808   7.460  12.266  1.00  0.00     0.107 C 
HETATM   12  C16 UNL     1      -3.126   7.963  11.642  1.00  0.00     0.034 C 
HETATM   13  C17 UNL     1      -1.439   6.149  11.726  1.00  0.00     0.123 C 
ENDROOT
BRANCH   3  14
HETATM   14  C6  UNL     1      -2.054   2.976  11.335  1.00  0.00     0.241 C 
HETATM   15  O2  UNL     1      -2.542   3.088  10.182  1.00  0.00    -0.271 OA
HETATM   16  N2  UNL     1      -2.528   1.904  12.133  1.00  0.00    -0.355 N 
ATOM     17  H2  UNL     1      -2.151   1.787  13.074  1.00  0.00     0.162 HD
BRANCH  16  18
HETATM   18  C7  UNL     1      -3.531   0.968  11.659  1.00  0.00     0.076 C 
HETATM   19  C8  UNL     1      -4.363   0.540  12.859  1.00  0.00     0.032 C 
HETATM   20  C9  UNL     1      -2.914  -0.285  11.081  1.00  0.00     0.032 C 
ENDBRANCH  16  18
ENDBRANCH   3  14
BRANCH   1  21
HETATM   21  C2  UNL     1       1.074   6.276  11.848  1.00  0.00     0.223 C 
HETATM   22  N1  UNL     1       2.088   5.276  11.911  1.00  0.00    -0.365 N 
HETATM   23  C1  UNL     1       3.340   5.452  12.631  1.00  0.00     0.149 C 
ATOM     24  H1  UNL     1       1.928   4.393  11.427  1.00  0.00     0.161 HD
HETATM   25  O1  UNL     1       1.357   7.326  12.471  1.00  0.00    -0.273 OA
ENDBRANCH   1  21
BRANCH   9  26
HETATM   26  C13 UNL     1      -0.904   9.700  14.176  1.00  0.00     0.170 C 
HETATM   27  C14 UNL     1      -1.767  10.891  13.897  1.00  0.00     0.036 C 
HETATM   28 CL1  UNL     1       0.250  10.144  15.446  1.00  0.00    -0.115 Cl
ENDBRANCH   9  26
TORSDOF 4
ENDMDL
MODEL 5
REMARK VINA RESULT: -7.423039389      2.767      6.412
REMARK  4 active torsions:
REMARK  status: ('A' for Active; 'I' for Inactive)
REMARK       I    between atoms: N1_2  and  C2_4 
REMARK    1  A    between atoms: C2_4  and  C3_6 
REMARK    2  A    between atoms: C5_8  and  C6_9 
REMARK       I    between atoms: C6_9  and  N2_11 
REMARK    3  A    between atoms: N2_11  and  C7_13 
REMARK       I    between atoms: N4_20  and  C12_21 
REMARK    4  A    between atoms: C12_21  and  C13_23 
ROOT
HETATM    1  C3  UNL     1      -4.408   4.551  14.077  1.00  0.00     0.105 C 
HETATM    2  C4  UNL     1      -3.760   5.813  14.678  1.00  0.00     0.051 C 
HETATM    3  C5  UNL     1      -2.452   5.973  13.975  1.00  0.00     0.180 C 
HETATM    4  N3  UNL     1      -2.407   4.929  12.985  1.00  0.00    -0.330 N 
HETATM    5  C10 UNL     1      -1.291   4.361  12.329  1.00  0.00     0.238 C 
HETATM    6  O3  UNL     1      -0.093   4.605  12.603  1.00  0.00    -0.271 OA
HETATM    7  C11 UNL     1      -1.570   3.404  11.232  1.00  0.00     0.229 C 
HETATM    8  N4  UNL     1      -2.778   2.650  11.526  1.00  0.00    -0.336 N 
HETATM    9  C12 UNL     1      -2.710   1.245  11.468  1.00  0.00     0.238 C 
HETATM   10  O4  UNL     1      -1.572   0.738  11.178  1.00  0.00    -0.272 OA
HETATM   11  C15 UNL     1      -3.996   3.377  11.868  1.00  0.00     0.107 C 
HETATM   12  C16 UNL     1      -4.564   3.824  10.505  1.00  0.00     0.034 C 
HETATM   13  C17 UNL     1      -3.775   4.528  12.748  1.00  0.00     0.123 C 
ENDROOT
BRANCH   3  14
HETATM   14  C6  UNL     1      -2.241   7.318  13.423  1.00  0.00     0.241 C 
HETATM   15  O2  UNL     1      -2.893   7.798  12.461  1.00  0.00    -0.271 OA
HETATM   16  N2  UNL     1      -1.242   8.143  13.999  1.00  0.00    -0.355 N 
ATOM     17  H2  UNL     1      -0.697   7.781  14.781  1.00  0.00     0.162 HD
BRANCH  16  18
HETATM   18  C7  UNL     1      -0.968   9.484  13.515  1.00  0.00     0.076 C 
HETATM   19  C8  UNL     1       0.526   9.731  13.667  1.00  0.00     0.032 C 
HETATM   20  C9  UNL     1      -1.676  10.541  14.331  1.00  0.00     0.032 C 
ENDBRANCH  16  18
ENDBRANCH   3  14
BRANCH   1  21
HETATM   21  C2  UNL     1      -4.165   3.480  15.005  1.00  0.00     0.223 C 
HETATM   22  N1  UNL     1      -5.296   2.882  15.635  1.00  0.00    -0.365 N 
HETATM   23  C1  UNL     1      -5.193   1.793  16.594  1.00  0.00     0.149 C 
ATOM     24  H1  UNL     1      -6.224   3.236  15.402  1.00  0.00     0.161 HD
HETATM   25  O1  UNL     1      -3.068   2.981  15.352  1.00  0.00    -0.273 OA
ENDBRANCH   1  21
BRANCH   9  26
HETATM   26  C13 UNL     1      -3.823   0.306  11.710  1.00  0.00     0.170 C 
HETATM   27  C14 UNL     1      -3.552  -1.104  11.288  1.00  0.00     0.036 C 
HETATM   28 CL1  UNL     1      -4.245   0.292  13.431  1.00  0.00    -0.115 Cl
ENDBRANCH   9  26
TORSDOF 4
ENDMDL
