MODEL 1
REMARK VINA RESULT: -6.516050536      0.000      0.000
REMARK  8 active torsions:
REMARK  status: ('A' for Active; 'I' for Inactive)
REMARK    1  A    between atoms: C3_4  and  N2_5 
REMARK    2  A    between atoms: C7_11  and  C8_12 
REMARK    3  A    between atoms: C8_12  and  N4_13 
REMARK    4  A    between atoms: N4_13  and  C9_15 
REMARK    5  A    between atoms: N5_17  and  C11_19 
REMARK    6  A    between atoms: C11_19  and  O1_20 
REMARK    7  A    between atoms: C11_19  and  C12_22 
REMARK    8  A    between atoms: C12_22  and  N6_23 
ROOT
HETATM    1  C1  UNL     1      -1.740   5.157   6.691  1.00  0.00     0.222 C 
HETATM    2  N1  UNL     1      -1.137   5.138   7.691  1.00  0.00    -0.453 NA
HETATM    3  C2  UNL     1      -0.424   5.100   8.921  1.00  0.00     0.283 A 
HETATM    4  C3  UNL     1       0.813   4.313   8.824  1.00  0.00     0.225 A 
HETATM    5  N3  UNL     1       0.712   3.318   9.634  1.00  0.00    -0.337 N 
ATOM      6  H3  UNL     1       1.432   2.608   9.769  1.00  0.00     0.167 HD
HETATM    7  C7  UNL     1      -0.526   3.337  10.313  1.00  0.00     0.050 A 
HETATM    8  C17 UNL     1      -1.235   4.379   9.920  1.00  0.00     0.079 A 
HETATM    9 CL1  UNL     1      -2.846   4.879  10.445  1.00  0.00    -0.083 Cl
ENDROOT
BRANCH   4  10
HETATM   10  N2  UNL     1       1.962   4.577   7.978  1.00  0.00    -0.034 N 
HETATM   11  C4  UNL     1       1.786   3.972   6.674  1.00  0.00     0.280 C 
HETATM   12  C5  UNL     1       2.133   5.990   7.801  1.00  0.00     0.280 C 
HETATM   13  C6  UNL     1       3.155   3.981   8.567  1.00  0.00     0.280 C 
ENDBRANCH   4  10
BRANCH   7  14
HETATM   14  C8  UNL     1      -1.022   2.325  11.317  1.00  0.00     0.179 C 
BRANCH  14  15
HETATM   15  N4  UNL     1      -1.621   1.259  10.576  1.00  0.00    -0.374 N 
ATOM     16  H4  UNL     1      -1.134   0.832   9.788  1.00  0.00     0.161 HD
BRANCH  15  17
HETATM   17  C9  UNL     1      -2.942   0.796  10.973  1.00  0.00     0.071 C 
HETATM   18  C10 UNL     1      -3.330  -0.562  10.522  1.00  0.00     0.088 C 
HETATM   19  N5  UNL     1      -3.600   1.608  11.646  1.00  0.00    -0.353 N 
ATOM     20  H5  UNL     1      -3.075   2.470  11.794  1.00  0.00     0.163 HD
BRANCH  19  21
HETATM   21  C11 UNL     1      -4.844   1.674  12.250  1.00  0.00     0.237 C 
BRANCH  21  22
HETATM   22  O1  UNL     1      -5.814   1.858  11.220  1.00  0.00    -0.375 OA
ATOM     23  H1  UNL     1      -6.241   2.693  11.373  1.00  0.00     0.212 HD
ENDBRANCH  21  22
BRANCH  21  24
HETATM   24  C12 UNL     1      -4.967   2.799  13.243  1.00  0.00     0.182 C 
BRANCH  24  25
HETATM   25  N6  UNL     1      -5.132   2.201  14.591  1.00  0.00    -0.347 N 
HETATM   26  C13 UNL     1      -4.542   1.087  15.022  1.00  0.00     0.109 A 
HETATM   27  C14 UNL     1      -4.929   0.858  16.335  1.00  0.00     0.108 A 
HETATM   28  N7  UNL     1      -5.759   1.855  16.677  1.00  0.00    -0.356 N 
HETATM   29  C15 UNL     1      -6.412   2.021  17.980  1.00  0.00     0.156 C 
HETATM   30  C16 UNL     1      -5.868   2.658  15.605  1.00  0.00     0.184 A 
ENDBRANCH  24  25
ENDBRANCH  21  24
ENDBRANCH  19  21
ENDBRANCH  15  17
ENDBRANCH  14  15
ENDBRANCH   7  14
TORSDOF 8
ENDMDL
MODEL 2
REMARK VINA RESULT: -6.463766198      0.766      1.141
REMARK  8 active torsions:
REMARK  status: ('A' for Active; 'I' for Inactive)
REMARK    1  A    between atoms: C3_4  and  N2_5 
REMARK    2  A    between atoms: C7_11  and  C8_12 
REMARK    3  A    between atoms: C8_12  and  N4_13 
REMARK    4  A    between atoms: N4_13  and  C9_15 
REMARK    5  A    between atoms: N5_17  and  C11_19 
REMARK    6  A    between atoms: C11_19  and  O1_20 
REMARK    7  A    between atoms: C11_19  and  C12_22 
REMARK    8  A    between atoms: C12_22  and  N6_23 
ROOT
HETATM    1  C1  UNL     1      -3.142   5.152   6.852  1.00  0.00     0.222 C 
HETATM    2  N1  UNL     1      -2.307   5.195   7.667  1.00  0.00    -0.453 NA
HETATM    3  C2  UNL     1      -1.306   5.231   8.676  1.00  0.00     0.283 A 
HETATM    4  C3  UNL     1      -0.079   4.532   8.270  1.00  0.00     0.225 A 
HETATM    5  N3  UNL     1       0.102   3.548   9.079  1.00  0.00    -0.337 N 
ATOM      6  H3  UNL     1       0.883   2.894   9.027  1.00  0.00     0.167 HD
HETATM    7  C7  UNL     1      -0.923   3.492  10.049  1.00  0.00     0.050 A 
HETATM    8  C17 UNL     1      -1.783   4.472   9.849  1.00  0.00     0.079 A 
HETATM    9 CL1  UNL     1      -3.242   4.865  10.763  1.00  0.00    -0.083 Cl
ENDROOT
BRANCH   4  10
HETATM   10  N2  UNL     1       0.798   4.862   7.160  1.00  0.00    -0.034 N 
HETATM   11  C4  UNL     1       2.167   4.509   7.469  1.00  0.00     0.280 C 
HETATM   12  C5  UNL     1       0.399   4.144   5.985  1.00  0.00     0.280 C 
HETATM   13  C6  UNL     1       0.771   6.300   6.923  1.00  0.00     0.280 C 
ENDBRANCH   4  10
BRANCH   7  14
HETATM   14  C8  UNL     1      -1.074   2.466  11.146  1.00  0.00     0.179 C 
BRANCH  14  15
HETATM   15  N4  UNL     1      -1.629   1.291  10.548  1.00  0.00    -0.374 N 
ATOM     16  H4  UNL     1      -1.151   0.820   9.781  1.00  0.00     0.161 HD
BRANCH  15  17
HETATM   17  C9  UNL     1      -2.893   0.785  11.061  1.00  0.00     0.071 C 
HETATM   18  C10 UNL     1      -3.161  -0.658  10.848  1.00  0.00     0.088 C 
HETATM   19  N5  UNL     1      -3.610   1.634  11.616  1.00  0.00    -0.353 N 
ATOM     20  H5  UNL     1      -3.164   2.552  11.605  1.00  0.00     0.163 HD
BRANCH  19  21
HETATM   21  C11 UNL     1      -4.842   1.687  12.245  1.00  0.00     0.237 C 
BRANCH  21  22
HETATM   22  O1  UNL     1      -5.831   1.898  11.238  1.00  0.00    -0.375 OA
ATOM     23  H1  UNL     1      -6.476   2.500  11.591  1.00  0.00     0.212 HD
ENDBRANCH  21  22
BRANCH  21  24
HETATM   24  C12 UNL     1      -4.944   2.787  13.267  1.00  0.00     0.182 C 
BRANCH  24  25
HETATM   25  N6  UNL     1      -5.101   2.157  14.602  1.00  0.00    -0.347 N 
HETATM   26  C13 UNL     1      -4.548   1.007  14.986  1.00  0.00     0.109 A 
HETATM   27  C14 UNL     1      -4.913   0.755  16.300  1.00  0.00     0.108 A 
HETATM   28  N7  UNL     1      -5.692   1.775  16.691  1.00  0.00    -0.356 N 
HETATM   29  C15 UNL     1      -6.307   1.928  18.015  1.00  0.00     0.156 C 
HETATM   30  C16 UNL     1      -5.793   2.613  15.647  1.00  0.00     0.184 A 
ENDBRANCH  24  25
ENDBRANCH  21  24
ENDBRANCH  19  21
ENDBRANCH  15  17
ENDBRANCH  14  15
ENDBRANCH   7  14
TORSDOF 8
ENDMDL
MODEL 3
REMARK VINA RESULT: -6.393985319      1.728      2.041
REMARK  8 active torsions:
REMARK  status: ('A' for Active; 'I' for Inactive)
REMARK    1  A    between atoms: C3_4  and  N2_5 
REMARK    2  A    between atoms: C7_11  and  C8_12 
REMARK    3  A    between atoms: C8_12  and  N4_13 
REMARK    4  A    between atoms: N4_13  and  C9_15 
REMARK    5  A    between atoms: N5_17  and  C11_19 
REMARK    6  A    between atoms: C11_19  and  O1_20 
REMARK    7  A    between atoms: C11_19  and  C12_22 
REMARK    8  A    between atoms: C12_22  and  N6_23 
ROOT
HETATM    1  C1  UNL     1      -1.250   7.490   8.968  1.00  0.00     0.222 C 
HETATM    2  N1  UNL     1      -1.093   6.702   9.816  1.00  0.00    -0.453 NA
HETATM    3  C2  UNL     1      -0.920   5.725  10.835  1.00  0.00     0.283 A 
HETATM    4  C3  UNL     1       0.470   5.255  10.925  1.00  0.00     0.225 A 
HETATM    5  N3  UNL     1       0.478   3.995  10.659  1.00  0.00    -0.337 N 
ATOM      6  H3  UNL     1       1.315   3.413  10.650  1.00  0.00     0.167 HD
HETATM    7  C7  UNL     1      -0.824   3.525  10.382  1.00  0.00     0.050 A 
HETATM    8  C17 UNL     1      -1.688   4.518  10.473  1.00  0.00     0.079 A 
HETATM    9 CL1  UNL     1      -3.437   4.487  10.228  1.00  0.00    -0.083 Cl
ENDROOT
BRANCH   4  10
HETATM   10  N2  UNL     1       1.647   6.039  11.250  1.00  0.00    -0.034 N 
HETATM   11  C4  UNL     1       2.647   5.215  11.895  1.00  0.00     0.280 C 
HETATM   12  C5  UNL     1       2.217   6.593  10.057  1.00  0.00     0.280 C 
HETATM   13  C6  UNL     1       1.291   7.093  12.191  1.00  0.00     0.280 C 
ENDBRANCH   4  10
BRANCH   7  14
HETATM   14  C8  UNL     1      -1.214   2.118  10.000  1.00  0.00     0.179 C 
BRANCH  14  15
HETATM   15  N4  UNL     1      -1.431   1.397  11.217  1.00  0.00    -0.374 N 
ATOM     16  H4  UNL     1      -0.670   1.250  11.879  1.00  0.00     0.161 HD
BRANCH  15  17
HETATM   17  C9  UNL     1      -2.764   0.880  11.487  1.00  0.00     0.071 C 
HETATM   18  C10 UNL     1      -3.026  -0.519  11.071  1.00  0.00     0.088 C 
HETATM   19  N5  UNL     1      -3.536   1.685  12.034  1.00  0.00    -0.353 N 
ATOM     20  H5  UNL     1      -3.077   2.582  12.192  1.00  0.00     0.163 HD
BRANCH  19  21
HETATM   21  C11 UNL     1      -4.843   1.709  12.488  1.00  0.00     0.237 C 
BRANCH  21  22
HETATM   22  O1  UNL     1      -5.692   1.868  11.352  1.00  0.00    -0.375 OA
ATOM     23  H1  UNL     1      -6.589   1.895  11.665  1.00  0.00     0.212 HD
ENDBRANCH  21  22
BRANCH  21  24
HETATM   24  C12 UNL     1      -5.118   2.824  13.462  1.00  0.00     0.182 C 
BRANCH  24  25
HETATM   25  N6  UNL     1      -5.265   2.225  14.812  1.00  0.00    -0.347 N 
HETATM   26  C13 UNL     1      -4.701   1.089  15.221  1.00  0.00     0.109 A 
HETATM   27  C14 UNL     1      -5.060   0.866  16.543  1.00  0.00     0.108 A 
HETATM   28  N7  UNL     1      -5.846   1.889  16.912  1.00  0.00    -0.356 N 
HETATM   29  C15 UNL     1      -6.458   2.069  18.233  1.00  0.00     0.156 C 
HETATM   30  C16 UNL     1      -5.957   2.701  15.848  1.00  0.00     0.184 A 
ENDBRANCH  24  25
ENDBRANCH  21  24
ENDBRANCH  19  21
ENDBRANCH  15  17
ENDBRANCH  14  15
ENDBRANCH   7  14
TORSDOF 8
ENDMDL
MODEL 4
REMARK VINA RESULT: -6.370430225      3.721      5.154
REMARK  8 active torsions:
REMARK  status: ('A' for Active; 'I' for Inactive)
REMARK    1  A    between atoms: C3_4  and  N2_5 
REMARK    2  A    between atoms: C7_11  and  C8_12 
REMARK    3  A    between atoms: C8_12  and  N4_13 
REMARK    4  A    between atoms: N4_13  and  C9_15 
REMARK    5  A    between atoms: N5_17  and  C11_19 
REMARK    6  A    between atoms: C11_19  and  O1_20 
REMARK    7  A    between atoms: C11_19  and  C12_22 
REMARK    8  A    between atoms: C12_22  and  N6_23 
ROOT
HETATM    1  C1  UNL     1       3.804   5.457  12.876  1.00  0.00     0.222 C 
HETATM    2  N1  UNL     1       2.885   5.859  12.278  1.00  0.00    -0.453 NA
HETATM    3  C2  UNL     1       1.751   6.324  11.556  1.00  0.00     0.283 A 
HETATM    4  C3  UNL     1       1.140   7.506  12.179  1.00  0.00     0.225 A 
HETATM    5  N3  UNL     1      -0.059   7.193  12.528  1.00  0.00    -0.337 N 
ATOM      6  H3  UNL     1      -0.712   7.830  12.985  1.00  0.00     0.167 HD
HETATM    7  C7  UNL     1      -0.353   5.853  12.194  1.00  0.00     0.050 A 
HETATM    8  C17 UNL     1       0.694   5.296  11.615  1.00  0.00     0.079 A 
HETATM    9 CL1  UNL     1       0.870   3.650  11.001  1.00  0.00    -0.083 Cl
ENDROOT
BRANCH   4  10
HETATM   10  N2  UNL     1       1.748   8.809  12.385  1.00  0.00    -0.034 N 
HETATM   11  C4  UNL     1       2.443   8.853  13.654  1.00  0.00     0.280 C 
HETATM   12  C5  UNL     1       2.692   9.084  11.341  1.00  0.00     0.280 C 
HETATM   13  C6  UNL     1       0.712   9.833  12.429  1.00  0.00     0.280 C 
ENDBRANCH   4  10
BRANCH   7  14
HETATM   14  C8  UNL     1      -1.641   5.116  12.468  1.00  0.00     0.179 C 
BRANCH  14  15
HETATM   15  N4  UNL     1      -1.556   4.603  13.801  1.00  0.00    -0.374 N 
ATOM     16  H4  UNL     1      -0.653   4.364  14.211  1.00  0.00     0.161 HD
BRANCH  15  17
HETATM   17  C9  UNL     1      -2.787   4.432  14.557  1.00  0.00     0.071 C 
HETATM   18  C10 UNL     1      -3.653   5.627  14.688  1.00  0.00     0.088 C 
HETATM   19  N5  UNL     1      -2.964   3.291  15.015  1.00  0.00    -0.353 N 
ATOM     20  H5  UNL     1      -2.190   2.674  14.768  1.00  0.00     0.163 HD
BRANCH  19  21
HETATM   21  C11 UNL     1      -3.914   2.620  15.765  1.00  0.00     0.237 C 
BRANCH  21  22
HETATM   22  O1  UNL     1      -3.330   1.395  16.206  1.00  0.00    -0.375 OA
ATOM     23  H1  UNL     1      -3.887   0.686  15.906  1.00  0.00     0.212 HD
ENDBRANCH  21  22
BRANCH  21  24
HETATM   24  C12 UNL     1      -5.173   2.311  14.999  1.00  0.00     0.182 C 
BRANCH  24  25
HETATM   25  N6  UNL     1      -4.780   1.704  13.702  1.00  0.00    -0.347 N 
HETATM   26  C13 UNL     1      -4.766   2.330  12.526  1.00  0.00     0.109 A 
HETATM   27  C14 UNL     1      -4.330   1.440  11.555  1.00  0.00     0.108 A 
HETATM   28  N7  UNL     1      -4.086   0.275  12.173  1.00  0.00    -0.356 N 
HETATM   29  C15 UNL     1      -3.604  -0.953  11.532  1.00  0.00     0.156 C 
HETATM   30  C16 UNL     1      -4.365   0.457  13.475  1.00  0.00     0.184 A 
ENDBRANCH  24  25
ENDBRANCH  21  24
ENDBRANCH  19  21
ENDBRANCH  15  17
ENDBRANCH  14  15
ENDBRANCH   7  14
TORSDOF 8
ENDMDL
MODEL 5
REMARK VINA RESULT: -6.348088385      2.478      3.844
REMARK  8 active torsions:
REMARK  status: ('A' for Active; 'I' for Inactive)
REMARK    1  A    between atoms: C3_4  and  N2_5 
REMARK    2  A    between atoms: C7_11  and  C8_12 
REMARK    3  A    between atoms: C8_12  and  N4_13 
REMARK    4  A    between atoms: N4_13  and  C9_15 
REMARK    5  A    between atoms: N5_17  and  C11_19 
REMARK    6  A    between atoms: C11_19  and  O1_20 
REMARK    7  A    between atoms: C11_19  and  C12_22 
REMARK    8  A    between atoms: C12_22  and  N6_23 
ROOT
HETATM    1  C1  UNL     1      -3.642   5.512   8.617  1.00  0.00     0.222 C 
HETATM    2  N1  UNL     1      -2.677   5.887   9.158  1.00  0.00    -0.453 NA
HETATM    3  C2  UNL     1      -1.518   6.347   9.841  1.00  0.00     0.283 A 
HETATM    4  C3  UNL     1      -0.489   5.305   9.957  1.00  0.00     0.225 A 
HETATM    5  N3  UNL     1      -0.303   5.070  11.209  1.00  0.00    -0.337 N 
ATOM      6  H3  UNL     1       0.360   4.388  11.576  1.00  0.00     0.167 HD
HETATM    7  C7  UNL     1      -1.138   5.882  12.008  1.00  0.00     0.050 A 
HETATM    8  C17 UNL     1      -1.879   6.657  11.238  1.00  0.00     0.079 A 
HETATM    9 CL1  UNL     1      -3.085   7.855  11.713  1.00  0.00    -0.083 Cl
ENDROOT
BRANCH   4  10
HETATM   10  N2  UNL     1       0.214   4.635   8.877  1.00  0.00    -0.034 N 
HETATM   11  C4  UNL     1      -0.600   3.577   8.318  1.00  0.00     0.280 C 
HETATM   12  C5  UNL     1       0.523   5.569   7.834  1.00  0.00     0.280 C 
HETATM   13  C6  UNL     1       1.428   4.013   9.391  1.00  0.00     0.280 C 
ENDBRANCH   4  10
BRANCH   7  14
HETATM   14  C8  UNL     1      -1.231   5.875  13.514  1.00  0.00     0.179 C 
BRANCH  14  15
HETATM   15  N4  UNL     1      -1.585   4.546  13.908  1.00  0.00    -0.374 N 
ATOM     16  H4  UNL     1      -0.971   3.759  13.697  1.00  0.00     0.161 HD
BRANCH  15  17
HETATM   17  C9  UNL     1      -2.839   4.344  14.615  1.00  0.00     0.071 C 
HETATM   18  C10 UNL     1      -3.751   5.510  14.689  1.00  0.00     0.088 C 
HETATM   19  N5  UNL     1      -2.996   3.205  15.087  1.00  0.00    -0.353 N 
ATOM     20  H5  UNL     1      -2.191   2.612  14.884  1.00  0.00     0.163 HD
BRANCH  19  21
HETATM   21  C11 UNL     1      -3.953   2.514  15.810  1.00  0.00     0.237 C 
BRANCH  21  22
HETATM   22  O1  UNL     1      -3.373   1.277  16.221  1.00  0.00    -0.375 OA
ATOM     23  H1  UNL     1      -3.559   0.635  15.545  1.00  0.00     0.212 HD
ENDBRANCH  21  22
BRANCH  21  24
HETATM   24  C12 UNL     1      -5.205   2.229  15.024  1.00  0.00     0.182 C 
BRANCH  24  25
HETATM   25  N6  UNL     1      -4.803   1.624  13.730  1.00  0.00    -0.347 N 
HETATM   26  C13 UNL     1      -4.795   2.248  12.553  1.00  0.00     0.109 A 
HETATM   27  C14 UNL     1      -4.348   1.361  11.583  1.00  0.00     0.108 A 
HETATM   28  N7  UNL     1      -4.090   0.201  12.204  1.00  0.00    -0.356 N 
HETATM   29  C15 UNL     1      -3.592  -1.023  11.566  1.00  0.00     0.156 C 
HETATM   30  C16 UNL     1      -4.373   0.382  13.505  1.00  0.00     0.184 A 
ENDBRANCH  24  25
ENDBRANCH  21  24
ENDBRANCH  19  21
ENDBRANCH  15  17
ENDBRANCH  14  15
ENDBRANCH   7  14
TORSDOF 8
ENDMDL
