MODEL 1
REMARK VINA RESULT: -7.329969648      0.000      0.000
REMARK  3 active torsions:
REMARK  status: ('A' for Active; 'I' for Inactive)
REMARK    1  A    between atoms: C1_2  and  C2_3 
REMARK       I    between atoms: C1_2  and  N2_15 
REMARK    2  A    between atoms: C2_3  and  N1_4 
REMARK    3  A    between atoms: N2_15  and  C11_17 
ROOT
HETATM    1  O1  UNL     1      20.388  23.700   4.954  1.00  0.00    -0.272 OA
HETATM    2  C1  UNL     1      19.631  24.460   4.335  1.00  0.00     0.238 C 
HETATM    3  N2  UNL     1      19.876  24.753   2.968  1.00  0.00    -0.350 N 
ATOM      4  H2  UNL     1      19.227  25.383   2.496  1.00  0.00     0.163 HD
ENDROOT
BRANCH   2   5
HETATM    5  C2  UNL     1      18.480  25.060   5.008  1.00  0.00     0.262 C 
BRANCH   5   6
HETATM    6  N1  UNL     1      17.370  24.120   5.216  1.00  0.00    -0.216 N 
HETATM    7  O2  UNL     1      16.937  23.645   6.397  1.00  0.00    -0.263 OA
HETATM    8  C3  UNL     1      16.159  22.560   6.121  1.00  0.00     0.097 C 
HETATM    9  C4  UNL     1      15.151  22.386   7.236  1.00  0.00     0.041 C 
HETATM   10  C8  UNL     1      17.008  21.323   6.111  1.00  0.00     0.041 C 
HETATM   11  C9  UNL     1      15.519  22.858   4.804  1.00  0.00     0.145 C 
HETATM   12  C5  UNL     1      14.187  21.268   6.967  1.00  0.00     0.003 C 
HETATM   13  C6  UNL     1      14.798  20.093   6.273  1.00  0.00     0.000 C 
HETATM   14  C7  UNL     1      16.286  20.051   6.298  1.00  0.00     0.003 C 
HETATM   15  C10 UNL     1      16.602  23.613   4.144  1.00  0.00     0.246 C 
HETATM   16  O3  UNL     1      16.808  23.776   2.939  1.00  0.00    -0.271 OA
ENDBRANCH   5   6
ENDBRANCH   2   5
BRANCH   3  17
HETATM   17  C11 UNL     1      20.971  24.227   2.201  1.00  0.00     0.034 C 
HETATM   18  C12 UNL     1      21.101  22.723   2.271  1.00  0.00     0.035 C 
HETATM   19  C13 UNL     1      22.308  22.304   1.484  1.00  0.00    -0.012 C 
HETATM   20  C14 UNL     1      23.579  22.951   1.928  1.00  0.00     0.009 C 
HETATM   21  C18 UNL     1      22.089  22.649   0.029  1.00  0.00     0.009 C 
HETATM   22  C15 UNL     1      23.411  24.455   1.773  1.00  0.00    -0.012 C 
HETATM   23  C16 UNL     1      23.167  24.825   0.349  1.00  0.00     0.009 C 
HETATM   24  C20 UNL     1      22.247  24.849   2.660  1.00  0.00     0.035 C 
HETATM   25  C17 UNL     1      21.898  24.139  -0.107  1.00  0.00    -0.012 C 
HETATM   26  C19 UNL     1      20.747  24.582   0.744  1.00  0.00     0.035 C 
ENDBRANCH   3  17
TORSDOF 3
ENDMDL
MODEL 2
REMARK VINA RESULT: -7.296491811      1.328      7.402
REMARK  3 active torsions:
REMARK  status: ('A' for Active; 'I' for Inactive)
REMARK    1  A    between atoms: C1_2  and  C2_3 
REMARK       I    between atoms: C1_2  and  N2_15 
REMARK    2  A    between atoms: C2_3  and  N1_4 
REMARK    3  A    between atoms: N2_15  and  C11_17 
ROOT
HETATM    1  O1  UNL     1      15.885  25.102   4.909  1.00  0.00    -0.272 OA
HETATM    2  C1  UNL     1      17.050  24.750   5.140  1.00  0.00     0.238 C 
HETATM    3  N2  UNL     1      17.313  23.461   5.674  1.00  0.00    -0.350 N 
ATOM      4  H2  UNL     1      18.286  23.211   5.848  1.00  0.00     0.163 HD
ENDROOT
BRANCH   2   5
HETATM    5  C2  UNL     1      18.161  25.659   4.865  1.00  0.00     0.262 C 
BRANCH   5   6
HETATM    6  N1  UNL     1      19.184  25.081   3.983  1.00  0.00    -0.216 N 
HETATM    7  O2  UNL     1      19.271  25.236   2.651  1.00  0.00    -0.263 OA
HETATM    8  C3  UNL     1      20.117  24.268   2.198  1.00  0.00     0.097 C 
HETATM    9  C4  UNL     1      20.768  24.749   0.918  1.00  0.00     0.041 C 
HETATM   10  C8  UNL     1      19.333  23.039   1.847  1.00  0.00     0.041 C 
HETATM   11  C9  UNL     1      21.102  24.057   3.302  1.00  0.00     0.145 C 
HETATM   12  C5  UNL     1      21.791  23.784   0.398  1.00  0.00     0.003 C 
HETATM   13  C6  UNL     1      21.430  22.347   0.601  1.00  0.00     0.000 C 
HETATM   14  C7  UNL     1      19.998  22.098   0.925  1.00  0.00     0.003 C 
HETATM   15  C10 UNL     1      20.237  24.279   4.478  1.00  0.00     0.246 C 
HETATM   16  O3  UNL     1      20.382  23.869   5.632  1.00  0.00    -0.271 OA
ENDBRANCH   5   6
ENDBRANCH   2   5
BRANCH   3  17
HETATM   17  C11 UNL     1      16.308  22.484   5.986  1.00  0.00     0.034 C 
HETATM   18  C12 UNL     1      15.465  22.072   4.801  1.00  0.00     0.035 C 
HETATM   19  C13 UNL     1      14.421  21.099   5.264  1.00  0.00    -0.012 C 
HETATM   20  C14 UNL     1      13.548  21.618   6.360  1.00  0.00     0.009 C 
HETATM   21  C18 UNL     1      15.103  19.846   5.761  1.00  0.00     0.009 C 
HETATM   22  C15 UNL     1      14.443  21.952   7.544  1.00  0.00    -0.012 C 
HETATM   23  C16 UNL     1      15.152  20.738   8.042  1.00  0.00     0.009 C 
HETATM   24  C20 UNL     1      15.416  23.009   7.060  1.00  0.00     0.035 C 
HETATM   25  C17 UNL     1      16.005  20.195   6.918  1.00  0.00    -0.012 C 
HETATM   26  C19 UNL     1      17.000  21.232   6.489  1.00  0.00     0.035 C 
ENDBRANCH   3  17
TORSDOF 3
ENDMDL
MODEL 3
REMARK VINA RESULT: -7.244309890      0.154      1.460
REMARK  3 active torsions:
REMARK  status: ('A' for Active; 'I' for Inactive)
REMARK    1  A    between atoms: C1_2  and  C2_3 
REMARK       I    between atoms: C1_2  and  N2_15 
REMARK    2  A    between atoms: C2_3  and  N1_4 
REMARK    3  A    between atoms: N2_15  and  C11_17 
ROOT
HETATM    1  O1  UNL     1      20.387  23.797   4.987  1.00  0.00    -0.272 OA
HETATM    2  C1  UNL     1      19.587  24.500   4.356  1.00  0.00     0.238 C 
HETATM    3  N2  UNL     1      19.814  24.781   2.983  1.00  0.00    -0.350 N 
ATOM      4  H2  UNL     1      19.130  25.364   2.500  1.00  0.00     0.163 HD
ENDROOT
BRANCH   2   5
HETATM    5  C2  UNL     1      18.405  25.046   5.020  1.00  0.00     0.262 C 
BRANCH   5   6
HETATM    6  N1  UNL     1      17.332  24.060   5.206  1.00  0.00    -0.216 N 
HETATM    7  O2  UNL     1      16.920  23.540   6.376  1.00  0.00    -0.263 OA
HETATM    8  C3  UNL     1      16.184  22.433   6.074  1.00  0.00     0.097 C 
HETATM    9  C4  UNL     1      15.185  22.194   7.186  1.00  0.00     0.041 C 
HETATM   10  C8  UNL     1      17.080  21.231   6.034  1.00  0.00     0.041 C 
HETATM   11  C9  UNL     1      15.530  22.738   4.765  1.00  0.00     0.145 C 
HETATM   12  C5  UNL     1      14.264  21.047   6.891  1.00  0.00     0.003 C 
HETATM   13  C6  UNL     1      14.918  19.913   6.169  1.00  0.00     0.000 C 
HETATM   14  C7  UNL     1      16.406  19.927   6.191  1.00  0.00     0.003 C 
HETATM   15  C10 UNL     1      16.583  23.549   4.123  1.00  0.00     0.246 C 
HETATM   16  O3  UNL     1      16.779  23.749   2.922  1.00  0.00    -0.271 OA
ENDBRANCH   5   6
ENDBRANCH   2   5
BRANCH   3  17
HETATM   17  C11 UNL     1      20.937  24.304   2.224  1.00  0.00     0.034 C 
HETATM   18  C12 UNL     1      22.270  24.825   2.708  1.00  0.00     0.035 C 
HETATM   19  C13 UNL     1      23.350  24.307   1.804  1.00  0.00    -0.012 C 
HETATM   20  C14 UNL     1      23.155  24.651   0.363  1.00  0.00     0.009 C 
HETATM   21  C18 UNL     1      23.409  22.801   1.924  1.00  0.00     0.009 C 
HETATM   22  C15 UNL     1      21.833  24.044  -0.082  1.00  0.00    -0.012 C 
HETATM   23  C16 UNL     1      21.851  22.559   0.049  1.00  0.00     0.009 C 
HETATM   24  C20 UNL     1      20.761  24.669   0.789  1.00  0.00     0.035 C 
HETATM   25  C17 UNL     1      22.085  22.215   1.504  1.00  0.00    -0.012 C 
HETATM   26  C19 UNL     1      20.986  22.793   2.344  1.00  0.00     0.035 C 
ENDBRANCH   3  17
TORSDOF 3
ENDMDL
MODEL 4
REMARK VINA RESULT: -7.138567837      1.411      7.229
REMARK  3 active torsions:
REMARK  status: ('A' for Active; 'I' for Inactive)
REMARK    1  A    between atoms: C1_2  and  C2_3 
REMARK       I    between atoms: C1_2  and  N2_15 
REMARK    2  A    between atoms: C2_3  and  N1_4 
REMARK    3  A    between atoms: N2_15  and  C11_17 
ROOT
HETATM    1  O1  UNL     1      15.804  25.195   5.189  1.00  0.00    -0.272 OA
HETATM    2  C1  UNL     1      16.959  24.767   5.064  1.00  0.00     0.238 C 
HETATM    3  N2  UNL     1      17.262  23.423   5.404  1.00  0.00    -0.350 N 
ATOM      4  H2  UNL     1      18.226  23.111   5.285  1.00  0.00     0.163 HD
ENDROOT
BRANCH   2   5
HETATM    5  C2  UNL     1      18.019  25.643   4.565  1.00  0.00     0.262 C 
BRANCH   5   6
HETATM    6  N1  UNL     1      19.052  24.933   3.800  1.00  0.00    -0.216 N 
HETATM    7  O2  UNL     1      19.103  24.795   2.464  1.00  0.00    -0.263 OA
HETATM    8  C3  UNL     1      19.990  23.791   2.208  1.00  0.00     0.097 C 
HETATM    9  C4  UNL     1      20.588  24.008   0.834  1.00  0.00     0.041 C 
HETATM   10  C8  UNL     1      19.263  22.480   2.159  1.00  0.00     0.041 C 
HETATM   11  C9  UNL     1      21.006  23.873   3.300  1.00  0.00     0.145 C 
HETATM   12  C5  UNL     1      21.650  23.000   0.507  1.00  0.00     0.003 C 
HETATM   13  C6  UNL     1      21.367  21.628   1.030  1.00  0.00     0.000 C 
HETATM   14  C7  UNL     1      19.957  21.391   1.446  1.00  0.00     0.003 C 
HETATM   15  C10 UNL     1      20.155  24.309   4.425  1.00  0.00     0.246 C 
HETATM   16  O3  UNL     1      20.344  24.171   5.636  1.00  0.00    -0.271 OA
ENDBRANCH   5   6
ENDBRANCH   2   5
BRANCH   3  17
HETATM   17  C11 UNL     1      16.311  22.470   5.903  1.00  0.00     0.034 C 
HETATM   18  C12 UNL     1      15.381  23.026   6.957  1.00  0.00     0.035 C 
HETATM   19  C13 UNL     1      14.481  21.927   7.439  1.00  0.00    -0.012 C 
HETATM   20  C14 UNL     1      15.207  20.735   7.971  1.00  0.00     0.009 C 
HETATM   21  C18 UNL     1      13.607  21.471   6.293  1.00  0.00     0.009 C 
HETATM   22  C15 UNL     1      16.073  20.181   6.849  1.00  0.00    -0.012 C 
HETATM   23  C16 UNL     1      15.238  19.747   5.691  1.00  0.00     0.009 C 
HETATM   24  C20 UNL     1      17.031  21.290   6.462  1.00  0.00     0.035 C 
HETATM   25  C17 UNL     1      14.477  20.949   5.179  1.00  0.00    -0.012 C 
HETATM   26  C19 UNL     1      15.441  22.014   4.748  1.00  0.00     0.035 C 
ENDBRANCH   3  17
TORSDOF 3
ENDMDL
MODEL 5
REMARK VINA RESULT: -7.087146334      0.162      1.526
REMARK  3 active torsions:
REMARK  status: ('A' for Active; 'I' for Inactive)
REMARK    1  A    between atoms: C1_2  and  C2_3 
REMARK       I    between atoms: C1_2  and  N2_15 
REMARK    2  A    between atoms: C2_3  and  N1_4 
REMARK    3  A    between atoms: N2_15  and  C11_17 
ROOT
HETATM    1  O1  UNL     1      20.376  23.638   4.810  1.00  0.00    -0.272 OA
HETATM    2  C1  UNL     1      19.614  24.449   4.267  1.00  0.00     0.238 C 
HETATM    3  N2  UNL     1      19.819  24.824   2.913  1.00  0.00    -0.350 N 
ATOM      4  H2  UNL     1      19.167  25.493   2.504  1.00  0.00     0.163 HD
ENDROOT
BRANCH   2   5
HETATM    5  C2  UNL     1      18.498  25.025   5.016  1.00  0.00     0.262 C 
BRANCH   5   6
HETATM    6  N1  UNL     1      17.384  24.088   5.217  1.00  0.00    -0.216 N 
HETATM    7  O2  UNL     1      16.947  23.609   6.395  1.00  0.00    -0.263 OA
HETATM    8  C3  UNL     1      16.166  22.528   6.111  1.00  0.00     0.097 C 
HETATM    9  C4  UNL     1      15.155  22.352   7.224  1.00  0.00     0.041 C 
HETATM   10  C8  UNL     1      17.011  21.288   6.097  1.00  0.00     0.041 C 
HETATM   11  C9  UNL     1      15.529  22.834   4.795  1.00  0.00     0.145 C 
HETATM   12  C5  UNL     1      14.188  21.240   6.948  1.00  0.00     0.003 C 
HETATM   13  C6  UNL     1      14.795  20.065   6.250  1.00  0.00     0.000 C 
HETATM   14  C7  UNL     1      16.283  20.017   6.277  1.00  0.00     0.003 C 
HETATM   15  C10 UNL     1      16.617  23.589   4.141  1.00  0.00     0.246 C 
HETATM   16  O3  UNL     1      16.825  23.757   2.937  1.00  0.00    -0.271 OA
ENDBRANCH   5   6
ENDBRANCH   2   5
BRANCH   3  17
HETATM   17  C11 UNL     1      20.877  24.328   2.077  1.00  0.00     0.034 C 
HETATM   18  C12 UNL     1      20.821  24.833   0.654  1.00  0.00     0.035 C 
HETATM   19  C13 UNL     1      21.935  24.202  -0.128  1.00  0.00    -0.012 C 
HETATM   20  C14 UNL     1      21.920  22.708  -0.112  1.00  0.00     0.009 C 
HETATM   21  C18 UNL     1      23.257  24.665   0.440  1.00  0.00     0.009 C 
HETATM   22  C15 UNL     1      22.045  22.261   1.337  1.00  0.00    -0.012 C 
HETATM   23  C16 UNL     1      23.331  22.725   1.934  1.00  0.00     0.009 C 
HETATM   24  C20 UNL     1      20.849  22.837   2.067  1.00  0.00     0.035 C 
HETATM   25  C17 UNL     1      23.357  24.237   1.882  1.00  0.00    -0.012 C 
HETATM   26  C19 UNL     1      22.199  24.791   2.656  1.00  0.00     0.035 C 
ENDBRANCH   3  17
TORSDOF 3
ENDMDL
