MODEL 1
REMARK VINA RESULT: -8.459697597      0.000      0.000
REMARK  3 active torsions:
REMARK  status: ('A' for Active; 'I' for Inactive)
REMARK    1  A    between atoms: C2_3  and  N2_4 
REMARK       I    between atoms: N2_4  and  C3_6 
REMARK    2  A    between atoms: C3_6  and  C4_8 
REMARK       I    between atoms: N3_12  and  C8_13 
REMARK    3  A    between atoms: C8_13  and  C9_15 
ROOT
HETATM    1  N1  UNL     1      15.816  25.334   9.356  1.00  0.00    -0.195 NA
HETATM    2  C1  UNL     1      15.952  26.121   8.521  1.00  0.00     0.091 C 
HETATM    3  C2  UNL     1      16.150  27.140   7.455  1.00  0.00     0.122 A 
HETATM    4  C19 UNL     1      17.133  28.223   7.881  1.00  0.00     0.050 A 
HETATM    5  C20 UNL     1      15.630  28.475   7.759  1.00  0.00     0.050 A 
ENDROOT
BRANCH   3   6
HETATM    6  N2  UNL     1      16.342  26.613   6.142  1.00  0.00    -0.337 N 
HETATM    7  C3  UNL     1      17.242  25.589   5.769  1.00  0.00     0.242 C 
HETATM    8  O1  UNL     1      17.956  25.074   6.654  1.00  0.00    -0.271 OA
ATOM      9  H2  UNL     1      15.772  27.015   5.399  1.00  0.00     0.164 HD
BRANCH   7  10
HETATM   10  C4  UNL     1      17.339  25.144   4.382  1.00  0.00     0.179 C 
HETATM   11  C5  UNL     1      18.337  25.900   3.543  1.00  0.00     0.037 C 
HETATM   12  C6  UNL     1      19.603  25.117   3.771  1.00  0.00     0.022 C 
HETATM   13  C7  UNL     1      19.168  23.848   4.481  1.00  0.00     0.127 C 
HETATM   14  N3  UNL     1      17.782  23.767   4.211  1.00  0.00    -0.338 N 
HETATM   15  C8  UNL     1      16.902  22.710   3.865  1.00  0.00     0.229 C 
HETATM   16  O2  UNL     1      15.665  23.032   3.711  1.00  0.00    -0.272 OA
BRANCH  15  17
HETATM   17  C9  UNL     1      17.156  21.311   3.649  1.00  0.00     0.042 C 
HETATM   18  C10 UNL     1      18.293  20.945   2.760  1.00  0.00     0.024 C 
HETATM   19  C11 UNL     1      18.466  19.442   2.751  1.00  0.00    -0.013 C 
HETATM   20  C12 UNL     1      17.233  18.827   2.119  1.00  0.00     0.009 C 
HETATM   21  C16 UNL     1      18.738  18.867   4.099  1.00  0.00     0.009 C 
HETATM   22  C13 UNL     1      16.042  19.140   3.011  1.00  0.00    -0.013 C 
HETATM   23  C14 UNL     1      16.280  18.505   4.348  1.00  0.00     0.009 C 
HETATM   24  C18 UNL     1      15.910  20.651   3.096  1.00  0.00     0.024 C 
HETATM   25  C15 UNL     1      17.500  19.165   4.945  1.00  0.00    -0.013 C 
HETATM   26  C17 UNL     1      17.372  20.643   5.018  1.00  0.00     0.024 C 
ENDBRANCH  15  17
ENDBRANCH   7  10
ENDBRANCH   3   6
TORSDOF 3
ENDMDL
MODEL 2
REMARK VINA RESULT: -8.323076196      0.235      1.419
REMARK  3 active torsions:
REMARK  status: ('A' for Active; 'I' for Inactive)
REMARK    1  A    between atoms: C2_3  and  N2_4 
REMARK       I    between atoms: N2_4  and  C3_6 
REMARK    2  A    between atoms: C3_6  and  C4_8 
REMARK       I    between atoms: N3_12  and  C8_13 
REMARK    3  A    between atoms: C8_13  and  C9_15 
ROOT
HETATM    1  N1  UNL     1      15.819  25.360   9.339  1.00  0.00    -0.195 NA
HETATM    2  C1  UNL     1      15.956  26.121   8.480  1.00  0.00     0.091 C 
HETATM    3  C2  UNL     1      16.157  27.108   7.385  1.00  0.00     0.122 A 
HETATM    4  C19 UNL     1      17.141  28.202   7.780  1.00  0.00     0.050 A 
HETATM    5  C20 UNL     1      15.639  28.452   7.649  1.00  0.00     0.050 A 
ENDROOT
BRANCH   3   6
HETATM    6  N2  UNL     1      16.350  26.541   6.089  1.00  0.00    -0.337 N 
HETATM    7  C3  UNL     1      17.284  25.540   5.737  1.00  0.00     0.242 C 
HETATM    8  O1  UNL     1      18.030  25.085   6.629  1.00  0.00    -0.271 OA
ATOM      9  H2  UNL     1      15.754  26.895   5.341  1.00  0.00     0.164 HD
BRANCH   7  10
HETATM   10  C4  UNL     1      17.377  25.049   4.366  1.00  0.00     0.179 C 
HETATM   11  C5  UNL     1      18.388  25.764   3.506  1.00  0.00     0.037 C 
HETATM   12  C6  UNL     1      19.642  24.971   3.763  1.00  0.00     0.022 C 
HETATM   13  C7  UNL     1      19.188  23.732   4.511  1.00  0.00     0.127 C 
HETATM   14  N3  UNL     1      17.801  23.661   4.241  1.00  0.00    -0.338 N 
HETATM   15  C8  UNL     1      16.907  22.606   3.926  1.00  0.00     0.229 C 
HETATM   16  O2  UNL     1      15.675  22.940   3.759  1.00  0.00    -0.272 OA
BRANCH  15  17
HETATM   17  C9  UNL     1      17.142  21.197   3.756  1.00  0.00     0.042 C 
HETATM   18  C10 UNL     1      17.612  20.428   4.940  1.00  0.00     0.024 C 
HETATM   19  C11 UNL     1      17.692  18.958   4.591  1.00  0.00    -0.013 C 
HETATM   20  C12 UNL     1      18.761  18.780   3.531  1.00  0.00     0.009 C 
HETATM   21  C16 UNL     1      16.387  18.379   4.160  1.00  0.00     0.009 C 
HETATM   22  C13 UNL     1      18.311  19.518   2.281  1.00  0.00    -0.013 C 
HETATM   23  C14 UNL     1      17.034  18.894   1.804  1.00  0.00     0.009 C 
HETATM   24  C18 UNL     1      18.146  20.985   2.642  1.00  0.00     0.024 C 
HETATM   25  C15 UNL     1      15.998  19.117   2.880  1.00  0.00    -0.013 C 
HETATM   26  C17 UNL     1      15.846  20.551   3.237  1.00  0.00     0.024 C 
ENDBRANCH  15  17
ENDBRANCH   7  10
ENDBRANCH   3   6
TORSDOF 3
ENDMDL
MODEL 3
REMARK VINA RESULT: -8.255924310      2.591      5.128
REMARK  3 active torsions:
REMARK  status: ('A' for Active; 'I' for Inactive)
REMARK    1  A    between atoms: C2_3  and  N2_4 
REMARK       I    between atoms: N2_4  and  C3_6 
REMARK    2  A    between atoms: C3_6  and  C4_8 
REMARK       I    between atoms: N3_12  and  C8_13 
REMARK    3  A    between atoms: C8_13  and  C9_15 
ROOT
HETATM    1  N1  UNL     1      12.645  20.832   6.056  1.00  0.00    -0.195 NA
HETATM    2  C1  UNL     1      13.777  21.024   6.187  1.00  0.00     0.091 C 
HETATM    3  C2  UNL     1      15.240  21.254   6.339  1.00  0.00     0.122 A 
HETATM    4  C19 UNL     1      16.049  20.018   5.965  1.00  0.00     0.050 A 
HETATM    5  C20 UNL     1      15.886  20.492   7.410  1.00  0.00     0.050 A 
ENDROOT
BRANCH   3   6
HETATM    6  N2  UNL     1      15.717  22.489   5.805  1.00  0.00    -0.337 N 
HETATM    7  C3  UNL     1      15.657  23.755   6.430  1.00  0.00     0.242 C 
HETATM    8  O1  UNL     1      15.140  23.835   7.564  1.00  0.00    -0.271 OA
ATOM      9  H2  UNL     1      16.144  22.454   4.880  1.00  0.00     0.164 HD
BRANCH   7  10
HETATM   10  C4  UNL     1      16.184  24.944   5.768  1.00  0.00     0.179 C 
HETATM   11  C5  UNL     1      16.339  26.149   6.661  1.00  0.00     0.037 C 
HETATM   12  C6  UNL     1      17.731  25.965   7.206  1.00  0.00     0.022 C 
HETATM   13  C7  UNL     1      18.341  24.848   6.380  1.00  0.00     0.127 C 
HETATM   14  N3  UNL     1      17.528  24.797   5.223  1.00  0.00    -0.338 N 
HETATM   15  C8  UNL     1      17.786  24.640   3.838  1.00  0.00     0.229 C 
HETATM   16  O2  UNL     1      16.754  24.627   3.068  1.00  0.00    -0.272 OA
BRANCH  15  17
HETATM   17  C9  UNL     1      19.028  24.490   3.127  1.00  0.00     0.042 C 
HETATM   18  C10 UNL     1      19.864  25.706   2.935  1.00  0.00     0.024 C 
HETATM   19  C11 UNL     1      21.169  25.325   2.271  1.00  0.00    -0.013 C 
HETATM   20  C12 UNL     1      20.860  24.811   0.879  1.00  0.00     0.009 C 
HETATM   21  C16 UNL     1      21.969  24.341   3.056  1.00  0.00     0.009 C 
HETATM   22  C13 UNL     1      20.035  23.541   1.019  1.00  0.00    -0.013 C 
HETATM   23  C14 UNL     1      20.862  22.524   1.748  1.00  0.00     0.009 C 
HETATM   24  C18 UNL     1      18.758  23.896   1.761  1.00  0.00     0.024 C 
HETATM   25  C15 UNL     1      21.123  23.070   3.132  1.00  0.00    -0.013 C 
HETATM   26  C17 UNL     1      19.872  23.426   3.850  1.00  0.00     0.024 C 
ENDBRANCH  15  17
ENDBRANCH   7  10
ENDBRANCH   3   6
TORSDOF 3
ENDMDL
MODEL 4
REMARK VINA RESULT: -8.184672948      0.154      1.466
REMARK  3 active torsions:
REMARK  status: ('A' for Active; 'I' for Inactive)
REMARK    1  A    between atoms: C2_3  and  N2_4 
REMARK       I    between atoms: N2_4  and  C3_6 
REMARK    2  A    between atoms: C3_6  and  C4_8 
REMARK       I    between atoms: N3_12  and  C8_13 
REMARK    3  A    between atoms: C8_13  and  C9_15 
ROOT
HETATM    1  N1  UNL     1      15.854  25.335   9.346  1.00  0.00    -0.195 NA
HETATM    2  C1  UNL     1      15.995  26.105   8.496  1.00  0.00     0.091 C 
HETATM    3  C2  UNL     1      16.199  27.103   7.411  1.00  0.00     0.122 A 
HETATM    4  C19 UNL     1      17.185  28.191   7.820  1.00  0.00     0.050 A 
HETATM    5  C20 UNL     1      15.683  28.445   7.689  1.00  0.00     0.050 A 
ENDROOT
BRANCH   3   6
HETATM    6  N2  UNL     1      16.394  26.550   6.110  1.00  0.00    -0.337 N 
HETATM    7  C3  UNL     1      17.319  25.544   5.751  1.00  0.00     0.242 C 
HETATM    8  O1  UNL     1      18.056  25.069   6.641  1.00  0.00    -0.271 OA
ATOM      9  H2  UNL     1      15.805  26.919   5.363  1.00  0.00     0.164 HD
BRANCH   7  10
HETATM   10  C4  UNL     1      17.415  25.068   4.375  1.00  0.00     0.179 C 
HETATM   11  C5  UNL     1      18.496  25.723   3.553  1.00  0.00     0.037 C 
HETATM   12  C6  UNL     1      19.684  24.839   3.829  1.00  0.00     0.022 C 
HETATM   13  C7  UNL     1      19.124  23.624   4.544  1.00  0.00     0.127 C 
HETATM   14  N3  UNL     1      17.743  23.655   4.237  1.00  0.00    -0.338 N 
HETATM   15  C8  UNL     1      16.786  22.672   3.881  1.00  0.00     0.229 C 
HETATM   16  O2  UNL     1      15.586  23.094   3.687  1.00  0.00    -0.272 OA
BRANCH  15  17
HETATM   17  C9  UNL     1      16.927  21.252   3.693  1.00  0.00     0.042 C 
HETATM   18  C10 UNL     1      15.784  20.521   3.081  1.00  0.00     0.024 C 
HETATM   19  C11 UNL     1      16.166  19.073   2.865  1.00  0.00    -0.013 C 
HETATM   20  C12 UNL     1      16.386  18.434   4.221  1.00  0.00     0.009 C 
HETATM   21  C16 UNL     1      17.349  18.897   1.974  1.00  0.00     0.009 C 
HETATM   22  C13 UNL     1      17.573  19.122   4.878  1.00  0.00    -0.013 C 
HETATM   23  C14 UNL     1      18.781  18.889   4.020  1.00  0.00     0.009 C 
HETATM   24  C18 UNL     1      17.234  20.595   5.022  1.00  0.00     0.024 C 
HETATM   25  C15 UNL     1      18.523  19.562   2.693  1.00  0.00    -0.013 C 
HETATM   26  C17 UNL     1      18.181  21.001   2.839  1.00  0.00     0.024 C 
ENDBRANCH  15  17
ENDBRANCH   7  10
ENDBRANCH   3   6
TORSDOF 3
ENDMDL
MODEL 5
REMARK VINA RESULT: -8.157991228      2.682      5.248
REMARK  3 active torsions:
REMARK  status: ('A' for Active; 'I' for Inactive)
REMARK    1  A    between atoms: C2_3  and  N2_4 
REMARK       I    between atoms: N2_4  and  C3_6 
REMARK    2  A    between atoms: C3_6  and  C4_8 
REMARK       I    between atoms: N3_12  and  C8_13 
REMARK    3  A    between atoms: C8_13  and  C9_15 
ROOT
HETATM    1  N1  UNL     1      12.531  20.871   6.046  1.00  0.00    -0.195 NA
HETATM    2  C1  UNL     1      13.654  21.068   6.237  1.00  0.00     0.091 C 
HETATM    3  C2  UNL     1      15.106  21.301   6.467  1.00  0.00     0.122 A 
HETATM    4  C19 UNL     1      15.923  20.031   6.264  1.00  0.00     0.050 A 
HETATM    5  C20 UNL     1      15.669  20.636   7.644  1.00  0.00     0.050 A 
ENDROOT
BRANCH   3   6
HETATM    6  N2  UNL     1      15.633  22.479   5.857  1.00  0.00    -0.337 N 
HETATM    7  C3  UNL     1      15.680  23.773   6.425  1.00  0.00     0.242 C 
HETATM    8  O1  UNL     1      15.221  23.934   7.576  1.00  0.00    -0.271 OA
ATOM      9  H2  UNL     1      16.014  22.377   4.917  1.00  0.00     0.164 HD
BRANCH   7  10
HETATM   10  C4  UNL     1      16.249  24.896   5.687  1.00  0.00     0.179 C 
HETATM   11  C5  UNL     1      16.405  26.164   6.488  1.00  0.00     0.037 C 
HETATM   12  C6  UNL     1      17.778  25.998   7.084  1.00  0.00     0.022 C 
HETATM   13  C7  UNL     1      18.386  24.809   6.365  1.00  0.00     0.127 C 
HETATM   14  N3  UNL     1      17.603  24.682   5.194  1.00  0.00    -0.338 N 
HETATM   15  C8  UNL     1      17.894  24.412   3.833  1.00  0.00     0.229 C 
HETATM   16  O2  UNL     1      16.883  24.357   3.038  1.00  0.00    -0.272 OA
BRANCH  15  17
HETATM   17  C9  UNL     1      19.151  24.184   3.171  1.00  0.00     0.042 C 
HETATM   18  C10 UNL     1      20.134  23.292   3.844  1.00  0.00     0.024 C 
HETATM   19  C11 UNL     1      21.334  23.090   2.945  1.00  0.00    -0.013 C 
HETATM   20  C12 UNL     1      22.033  24.425   2.779  1.00  0.00     0.009 C 
HETATM   21  C16 UNL     1      20.993  22.480   1.627  1.00  0.00     0.009 C 
HETATM   22  C13 UNL     1      21.081  25.367   2.059  1.00  0.00    -0.013 C 
HETATM   23  C14 UNL     1      20.789  24.792   0.705  1.00  0.00     0.009 C 
HETATM   24  C18 UNL     1      19.833  25.511   2.915  1.00  0.00     0.024 C 
HETATM   25  C15 UNL     1      20.075  23.479   0.923  1.00  0.00    -0.013 C 
HETATM   26  C17 UNL     1      18.862  23.621   1.768  1.00  0.00     0.024 C 
ENDBRANCH  15  17
ENDBRANCH   7  10
ENDBRANCH   3   6
TORSDOF 3
ENDMDL
