MODEL 1
REMARK VINA RESULT: -8.133863782      0.000      0.000
REMARK  3 active torsions:
REMARK  status: ('A' for Active; 'I' for Inactive)
REMARK       I    between atoms: C1_2  and  N1_3 
REMARK       I    between atoms: C1_2  and  N3_20 
REMARK    1  A    between atoms: N1_3  and  C2_5 
REMARK    2  A    between atoms: N2_15  and  C11_16 
REMARK    3  A    between atoms: C11_16  and  C12_17 
ROOT
HETATM    1  C2  UNL     1      16.893  22.709   4.158  1.00  0.00     0.190 C 
HETATM    2  C3  UNL     1      16.832  23.140   2.715  1.00  0.00     0.056 C 
HETATM    3  C4  UNL     1      17.394  24.548   2.516  1.00  0.00     0.176 C 
HETATM    4  O2  UNL     1      18.725  24.643   2.765  1.00  0.00    -0.390 OA
HETATM    5  C5  UNL     1      19.576  24.165   1.829  1.00  0.00     0.172 C 
HETATM    6  C6  UNL     1      19.317  22.837   1.269  1.00  0.00     0.016 C 
HETATM    7  C7  UNL     1      18.007  22.708   0.529  1.00  0.00     0.012 C 
HETATM    8  C8  UNL     1      17.420  22.135   1.794  1.00  0.00     0.002 C 
HETATM    9  C9  UNL     1      18.849  21.776   2.190  1.00  0.00     0.014 C 
HETATM   10  C10 UNL     1      19.119  21.895   3.640  1.00  0.00     0.124 C 
HETATM   11  N2  UNL     1      17.986  21.880   4.500  1.00  0.00    -0.391 N 
ENDROOT
BRANCH   1  12
HETATM   12  N1  UNL     1      16.823  23.842   5.062  1.00  0.00    -0.320 N 
HETATM   13  C1  UNL     1      16.021  23.833   6.236  1.00  0.00     0.336 C 
HETATM   14  O1  UNL     1      15.356  22.795   6.480  1.00  0.00    -0.246 OA
HETATM   15  N3  UNL     1      15.958  24.928   7.102  1.00  0.00    -0.240 N 
HETATM   16  N4  UNL     1      15.289  25.218   8.294  1.00  0.00    -0.127 NA
HETATM   17  C20 UNL     1      16.565  26.229   7.131  1.00  0.00     0.130 C 
HETATM   18  C15 UNL     1      16.302  26.200   8.617  1.00  0.00     0.124 C 
HETATM   19  C16 UNL     1      15.780  27.555   9.021  1.00  0.00     0.025 C 
HETATM   20  C17 UNL     1      16.663  28.622   8.406  1.00  0.00     0.002 C 
HETATM   21  C18 UNL     1      16.450  28.648   6.901  1.00  0.00     0.002 C 
HETATM   22  C19 UNL     1      15.824  27.329   6.433  1.00  0.00     0.029 C 
ATOM     23  H1  UNL     1      17.370  24.676   4.847  1.00  0.00     0.166 HD
ENDBRANCH   1  12
BRANCH  11  24
HETATM   24  C11 UNL     1      17.578  20.580   4.961  1.00  0.00     0.123 C 
BRANCH  24  25
HETATM   25  C12 UNL     1      16.260  20.123   4.444  1.00  0.00     0.003 A 
HETATM   26  C13 UNL     1      15.919  18.692   4.331  1.00  0.00     0.007 A 
HETATM   27  C14 UNL     1      15.327  19.446   5.462  1.00  0.00     0.007 A 
ENDBRANCH  24  25
ENDBRANCH  11  24
TORSDOF 3
ENDMDL
MODEL 2
REMARK VINA RESULT: -7.660402243      0.892      1.034
REMARK  3 active torsions:
REMARK  status: ('A' for Active; 'I' for Inactive)
REMARK       I    between atoms: C1_2  and  N1_3 
REMARK       I    between atoms: C1_2  and  N3_20 
REMARK    1  A    between atoms: N1_3  and  C2_5 
REMARK    2  A    between atoms: N2_15  and  C11_16 
REMARK    3  A    between atoms: C11_16  and  C12_17 
ROOT
HETATM    1  C2  UNL     1      17.257  22.640   4.245  1.00  0.00     0.190 C 
HETATM    2  C3  UNL     1      17.102  23.028   2.797  1.00  0.00     0.056 C 
HETATM    3  C4  UNL     1      17.498  24.484   2.551  1.00  0.00     0.176 C 
HETATM    4  O2  UNL     1      18.818  24.730   2.751  1.00  0.00    -0.390 OA
HETATM    5  C5  UNL     1      19.685  24.327   1.794  1.00  0.00     0.172 C 
HETATM    6  C6  UNL     1      19.556  22.966   1.269  1.00  0.00     0.016 C 
HETATM    7  C7  UNL     1      18.245  22.677   0.579  1.00  0.00     0.012 C 
HETATM    8  C8  UNL     1      17.766  22.073   1.874  1.00  0.00     0.002 C 
HETATM    9  C9  UNL     1      19.239  21.882   2.227  1.00  0.00     0.014 C 
HETATM   10  C10 UNL     1      19.542  22.063   3.664  1.00  0.00     0.124 C 
HETATM   11  N2  UNL     1      18.446  21.944   4.564  1.00  0.00    -0.391 N 
ENDROOT
BRANCH   1  12
HETATM   12  N1  UNL     1      17.093  23.779   5.128  1.00  0.00    -0.320 N 
HETATM   13  C1  UNL     1      16.231  23.750   6.259  1.00  0.00     0.336 C 
HETATM   14  O1  UNL     1      15.598  22.687   6.481  1.00  0.00    -0.246 OA
HETATM   15  N3  UNL     1      16.077  24.850   7.105  1.00  0.00    -0.240 N 
HETATM   16  N4  UNL     1      15.334  25.125   8.256  1.00  0.00    -0.127 NA
HETATM   17  C20 UNL     1      16.627  26.177   7.148  1.00  0.00     0.130 C 
HETATM   18  C15 UNL     1      16.287  26.153   8.618  1.00  0.00     0.124 C 
HETATM   19  C16 UNL     1      15.688  27.490   8.977  1.00  0.00     0.025 C 
HETATM   20  C17 UNL     1      16.557  28.585   8.394  1.00  0.00     0.002 C 
HETATM   21  C18 UNL     1      16.423  28.585   6.880  1.00  0.00     0.002 C 
HETATM   22  C19 UNL     1      15.878  27.236   6.397  1.00  0.00     0.029 C 
ATOM     23  H1  UNL     1      17.615  24.633   4.930  1.00  0.00     0.166 HD
ENDBRANCH   1  12
BRANCH  11  24
HETATM   24  C11 UNL     1      18.199  20.618   5.064  1.00  0.00     0.123 C 
BRANCH  24  25
HETATM   25  C12 UNL     1      18.831  19.528   4.273  1.00  0.00     0.003 A 
HETATM   26  C13 UNL     1      18.613  18.104   4.591  1.00  0.00     0.007 A 
HETATM   27  C14 UNL     1      17.880  18.661   3.429  1.00  0.00     0.007 A 
ENDBRANCH  24  25
ENDBRANCH  11  24
TORSDOF 3
ENDMDL
MODEL 3
REMARK VINA RESULT: -7.538867728      2.147      6.801
REMARK  3 active torsions:
REMARK  status: ('A' for Active; 'I' for Inactive)
REMARK       I    between atoms: C1_2  and  N1_3 
REMARK       I    between atoms: C1_2  and  N3_20 
REMARK    1  A    between atoms: N1_3  and  C2_5 
REMARK    2  A    between atoms: N2_15  and  C11_16 
REMARK    3  A    between atoms: C11_16  and  C12_17 
ROOT
HETATM    1  C2  UNL     1      16.151  24.238   4.825  1.00  0.00     0.190 C 
HETATM    2  C3  UNL     1      15.232  23.051   4.686  1.00  0.00     0.056 C 
HETATM    3  C4  UNL     1      16.005  21.733   4.648  1.00  0.00     0.176 C 
HETATM    4  O2  UNL     1      16.642  21.441   5.810  1.00  0.00    -0.390 OA
HETATM    5  C5  UNL     1      15.894  20.978   6.838  1.00  0.00     0.172 C 
HETATM    6  C6  UNL     1      14.655  21.686   7.169  1.00  0.00     0.016 C 
HETATM    7  C7  UNL     1      13.621  21.696   6.070  1.00  0.00     0.012 C 
HETATM    8  C8  UNL     1      14.132  23.060   5.684  1.00  0.00     0.002 C 
HETATM    9  C9  UNL     1      14.667  23.166   7.109  1.00  0.00     0.014 C 
HETATM   10  C10 UNL     1      15.951  23.892   7.219  1.00  0.00     0.124 C 
HETATM   11  N2  UNL     1      16.288  24.751   6.135  1.00  0.00    -0.391 N 
ENDROOT
BRANCH   1  12
HETATM   12  N1  UNL     1      17.457  23.978   4.251  1.00  0.00    -0.320 N 
HETATM   13  C1  UNL     1      18.181  24.962   3.523  1.00  0.00     0.336 C 
HETATM   14  O1  UNL     1      17.649  26.092   3.384  1.00  0.00    -0.246 OA
HETATM   15  N3  UNL     1      19.439  24.704   2.972  1.00  0.00    -0.240 N 
HETATM   16  N4  UNL     1      20.370  25.436   2.231  1.00  0.00    -0.127 NA
HETATM   17  C20 UNL     1      20.313  23.565   2.940  1.00  0.00     0.130 C 
HETATM   18  C15 UNL     1      21.423  24.560   2.701  1.00  0.00     0.124 C 
HETATM   19  C16 UNL     1      22.323  24.001   1.628  1.00  0.00     0.025 C 
HETATM   20  C17 UNL     1      22.629  22.553   1.953  1.00  0.00     0.002 C 
HETATM   21  C18 UNL     1      21.374  21.717   1.768  1.00  0.00     0.002 C 
HETATM   22  C19 UNL     1      20.131  22.614   1.795  1.00  0.00     0.029 C 
ATOM     23  H1  UNL     1      17.872  23.054   4.374  1.00  0.00     0.166 HD
ENDBRANCH   1  12
BRANCH  11  24
HETATM   24  C11 UNL     1      15.825  26.108   6.255  1.00  0.00     0.123 C 
BRANCH  24  25
HETATM   25  C12 UNL     1      15.912  26.675   7.628  1.00  0.00     0.003 A 
HETATM   26  C13 UNL     1      16.634  27.930   7.910  1.00  0.00     0.007 A 
HETATM   27  C14 UNL     1      15.153  27.991   7.869  1.00  0.00     0.007 A 
ENDBRANCH  24  25
ENDBRANCH  11  24
TORSDOF 3
ENDMDL
MODEL 4
REMARK VINA RESULT: -7.502927229      1.757      4.219
REMARK  3 active torsions:
REMARK  status: ('A' for Active; 'I' for Inactive)
REMARK       I    between atoms: C1_2  and  N1_3 
REMARK       I    between atoms: C1_2  and  N3_20 
REMARK    1  A    between atoms: N1_3  and  C2_5 
REMARK    2  A    between atoms: N2_15  and  C11_16 
REMARK    3  A    between atoms: C11_16  and  C12_17 
ROOT
HETATM    1  C2  UNL     1      17.111  22.322   3.492  1.00  0.00     0.190 C 
HETATM    2  C3  UNL     1      17.641  21.125   4.239  1.00  0.00     0.056 C 
HETATM    3  C4  UNL     1      17.075  21.039   5.656  1.00  0.00     0.176 C 
HETATM    4  O2  UNL     1      15.738  20.805   5.695  1.00  0.00    -0.390 OA
HETATM    5  C5  UNL     1      15.313  19.546   5.443  1.00  0.00     0.172 C 
HETATM    6  C6  UNL     1      15.856  18.849   4.275  1.00  0.00     0.016 C 
HETATM    7  C7  UNL     1      17.349  18.623   4.314  1.00  0.00     0.012 C 
HETATM    8  C8  UNL     1      17.497  19.862   3.469  1.00  0.00     0.002 C 
HETATM    9  C9  UNL     1      16.053  19.631   3.033  1.00  0.00     0.014 C 
HETATM   10  C10 UNL     1      15.282  20.875   2.822  1.00  0.00     0.124 C 
HETATM   11  N2  UNL     1      16.037  22.063   2.610  1.00  0.00    -0.391 N 
ENDROOT
BRANCH   1  12
HETATM   12  N1  UNL     1      16.767  23.407   4.392  1.00  0.00    -0.320 N 
HETATM   13  C1  UNL     1      16.998  24.772   4.064  1.00  0.00     0.336 C 
HETATM   14  O1  UNL     1      17.520  25.023   2.949  1.00  0.00    -0.246 OA
HETATM   15  N3  UNL     1      16.665  25.813   4.935  1.00  0.00    -0.240 N 
HETATM   16  N4  UNL     1      16.762  27.206   4.904  1.00  0.00    -0.127 NA
HETATM   17  C20 UNL     1      16.075  25.886   6.242  1.00  0.00     0.130 C 
HETATM   18  C15 UNL     1      15.686  27.295   5.869  1.00  0.00     0.124 C 
HETATM   19  C16 UNL     1      15.958  28.182   7.058  1.00  0.00     0.025 C 
HETATM   20  C17 UNL     1      15.396  27.520   8.299  1.00  0.00     0.002 C 
HETATM   21  C18 UNL     1      16.223  26.290   8.636  1.00  0.00     0.002 C 
HETATM   22  C19 UNL     1      17.018  25.834   7.406  1.00  0.00     0.029 C 
ATOM     23  H1  UNL     1      16.345  23.183   5.293  1.00  0.00     0.166 HD
ENDBRANCH   1  12
BRANCH  11  24
HETATM   24  C11 UNL     1      16.358  22.354   1.239  1.00  0.00     0.123 C 
BRANCH  24  25
HETATM   25  C12 UNL     1      15.242  22.939   0.449  1.00  0.00     0.003 A 
HETATM   26  C13 UNL     1      15.162  24.385   0.164  1.00  0.00     0.007 A 
HETATM   27  C14 UNL     1      15.608  23.497  -0.937  1.00  0.00     0.007 A 
ENDBRANCH  24  25
ENDBRANCH  11  24
TORSDOF 3
ENDMDL
MODEL 5
REMARK VINA RESULT: -7.421213598      1.479      2.061
REMARK  3 active torsions:
REMARK  status: ('A' for Active; 'I' for Inactive)
REMARK       I    between atoms: C1_2  and  N1_3 
REMARK       I    between atoms: C1_2  and  N3_20 
REMARK    1  A    between atoms: N1_3  and  C2_5 
REMARK    2  A    between atoms: N2_15  and  C11_16 
REMARK    3  A    between atoms: C11_16  and  C12_17 
ROOT
HETATM    1  C2  UNL     1      16.950  21.892   4.588  1.00  0.00     0.190 C 
HETATM    2  C3  UNL     1      15.948  21.782   3.467  1.00  0.00     0.056 C 
HETATM    3  C4  UNL     1      15.571  23.152   2.903  1.00  0.00     0.176 C 
HETATM    4  O2  UNL     1      16.597  23.785   2.279  1.00  0.00    -0.390 OA
HETATM    5  C5  UNL     1      16.937  23.362   1.040  1.00  0.00     0.172 C 
HETATM    6  C6  UNL     1      17.094  21.923   0.816  1.00  0.00     0.016 C 
HETATM    7  C7  UNL     1      15.842  21.109   1.042  1.00  0.00     0.012 C 
HETATM    8  C8  UNL     1      16.360  20.809   2.425  1.00  0.00     0.002 C 
HETATM    9  C9  UNL     1      17.749  21.125   1.877  1.00  0.00     0.014 C 
HETATM   10  C10 UNL     1      18.641  21.794   2.850  1.00  0.00     0.124 C 
HETATM   11  N2  UNL     1      18.297  21.660   4.224  1.00  0.00    -0.391 N 
ENDROOT
BRANCH   1  12
HETATM   12  N1  UNL     1      16.834  23.154   5.292  1.00  0.00    -0.320 N 
HETATM   13  C1  UNL     1      16.012  23.314   6.442  1.00  0.00     0.336 C 
HETATM   14  O1  UNL     1      15.372  22.310   6.844  1.00  0.00    -0.246 OA
HETATM   15  N3  UNL     1      15.904  24.533   7.116  1.00  0.00    -0.240 N 
HETATM   16  N4  UNL     1      15.206  24.993   8.236  1.00  0.00    -0.127 NA
HETATM   17  C20 UNL     1      16.475  25.839   6.938  1.00  0.00     0.130 C 
HETATM   18  C15 UNL     1      16.187  26.045   8.406  1.00  0.00     0.124 C 
HETATM   19  C16 UNL     1      15.621  27.432   8.576  1.00  0.00     0.025 C 
HETATM   20  C17 UNL     1      16.484  28.410   7.806  1.00  0.00     0.002 C 
HETATM   21  C18 UNL     1      16.297  28.183   6.314  1.00  0.00     0.002 C 
HETATM   22  C19 UNL     1      15.715  26.788   6.060  1.00  0.00     0.029 C 
ATOM     23  H1  UNL     1      17.361  23.958   4.950  1.00  0.00     0.166 HD
ENDBRANCH   1  12
BRANCH  11  24
HETATM   24  C11 UNL     1      18.868  20.523   4.896  1.00  0.00     0.123 C 
BRANCH  24  25
HETATM   25  C12 UNL     1      19.908  19.799   4.116  1.00  0.00     0.003 A 
HETATM   26  C13 UNL     1      20.955  18.993   4.772  1.00  0.00     0.007 A 
HETATM   27  C14 UNL     1      19.830  18.263   4.141  1.00  0.00     0.007 A 
ENDBRANCH  24  25
ENDBRANCH  11  24
TORSDOF 3
ENDMDL
