MODEL 1
REMARK VINA RESULT: -7.962480417      0.000      0.000
REMARK  5 active torsions:
REMARK  status: ('A' for Active; 'I' for Inactive)
REMARK    1  A    between atoms: C4_5  and  C5_6 
REMARK    2  A    between atoms: C5_6  and  O1_7 
REMARK    3  A    between atoms: C12_18  and  O3_19 
REMARK    4  A    between atoms: O3_19  and  C13_20 
REMARK    5  A    between atoms: C13_20  and  C14_22 
ROOT
HETATM    1  C1  UNL     1      19.474  20.401   2.422  1.00  0.00     0.148 C 
HETATM    2  N1  UNL     1      18.246  21.103   2.552  1.00  0.00    -0.395 N 
HETATM    3  C2  UNL     1      17.076  20.341   2.096  1.00  0.00     0.148 C 
HETATM    4  C3  UNL     1      18.098  22.297   2.987  1.00  0.00    -0.005 C 
HETATM    5  C4  UNL     1      19.228  23.120   3.413  1.00  0.00     0.059 C 
HETATM    6  C6  UNL     1      18.721  24.462   3.946  1.00  0.00    -0.002 C 
HETATM    7  C7  UNL     1      17.835  25.144   2.936  1.00  0.00     0.006 C 
HETATM    8  C8  UNL     1      16.732  24.278   2.437  1.00  0.00     0.011 C 
HETATM    9  C9  UNL     1      16.745  22.895   3.109  1.00  0.00     0.045 C 
HETATM   10  C10 UNL     1      16.210  23.048   4.452  1.00  0.00     0.095 C 
HETATM   11  C11 UNL     1      16.549  22.120   5.515  1.00  0.00     0.225 C 
HETATM   12  O2  UNL     1      17.146  21.038   5.629  1.00  0.00    -0.273 OA
HETATM   13  N2  UNL     1      15.990  22.730   6.710  1.00  0.00    -0.333 N 
ATOM     14  H2  UNL     1      15.708  22.240   7.558  1.00  0.00     0.165 HD
HETATM   15  C12 UNL     1      15.903  24.164   6.480  1.00  0.00     0.237 C 
HETATM   16  C19 UNL     1      16.595  24.365   5.141  1.00  0.00     0.049 C 
HETATM   17  C20 UNL     1      18.102  24.329   5.292  1.00  0.00     0.015 C 
ENDROOT
BRANCH  15  18
HETATM   18  O3  UNL     1      16.465  24.925   7.498  1.00  0.00    -0.295 OA
BRANCH  18  19
HETATM   19  C13 UNL     1      15.775  25.769   8.339  1.00  0.00     0.265 C 
HETATM   20  O4  UNL     1      15.211  25.246   9.334  1.00  0.00    -0.265 OA
BRANCH  19  21
HETATM   21  C14 UNL     1      15.660  27.220   8.151  1.00  0.00     0.085 C 
HETATM   22  C15 UNL     1      15.662  27.583   6.685  1.00  0.00     0.014 C 
HETATM   23  C16 UNL     1      16.655  28.727   6.537  1.00  0.00     0.001 C 
HETATM   24  C17 UNL     1      16.832  29.251   7.962  1.00  0.00     0.001 C 
HETATM   25  C18 UNL     1      16.793  27.981   8.794  1.00  0.00     0.014 C 
ENDBRANCH  19  21
ENDBRANCH  18  19
ENDBRANCH  15  18
BRANCH   5  26
HETATM   26  C5  UNL     1      20.235  23.472   2.346  1.00  0.00     0.175 C 
BRANCH  26  27
HETATM   27  O1  UNL     1      21.221  24.236   3.035  1.00  0.00    -0.400 OA
ATOM     28  H1  UNL     1      21.472  24.908   2.412  1.00  0.00     0.209 HD
ENDBRANCH  26  27
ENDBRANCH   5  26
TORSDOF 5
ENDMDL
MODEL 2
REMARK VINA RESULT: -7.769258889      2.050      3.640
REMARK  5 active torsions:
REMARK  status: ('A' for Active; 'I' for Inactive)
REMARK    1  A    between atoms: C4_5  and  C5_6 
REMARK    2  A    between atoms: C5_6  and  O1_7 
REMARK    3  A    between atoms: C12_18  and  O3_19 
REMARK    4  A    between atoms: O3_19  and  C13_20 
REMARK    5  A    between atoms: C13_20  and  C14_22 
ROOT
HETATM    1  C1  UNL     1      14.877  19.568   0.960  1.00  0.00     0.148 C 
HETATM    2  N1  UNL     1      16.040  20.308   1.305  1.00  0.00    -0.395 N 
HETATM    3  C2  UNL     1      16.712  20.926   0.154  1.00  0.00     0.148 C 
HETATM    4  C3  UNL     1      16.533  20.442   2.478  1.00  0.00    -0.005 C 
HETATM    5  C4  UNL     1      15.934  19.815   3.654  1.00  0.00     0.059 C 
HETATM    6  C6  UNL     1      16.709  20.222   4.910  1.00  0.00    -0.002 C 
HETATM    7  C7  UNL     1      18.178  19.924   4.759  1.00  0.00     0.006 C 
HETATM    8  C8  UNL     1      18.771  20.492   3.517  1.00  0.00     0.011 C 
HETATM    9  C9  UNL     1      17.736  21.283   2.701  1.00  0.00     0.045 C 
HETATM   10  C10 UNL     1      17.534  22.563   3.360  1.00  0.00     0.095 C 
HETATM   11  C11 UNL     1      16.304  23.315   3.196  1.00  0.00     0.225 C 
HETATM   12  O2  UNL     1      15.279  23.253   2.500  1.00  0.00    -0.273 OA
HETATM   13  N2  UNL     1      16.421  24.400   4.157  1.00  0.00    -0.333 N 
ATOM     14  H2  UNL     1      15.958  25.306   4.099  1.00  0.00     0.165 HD
HETATM   15  C12 UNL     1      17.317  23.963   5.216  1.00  0.00     0.237 C 
HETATM   16  C19 UNL     1      17.584  22.500   4.893  1.00  0.00     0.049 C 
HETATM   17  C20 UNL     1      16.420  21.625   5.312  1.00  0.00     0.015 C 
ENDROOT
BRANCH  15  18
HETATM   18  O3  UNL     1      16.801  24.148   6.493  1.00  0.00    -0.295 OA
BRANCH  18  19
HETATM   19  C13 UNL     1      16.886  25.308   7.229  1.00  0.00     0.265 C 
HETATM   20  O4  UNL     1      17.908  25.454   7.947  1.00  0.00    -0.265 OA
BRANCH  19  21
HETATM   21  C14 UNL     1      15.872  26.370   7.229  1.00  0.00     0.085 C 
HETATM   22  C15 UNL     1      16.210  27.448   6.228  1.00  0.00     0.014 C 
HETATM   23  C16 UNL     1      16.044  28.771   6.962  1.00  0.00     0.001 C 
HETATM   24  C17 UNL     1      15.201  28.411   8.186  1.00  0.00     0.001 C 
HETATM   25  C18 UNL     1      15.737  27.044   8.573  1.00  0.00     0.014 C 
ENDBRANCH  19  21
ENDBRANCH  18  19
ENDBRANCH  15  18
BRANCH   5  26
HETATM   26  C5  UNL     1      15.920  18.306   3.670  1.00  0.00     0.175 C 
BRANCH  26  27
HETATM   27  O1  UNL     1      15.152  17.976   4.824  1.00  0.00    -0.400 OA
ATOM     28  H1  UNL     1      15.796  17.683   5.457  1.00  0.00     0.209 HD
ENDBRANCH  26  27
ENDBRANCH   5  26
TORSDOF 5
ENDMDL
MODEL 3
REMARK VINA RESULT: -7.747277579      1.769      2.302
REMARK  5 active torsions:
REMARK  status: ('A' for Active; 'I' for Inactive)
REMARK    1  A    between atoms: C4_5  and  C5_6 
REMARK    2  A    between atoms: C5_6  and  O1_7 
REMARK    3  A    between atoms: C12_18  and  O3_19 
REMARK    4  A    between atoms: O3_19  and  C13_20 
REMARK    5  A    between atoms: C13_20  and  C14_22 
ROOT
HETATM    1  C1  UNL     1      18.899  17.788   4.472  1.00  0.00     0.148 C 
HETATM    2  N1  UNL     1      18.063  18.803   3.934  1.00  0.00    -0.395 N 
HETATM    3  C2  UNL     1      16.723  18.331   3.562  1.00  0.00     0.148 C 
HETATM    4  C3  UNL     1      18.387  20.024   3.735  1.00  0.00    -0.005 C 
HETATM    5  C4  UNL     1      19.717  20.542   4.044  1.00  0.00     0.059 C 
HETATM    6  C6  UNL     1      19.767  22.046   3.764  1.00  0.00    -0.002 C 
HETATM    7  C7  UNL     1      19.323  22.349   2.357  1.00  0.00     0.006 C 
HETATM    8  C8  UNL     1      18.004  21.750   2.013  1.00  0.00     0.011 C 
HETATM    9  C9  UNL     1      17.394  20.992   3.203  1.00  0.00     0.045 C 
HETATM   10  C10 UNL     1      16.866  21.976   4.134  1.00  0.00     0.095 C 
HETATM   11  C11 UNL     1      16.708  21.677   5.545  1.00  0.00     0.225 C 
HETATM   12  O2  UNL     1      16.796  20.686   6.286  1.00  0.00    -0.273 OA
HETATM   13  N2  UNL     1      16.358  22.956   6.141  1.00  0.00    -0.333 N 
ATOM     14  H2  UNL     1      15.834  23.092   7.005  1.00  0.00     0.165 HD
HETATM   15  C12 UNL     1      16.887  24.007   5.285  1.00  0.00     0.237 C 
HETATM   16  C19 UNL     1      17.704  23.257   4.243  1.00  0.00     0.049 C 
HETATM   17  C20 UNL     1      19.045  22.830   4.802  1.00  0.00     0.015 C 
ENDROOT
BRANCH  15  18
HETATM   18  O3  UNL     1      17.631  24.959   5.970  1.00  0.00    -0.295 OA
BRANCH  18  19
HETATM   19  C13 UNL     1      17.252  25.580   7.139  1.00  0.00     0.265 C 
HETATM   20  O4  UNL     1      18.007  25.431   8.134  1.00  0.00    -0.265 OA
BRANCH  19  21
HETATM   21  C14 UNL     1      16.041  26.393   7.296  1.00  0.00     0.085 C 
HETATM   22  C15 UNL     1      16.016  27.534   6.306  1.00  0.00     0.014 C 
HETATM   23  C16 UNL     1      15.656  28.778   7.106  1.00  0.00     0.001 C 
HETATM   24  C17 UNL     1      15.062  28.225   8.402  1.00  0.00     0.001 C 
HETATM   25  C18 UNL     1      15.923  27.003   8.671  1.00  0.00     0.014 C 
ENDBRANCH  19  21
ENDBRANCH  18  19
ENDBRANCH  15  18
BRANCH   5  26
HETATM   26  C5  UNL     1      20.861  19.954   3.254  1.00  0.00     0.175 C 
BRANCH  26  27
HETATM   27  O1  UNL     1      21.996  20.134   4.095  1.00  0.00    -0.400 OA
ATOM     28  H1  UNL     1      21.653  20.590   4.855  1.00  0.00     0.209 HD
ENDBRANCH  26  27
ENDBRANCH   5  26
TORSDOF 5
ENDMDL
MODEL 4
REMARK VINA RESULT: -7.740892156      1.999      3.664
REMARK  5 active torsions:
REMARK  status: ('A' for Active; 'I' for Inactive)
REMARK    1  A    between atoms: C4_5  and  C5_6 
REMARK    2  A    between atoms: C5_6  and  O1_7 
REMARK    3  A    between atoms: C12_18  and  O3_19 
REMARK    4  A    between atoms: O3_19  and  C13_20 
REMARK    5  A    between atoms: C13_20  and  C14_22 
ROOT
HETATM    1  C1  UNL     1      18.249  19.312   1.584  1.00  0.00     0.148 C 
HETATM    2  N1  UNL     1      18.236  19.658   2.962  1.00  0.00    -0.395 N 
HETATM    3  C2  UNL     1      19.486  19.338   3.665  1.00  0.00     0.148 C 
HETATM    4  C3  UNL     1      17.257  20.173   3.605  1.00  0.00    -0.005 C 
HETATM    5  C4  UNL     1      15.976  20.473   2.971  1.00  0.00     0.059 C 
HETATM    6  C6  UNL     1      15.042  21.146   3.980  1.00  0.00    -0.002 C 
HETATM    7  C7  UNL     1      14.908  20.315   5.230  1.00  0.00     0.006 C 
HETATM    8  C8  UNL     1      16.218  19.938   5.831  1.00  0.00     0.011 C 
HETATM    9  C9  UNL     1      17.398  20.525   5.040  1.00  0.00     0.045 C 
HETATM   10  C10 UNL     1      17.493  21.938   5.368  1.00  0.00     0.095 C 
HETATM   11  C11 UNL     1      18.108  22.888   4.459  1.00  0.00     0.225 C 
HETATM   12  O2  UNL     1      18.754  22.855   3.400  1.00  0.00    -0.273 OA
HETATM   13  N2  UNL     1      17.821  24.183   5.053  1.00  0.00    -0.333 N 
ATOM     14  H2  UNL     1      18.365  25.037   4.924  1.00  0.00     0.165 HD
HETATM   15  C12 UNL     1      16.621  24.047   5.863  1.00  0.00     0.237 C 
HETATM   16  C19 UNL     1      16.139  22.633   5.573  1.00  0.00     0.049 C 
HETATM   17  C20 UNL     1      15.428  22.559   4.238  1.00  0.00     0.015 C 
ENDROOT
BRANCH  15  18
HETATM   18  O3  UNL     1      15.656  25.010   5.595  1.00  0.00    -0.295 OA
BRANCH  18  19
HETATM   19  C13 UNL     1      15.854  26.372   5.634  1.00  0.00     0.265 C 
HETATM   20  O4  UNL     1      16.375  26.902   4.619  1.00  0.00    -0.265 OA
BRANCH  19  21
HETATM   21  C14 UNL     1      15.500  27.233   6.769  1.00  0.00     0.085 C 
HETATM   22  C15 UNL     1      16.223  28.557   6.698  1.00  0.00     0.014 C 
HETATM   23  C16 UNL     1      16.804  28.794   8.086  1.00  0.00     0.001 C 
HETATM   24  C17 UNL     1      16.020  27.836   8.983  1.00  0.00     0.001 C 
HETATM   25  C18 UNL     1      15.849  26.612   8.100  1.00  0.00     0.014 C 
ENDBRANCH  19  21
ENDBRANCH  18  19
ENDBRANCH  15  18
BRANCH   5  26
HETATM   26  C5  UNL     1      15.202  19.290   2.443  1.00  0.00     0.175 C 
BRANCH  26  27
HETATM   27  O1  UNL     1      14.010  19.861   1.911  1.00  0.00    -0.400 OA
ATOM     28  H1  UNL     1      13.461  19.112   1.712  1.00  0.00     0.209 HD
ENDBRANCH  26  27
ENDBRANCH   5  26
TORSDOF 5
ENDMDL
MODEL 5
REMARK VINA RESULT: -7.639431311      2.173      3.162
REMARK  5 active torsions:
REMARK  status: ('A' for Active; 'I' for Inactive)
REMARK    1  A    between atoms: C4_5  and  C5_6 
REMARK    2  A    between atoms: C5_6  and  O1_7 
REMARK    3  A    between atoms: C12_18  and  O3_19 
REMARK    4  A    between atoms: O3_19  and  C13_20 
REMARK    5  A    between atoms: C13_20  and  C14_22 
ROOT
HETATM    1  C1  UNL     1      16.367  16.877   3.350  1.00  0.00     0.148 C 
HETATM    2  N1  UNL     1      16.219  18.202   2.860  1.00  0.00    -0.395 N 
HETATM    3  C2  UNL     1      15.158  18.347   1.855  1.00  0.00     0.148 C 
HETATM    4  C3  UNL     1      16.925  19.216   3.192  1.00  0.00    -0.005 C 
HETATM    5  C4  UNL     1      18.022  19.125   4.153  1.00  0.00     0.059 C 
HETATM    6  C6  UNL     1      18.619  20.514   4.392  1.00  0.00    -0.002 C 
HETATM    7  C7  UNL     1      19.019  21.161   3.091  1.00  0.00     0.006 C 
HETATM    8  C8  UNL     1      17.926  21.179   2.080  1.00  0.00     0.011 C 
HETATM    9  C9  UNL     1      16.632  20.558   2.630  1.00  0.00     0.045 C 
HETATM   10  C10 UNL     1      16.016  21.528   3.521  1.00  0.00     0.095 C 
HETATM   11  C11 UNL     1      15.117  21.118   4.584  1.00  0.00     0.225 C 
HETATM   12  O2  UNL     1      14.554  20.077   4.956  1.00  0.00    -0.273 OA
HETATM   13  N2  UNL     1      14.895  22.334   5.349  1.00  0.00    -0.333 N 
ATOM     14  H2  UNL     1      14.080  22.541   5.925  1.00  0.00     0.165 HD
HETATM   15  C12 UNL     1      16.043  23.206   5.145  1.00  0.00     0.237 C 
HETATM   16  C19 UNL     1      17.016  22.352   4.345  1.00  0.00     0.049 C 
HETATM   17  C20 UNL     1      17.736  21.362   5.236  1.00  0.00     0.015 C 
ENDROOT
BRANCH  15  18
HETATM   18  O3  UNL     1      16.592  23.686   6.326  1.00  0.00    -0.295 OA
BRANCH  18  19
HETATM   19  C13 UNL     1      16.008  24.612   7.162  1.00  0.00     0.265 C 
HETATM   20  O4  UNL     1      15.026  24.225   7.844  1.00  0.00    -0.265 OA
BRANCH  19  21
HETATM   21  C14 UNL     1      16.454  26.004   7.303  1.00  0.00     0.085 C 
HETATM   22  C15 UNL     1      15.960  26.607   8.596  1.00  0.00     0.014 C 
HETATM   23  C16 UNL     1      15.373  27.964   8.229  1.00  0.00     0.001 C 
HETATM   24  C17 UNL     1      15.956  28.257   6.847  1.00  0.00     0.001 C 
HETATM   25  C18 UNL     1      15.960  26.889   6.186  1.00  0.00     0.014 C 
ENDBRANCH  19  21
ENDBRANCH  18  19
ENDBRANCH  15  18
BRANCH   5  26
HETATM   26  C5  UNL     1      19.189  18.256   3.751  1.00  0.00     0.175 C 
BRANCH  26  27
HETATM   27  O1  UNL     1      20.085  18.342   4.854  1.00  0.00    -0.400 OA
ATOM     28  H1  UNL     1      19.896  17.567   5.369  1.00  0.00     0.209 HD
ENDBRANCH  26  27
ENDBRANCH   5  26
TORSDOF 5
ENDMDL
