MODEL 1
REMARK VINA RESULT: -7.458633313      0.000      0.000
REMARK  7 active torsions:
REMARK  status: ('A' for Active; 'I' for Inactive)
REMARK    1  A    between atoms: N1_2  and  C2_4 
REMARK    2  A    between atoms: C2_4  and  N2_6 
REMARK    3  A    between atoms: N2_6  and  C3_8 
REMARK       I    between atoms: N3_10  and  C5_11 
REMARK    4  A    between atoms: C5_11  and  O2_13 
REMARK    5  A    between atoms: O2_13  and  C6_14 
REMARK    6  A    between atoms: C11_19  and  N4_20 
REMARK       I    between atoms: N4_20  and  C13_22 
REMARK    7  A    between atoms: C13_22  and  C14_24 
ROOT
HETATM    1  C3  UNL     1      16.731  23.476   4.870  1.00  0.00     0.126 C 
HETATM    2  C4  UNL     1      17.579  22.609   3.970  1.00  0.00     0.155 C 
HETATM    3  N3  UNL     1      18.828  23.340   3.772  1.00  0.00    -0.324 N 
HETATM    4  C5  UNL     1      20.035  22.817   3.299  1.00  0.00     0.363 C 
HETATM    5  O1  UNL     1      20.127  21.582   2.988  1.00  0.00    -0.238 OA
HETATM    6  C10 UNL     1      18.591  24.742   4.163  1.00  0.00     0.155 C 
HETATM    7  C11 UNL     1      17.688  24.540   5.322  1.00  0.00     0.129 C 
ENDROOT
BRANCH   7   8
HETATM    8  N4  UNL     1      17.063  25.734   5.852  1.00  0.00    -0.348 N 
HETATM    9  C12 UNL     1      16.250  26.482   4.917  1.00  0.00     0.153 C 
HETATM   10  C13 UNL     1      17.195  26.161   7.173  1.00  0.00     0.224 C 
HETATM   11  O3  UNL     1      17.910  25.379   7.918  1.00  0.00    -0.273 OA
BRANCH  10  12
HETATM   12  C14 UNL     1      16.668  27.332   7.849  1.00  0.00     0.078 C 
HETATM   13  C15 UNL     1      15.568  27.219   8.831  1.00  0.00     0.014 C 
HETATM   14  C16 UNL     1      14.954  28.500   8.250  1.00  0.00     0.002 C 
HETATM   15  C17 UNL     1      15.911  28.354   7.069  1.00  0.00     0.014 C 
ENDBRANCH  10  12
ENDBRANCH   7   8
BRANCH   1  16
HETATM   16  N2  UNL     1      16.195  22.741   6.009  1.00  0.00    -0.359 N 
ATOM     17  H2  UNL     1      16.458  23.065   6.940  1.00  0.00     0.162 HD
BRANCH  16  18
HETATM   18  C2  UNL     1      15.350  21.628   5.932  1.00  0.00     0.167 C 
HETATM   19  S1  UNL     1      15.901  20.180   6.424  1.00  0.00    -0.041 SA
BRANCH  18  20
HETATM   20  N1  UNL     1      14.049  21.734   5.441  1.00  0.00    -0.372 N 
HETATM   21  C1  UNL     1      12.914  21.607   6.329  1.00  0.00     0.148 C 
ATOM     22  H1  UNL     1      13.896  21.902   4.447  1.00  0.00     0.161 HD
ENDBRANCH  18  20
ENDBRANCH  16  18
ENDBRANCH   1  16
BRANCH   4  23
HETATM   23  O2  UNL     1      21.195  23.553   3.128  1.00  0.00    -0.294 OA
BRANCH  23  24
HETATM   24  C6  UNL     1      21.693  23.953   1.884  1.00  0.00     0.061 C 
HETATM   25  C7  UNL     1      22.336  22.836   1.102  1.00  0.00     0.046 C 
HETATM   26  C8  UNL     1      20.668  24.607   1.007  1.00  0.00     0.046 C 
HETATM   27  C9  UNL     1      22.790  24.986   2.160  1.00  0.00     0.046 C 
ENDBRANCH  23  24
ENDBRANCH   4  23
TORSDOF 7
ENDMDL
MODEL 2
REMARK VINA RESULT: -7.439148191      1.258      1.265
REMARK  7 active torsions:
REMARK  status: ('A' for Active; 'I' for Inactive)
REMARK    1  A    between atoms: N1_2  and  C2_4 
REMARK    2  A    between atoms: C2_4  and  N2_6 
REMARK    3  A    between atoms: N2_6  and  C3_8 
REMARK       I    between atoms: N3_10  and  C5_11 
REMARK    4  A    between atoms: C5_11  and  O2_13 
REMARK    5  A    between atoms: O2_13  and  C6_14 
REMARK    6  A    between atoms: C11_19  and  N4_20 
REMARK       I    between atoms: N4_20  and  C13_22 
REMARK    7  A    between atoms: C13_22  and  C14_24 
ROOT
HETATM    1  C3  UNL     1      16.371  23.119   5.404  1.00  0.00     0.126 C 
HETATM    2  C4  UNL     1      17.161  22.141   4.566  1.00  0.00     0.155 C 
HETATM    3  N3  UNL     1      18.414  22.816   4.239  1.00  0.00    -0.324 N 
HETATM    4  C5  UNL     1      19.588  22.216   3.774  1.00  0.00     0.363 C 
HETATM    5  O1  UNL     1      19.640  20.953   3.591  1.00  0.00    -0.238 OA
HETATM    6  C10 UNL     1      18.224  24.256   4.489  1.00  0.00     0.155 C 
HETATM    7  C11 UNL     1      17.370  24.199   5.701  1.00  0.00     0.129 C 
ENDROOT
BRANCH   7   8
HETATM    8  N4  UNL     1      16.794  25.458   6.128  1.00  0.00    -0.348 N 
HETATM    9  C12 UNL     1      15.849  26.057   5.210  1.00  0.00     0.153 C 
HETATM   10  C13 UNL     1      17.089  26.077   7.342  1.00  0.00     0.224 C 
HETATM   11  O3  UNL     1      17.912  25.416   8.092  1.00  0.00    -0.273 OA
BRANCH  10  12
HETATM   12  C14 UNL     1      16.630  27.335   7.902  1.00  0.00     0.078 C 
HETATM   13  C15 UNL     1      15.559  27.373   8.922  1.00  0.00     0.014 C 
HETATM   14  C16 UNL     1      14.976  28.609   8.224  1.00  0.00     0.002 C 
HETATM   15  C17 UNL     1      15.886  28.298   7.038  1.00  0.00     0.014 C 
ENDBRANCH  10  12
ENDBRANCH   7   8
BRANCH   1  16
HETATM   16  N2  UNL     1      15.872  22.521   6.636  1.00  0.00    -0.359 N 
ATOM     17  H2  UNL     1      16.564  22.206   7.317  1.00  0.00     0.162 HD
BRANCH  16  18
HETATM   18  C2  UNL     1      14.524  22.343   6.964  1.00  0.00     0.167 C 
HETATM   19  S1  UNL     1      13.437  22.148   5.770  1.00  0.00    -0.041 SA
BRANCH  18  20
HETATM   20  N1  UNL     1      14.091  22.332   8.290  1.00  0.00    -0.372 N 
HETATM   21  C1  UNL     1      13.767  21.085   8.948  1.00  0.00     0.148 C 
ATOM     22  H1  UNL     1      14.002  23.210   8.800  1.00  0.00     0.161 HD
ENDBRANCH  18  20
ENDBRANCH  16  18
ENDBRANCH   1  16
BRANCH   4  23
HETATM   23  O2  UNL     1      20.754  22.901   3.477  1.00  0.00    -0.294 OA
BRANCH  23  24
HETATM   24  C6  UNL     1      21.125  23.294   2.187  1.00  0.00     0.061 C 
HETATM   25  C7  UNL     1      22.160  22.397   1.556  1.00  0.00     0.046 C 
HETATM   26  C8  UNL     1      19.970  23.415   1.239  1.00  0.00     0.046 C 
HETATM   27  C9  UNL     1      21.764  24.681   2.316  1.00  0.00     0.046 C 
ENDBRANCH  23  24
ENDBRANCH   4  23
TORSDOF 7
ENDMDL
MODEL 3
REMARK VINA RESULT: -7.404832695      0.939      1.074
REMARK  7 active torsions:
REMARK  status: ('A' for Active; 'I' for Inactive)
REMARK    1  A    between atoms: N1_2  and  C2_4 
REMARK    2  A    between atoms: C2_4  and  N2_6 
REMARK    3  A    between atoms: N2_6  and  C3_8 
REMARK       I    between atoms: N3_10  and  C5_11 
REMARK    4  A    between atoms: C5_11  and  O2_13 
REMARK    5  A    between atoms: O2_13  and  C6_14 
REMARK    6  A    between atoms: C11_19  and  N4_20 
REMARK       I    between atoms: N4_20  and  C13_22 
REMARK    7  A    between atoms: C13_22  and  C14_24 
ROOT
HETATM    1  C3  UNL     1      16.621  23.301   5.137  1.00  0.00     0.126 C 
HETATM    2  C4  UNL     1      17.433  22.367   4.271  1.00  0.00     0.155 C 
HETATM    3  N3  UNL     1      18.679  23.071   3.983  1.00  0.00    -0.324 N 
HETATM    4  C5  UNL     1      19.866  22.507   3.507  1.00  0.00     0.363 C 
HETATM    5  O1  UNL     1      19.939  21.252   3.278  1.00  0.00    -0.238 OA
HETATM    6  C10 UNL     1      18.465  24.498   4.285  1.00  0.00     0.155 C 
HETATM    7  C11 UNL     1      17.600  24.383   5.484  1.00  0.00     0.129 C 
ENDROOT
BRANCH   7   8
HETATM    8  N4  UNL     1      17.002  25.616   5.952  1.00  0.00    -0.348 N 
HETATM    9  C12 UNL     1      16.189  26.324   4.986  1.00  0.00     0.153 C 
HETATM   10  C13 UNL     1      17.157  26.116   7.245  1.00  0.00     0.224 C 
HETATM   11  O3  UNL     1      17.868  25.366   8.025  1.00  0.00    -0.273 OA
BRANCH  10  12
HETATM   12  C14 UNL     1      16.658  27.333   7.858  1.00  0.00     0.078 C 
HETATM   13  C15 UNL     1      15.583  27.293   8.874  1.00  0.00     0.014 C 
HETATM   14  C16 UNL     1      14.965  28.541   8.229  1.00  0.00     0.002 C 
HETATM   15  C17 UNL     1      15.888  28.311   7.035  1.00  0.00     0.014 C 
ENDBRANCH  10  12
ENDBRANCH   7   8
BRANCH   1  16
HETATM   16  N2  UNL     1      16.119  22.649   6.342  1.00  0.00    -0.359 N 
ATOM     17  H2  UNL     1      16.500  22.962   7.235  1.00  0.00     0.162 HD
BRANCH  16  18
HETATM   18  C2  UNL     1      15.160  21.631   6.373  1.00  0.00     0.167 C 
HETATM   19  S1  UNL     1      13.584  22.026   6.315  1.00  0.00    -0.041 SA
BRANCH  18  20
HETATM   20  N1  UNL     1      15.526  20.288   6.456  1.00  0.00    -0.372 N 
HETATM   21  C1  UNL     1      15.415  19.422   5.303  1.00  0.00     0.148 C 
ATOM     22  H1  UNL     1      15.875  19.912   7.338  1.00  0.00     0.161 HD
ENDBRANCH  18  20
ENDBRANCH  16  18
ENDBRANCH   1  16
BRANCH   4  23
HETATM   23  O2  UNL     1      21.024  23.219   3.247  1.00  0.00    -0.294 OA
BRANCH  23  24
HETATM   24  C6  UNL     1      21.468  23.553   1.964  1.00  0.00     0.061 C 
HETATM   25  C7  UNL     1      22.270  22.464   1.298  1.00  0.00     0.046 C 
HETATM   26  C8  UNL     1      20.365  23.957   1.032  1.00  0.00     0.046 C 
HETATM   27  C9  UNL     1      22.403  24.757   2.121  1.00  0.00     0.046 C 
ENDBRANCH  23  24
ENDBRANCH   4  23
TORSDOF 7
ENDMDL
MODEL 4
REMARK VINA RESULT: -7.403715018      0.959      1.138
REMARK  7 active torsions:
REMARK  status: ('A' for Active; 'I' for Inactive)
REMARK    1  A    between atoms: N1_2  and  C2_4 
REMARK    2  A    between atoms: C2_4  and  N2_6 
REMARK    3  A    between atoms: N2_6  and  C3_8 
REMARK       I    between atoms: N3_10  and  C5_11 
REMARK    4  A    between atoms: C5_11  and  O2_13 
REMARK    5  A    between atoms: O2_13  and  C6_14 
REMARK    6  A    between atoms: C11_19  and  N4_20 
REMARK       I    between atoms: N4_20  and  C13_22 
REMARK    7  A    between atoms: C13_22  and  C14_24 
ROOT
HETATM    1  C3  UNL     1      17.200  22.996   4.548  1.00  0.00     0.126 C 
HETATM    2  C4  UNL     1      18.209  22.158   3.799  1.00  0.00     0.155 C 
HETATM    3  N3  UNL     1      19.287  23.070   3.425  1.00  0.00    -0.324 N 
HETATM    4  C5  UNL     1      20.577  22.715   3.017  1.00  0.00     0.363 C 
HETATM    5  O1  UNL     1      20.915  21.485   2.941  1.00  0.00    -0.238 OA
HETATM    6  C10 UNL     1      18.772  24.445   3.552  1.00  0.00     0.155 C 
HETATM    7  C11 UNL     1      17.923  24.294   4.759  1.00  0.00     0.129 C 
ENDROOT
BRANCH   7   8
HETATM    8  N4  UNL     1      17.070  25.420   5.076  1.00  0.00    -0.348 N 
HETATM    9  C12 UNL     1      16.595  26.184   3.942  1.00  0.00     0.153 C 
HETATM   10  C13 UNL     1      16.691  25.770   6.372  1.00  0.00     0.224 C 
HETATM   11  O3  UNL     1      17.144  24.980   7.292  1.00  0.00    -0.273 OA
BRANCH  10  12
HETATM   12  C14 UNL     1      15.878  26.869   6.859  1.00  0.00     0.078 C 
HETATM   13  C15 UNL     1      16.329  28.272   6.727  1.00  0.00     0.014 C 
HETATM   14  C16 UNL     1      15.787  28.550   8.137  1.00  0.00     0.002 C 
HETATM   15  C17 UNL     1      15.672  27.039   8.327  1.00  0.00     0.014 C 
ENDBRANCH  10  12
ENDBRANCH   7   8
BRANCH   1  16
HETATM   16  N2  UNL     1      16.818  22.402   5.823  1.00  0.00    -0.359 N 
ATOM     17  H2  UNL     1      17.555  22.267   6.515  1.00  0.00     0.162 HD
BRANCH  16  18
HETATM   18  C2  UNL     1      15.525  22.001   6.176  1.00  0.00     0.167 C 
HETATM   19  S1  UNL     1      14.936  20.608   5.580  1.00  0.00    -0.041 SA
BRANCH  18  20
HETATM   20  N1  UNL     1      14.730  22.771   7.025  1.00  0.00    -0.372 N 
HETATM   21  C1  UNL     1      13.893  22.141   8.023  1.00  0.00     0.148 C 
ATOM     22  H1  UNL     1      14.739  23.788   6.943  1.00  0.00     0.161 HD
ENDBRANCH  18  20
ENDBRANCH  16  18
ENDBRANCH   1  16
BRANCH   4  23
HETATM   23  O2  UNL     1      21.566  23.619   2.671  1.00  0.00    -0.294 OA
BRANCH  23  24
HETATM   24  C6  UNL     1      21.945  23.899   1.354  1.00  0.00     0.061 C 
HETATM   25  C7  UNL     1      22.301  22.673   0.553  1.00  0.00     0.046 C 
HETATM   26  C8  UNL     1      20.921  24.680   0.586  1.00  0.00     0.046 C 
HETATM   27  C9  UNL     1      23.213  24.756   1.435  1.00  0.00     0.046 C 
ENDBRANCH  23  24
ENDBRANCH   4  23
TORSDOF 7
ENDMDL
MODEL 5
REMARK VINA RESULT: -7.380748734      2.897      3.707
REMARK  7 active torsions:
REMARK  status: ('A' for Active; 'I' for Inactive)
REMARK    1  A    between atoms: N1_2  and  C2_4 
REMARK    2  A    between atoms: C2_4  and  N2_6 
REMARK    3  A    between atoms: N2_6  and  C3_8 
REMARK       I    between atoms: N3_10  and  C5_11 
REMARK    4  A    between atoms: C5_11  and  O2_13 
REMARK    5  A    between atoms: O2_13  and  C6_14 
REMARK    6  A    between atoms: C11_19  and  N4_20 
REMARK       I    between atoms: N4_20  and  C13_22 
REMARK    7  A    between atoms: C13_22  and  C14_24 
ROOT
HETATM    1  C3  UNL     1      15.152  22.654   4.646  1.00  0.00     0.126 C 
HETATM    2  C4  UNL     1      15.266  21.194   4.274  1.00  0.00     0.155 C 
HETATM    3  N3  UNL     1      16.629  20.799   4.618  1.00  0.00    -0.324 N 
HETATM    4  C5  UNL     1      17.107  19.494   4.769  1.00  0.00     0.363 C 
HETATM    5  O1  UNL     1      16.326  18.496   4.601  1.00  0.00    -0.238 OA
HETATM    6  C10 UNL     1      17.422  22.031   4.782  1.00  0.00     0.155 C 
HETATM    7  C11 UNL     1      16.412  22.908   5.421  1.00  0.00     0.129 C 
ENDROOT
BRANCH   7   8
HETATM    8  N4  UNL     1      16.776  24.304   5.546  1.00  0.00    -0.348 N 
HETATM    9  C12 UNL     1      17.536  24.854   4.444  1.00  0.00     0.153 C 
HETATM   10  C13 UNL     1      16.423  25.107   6.631  1.00  0.00     0.224 C 
HETATM   11  O3  UNL     1      15.704  24.509   7.526  1.00  0.00    -0.273 OA
BRANCH  10  12
HETATM   12  C14 UNL     1      16.728  26.496   6.922  1.00  0.00     0.078 C 
HETATM   13  C15 UNL     1      16.501  27.063   8.270  1.00  0.00     0.014 C 
HETATM   14  C16 UNL     1      15.978  28.347   7.611  1.00  0.00     0.002 C 
HETATM   15  C17 UNL     1      15.914  27.576   6.294  1.00  0.00     0.014 C 
ENDBRANCH  10  12
ENDBRANCH   7   8
BRANCH   1  16
HETATM   16  N2  UNL     1      13.976  22.931   5.462  1.00  0.00    -0.359 N 
ATOM     17  H2  UNL     1      13.445  23.775   5.245  1.00  0.00     0.162 HD
BRANCH  16  18
HETATM   18  C2  UNL     1      13.514  22.135   6.516  1.00  0.00     0.167 C 
HETATM   19  S1  UNL     1      12.291  21.098   6.250  1.00  0.00    -0.041 SA
BRANCH  18  20
HETATM   20  N1  UNL     1      14.079  22.214   7.790  1.00  0.00    -0.372 N 
HETATM   21  C1  UNL     1      13.790  21.206   8.787  1.00  0.00     0.148 C 
ATOM     22  H1  UNL     1      14.700  22.989   8.020  1.00  0.00     0.161 HD
ENDBRANCH  18  20
ENDBRANCH  16  18
ENDBRANCH   1  16
BRANCH   4  23
HETATM   23  O2  UNL     1      18.411  19.169   5.096  1.00  0.00    -0.294 OA
BRANCH  23  24
HETATM   24  C6  UNL     1      19.328  18.609   4.202  1.00  0.00     0.061 C 
HETATM   25  C7  UNL     1      19.416  17.106   4.287  1.00  0.00     0.046 C 
HETATM   26  C8  UNL     1      19.078  18.982   2.771  1.00  0.00     0.046 C 
HETATM   27  C9  UNL     1      20.708  19.153   4.586  1.00  0.00     0.046 C 
ENDBRANCH  23  24
ENDBRANCH   4  23
TORSDOF 7
ENDMDL
