MODEL 1
REMARK VINA RESULT: -7.166564136      0.000      0.000
REMARK  3 active torsions:
REMARK  status: ('A' for Active; 'I' for Inactive)
REMARK    1  A    between atoms: C2_2  and  C4_4 
REMARK    2  A    between atoms: C4_4  and  C5_5 
REMARK       I    between atoms: N1_13  and  C9_14 
REMARK       I    between atoms: C9_14  and  N2_16 
REMARK    3  A    between atoms: N2_16  and  C10_18 
ROOT
HETATM    1  C5  UNL     1      16.146  23.314   5.988  1.00  0.00     0.130 C 
HETATM    2  C6  UNL     1      15.162  23.303   7.119  1.00  0.00     0.194 C 
HETATM    3  O1  UNL     1      13.910  23.117   6.601  1.00  0.00    -0.388 OA
HETATM    4  C7  UNL     1      13.413  21.900   7.020  1.00  0.00     0.184 C 
HETATM    5  C8  UNL     1      13.662  20.776   6.095  1.00  0.00     0.190 C 
HETATM    6  S1  UNL     1      15.254  20.610   5.435  1.00  0.00     0.238 S 
HETATM    7  O2  UNL     1      15.952  19.499   6.217  1.00  0.00    -0.205 OA
HETATM    8  O3  UNL     1      15.180  20.115   4.021  1.00  0.00    -0.205 OA
HETATM    9  N1  UNL     1      16.281  21.965   5.479  1.00  0.00    -0.220 N 
HETATM   10  C9  UNL     1      17.556  21.725   4.915  1.00  0.00     0.333 C 
HETATM   11  O4  UNL     1      18.407  22.691   4.896  1.00  0.00    -0.246 OA
HETATM   12  N2  UNL     1      18.046  20.536   4.355  1.00  0.00    -0.321 N 
ATOM     13  H2  UNL     1      17.429  19.724   4.339  1.00  0.00     0.166 HD
ENDROOT
BRANCH  12  14
HETATM   14  C10 UNL     1      19.379  20.390   3.796  1.00  0.00     0.185 C 
HETATM   15  N3  UNL     1      19.399  20.273   2.377  1.00  0.00    -0.401 N 
HETATM   16  C11 UNL     1      19.331  18.941   1.868  1.00  0.00     0.120 C 
ATOM     17  H3  UNL     1      19.458  21.088   1.765  1.00  0.00     0.155 HD
HETATM   18  C12 UNL     1      20.502  18.074   2.221  1.00  0.00     0.003 C 
HETATM   19  C13 UNL     1      20.058  17.122   3.307  1.00  0.00     0.007 C 
HETATM   20  C17 UNL     1      21.707  18.839   2.691  1.00  0.00     0.007 C 
HETATM   21  C14 UNL     1      19.482  17.959   4.436  1.00  0.00     0.009 C 
HETATM   22  C15 UNL     1      20.115  19.306   4.528  1.00  0.00     0.028 C 
HETATM   23  C16 UNL     1      21.570  19.250   4.140  1.00  0.00     0.009 C 
ENDBRANCH  12  14
BRANCH   1  24
HETATM   24  C4  UNL     1      16.019  24.416   5.037  1.00  0.00     0.032 C 
BRANCH  24  25
HETATM   25  C2  UNL     1      16.753  25.680   5.244  1.00  0.00    -0.021 C 
HETATM   26  C1  UNL     1      17.146  26.247   3.855  1.00  0.00     0.009 C 
HETATM   27  C3  UNL     1      15.922  26.785   5.851  1.00  0.00     0.009 C 
ENDBRANCH  24  25
ENDBRANCH   1  24
TORSDOF 3
ENDMDL
MODEL 2
REMARK VINA RESULT: -7.158872790      4.559      7.449
REMARK  3 active torsions:
REMARK  status: ('A' for Active; 'I' for Inactive)
REMARK    1  A    between atoms: C2_2  and  C4_4 
REMARK    2  A    between atoms: C4_4  and  C5_5 
REMARK       I    between atoms: N1_13  and  C9_14 
REMARK       I    between atoms: C9_14  and  N2_16 
REMARK    3  A    between atoms: N2_16  and  C10_18 
ROOT
HETATM    1  C5  UNL     1      14.448  20.308  -0.327  1.00  0.00     0.130 C 
HETATM    2  C6  UNL     1      15.210  20.429  -1.613  1.00  0.00     0.194 C 
HETATM    3  O1  UNL     1      14.833  21.590  -2.230  1.00  0.00    -0.388 OA
HETATM    4  C7  UNL     1      15.904  22.459  -2.273  1.00  0.00     0.184 C 
HETATM    5  C8  UNL     1      15.978  23.408  -1.144  1.00  0.00     0.190 C 
HETATM    6  S1  UNL     1      15.740  22.784   0.454  1.00  0.00     0.238 S 
HETATM    7  O2  UNL     1      17.119  22.650   1.095  1.00  0.00    -0.205 OA
HETATM    8  O3  UNL     1      15.006  23.785   1.296  1.00  0.00    -0.205 OA
HETATM    9  N1  UNL     1      14.971  21.276   0.614  1.00  0.00    -0.220 N 
HETATM   10  C9  UNL     1      14.824  20.858   1.958  1.00  0.00     0.333 C 
HETATM   11  O4  UNL     1      14.249  19.729   2.186  1.00  0.00    -0.246 OA
HETATM   12  N2  UNL     1      15.235  21.523   3.122  1.00  0.00    -0.321 N 
ATOM     13  H2  UNL     1      15.703  22.423   3.020  1.00  0.00     0.166 HD
ENDROOT
BRANCH  12  14
HETATM   14  C10 UNL     1      15.034  21.007   4.465  1.00  0.00     0.185 C 
HETATM   15  N3  UNL     1      13.733  21.257   4.990  1.00  0.00    -0.401 N 
HETATM   16  C11 UNL     1      13.589  22.473   5.724  1.00  0.00     0.120 C 
ATOM     17  H3  UNL     1      12.957  20.609   4.851  1.00  0.00     0.155 HD
HETATM   18  C12 UNL     1      14.400  22.547   6.982  1.00  0.00     0.003 C 
HETATM   19  C13 UNL     1      15.574  23.460   6.719  1.00  0.00     0.007 C 
HETATM   20  C17 UNL     1      14.901  21.215   7.463  1.00  0.00     0.007 C 
HETATM   21  C14 UNL     1      16.294  22.930   5.491  1.00  0.00     0.009 C 
HETATM   22  C15 UNL     1      16.165  21.450   5.348  1.00  0.00     0.028 C 
HETATM   23  C16 UNL     1      16.128  20.776   6.694  1.00  0.00     0.009 C 
ENDBRANCH  12  14
BRANCH   1  24
HETATM   24  C4  UNL     1      13.000  20.157  -0.452  1.00  0.00     0.032 C 
BRANCH  24  25
HETATM   25  C2  UNL     1      12.354  18.851  -0.215  1.00  0.00    -0.021 C 
HETATM   26  C1  UNL     1      11.096  19.082   0.662  1.00  0.00     0.009 C 
HETATM   27  C3  UNL     1      11.797  18.203  -1.461  1.00  0.00     0.009 C 
ENDBRANCH  24  25
ENDBRANCH   1  24
TORSDOF 3
ENDMDL
MODEL 3
REMARK VINA RESULT: -7.149515402      2.835      3.544
REMARK  3 active torsions:
REMARK  status: ('A' for Active; 'I' for Inactive)
REMARK    1  A    between atoms: C2_2  and  C4_4 
REMARK    2  A    between atoms: C4_4  and  C5_5 
REMARK       I    between atoms: N1_13  and  C9_14 
REMARK       I    between atoms: C9_14  and  N2_16 
REMARK    3  A    between atoms: N2_16  and  C10_18 
ROOT
HETATM    1  C5  UNL     1      16.216  24.204   6.252  1.00  0.00     0.130 C 
HETATM    2  C6  UNL     1      15.208  23.480   7.093  1.00  0.00     0.194 C 
HETATM    3  O1  UNL     1      14.051  23.360   6.373  1.00  0.00    -0.388 OA
HETATM    4  C7  UNL     1      13.812  22.029   6.102  1.00  0.00     0.184 C 
HETATM    5  C8  UNL     1      14.341  21.555   4.806  1.00  0.00     0.190 C 
HETATM    6  S1  UNL     1      15.960  22.001   4.383  1.00  0.00     0.238 S 
HETATM    7  O2  UNL     1      16.846  20.787   4.649  1.00  0.00    -0.205 OA
HETATM    8  O3  UNL     1      16.059  22.250   2.907  1.00  0.00    -0.205 OA
HETATM    9  N1  UNL     1      16.664  23.316   5.200  1.00  0.00    -0.220 N 
HETATM   10  C9  UNL     1      17.985  23.599   4.780  1.00  0.00     0.333 C 
HETATM   11  O4  UNL     1      18.605  24.581   5.335  1.00  0.00    -0.246 OA
HETATM   12  N2  UNL     1      18.747  22.934   3.808  1.00  0.00    -0.321 N 
ATOM     13  H2  UNL     1      18.322  22.140   3.327  1.00  0.00     0.166 HD
ENDROOT
BRANCH  12  14
HETATM   14  C10 UNL     1      20.103  23.305   3.444  1.00  0.00     0.185 C 
HETATM   15  N3  UNL     1      20.270  24.696   3.186  1.00  0.00    -0.401 N 
HETATM   16  C11 UNL     1      20.083  25.097   1.828  1.00  0.00     0.120 C 
ATOM     17  H3  UNL     1      20.508  25.362   3.922  1.00  0.00     0.155 HD
HETATM   18  C12 UNL     1      21.078  24.528   0.863  1.00  0.00     0.003 C 
HETATM   19  C13 UNL     1      20.389  23.432   0.085  1.00  0.00     0.007 C 
HETATM   20  C17 UNL     1      22.312  23.975   1.516  1.00  0.00     0.007 C 
HETATM   21  C14 UNL     1      19.805  22.458   1.093  1.00  0.00     0.009 C 
HETATM   22  C15 UNL     1      20.598  22.399   2.355  1.00  0.00     0.028 C 
HETATM   23  C16 UNL     1      22.067  22.593   2.082  1.00  0.00     0.009 C 
ENDBRANCH  12  14
BRANCH   1  24
HETATM   24  C4  UNL     1      15.895  25.590   5.917  1.00  0.00     0.032 C 
BRANCH  24  25
HETATM   25  C2  UNL     1      15.842  26.627   6.965  1.00  0.00    -0.021 C 
HETATM   26  C1  UNL     1      17.025  26.394   7.940  1.00  0.00     0.009 C 
HETATM   27  C3  UNL     1      16.079  28.030   6.458  1.00  0.00     0.009 C 
ENDBRANCH  24  25
ENDBRANCH   1  24
TORSDOF 3
ENDMDL
MODEL 4
REMARK VINA RESULT: -6.825354190      2.926      3.795
REMARK  3 active torsions:
REMARK  status: ('A' for Active; 'I' for Inactive)
REMARK    1  A    between atoms: C2_2  and  C4_4 
REMARK    2  A    between atoms: C4_4  and  C5_5 
REMARK       I    between atoms: N1_13  and  C9_14 
REMARK       I    between atoms: C9_14  and  N2_16 
REMARK    3  A    between atoms: N2_16  and  C10_18 
ROOT
HETATM    1  C5  UNL     1      16.671  25.613   7.090  1.00  0.00     0.130 C 
HETATM    2  C6  UNL     1      16.344  24.997   8.417  1.00  0.00     0.194 C 
HETATM    3  O1  UNL     1      14.995  24.775   8.470  1.00  0.00    -0.388 OA
HETATM    4  C7  UNL     1      14.752  23.418   8.516  1.00  0.00     0.184 C 
HETATM    5  C8  UNL     1      14.526  22.784   7.201  1.00  0.00     0.190 C 
HETATM    6  S1  UNL     1      15.612  23.183   5.913  1.00  0.00     0.238 S 
HETATM    7  O2  UNL     1      16.592  22.022   5.773  1.00  0.00    -0.205 OA
HETATM    8  O3  UNL     1      14.871  23.238   4.610  1.00  0.00    -0.205 OA
HETATM    9  N1  UNL     1      16.542  24.600   6.065  1.00  0.00    -0.220 N 
HETATM   10  C9  UNL     1      17.393  24.836   4.960  1.00  0.00     0.333 C 
HETATM   11  O4  UNL     1      18.137  25.887   4.977  1.00  0.00    -0.246 OA
HETATM   12  N2  UNL     1      17.552  24.055   3.806  1.00  0.00    -0.321 N 
ATOM     13  H2  UNL     1      16.998  23.203   3.724  1.00  0.00     0.166 HD
ENDROOT
BRANCH  12  14
HETATM   14  C10 UNL     1      18.458  24.387   2.720  1.00  0.00     0.185 C 
HETATM   15  N3  UNL     1      18.155  23.726   1.495  1.00  0.00    -0.401 N 
HETATM   16  C11 UNL     1      18.804  22.469   1.296  1.00  0.00     0.120 C 
ATOM     17  H3  UNL     1      17.516  24.124   0.805  1.00  0.00     0.155 HD
HETATM   18  C12 UNL     1      20.297  22.545   1.193  1.00  0.00     0.003 C 
HETATM   19  C13 UNL     1      20.874  22.043   2.496  1.00  0.00     0.007 C 
HETATM   20  C17 UNL     1      20.820  23.926   0.916  1.00  0.00     0.007 C 
HETATM   21  C14 UNL     1      20.241  22.852   3.614  1.00  0.00     0.009 C 
HETATM   22  C15 UNL     1      19.877  24.233   3.184  1.00  0.00     0.028 C 
HETATM   23  C16 UNL     1      20.862  24.764   2.175  1.00  0.00     0.009 C 
ENDBRANCH  12  14
BRANCH   1  24
HETATM   24  C4  UNL     1      16.111  26.941   6.844  1.00  0.00     0.032 C 
BRANCH  24  25
HETATM   25  C2  UNL     1      15.915  27.895   7.953  1.00  0.00    -0.021 C 
HETATM   26  C1  UNL     1      16.921  29.061   7.776  1.00  0.00     0.009 C 
HETATM   27  C3  UNL     1      14.572  28.587   7.942  1.00  0.00     0.009 C 
ENDBRANCH  24  25
ENDBRANCH   1  24
TORSDOF 3
ENDMDL
MODEL 5
REMARK VINA RESULT: -6.817243013      1.049      1.225
REMARK  3 active torsions:
REMARK  status: ('A' for Active; 'I' for Inactive)
REMARK    1  A    between atoms: C2_2  and  C4_4 
REMARK    2  A    between atoms: C4_4  and  C5_5 
REMARK       I    between atoms: N1_13  and  C9_14 
REMARK       I    between atoms: C9_14  and  N2_16 
REMARK    3  A    between atoms: N2_16  and  C10_18 
ROOT
HETATM    1  C5  UNL     1      16.791  23.172   5.288  1.00  0.00     0.130 C 
HETATM    2  C6  UNL     1      15.772  23.608   6.298  1.00  0.00     0.194 C 
HETATM    3  O1  UNL     1      14.537  23.561   5.713  1.00  0.00    -0.388 OA
HETATM    4  C7  UNL     1      13.772  22.591   6.327  1.00  0.00     0.184 C 
HETATM    5  C8  UNL     1      13.822  21.262   5.684  1.00  0.00     0.190 C 
HETATM    6  S1  UNL     1      15.374  20.642   5.229  1.00  0.00     0.238 S 
HETATM    7  O2  UNL     1      15.779  19.620   6.287  1.00  0.00    -0.205 OA
HETATM    8  O3  UNL     1      15.266  19.869   3.948  1.00  0.00    -0.205 OA
HETATM    9  N1  UNL     1      16.662  21.744   5.087  1.00  0.00    -0.220 N 
HETATM   10  C9  UNL     1      17.883  21.138   4.710  1.00  0.00     0.333 C 
HETATM   11  O4  UNL     1      18.919  21.889   4.571  1.00  0.00    -0.246 OA
HETATM   12  N2  UNL     1      18.136  19.782   4.459  1.00  0.00    -0.321 N 
ATOM     13  H2  UNL     1      17.362  19.124   4.553  1.00  0.00     0.166 HD
ENDROOT
BRANCH  12  14
HETATM   14  C10 UNL     1      19.434  19.256   4.072  1.00  0.00     0.185 C 
HETATM   15  N3  UNL     1      19.844  19.639   2.763  1.00  0.00    -0.401 N 
HETATM   16  C11 UNL     1      19.469  18.745   1.714  1.00  0.00     0.120 C 
ATOM     17  H3  UNL     1      20.371  20.495   2.586  1.00  0.00     0.155 HD
HETATM   18  C12 UNL     1      20.089  17.384   1.798  1.00  0.00     0.003 C 
HETATM   19  C13 UNL     1      19.029  16.424   2.283  1.00  0.00     0.007 C 
HETATM   20  C17 UNL     1      21.281  17.313   2.709  1.00  0.00     0.007 C 
HETATM   21  C14 UNL     1      18.470  16.984   3.580  1.00  0.00     0.009 C 
HETATM   22  C15 UNL     1      19.478  17.780   4.339  1.00  0.00     0.028 C 
HETATM   23  C16 UNL     1      20.863  17.214   4.160  1.00  0.00     0.009 C 
ENDBRANCH  12  14
BRANCH   1  24
HETATM   24  C4  UNL     1      16.949  24.037   4.121  1.00  0.00     0.032 C 
BRANCH  24  25
HETATM   25  C2  UNL     1      17.626  25.344   4.237  1.00  0.00    -0.021 C 
HETATM   26  C1  UNL     1      18.704  25.433   3.127  1.00  0.00     0.009 C 
HETATM   27  C3  UNL     1      16.733  26.529   3.952  1.00  0.00     0.009 C 
ENDBRANCH  24  25
ENDBRANCH   1  24
TORSDOF 3
ENDMDL
