MODEL 1
REMARK VINA RESULT: -6.481583069      0.000      0.000
REMARK  5 active torsions:
REMARK  status: ('A' for Active; 'I' for Inactive)
REMARK       I    between atoms: C2_2  and  N1_4 
REMARK       I    between atoms: N2_8  and  C6_9 
REMARK    1  A    between atoms: C6_9  and  C7_11 
REMARK    2  A    between atoms: C7_11  and  O3_12 
REMARK    3  A    between atoms: C9_16  and  C10_17 
REMARK       I    between atoms: C10_17  and  N3_19 
REMARK    4  A    between atoms: N3_19  and  C11_21 
REMARK    5  A    between atoms: C11_21  and  C12_22 
ROOT
HETATM    1  C1  UNL     1      15.400  23.588   1.117  1.00  0.00     0.117 C 
HETATM    2  C2  UNL     1      16.823  23.589   1.594  1.00  0.00     0.216 C 
HETATM    3  O1  UNL     1      17.718  23.445   0.709  1.00  0.00    -0.274 OA
HETATM    4  N1  UNL     1      17.096  23.742   2.948  1.00  0.00    -0.336 N 
HETATM    5  C3  UNL     1      18.420  23.762   3.552  1.00  0.00     0.135 C 
HETATM    6  C4  UNL     1      18.197  23.199   4.947  1.00  0.00     0.047 A 
HETATM    7  C5  UNL     1      18.109  21.722   4.879  1.00  0.00     0.134 A 
HETATM    8  N2  UNL     1      16.701  21.787   5.254  1.00  0.00    -0.341 N 
HETATM    9  C6  UNL     1      15.776  20.741   5.520  1.00  0.00     0.259 C 
HETATM   10  O2  UNL     1      16.204  19.541   5.406  1.00  0.00    -0.269 OA
HETATM   11  C8  UNL     1      16.738  23.215   5.217  1.00  0.00     0.126 A 
HETATM   12  C9  UNL     1      16.142  23.911   4.024  1.00  0.00     0.202 C 
ENDROOT
BRANCH  12  13
HETATM   13  C10 UNL     1      16.077  25.357   4.353  1.00  0.00     0.242 C 
HETATM   14  O4  UNL     1      16.175  26.186   3.421  1.00  0.00    -0.271 OA
HETATM   15  N3  UNL     1      15.908  25.762   5.685  1.00  0.00    -0.359 N 
ATOM     16  H3  UNL     1      15.840  25.020   6.383  1.00  0.00     0.162 HD
BRANCH  15  17
HETATM   17  C11 UNL     1      15.821  27.117   6.170  1.00  0.00     0.126 C 
BRANCH  17  18
HETATM   18  C12 UNL     1      16.175  27.145   7.632  1.00  0.00    -0.005 C 
HETATM   19  C13 UNL     1      15.133  28.040   8.310  1.00  0.00     0.011 C 
HETATM   20  C14 UNL     1      16.105  25.757   8.247  1.00  0.00     0.011 C 
ENDBRANCH  17  18
ENDBRANCH  15  17
ENDBRANCH  12  13
BRANCH   9  21
HETATM   21  C7  UNL     1      14.380  20.963   5.913  1.00  0.00     0.281 C 
HETATM   22 BR1  UNL     1      14.244  22.022   7.529  1.00  0.00    -0.051 Br
BRANCH  21  23
HETATM   23  O3  UNL     1      13.576  21.472   4.909  1.00  0.00    -0.375 OA
ATOM     24  H3  UNL     1      14.050  21.838   4.172  1.00  0.00     0.211 HD
ENDBRANCH  21  23
ENDBRANCH   9  21
TORSDOF 5
ENDMDL
MODEL 2
REMARK VINA RESULT: -6.386089277      2.685      4.271
REMARK  5 active torsions:
REMARK  status: ('A' for Active; 'I' for Inactive)
REMARK       I    between atoms: C2_2  and  N1_4 
REMARK       I    between atoms: N2_8  and  C6_9 
REMARK    1  A    between atoms: C6_9  and  C7_11 
REMARK    2  A    between atoms: C7_11  and  O3_12 
REMARK    3  A    between atoms: C9_16  and  C10_17 
REMARK       I    between atoms: C10_17  and  N3_19 
REMARK    4  A    between atoms: N3_19  and  C11_21 
REMARK    5  A    between atoms: C11_21  and  C12_22 
ROOT
HETATM    1  C1  UNL     1      13.466  20.654   7.648  1.00  0.00     0.117 C 
HETATM    2  C2  UNL     1      13.100  21.559   6.509  1.00  0.00     0.216 C 
HETATM    3  O1  UNL     1      11.910  21.479   6.082  1.00  0.00    -0.274 OA
HETATM    4  N1  UNL     1      14.053  22.422   5.980  1.00  0.00    -0.336 N 
HETATM    5  C3  UNL     1      13.841  23.351   4.880  1.00  0.00     0.135 C 
HETATM    6  C4  UNL     1      15.208  23.459   4.221  1.00  0.00     0.047 A 
HETATM    7  C5  UNL     1      15.434  22.281   3.353  1.00  0.00     0.134 A 
HETATM    8  N2  UNL     1      16.489  21.821   4.249  1.00  0.00    -0.341 N 
HETATM    9  C6  UNL     1      17.372  20.713   4.130  1.00  0.00     0.259 C 
HETATM   10  O2  UNL     1      17.240  19.971   3.097  1.00  0.00    -0.269 OA
HETATM   11  C8  UNL     1      16.210  22.889   5.156  1.00  0.00     0.126 A 
HETATM   12  C9  UNL     1      15.429  22.578   6.402  1.00  0.00     0.202 C 
ENDROOT
BRANCH  12  13
HETATM   13  C10 UNL     1      15.505  23.779   7.273  1.00  0.00     0.242 C 
HETATM   14  O4  UNL     1      14.644  23.921   8.170  1.00  0.00    -0.271 OA
HETATM   15  N3  UNL     1      16.527  24.718   7.076  1.00  0.00    -0.359 N 
ATOM     16  H3  UNL     1      17.185  24.526   6.320  1.00  0.00     0.162 HD
BRANCH  15  17
HETATM   17  C11 UNL     1      16.744  25.927   7.833  1.00  0.00     0.126 C 
BRANCH  17  18
HETATM   18  C12 UNL     1      15.794  26.990   7.352  1.00  0.00    -0.005 C 
HETATM   19  C13 UNL     1      16.259  28.303   7.992  1.00  0.00     0.011 C 
HETATM   20  C14 UNL     1      15.841  27.136   5.840  1.00  0.00     0.011 C 
ENDBRANCH  17  18
ENDBRANCH  15  17
ENDBRANCH  12  13
BRANCH   9  21
HETATM   21  C7  UNL     1      18.409  20.384   5.114  1.00  0.00     0.281 C 
HETATM   22 BR1  UNL     1      19.575  18.969   4.489  1.00  0.00    -0.051 Br
BRANCH  21  23
HETATM   23  O3  UNL     1      19.136  21.471   5.567  1.00  0.00    -0.375 OA
ATOM     24  H3  UNL     1      19.291  22.141   4.911  1.00  0.00     0.211 HD
ENDBRANCH  21  23
ENDBRANCH   9  21
TORSDOF 5
ENDMDL
MODEL 3
REMARK VINA RESULT: -6.155727902      1.010      1.253
REMARK  5 active torsions:
REMARK  status: ('A' for Active; 'I' for Inactive)
REMARK       I    between atoms: C2_2  and  N1_4 
REMARK       I    between atoms: N2_8  and  C6_9 
REMARK    1  A    between atoms: C6_9  and  C7_11 
REMARK    2  A    between atoms: C7_11  and  O3_12 
REMARK    3  A    between atoms: C9_16  and  C10_17 
REMARK       I    between atoms: C10_17  and  N3_19 
REMARK    4  A    between atoms: N3_19  and  C11_21 
REMARK    5  A    between atoms: C11_21  and  C12_22 
ROOT
HETATM    1  C1  UNL     1      15.520  23.795   1.762  1.00  0.00     0.117 C 
HETATM    2  C2  UNL     1      16.872  23.267   2.142  1.00  0.00     0.216 C 
HETATM    3  O1  UNL     1      17.673  23.022   1.190  1.00  0.00    -0.274 OA
HETATM    4  N1  UNL     1      17.184  23.071   3.482  1.00  0.00    -0.336 N 
HETATM    5  C3  UNL     1      18.450  22.568   3.995  1.00  0.00     0.135 C 
HETATM    6  C4  UNL     1      18.066  21.851   5.281  1.00  0.00     0.047 A 
HETATM    7  C5  UNL     1      17.518  20.514   4.958  1.00  0.00     0.134 A 
HETATM    8  N2  UNL     1      16.203  20.938   5.427  1.00  0.00    -0.341 N 
HETATM    9  C6  UNL     1      14.997  20.199   5.561  1.00  0.00     0.259 C 
HETATM   10  O2  UNL     1      15.025  18.969   5.210  1.00  0.00    -0.269 OA
HETATM   11  C8  UNL     1      16.688  22.265   5.639  1.00  0.00     0.126 A 
HETATM   12  C9  UNL     1      16.337  23.322   4.629  1.00  0.00     0.202 C 
ENDROOT
BRANCH  12  13
HETATM   13  C10 UNL     1      16.732  24.629   5.211  1.00  0.00     0.242 C 
HETATM   14  O4  UNL     1      17.139  25.527   4.440  1.00  0.00    -0.271 OA
HETATM   15  N3  UNL     1      16.642  24.830   6.596  1.00  0.00    -0.359 N 
ATOM     16  H3  UNL     1      16.304  24.044   7.151  1.00  0.00     0.162 HD
BRANCH  15  17
HETATM   17  C11 UNL     1      16.980  26.033   7.316  1.00  0.00     0.126 C 
BRANCH  17  18
HETATM   18  C12 UNL     1      15.757  26.903   7.429  1.00  0.00    -0.005 C 
HETATM   19  C13 UNL     1      15.784  27.500   8.841  1.00  0.00     0.011 C 
HETATM   20  C14 UNL     1      15.785  28.036   6.416  1.00  0.00     0.011 C 
ENDBRANCH  17  18
ENDBRANCH  15  17
ENDBRANCH  12  13
BRANCH   9  21
HETATM   21  C7  UNL     1      13.744  20.763   6.073  1.00  0.00     0.281 C 
HETATM   22 BR1  UNL     1      13.912  21.343   7.913  1.00  0.00    -0.051 Br
BRANCH  21  23
HETATM   23  O3  UNL     1      13.196  21.756   5.281  1.00  0.00    -0.375 OA
ATOM     24  H3  UNL     1      13.689  22.567   5.270  1.00  0.00     0.211 HD
ENDBRANCH  21  23
ENDBRANCH   9  21
TORSDOF 5
ENDMDL
MODEL 4
REMARK VINA RESULT: -6.043008963      2.668      4.009
REMARK  5 active torsions:
REMARK  status: ('A' for Active; 'I' for Inactive)
REMARK       I    between atoms: C2_2  and  N1_4 
REMARK       I    between atoms: N2_8  and  C6_9 
REMARK    1  A    between atoms: C6_9  and  C7_11 
REMARK    2  A    between atoms: C7_11  and  O3_12 
REMARK    3  A    between atoms: C9_16  and  C10_17 
REMARK       I    between atoms: C10_17  and  N3_19 
REMARK    4  A    between atoms: N3_19  and  C11_21 
REMARK    5  A    between atoms: C11_21  and  C12_22 
ROOT
HETATM    1  C1  UNL     1      19.997  21.544   3.456  1.00  0.00     0.117 C 
HETATM    2  C2  UNL     1      19.009  20.934   4.407  1.00  0.00     0.216 C 
HETATM    3  O1  UNL     1      19.295  19.787   4.863  1.00  0.00    -0.274 OA
HETATM    4  N1  UNL     1      17.852  21.629   4.739  1.00  0.00    -0.336 N 
HETATM    5  C3  UNL     1      16.810  21.163   5.643  1.00  0.00     0.135 C 
HETATM    6  C4  UNL     1      15.544  21.817   5.112  1.00  0.00     0.047 A 
HETATM    7  C5  UNL     1      15.047  21.058   3.941  1.00  0.00     0.134 A 
HETATM    8  N2  UNL     1      15.360  22.188   3.074  1.00  0.00    -0.341 N 
HETATM    9  C6  UNL     1      15.117  22.371   1.686  1.00  0.00     0.259 C 
HETATM   10  O2  UNL     1      14.550  21.409   1.062  1.00  0.00    -0.269 OA
HETATM   11  C8  UNL     1      15.946  22.891   4.171  1.00  0.00     0.126 A 
HETATM   12  C9  UNL     1      17.445  22.936   4.269  1.00  0.00     0.202 C 
ENDROOT
BRANCH  12  13
HETATM   13  C10 UNL     1      17.782  23.926   5.324  1.00  0.00     0.242 C 
HETATM   14  O4  UNL     1      18.989  24.167   5.552  1.00  0.00    -0.271 OA
HETATM   15  N3  UNL     1      16.755  24.563   6.034  1.00  0.00    -0.359 N 
ATOM     16  H3  UNL     1      15.799  24.305   5.786  1.00  0.00     0.162 HD
BRANCH  15  17
HETATM   17  C11 UNL     1      16.911  25.545   7.079  1.00  0.00     0.126 C 
BRANCH  17  18
HETATM   18  C12 UNL     1      15.857  26.608   6.922  1.00  0.00    -0.005 C 
HETATM   19  C13 UNL     1      16.231  27.732   7.894  1.00  0.00     0.011 C 
HETATM   20  C14 UNL     1      15.838  27.167   5.509  1.00  0.00     0.011 C 
ENDBRANCH  17  18
ENDBRANCH  15  17
ENDBRANCH  12  13
BRANCH   9  21
HETATM   21  C7  UNL     1      15.474  23.586   0.945  1.00  0.00     0.281 C 
HETATM   22 BR1  UNL     1      16.671  23.206  -0.529  1.00  0.00    -0.051 Br
BRANCH  21  23
HETATM   23  O3  UNL     1      14.393  24.344   0.532  1.00  0.00    -0.375 OA
ATOM     24  H3  UNL     1      14.244  24.340  -0.406  1.00  0.00     0.211 HD
ENDBRANCH  21  23
ENDBRANCH   9  21
TORSDOF 5
ENDMDL
MODEL 5
REMARK VINA RESULT: -6.026651184      2.290      3.197
REMARK  5 active torsions:
REMARK  status: ('A' for Active; 'I' for Inactive)
REMARK       I    between atoms: C2_2  and  N1_4 
REMARK       I    between atoms: N2_8  and  C6_9 
REMARK    1  A    between atoms: C6_9  and  C7_11 
REMARK    2  A    between atoms: C7_11  and  O3_12 
REMARK    3  A    between atoms: C9_16  and  C10_17 
REMARK       I    between atoms: C10_17  and  N3_19 
REMARK    4  A    between atoms: N3_19  and  C11_21 
REMARK    5  A    between atoms: C11_21  and  C12_22 
ROOT
HETATM    1  C1  UNL     1      15.070  22.069   2.025  1.00  0.00     0.117 C 
HETATM    2  C2  UNL     1      15.880  23.328   1.925  1.00  0.00     0.216 C 
HETATM    3  O1  UNL     1      15.791  23.974   0.838  1.00  0.00    -0.274 OA
HETATM    4  N1  UNL     1      16.672  23.726   2.995  1.00  0.00    -0.336 N 
HETATM    5  C3  UNL     1      17.507  24.918   3.039  1.00  0.00     0.135 C 
HETATM    6  C4  UNL     1      18.652  24.531   3.963  1.00  0.00     0.047 A 
HETATM    7  C5  UNL     1      19.636  23.713   3.217  1.00  0.00     0.134 A 
HETATM    8  N2  UNL     1      19.289  22.552   4.030  1.00  0.00    -0.341 N 
HETATM    9  C6  UNL     1      19.851  21.247   4.049  1.00  0.00     0.259 C 
HETATM   10  O2  UNL     1      20.802  21.010   3.227  1.00  0.00    -0.269 OA
HETATM   11  C8  UNL     1      18.258  23.295   4.683  1.00  0.00     0.126 A 
HETATM   12  C9  UNL     1      16.834  23.054   4.267  1.00  0.00     0.202 C 
ENDROOT
BRANCH  12  13
HETATM   13  C10 UNL     1      15.969  23.742   5.259  1.00  0.00     0.242 C 
HETATM   14  O4  UNL     1      14.737  23.788   5.045  1.00  0.00    -0.271 OA
HETATM   15  N3  UNL     1      16.541  24.317   6.402  1.00  0.00    -0.359 N 
ATOM     16  H3  UNL     1      17.554  24.236   6.496  1.00  0.00     0.162 HD
BRANCH  15  17
HETATM   17  C11 UNL     1      15.847  25.012   7.457  1.00  0.00     0.126 C 
BRANCH  17  18
HETATM   18  C12 UNL     1      16.313  26.442   7.500  1.00  0.00    -0.005 C 
HETATM   19  C13 UNL     1      15.758  27.113   6.238  1.00  0.00     0.011 C 
HETATM   20  C14 UNL     1      15.770  27.168   8.720  1.00  0.00     0.011 C 
ENDBRANCH  17  18
ENDBRANCH  15  17
ENDBRANCH  12  13
BRANCH   9  21
HETATM   21  C7  UNL     1      19.406  20.177   4.948  1.00  0.00     0.281 C 
HETATM   22 BR1  UNL     1      17.909  19.192   4.214  1.00  0.00    -0.051 Br
BRANCH  21  23
HETATM   23  O3  UNL     1      20.413  19.324   5.366  1.00  0.00    -0.375 OA
ATOM     24  H3  UNL     1      21.276  19.542   5.036  1.00  0.00     0.211 HD
ENDBRANCH  21  23
ENDBRANCH   9  21
TORSDOF 5
ENDMDL
