MODEL 1
REMARK VINA RESULT: -8.432667204      0.000      0.000
REMARK  10 active torsions:
REMARK  status: ('A' for Active; 'I' for Inactive)
REMARK    1  A    between atoms: C3_3  and  C4_4 
REMARK    2  A    between atoms: C4_4  and  O2_6 
REMARK    3  A    between atoms: O2_6  and  C5_7 
REMARK    4  A    between atoms: C9_11  and  C10_12 
REMARK    5  A    between atoms: C10_12  and  C11_13 
REMARK    6  A    between atoms: C12_14  and  O3_15 
REMARK    7  A    between atoms: C16_22  and  O4_23 
REMARK    8  A    between atoms: O4_23  and  C17_24 
REMARK    9  A    between atoms: N2_28  and  C21_29 
REMARK   10  A    between atoms: C23_31  and  O5_32 
ROOT
HETATM    1  C1  UNL     1     -56.401  96.443  22.048  1.00  0.00     0.029 C 
HETATM    2  C2  UNL     1     -55.517  97.380  21.767  1.00  0.00     0.022 A 
HETATM    3  C3  UNL     1     -54.166  97.153  21.851  1.00  0.00     0.061 A 
HETATM    4  C7  UNL     1     -53.222  98.145  21.552  1.00  0.00    -0.018 A 
HETATM    5  C8  UNL     1     -51.773  97.806  21.676  1.00  0.00     0.052 C 
HETATM    6  C9  UNL     1     -53.700  99.383  21.163  1.00  0.00     0.044 A 
HETATM    7  N2  UNL     1     -55.056  99.595  21.086  1.00  0.00    -0.327 N 
HETATM    8  C23 UNL     1     -55.942  98.621  21.378  1.00  0.00     0.153 A 
ENDROOT
BRANCH   6   9
HETATM    9  C10 UNL     1     -52.921 100.364  20.855  1.00  0.00     0.047 C 
BRANCH   9  10
HETATM   10  C11 UNL     1     -51.909 100.620  19.882  1.00  0.00     0.029 A 
HETATM   11  C12 UNL     1     -51.860 100.333  18.537  1.00  0.00     0.151 A 
HETATM   12  N1  UNL     1     -50.679 100.700  18.016  1.00  0.00    -0.336 N 
HETATM   13  C13 UNL     1     -49.902 101.241  18.989  1.00  0.00     0.045 A 
ATOM     14  H1  UNL     1     -50.406 100.590  17.039  1.00  0.00     0.168 HD
HETATM   15  C14 UNL     1     -48.622 101.767  18.996  1.00  0.00     0.033 A 
HETATM   16  C20 UNL     1     -50.653 101.194  20.143  1.00  0.00     0.008 A 
HETATM   17  C15 UNL     1     -48.120 102.248  20.205  1.00  0.00     0.039 A 
HETATM   18  C16 UNL     1     -48.844 102.216  21.370  1.00  0.00     0.069 A 
HETATM   19  C19 UNL     1     -50.138 101.674  21.325  1.00  0.00     0.051 A 
BRANCH  11  20
HETATM   20  O3  UNL     1     -52.864  99.743  17.756  1.00  0.00    -0.345 OA
ATOM     21  H3  UNL     1     -53.469 100.180  17.169  1.00  0.00     0.219 HD
ENDBRANCH  11  20
BRANCH  18  22
HETATM   22  O4  UNL     1     -48.421 102.666  22.589  1.00  0.00    -0.351 OA
BRANCH  22  23
HETATM   23  C17 UNL     1     -47.429 102.040  23.361  1.00  0.00     0.171 C 
HETATM   24  C18 UNL     1     -47.937 101.160  24.452  1.00  0.00     0.034 C 
ENDBRANCH  22  23
ENDBRANCH  18  22
ENDBRANCH   9  10
ENDBRANCH   6   9
BRANCH   7  25
HETATM   25  C21 UNL     1     -55.603 100.883  20.714  1.00  0.00     0.127 C 
HETATM   26  C22 UNL     1     -55.852 101.027  19.233  1.00  0.00     0.027 C 
ENDBRANCH   7  25
BRANCH   3  27
HETATM   27  C4  UNL     1     -53.655  95.837  22.268  1.00  0.00     0.294 C 
HETATM   28  O1  UNL     1     -53.262  94.998  21.388  1.00  0.00    -0.259 OA
BRANCH  27  29
HETATM   29  O2  UNL     1     -53.574  95.444  23.586  1.00  0.00    -0.318 OA
BRANCH  29  30
HETATM   30  C5  UNL     1     -52.359  94.959  24.139  1.00  0.00     0.174 C 
HETATM   31  C6  UNL     1     -51.620  96.037  24.868  1.00  0.00     0.034 C 
ENDBRANCH  29  30
ENDBRANCH  27  29
ENDBRANCH   3  27
BRANCH   8  32
HETATM   32  O5  UNL     1     -57.323  98.878  21.286  1.00  0.00    -0.345 OA
ATOM     33  H5  UNL     1     -57.832  98.974  22.081  1.00  0.00     0.219 HD
ENDBRANCH   8  32
TORSDOF 10
ENDMDL
MODEL 2
REMARK VINA RESULT: -8.391347080      2.223      7.031
REMARK  10 active torsions:
REMARK  status: ('A' for Active; 'I' for Inactive)
REMARK    1  A    between atoms: C3_3  and  C4_4 
REMARK    2  A    between atoms: C4_4  and  O2_6 
REMARK    3  A    between atoms: O2_6  and  C5_7 
REMARK    4  A    between atoms: C9_11  and  C10_12 
REMARK    5  A    between atoms: C10_12  and  C11_13 
REMARK    6  A    between atoms: C12_14  and  O3_15 
REMARK    7  A    between atoms: C16_22  and  O4_23 
REMARK    8  A    between atoms: O4_23  and  C17_24 
REMARK    9  A    between atoms: N2_28  and  C21_29 
REMARK   10  A    between atoms: C23_31  and  O5_32 
ROOT
HETATM    1  C1  UNL     1     -47.171  99.998  24.261  1.00  0.00     0.029 C 
HETATM    2  C2  UNL     1     -48.235 100.245  23.522  1.00  0.00     0.022 A 
HETATM    3  C3  UNL     1     -48.323 101.357  22.721  1.00  0.00     0.061 A 
HETATM    4  C7  UNL     1     -49.451 101.623  21.933  1.00  0.00    -0.018 A 
HETATM    5  C8  UNL     1     -49.456 102.861  21.097  1.00  0.00     0.052 C 
HETATM    6  C9  UNL     1     -50.493 100.716  21.986  1.00  0.00     0.044 A 
HETATM    7  N2  UNL     1     -50.391  99.608  22.794  1.00  0.00    -0.327 N 
HETATM    8  C23 UNL     1     -49.292  99.376  23.541  1.00  0.00     0.153 A 
ENDROOT
BRANCH   6   9
HETATM    9  C10 UNL     1     -51.573 100.857  21.295  1.00  0.00     0.047 C 
BRANCH   9  10
HETATM   10  C11 UNL     1     -52.047 100.440  20.014  1.00  0.00     0.029 A 
HETATM   11  C12 UNL     1     -51.495 100.577  18.761  1.00  0.00     0.151 A 
HETATM   12  N1  UNL     1     -52.322 100.089  17.822  1.00  0.00    -0.336 N 
HETATM   13  C13 UNL     1     -53.447  99.613  18.413  1.00  0.00     0.045 A 
ATOM     14  H1  UNL     1     -52.133 100.078  16.820  1.00  0.00     0.168 HD
HETATM   15  C14 UNL     1     -54.596  99.019  17.919  1.00  0.00     0.033 A 
HETATM   16  C20 UNL     1     -53.287  99.827  19.764  1.00  0.00     0.008 A 
HETATM   17  C15 UNL     1     -55.581  98.643  18.833  1.00  0.00     0.039 A 
HETATM   18  C16 UNL     1     -55.449  98.841  20.184  1.00  0.00     0.069 A 
HETATM   19  C19 UNL     1     -54.271  99.448  20.647  1.00  0.00     0.051 A 
BRANCH  11  20
HETATM   20  O3  UNL     1     -50.251 101.136  18.437  1.00  0.00    -0.345 OA
ATOM     21  H3  UNL     1     -49.952 101.418  17.581  1.00  0.00     0.219 HD
ENDBRANCH  11  20
BRANCH  18  22
HETATM   22  O4  UNL     1     -56.367  98.503  21.137  1.00  0.00    -0.351 OA
BRANCH  22  23
HETATM   23  C17 UNL     1     -56.125  97.595  22.180  1.00  0.00     0.171 C 
HETATM   24  C18 UNL     1     -55.855  96.193  21.749  1.00  0.00     0.034 C 
ENDBRANCH  22  23
ENDBRANCH  18  22
ENDBRANCH   9  10
ENDBRANCH   6   9
BRANCH   7  25
HETATM   25  C21 UNL     1     -51.469  98.648  22.905  1.00  0.00     0.127 C 
HETATM   26  C22 UNL     1     -51.283  97.429  22.035  1.00  0.00     0.027 C 
ENDBRANCH   7  25
BRANCH   3  27
HETATM   27  C4  UNL     1     -47.216 102.325  22.667  1.00  0.00     0.294 C 
HETATM   28  O1  UNL     1     -47.148 103.265  23.529  1.00  0.00    -0.259 OA
BRANCH  27  29
HETATM   29  O2  UNL     1     -46.219 102.277  21.715  1.00  0.00    -0.318 OA
BRANCH  29  30
HETATM   30  C5  UNL     1     -46.078 101.161  20.848  1.00  0.00     0.174 C 
HETATM   31  C6  UNL     1     -44.783 100.448  21.080  1.00  0.00     0.034 C 
ENDBRANCH  29  30
ENDBRANCH  27  29
ENDBRANCH   3  27
BRANCH   8  32
HETATM   32  O5  UNL     1     -49.226  98.229  24.354  1.00  0.00    -0.345 OA
ATOM     33  H5  UNL     1     -49.787  98.169  25.118  1.00  0.00     0.219 HD
ENDBRANCH   8  32
TORSDOF 10
ENDMDL
MODEL 3
REMARK VINA RESULT: -8.383998213      0.864      1.362
REMARK  10 active torsions:
REMARK  status: ('A' for Active; 'I' for Inactive)
REMARK    1  A    between atoms: C3_3  and  C4_4 
REMARK    2  A    between atoms: C4_4  and  O2_6 
REMARK    3  A    between atoms: O2_6  and  C5_7 
REMARK    4  A    between atoms: C9_11  and  C10_12 
REMARK    5  A    between atoms: C10_12  and  C11_13 
REMARK    6  A    between atoms: C12_14  and  O3_15 
REMARK    7  A    between atoms: C16_22  and  O4_23 
REMARK    8  A    between atoms: O4_23  and  C17_24 
REMARK    9  A    between atoms: N2_28  and  C21_29 
REMARK   10  A    between atoms: C23_31  and  O5_32 
ROOT
HETATM    1  C1  UNL     1     -56.348  96.912  22.172  1.00  0.00     0.029 C 
HETATM    2  C2  UNL     1     -55.435  97.807  21.848  1.00  0.00     0.022 A 
HETATM    3  C3  UNL     1     -54.112  97.648  22.177  1.00  0.00     0.061 A 
HETATM    4  C7  UNL     1     -53.137  98.595  21.833  1.00  0.00    -0.018 A 
HETATM    5  C8  UNL     1     -51.723  98.337  22.238  1.00  0.00     0.052 C 
HETATM    6  C9  UNL     1     -53.555  99.716  21.141  1.00  0.00     0.044 A 
HETATM    7  N2  UNL     1     -54.885  99.863  20.821  1.00  0.00    -0.327 N 
HETATM    8  C23 UNL     1     -55.801  98.934  21.163  1.00  0.00     0.153 A 
ENDROOT
BRANCH   6   9
HETATM    9  C10 UNL     1     -52.743 100.645  20.766  1.00  0.00     0.047 C 
BRANCH   9  10
HETATM   10  C11 UNL     1     -51.630 100.755  19.879  1.00  0.00     0.029 A 
HETATM   11  C12 UNL     1     -51.489 100.385  18.561  1.00  0.00     0.151 A 
HETATM   12  N1  UNL     1     -50.238 100.618  18.134  1.00  0.00    -0.336 N 
HETATM   13  C13 UNL     1     -49.505 101.149  19.145  1.00  0.00     0.045 A 
ATOM     14  H1  UNL     1     -49.891 100.426  17.193  1.00  0.00     0.168 HD
HETATM   15  C14 UNL     1     -48.188 101.564  19.243  1.00  0.00     0.033 A 
HETATM   16  C20 UNL     1     -50.356 101.236  20.226  1.00  0.00     0.008 A 
HETATM   17  C15 UNL     1     -47.754 102.073  20.468  1.00  0.00     0.039 A 
HETATM   18  C16 UNL     1     -48.577 102.173  21.560  1.00  0.00     0.069 A 
HETATM   19  C19 UNL     1     -49.905 101.741  21.423  1.00  0.00     0.051 A 
BRANCH  11  20
HETATM   20  O3  UNL     1     -52.469  99.835  17.723  1.00  0.00    -0.345 OA
ATOM     21  H3  UNL     1     -52.444  98.995  17.281  1.00  0.00     0.219 HD
ENDBRANCH  11  20
BRANCH  18  22
HETATM   22  O4  UNL     1     -48.224 102.658  22.787  1.00  0.00    -0.351 OA
BRANCH  22  23
HETATM   23  C17 UNL     1     -47.364 101.999  23.680  1.00  0.00     0.171 C 
HETATM   24  C18 UNL     1     -48.041 101.140  24.694  1.00  0.00     0.034 C 
ENDBRANCH  22  23
ENDBRANCH  18  22
ENDBRANCH   9  10
ENDBRANCH   6   9
BRANCH   7  25
HETATM   25  C21 UNL     1     -55.373 101.034  20.125  1.00  0.00     0.127 C 
HETATM   26  C22 UNL     1     -55.558 100.822  18.642  1.00  0.00     0.027 C 
ENDBRANCH   7  25
BRANCH   3  27
HETATM   27  C4  UNL     1     -53.666  96.456  22.916  1.00  0.00     0.294 C 
HETATM   28  O1  UNL     1     -53.352  96.553  24.151  1.00  0.00    -0.259 OA
BRANCH  27  29
HETATM   29  O2  UNL     1     -53.564  95.207  22.342  1.00  0.00    -0.318 OA
BRANCH  29  30
HETATM   30  C5  UNL     1     -52.724  94.976  21.220  1.00  0.00     0.174 C 
HETATM   31  C6  UNL     1     -53.523  94.729  19.980  1.00  0.00     0.034 C 
ENDBRANCH  29  30
ENDBRANCH  27  29
ENDBRANCH   3  27
BRANCH   8  32
HETATM   32  O5  UNL     1     -57.152  99.120  20.816  1.00  0.00    -0.345 OA
ATOM     33  H5  UNL     1     -57.429  98.956  19.923  1.00  0.00     0.219 HD
ENDBRANCH   8  32
TORSDOF 10
ENDMDL
MODEL 4
REMARK VINA RESULT: -8.211897549      2.586      5.109
REMARK  10 active torsions:
REMARK  status: ('A' for Active; 'I' for Inactive)
REMARK    1  A    between atoms: C3_3  and  C4_4 
REMARK    2  A    between atoms: C4_4  and  O2_6 
REMARK    3  A    between atoms: O2_6  and  C5_7 
REMARK    4  A    between atoms: C9_11  and  C10_12 
REMARK    5  A    between atoms: C10_12  and  C11_13 
REMARK    6  A    between atoms: C12_14  and  O3_15 
REMARK    7  A    between atoms: C16_22  and  O4_23 
REMARK    8  A    between atoms: O4_23  and  C17_24 
REMARK    9  A    between atoms: N2_28  and  C21_29 
REMARK   10  A    between atoms: C23_31  and  O5_32 
ROOT
HETATM    1  C1  UNL     1     -53.794 100.895  19.053  1.00  0.00     0.029 C 
HETATM    2  C2  UNL     1     -52.498 100.667  19.138  1.00  0.00     0.022 A 
HETATM    3  C3  UNL     1     -51.997  99.515  19.692  1.00  0.00     0.061 A 
HETATM    4  C7  UNL     1     -50.620  99.268  19.782  1.00  0.00    -0.018 A 
HETATM    5  C8  UNL     1     -50.169  97.988  20.405  1.00  0.00     0.052 C 
HETATM    6  C9  UNL     1     -49.765 100.236  19.289  1.00  0.00     0.044 A 
HETATM    7  N2  UNL     1     -50.283 101.385  18.739  1.00  0.00    -0.327 N 
HETATM    8  C23 UNL     1     -51.613 101.596  18.663  1.00  0.00     0.153 A 
ENDROOT
BRANCH   6   9
HETATM    9  C10 UNL     1     -48.482 100.108  19.312  1.00  0.00     0.047 C 
BRANCH   9  10
HETATM   10  C11 UNL     1     -47.411 100.538  20.152  1.00  0.00     0.029 A 
HETATM   11  C12 UNL     1     -46.272 101.254  19.865  1.00  0.00     0.151 A 
HETATM   12  N1  UNL     1     -45.502 101.381  20.957  1.00  0.00    -0.336 N 
HETATM   13  C13 UNL     1     -46.097 100.758  22.006  1.00  0.00     0.045 A 
ATOM     14  H1  UNL     1     -44.607 101.870  20.994  1.00  0.00     0.168 HD
HETATM   15  C14 UNL     1     -45.740 100.588  23.332  1.00  0.00     0.033 A 
HETATM   16  C20 UNL     1     -47.275 100.235  21.518  1.00  0.00     0.008 A 
HETATM   17  C15 UNL     1     -46.611  99.873  24.156  1.00  0.00     0.039 A 
HETATM   18  C16 UNL     1     -47.790  99.341  23.700  1.00  0.00     0.069 A 
HETATM   19  C19 UNL     1     -48.117  99.533  22.349  1.00  0.00     0.051 A 
BRANCH  11  20
HETATM   20  O3  UNL     1     -45.902 101.803  18.629  1.00  0.00    -0.345 OA
ATOM     21  H3  UNL     1     -46.467 101.982  17.886  1.00  0.00     0.219 HD
ENDBRANCH  11  20
BRANCH  18  22
HETATM   22  O4  UNL     1     -48.689  98.631  24.443  1.00  0.00    -0.351 OA
BRANCH  22  23
HETATM   23  C17 UNL     1     -50.048  98.491  24.117  1.00  0.00     0.171 C 
HETATM   24  C18 UNL     1     -50.766  97.406  24.847  1.00  0.00     0.034 C 
ENDBRANCH  22  23
ENDBRANCH  18  22
ENDBRANCH   9  10
ENDBRANCH   6   9
BRANCH   7  25
HETATM   25  C21 UNL     1     -49.426 102.439  18.239  1.00  0.00     0.127 C 
HETATM   26  C22 UNL     1     -49.204 103.557  19.228  1.00  0.00     0.027 C 
ENDBRANCH   7  25
BRANCH   3  27
HETATM   27  C4  UNL     1     -52.906  98.486  20.220  1.00  0.00     0.294 C 
HETATM   28  O1  UNL     1     -53.287  98.537  21.439  1.00  0.00    -0.259 OA
BRANCH  27  29
HETATM   29  O2  UNL     1     -53.384  97.441  19.459  1.00  0.00    -0.318 OA
BRANCH  29  30
HETATM   30  C5  UNL     1     -54.747  97.048  19.516  1.00  0.00     0.174 C 
HETATM   31  C6  UNL     1     -54.890  95.628  19.964  1.00  0.00     0.034 C 
ENDBRANCH  29  30
ENDBRANCH  27  29
ENDBRANCH   3  27
BRANCH   8  32
HETATM   32  O5  UNL     1     -52.103 102.785  18.092  1.00  0.00    -0.345 OA
ATOM     33  H5  UNL     1     -51.527 103.537  18.017  1.00  0.00     0.219 HD
ENDBRANCH   8  32
TORSDOF 10
ENDMDL
MODEL 5
REMARK VINA RESULT: -8.181537445      2.376      6.898
REMARK  10 active torsions:
REMARK  status: ('A' for Active; 'I' for Inactive)
REMARK    1  A    between atoms: C3_3  and  C4_4 
REMARK    2  A    between atoms: C4_4  and  O2_6 
REMARK    3  A    between atoms: O2_6  and  C5_7 
REMARK    4  A    between atoms: C9_11  and  C10_12 
REMARK    5  A    between atoms: C10_12  and  C11_13 
REMARK    6  A    between atoms: C12_14  and  O3_15 
REMARK    7  A    between atoms: C16_22  and  O4_23 
REMARK    8  A    between atoms: O4_23  and  C17_24 
REMARK    9  A    between atoms: N2_28  and  C21_29 
REMARK   10  A    between atoms: C23_31  and  O5_32 
ROOT
HETATM    1  C1  UNL     1     -48.034  99.306  23.907  1.00  0.00     0.029 C 
HETATM    2  C2  UNL     1     -49.142  99.601  23.256  1.00  0.00     0.022 A 
HETATM    3  C3  UNL     1     -49.246 100.718  22.465  1.00  0.00     0.061 A 
HETATM    4  C7  UNL     1     -50.421 101.035  21.770  1.00  0.00    -0.018 A 
HETATM    5  C8  UNL     1     -50.440 102.274  20.936  1.00  0.00     0.052 C 
HETATM    6  C9  UNL     1     -51.495 100.175  21.909  1.00  0.00     0.044 A 
HETATM    7  N2  UNL     1     -51.376  99.061  22.707  1.00  0.00    -0.327 N 
HETATM    8  C23 UNL     1     -50.232  98.779  23.362  1.00  0.00     0.153 A 
ENDROOT
BRANCH   6   9
HETATM    9  C10 UNL     1     -52.620 100.364  21.308  1.00  0.00     0.047 C 
BRANCH   9  10
HETATM   10  C11 UNL     1     -53.173 100.073  20.024  1.00  0.00     0.029 A 
HETATM   11  C12 UNL     1     -52.567  99.886  18.803  1.00  0.00     0.151 A 
HETATM   12  N1  UNL     1     -53.484  99.693  17.842  1.00  0.00    -0.336 N 
HETATM   13  C13 UNL     1     -54.727  99.744  18.385  1.00  0.00     0.045 A 
ATOM     14  H1  UNL     1     -53.279  99.532  16.855  1.00  0.00     0.168 HD
HETATM   15  C14 UNL     1     -55.998  99.613  17.853  1.00  0.00     0.033 A 
HETATM   16  C20 UNL     1     -54.544  99.978  19.730  1.00  0.00     0.008 A 
HETATM   17  C15 UNL     1     -57.084  99.725  18.722  1.00  0.00     0.039 A 
HETATM   18  C16 UNL     1     -56.934  99.958  20.065  1.00  0.00     0.069 A 
HETATM   19  C19 UNL     1     -55.630 100.085  20.568  1.00  0.00     0.051 A 
BRANCH  11  20
HETATM   20  O3  UNL     1     -51.192  99.884  18.528  1.00  0.00    -0.345 OA
ATOM     21  H3  UNL     1     -50.510 100.349  18.999  1.00  0.00     0.219 HD
ENDBRANCH  11  20
BRANCH  18  22
HETATM   22  O4  UNL     1     -57.945 100.080  20.975  1.00  0.00    -0.351 OA
BRANCH  22  23
HETATM   23  C17 UNL     1     -57.795 100.643  22.252  1.00  0.00     0.171 C 
HETATM   24  C18 UNL     1     -59.062 101.081  22.905  1.00  0.00     0.034 C 
ENDBRANCH  22  23
ENDBRANCH  18  22
ENDBRANCH   9  10
ENDBRANCH   6   9
BRANCH   7  25
HETATM   25  C21 UNL     1     -52.483  98.150  22.906  1.00  0.00     0.127 C 
HETATM   26  C22 UNL     1     -53.401  98.553  24.034  1.00  0.00     0.027 C 
ENDBRANCH   7  25
BRANCH   3  27
HETATM   27  C4  UNL     1     -48.105 101.636  22.319  1.00  0.00     0.294 C 
HETATM   28  O1  UNL     1     -47.966 102.614  23.130  1.00  0.00    -0.259 OA
BRANCH  27  29
HETATM   29  O2  UNL     1     -47.151 101.502  21.333  1.00  0.00    -0.318 OA
BRANCH  29  30
HETATM   30  C5  UNL     1     -45.780 101.317  21.653  1.00  0.00     0.174 C 
HETATM   31  C6  UNL     1     -45.296  99.966  21.230  1.00  0.00     0.034 C 
ENDBRANCH  29  30
ENDBRANCH  27  29
ENDBRANCH   3  27
BRANCH   8  32
HETATM   32  O5  UNL     1     -50.151  97.629  24.169  1.00  0.00    -0.345 OA
ATOM     33  H5  UNL     1     -50.654  97.589  24.973  1.00  0.00     0.219 HD
ENDBRANCH   8  32
TORSDOF 10
ENDMDL
