MODEL 1
REMARK VINA RESULT: -9.095919703      0.000      0.000
REMARK  8 active torsions:
REMARK  status: ('A' for Active; 'I' for Inactive)
REMARK    1  A    between atoms: C2_2  and  C3_3 
REMARK    2  A    between atoms: C4_6  and  N2_7 
REMARK    3  A    between atoms: N2_7  and  C5_9 
REMARK    4  A    between atoms: C5_9  and  C6_10 
REMARK    5  A    between atoms: C6_10  and  N3_11 
REMARK    6  A    between atoms: C17_25  and  C18_26 
REMARK    7  A    between atoms: C19_27  and  C20_28 
REMARK    8  A    between atoms: C23_31  and  N6_32 
ROOT
HETATM    1  C3  UNL     1     -50.414 101.685  19.282  1.00  0.00     0.047 A 
HETATM    2  N1  UNL     1     -51.590 101.935  18.714  1.00  0.00    -0.194 N 
ATOM      3  H1  UNL     1     -51.615 102.574  17.921  1.00  0.00     0.184 HD
HETATM    4  C4  UNL     1     -52.755 101.391  19.131  1.00  0.00     0.678 A 
HETATM    5  N4  UNL     1     -52.698 100.558  20.173  1.00  0.00    -0.190 N 
ATOM      6  H4  UNL     1     -53.570 100.141  20.497  1.00  0.00     0.184 HD
HETATM    7  C9  UNL     1     -51.544 100.228  20.835  1.00  0.00     0.080 A 
HETATM    8  C10 UNL     1     -51.610  99.270  21.907  1.00  0.00    -0.007 A 
HETATM    9  C11 UNL     1     -50.837  99.169  23.009  1.00  0.00     0.015 A 
HETATM   10  C12 UNL     1     -50.990  98.103  23.882  1.00  0.00     0.023 A 
HETATM   11  C13 UNL     1     -51.926  97.121  23.667  1.00  0.00     0.044 A 
HETATM   12  C14 UNL     1     -52.112  96.006  24.551  1.00  0.00     0.099 C 
HETATM   13  N5  UNL     1     -52.241  95.094  25.271  1.00  0.00    -0.191 NA
HETATM   14  C15 UNL     1     -52.734  97.200  22.548  1.00  0.00     0.023 A 
HETATM   15  C16 UNL     1     -52.569  98.247  21.702  1.00  0.00     0.015 A 
HETATM   16  C17 UNL     1     -50.412 100.797  20.377  1.00  0.00     0.069 A 
ENDROOT
BRANCH  16  17
HETATM   17  C18 UNL     1     -49.128 100.463  20.913  1.00  0.00    -0.057 C 
HETATM   18  C19 UNL     1     -48.019 100.222  21.389  1.00  0.00    -0.060 C 
BRANCH  18  19
HETATM   19  C20 UNL     1     -46.729  99.960  21.957  1.00  0.00     0.033 A 
HETATM   20  C21 UNL     1     -45.797  99.192  21.292  1.00  0.00     0.026 A 
HETATM   21  C22 UNL     1     -44.560  98.937  21.828  1.00  0.00     0.049 A 
HETATM   22  C23 UNL     1     -44.236  99.456  23.057  1.00  0.00     0.098 A 
HETATM   23  N7  UNL     1     -45.135 100.200  23.707  1.00  0.00    -0.351 N 
HETATM   24  C24 UNL     1     -46.343 100.453  23.189  1.00  0.00     0.110 A 
ATOM     25  H7  UNL     1     -44.895 100.586  24.620  1.00  0.00     0.166 HD
BRANCH  22  26
HETATM   26  N6  UNL     1     -43.050  99.221  23.589  1.00  0.00    -0.385 N 
ATOM     27  H62 UNL     1     -42.203  99.574  23.144  1.00  0.00     0.157 HD
ATOM     28  H61 UNL     1     -42.970  98.683  24.452  1.00  0.00     0.157 HD
ENDBRANCH  22  26
ENDBRANCH  18  19
ENDBRANCH  16  17
BRANCH   4  29
HETATM   29  N2  UNL     1     -53.852 101.689  18.519  1.00  0.00    -0.224 N 
ATOM     30  H2  UNL     1     -53.764 102.294  17.702  1.00  0.00     0.177 HD
BRANCH  29  31
HETATM   31  C5  UNL     1     -55.163 101.274  18.855  1.00  0.00     0.168 C 
BRANCH  31  32
HETATM   32  C6  UNL     1     -55.705 100.114  18.084  1.00  0.00     0.291 C 
BRANCH  32  33
HETATM   33  N3  UNL     1     -55.893  98.906  18.849  1.00  0.00     0.081 N 
HETATM   34  C7  UNL     1     -54.759  97.993  18.640  1.00  0.00     0.309 C 
HETATM   35  C8  UNL     1     -55.904  99.170  20.281  1.00  0.00     0.309 C 
ENDBRANCH  32  33
ENDBRANCH  31  32
ENDBRANCH  29  31
ENDBRANCH   4  29
BRANCH   1  36
HETATM   36  C2  UNL     1     -49.137 102.273  18.840  1.00  0.00     0.055 C 
HETATM   37  C1  UNL     1     -49.218 103.764  19.086  1.00  0.00     0.011 C 
ENDBRANCH   1  36
TORSDOF 8
ENDMDL
MODEL 2
REMARK VINA RESULT: -8.996343543      1.405      1.721
REMARK  8 active torsions:
REMARK  status: ('A' for Active; 'I' for Inactive)
REMARK    1  A    between atoms: C2_2  and  C3_3 
REMARK    2  A    between atoms: C4_6  and  N2_7 
REMARK    3  A    between atoms: N2_7  and  C5_9 
REMARK    4  A    between atoms: C5_9  and  C6_10 
REMARK    5  A    between atoms: C6_10  and  N3_11 
REMARK    6  A    between atoms: C17_25  and  C18_26 
REMARK    7  A    between atoms: C19_27  and  C20_28 
REMARK    8  A    between atoms: C23_31  and  N6_32 
ROOT
HETATM    1  C3  UNL     1     -51.246 101.292  20.462  1.00  0.00     0.047 A 
HETATM    2  N1  UNL     1     -52.495 101.440  20.029  1.00  0.00    -0.194 N 
ATOM      3  H1  UNL     1     -52.674 102.138  19.308  1.00  0.00     0.184 HD
HETATM    4  C4  UNL     1     -53.539 100.716  20.489  1.00  0.00     0.678 A 
HETATM    5  N4  UNL     1     -53.280  99.809  21.433  1.00  0.00    -0.190 N 
ATOM      6  H4  UNL     1     -54.060  99.257  21.790  1.00  0.00     0.184 HD
HETATM    7  C9  UNL     1     -52.035  99.572  21.955  1.00  0.00     0.080 A 
HETATM    8  C10 UNL     1     -51.880  98.522  22.928  1.00  0.00    -0.007 A 
HETATM    9  C11 UNL     1     -50.995  98.423  23.942  1.00  0.00     0.015 A 
HETATM   10  C12 UNL     1     -50.933  97.274  24.714  1.00  0.00     0.023 A 
HETATM   11  C13 UNL     1     -51.761  96.203  24.485  1.00  0.00     0.044 A 
HETATM   12  C14 UNL     1     -51.725  95.000  25.266  1.00  0.00     0.099 C 
HETATM   13  N5  UNL     1     -51.673  94.019  25.900  1.00  0.00    -0.191 NA
HETATM   14  C15 UNL     1     -52.680  96.277  23.455  1.00  0.00     0.023 A 
HETATM   15  C16 UNL     1     -52.727  97.407  22.707  1.00  0.00     0.015 A 
HETATM   16  C17 UNL     1     -51.030 100.319  21.459  1.00  0.00     0.069 A 
ENDROOT
BRANCH  16  17
HETATM   17  C18 UNL     1     -49.669 100.106  21.845  1.00  0.00    -0.057 C 
HETATM   18  C19 UNL     1     -48.484  99.949  22.140  1.00  0.00    -0.060 C 
BRANCH  18  19
HETATM   19  C20 UNL     1     -47.098  99.787  22.470  1.00  0.00     0.033 A 
HETATM   20  C21 UNL     1     -46.206  99.251  21.565  1.00  0.00     0.026 A 
HETATM   21  C22 UNL     1     -44.878  99.092  21.873  1.00  0.00     0.049 A 
HETATM   22  C23 UNL     1     -44.421  99.473  23.110  1.00  0.00     0.098 A 
HETATM   23  N7  UNL     1     -45.281  99.991  23.991  1.00  0.00    -0.351 N 
HETATM   24  C24 UNL     1     -46.576 100.150  23.696  1.00  0.00     0.110 A 
ATOM     25  H7  UNL     1     -44.942 100.274  24.910  1.00  0.00     0.166 HD
BRANCH  22  26
HETATM   26  N6  UNL     1     -43.145  99.327  23.423  1.00  0.00    -0.385 N 
ATOM     27  H62 UNL     1     -42.431  99.307  22.695  1.00  0.00     0.157 HD
ATOM     28  H61 UNL     1     -42.863  99.233  24.399  1.00  0.00     0.157 HD
ENDBRANCH  22  26
ENDBRANCH  18  19
ENDBRANCH  16  17
BRANCH   4  29
HETATM   29  N2  UNL     1     -54.719 100.925  20.009  1.00  0.00    -0.224 N 
ATOM     30  H2  UNL     1     -54.796 100.949  18.992  1.00  0.00     0.177 HD
BRANCH  29  31
HETATM   31  C5  UNL     1     -55.918 101.126  20.735  1.00  0.00     0.168 C 
BRANCH  31  32
HETATM   32  C6  UNL     1     -56.845  99.957  20.813  1.00  0.00     0.291 C 
BRANCH  32  33
HETATM   33  N3  UNL     1     -57.095  99.463  22.144  1.00  0.00     0.081 N 
HETATM   34  C7  UNL     1     -56.391  98.189  22.353  1.00  0.00     0.309 C 
HETATM   35  C8  UNL     1     -56.562 100.359  23.161  1.00  0.00     0.309 C 
ENDBRANCH  32  33
ENDBRANCH  31  32
ENDBRANCH  29  31
ENDBRANCH   4  29
BRANCH   1  36
HETATM   36  C2  UNL     1     -50.098 102.076  19.971  1.00  0.00     0.055 C 
HETATM   37  C1  UNL     1     -50.457 102.585  18.592  1.00  0.00     0.011 C 
ENDBRANCH   1  36
TORSDOF 8
ENDMDL
MODEL 3
REMARK VINA RESULT: -8.973264067      2.917      6.062
REMARK  8 active torsions:
REMARK  status: ('A' for Active; 'I' for Inactive)
REMARK    1  A    between atoms: C2_2  and  C3_3 
REMARK    2  A    between atoms: C4_6  and  N2_7 
REMARK    3  A    between atoms: N2_7  and  C5_9 
REMARK    4  A    between atoms: C5_9  and  C6_10 
REMARK    5  A    between atoms: C6_10  and  N3_11 
REMARK    6  A    between atoms: C17_25  and  C18_26 
REMARK    7  A    between atoms: C19_27  and  C20_28 
REMARK    8  A    between atoms: C23_31  and  N6_32 
ROOT
HETATM    1  C3  UNL     1     -50.579  99.913  19.299  1.00  0.00     0.047 A 
HETATM    2  N1  UNL     1     -50.543 100.749  18.265  1.00  0.00    -0.194 N 
ATOM      3  H1  UNL     1     -49.704 100.762  17.687  1.00  0.00     0.184 HD
HETATM    4  C4  UNL     1     -51.556 101.582  17.938  1.00  0.00     0.678 A 
HETATM    5  N4  UNL     1     -52.644 101.547  18.710  1.00  0.00    -0.190 N 
ATOM      6  H4  UNL     1     -53.416 102.171  18.475  1.00  0.00     0.184 HD
HETATM    7  C9  UNL     1     -52.791 100.729  19.800  1.00  0.00     0.080 A 
HETATM    8  C10 UNL     1     -54.040 100.745  20.516  1.00  0.00    -0.007 A 
HETATM    9  C11 UNL     1     -54.278 100.506  21.822  1.00  0.00     0.015 A 
HETATM   10  C12 UNL     1     -55.576 100.465  22.307  1.00  0.00     0.023 A 
HETATM   11  C13 UNL     1     -56.660 100.668  21.489  1.00  0.00     0.044 A 
HETATM   12  C14 UNL     1     -58.016 100.634  21.958  1.00  0.00     0.099 C 
HETATM   13  N5  UNL     1     -59.116 100.588  22.351  1.00  0.00    -0.191 NA
HETATM   14  C15 UNL     1     -56.447 100.918  20.146  1.00  0.00     0.023 A 
HETATM   15  C16 UNL     1     -55.171 100.952  19.687  1.00  0.00     0.015 A 
HETATM   16  C17 UNL     1     -51.753  99.918  20.079  1.00  0.00     0.069 A 
ENDROOT
BRANCH  16  17
HETATM   17  C18 UNL     1     -51.814  98.946  21.128  1.00  0.00    -0.057 C 
HETATM   18  C19 UNL     1     -51.827  98.129  22.049  1.00  0.00    -0.060 C 
BRANCH  18  19
HETATM   19  C20 UNL     1     -51.827  97.193  23.135  1.00  0.00     0.033 A 
HETATM   20  C21 UNL     1     -52.459  95.972  23.025  1.00  0.00     0.026 A 
HETATM   21  C22 UNL     1     -52.464  95.070  24.060  1.00  0.00     0.049 A 
HETATM   22  C23 UNL     1     -51.828  95.385  25.235  1.00  0.00     0.098 A 
HETATM   23  N7  UNL     1     -51.216  96.567  25.347  1.00  0.00    -0.351 N 
HETATM   24  C24 UNL     1     -51.206  97.450  24.342  1.00  0.00     0.110 A 
ATOM     25  H7  UNL     1     -50.743  96.802  26.220  1.00  0.00     0.166 HD
BRANCH  22  26
HETATM   26  N6  UNL     1     -51.823  94.529  26.241  1.00  0.00    -0.385 N 
ATOM     27  H62 UNL     1     -52.232  93.600  26.134  1.00  0.00     0.157 HD
ATOM     28  H61 UNL     1     -51.409  94.788  27.136  1.00  0.00     0.157 HD
ENDBRANCH  22  26
ENDBRANCH  18  19
ENDBRANCH  16  17
BRANCH   4  29
HETATM   29  N2  UNL     1     -51.435 102.359  16.915  1.00  0.00    -0.224 N 
ATOM     30  H2  UNL     1     -51.955 102.091  16.079  1.00  0.00     0.177 HD
BRANCH  29  31
HETATM   31  C5  UNL     1     -50.662 103.542  16.821  1.00  0.00     0.168 C 
BRANCH  31  32
HETATM   32  C6  UNL     1     -50.356 104.233  18.110  1.00  0.00     0.291 C 
BRANCH  32  33
HETATM   33  N3  UNL     1     -48.954 104.353  18.421  1.00  0.00     0.081 N 
HETATM   34  C7  UNL     1     -48.604 103.463  19.538  1.00  0.00     0.309 C 
HETATM   35  C8  UNL     1     -48.116 103.916  17.313  1.00  0.00     0.309 C 
ENDBRANCH  32  33
ENDBRANCH  31  32
ENDBRANCH  29  31
ENDBRANCH   4  29
BRANCH   1  36
HETATM   36  C2  UNL     1     -49.481  99.002  19.669  1.00  0.00     0.055 C 
HETATM   37  C1  UNL     1     -48.322  99.857  20.133  1.00  0.00     0.011 C 
ENDBRANCH   1  36
TORSDOF 8
ENDMDL
MODEL 4
REMARK VINA RESULT: -8.802278663      1.685      2.522
REMARK  8 active torsions:
REMARK  status: ('A' for Active; 'I' for Inactive)
REMARK    1  A    between atoms: C2_2  and  C3_3 
REMARK    2  A    between atoms: C4_6  and  N2_7 
REMARK    3  A    between atoms: N2_7  and  C5_9 
REMARK    4  A    between atoms: C5_9  and  C6_10 
REMARK    5  A    between atoms: C6_10  and  N3_11 
REMARK    6  A    between atoms: C17_25  and  C18_26 
REMARK    7  A    between atoms: C19_27  and  C20_28 
REMARK    8  A    between atoms: C23_31  and  N6_32 
ROOT
HETATM    1  C3  UNL     1     -52.224 100.217  20.101  1.00  0.00     0.047 A 
HETATM    2  N1  UNL     1     -53.445 100.117  19.585  1.00  0.00    -0.194 N 
ATOM      3  H1  UNL     1     -53.679 100.705  18.786  1.00  0.00     0.184 HD
HETATM    4  C4  UNL     1     -54.394  99.280  20.059  1.00  0.00     0.678 A 
HETATM    5  N4  UNL     1     -54.065  98.521  21.107  1.00  0.00    -0.190 N 
ATOM      6  H4  UNL     1     -54.772  97.885  21.475  1.00  0.00     0.184 HD
HETATM    7  C9  UNL     1     -52.839  98.540  21.719  1.00  0.00     0.080 A 
HETATM    8  C10 UNL     1     -52.591  97.627  22.804  1.00  0.00    -0.007 A 
HETATM    9  C11 UNL     1     -51.777  97.770  23.871  1.00  0.00     0.015 A 
HETATM   10  C12 UNL     1     -51.591  96.724  24.761  1.00  0.00     0.023 A 
HETATM   11  C13 UNL     1     -52.224  95.516  24.599  1.00  0.00     0.044 A 
HETATM   12  C14 UNL     1     -52.055  94.414  25.504  1.00  0.00     0.099 C 
HETATM   13  N5  UNL     1     -51.896  93.519  26.239  1.00  0.00    -0.191 NA
HETATM   14  C15 UNL     1     -53.066  95.341  23.518  1.00  0.00     0.023 A 
HETATM   15  C16 UNL     1     -53.235  96.373  22.654  1.00  0.00     0.015 A 
HETATM   16  C17 UNL     1     -51.930  99.390  21.204  1.00  0.00     0.069 A 
ENDROOT
BRANCH  16  17
HETATM   17  C18 UNL     1     -50.583  99.439  21.686  1.00  0.00    -0.057 C 
HETATM   18  C19 UNL     1     -49.412  99.502  22.059  1.00  0.00    -0.060 C 
BRANCH  18  19
HETATM   19  C20 UNL     1     -48.043  99.593  22.476  1.00  0.00     0.033 A 
HETATM   20  C21 UNL     1     -47.010  99.415  21.581  1.00  0.00     0.026 A 
HETATM   21  C22 UNL     1     -45.696  99.500  21.972  1.00  0.00     0.049 A 
HETATM   22  C23 UNL     1     -45.399  99.766  23.286  1.00  0.00     0.098 A 
HETATM   23  N7  UNL     1     -46.396  99.938  24.158  1.00  0.00    -0.351 N 
HETATM   24  C24 UNL     1     -47.678  99.857  23.782  1.00  0.00     0.110 A 
ATOM     25  H7  UNL     1     -46.175 100.136  25.133  1.00  0.00     0.166 HD
BRANCH  22  26
HETATM   26  N6  UNL     1     -44.141  99.851  23.680  1.00  0.00    -0.385 N 
ATOM     27  H62 UNL     1     -43.417 100.174  23.038  1.00  0.00     0.157 HD
ATOM     28  H61 UNL     1     -43.881  99.595  24.632  1.00  0.00     0.157 HD
ENDBRANCH  22  26
ENDBRANCH  18  19
ENDBRANCH  16  17
BRANCH   4  29
HETATM   29  N2  UNL     1     -55.554  99.248  19.495  1.00  0.00    -0.224 N 
ATOM     30  H2  UNL     1     -55.705  98.504  18.814  1.00  0.00     0.177 HD
BRANCH  29  31
HETATM   31  C5  UNL     1     -56.641 100.129  19.714  1.00  0.00     0.168 C 
BRANCH  31  32
HETATM   32  C6  UNL     1     -57.506  99.828  20.895  1.00  0.00     0.291 C 
BRANCH  32  33
HETATM   33  N3  UNL     1     -57.486 100.824  21.937  1.00  0.00     0.081 N 
HETATM   34  C7  UNL     1     -58.806 100.912  22.579  1.00  0.00     0.309 C 
HETATM   35  C8  UNL     1     -56.569 100.466  23.009  1.00  0.00     0.309 C 
ENDBRANCH  32  33
ENDBRANCH  31  32
ENDBRANCH  29  31
ENDBRANCH   4  29
BRANCH   1  36
HETATM   36  C2  UNL     1     -51.180 101.127  19.595  1.00  0.00     0.055 C 
HETATM   37  C1  UNL     1     -51.681 101.708  18.291  1.00  0.00     0.011 C 
ENDBRANCH   1  36
TORSDOF 8
ENDMDL
MODEL 5
REMARK VINA RESULT: -8.731107718      1.253      1.564
REMARK  8 active torsions:
REMARK  status: ('A' for Active; 'I' for Inactive)
REMARK    1  A    between atoms: C2_2  and  C3_3 
REMARK    2  A    between atoms: C4_6  and  N2_7 
REMARK    3  A    between atoms: N2_7  and  C5_9 
REMARK    4  A    between atoms: C5_9  and  C6_10 
REMARK    5  A    between atoms: C6_10  and  N3_11 
REMARK    6  A    between atoms: C17_25  and  C18_26 
REMARK    7  A    between atoms: C19_27  and  C20_28 
REMARK    8  A    between atoms: C23_31  and  N6_32 
ROOT
HETATM    1  C3  UNL     1     -51.350 101.243  19.592  1.00  0.00     0.047 A 
HETATM    2  N1  UNL     1     -52.569 101.439  19.098  1.00  0.00    -0.194 N 
ATOM      3  H1  UNL     1     -52.677 102.109  18.337  1.00  0.00     0.184 HD
HETATM    4  C4  UNL     1     -53.672 100.801  19.547  1.00  0.00     0.678 A 
HETATM    5  N4  UNL     1     -53.506  99.930  20.545  1.00  0.00    -0.190 N 
ATOM      6  H4  UNL     1     -54.330  99.442  20.894  1.00  0.00     0.184 HD
HETATM    7  C9  UNL     1     -52.299  99.649  21.131  1.00  0.00     0.080 A 
HETATM    8  C10 UNL     1     -52.245  98.643  22.159  1.00  0.00    -0.007 A 
HETATM    9  C11 UNL     1     -51.409  98.545  23.214  1.00  0.00     0.015 A 
HETATM   10  C12 UNL     1     -51.447  97.434  24.043  1.00  0.00     0.023 A 
HETATM   11  C13 UNL     1     -52.327  96.403  23.830  1.00  0.00     0.044 A 
HETATM   12  C14 UNL     1     -52.394  95.240  24.670  1.00  0.00     0.099 C 
HETATM   13  N5  UNL     1     -52.426  94.292  25.352  1.00  0.00    -0.191 NA
HETATM   14  C15 UNL     1     -53.198  96.477  22.759  1.00  0.00     0.023 A 
HETATM   15  C16 UNL     1     -53.147  97.568  21.955  1.00  0.00     0.015 A 
HETATM   16  C17 UNL     1     -51.232 100.311  20.643  1.00  0.00     0.069 A 
ENDROOT
BRANCH  16  17
HETATM   17  C18 UNL     1     -49.902 100.040  21.097  1.00  0.00    -0.057 C 
HETATM   18  C19 UNL     1     -48.750  99.854  21.489  1.00  0.00    -0.060 C 
BRANCH  18  19
HETATM   19  C20 UNL     1     -47.407  99.661  21.952  1.00  0.00     0.033 A 
HETATM   20  C21 UNL     1     -47.049  99.961  23.249  1.00  0.00     0.026 A 
HETATM   21  C22 UNL     1     -45.765  99.779  23.701  1.00  0.00     0.049 A 
HETATM   22  C23 UNL     1     -44.811  99.288  22.845  1.00  0.00     0.098 A 
HETATM   23  N7  UNL     1     -45.152  98.997  21.587  1.00  0.00    -0.351 N 
HETATM   24  C24 UNL     1     -46.402  99.171  21.141  1.00  0.00     0.110 A 
ATOM     25  H7  UNL     1     -44.444  98.633  20.951  1.00  0.00     0.166 HD
BRANCH  22  26
HETATM   26  N6  UNL     1     -43.571  99.107  23.263  1.00  0.00    -0.385 N 
ATOM     27  H62 UNL     1     -42.809  98.996  22.594  1.00  0.00     0.157 HD
ATOM     28  H61 UNL     1     -43.363  99.078  24.261  1.00  0.00     0.157 HD
ENDBRANCH  22  26
ENDBRANCH  18  19
ENDBRANCH  16  17
BRANCH   4  29
HETATM   29  N2  UNL     1     -54.817 101.053  19.007  1.00  0.00    -0.224 N 
ATOM     30  H2  UNL     1     -54.823 101.174  17.995  1.00  0.00     0.177 HD
BRANCH  29  31
HETATM   31  C5  UNL     1     -56.066 101.180  19.662  1.00  0.00     0.168 C 
BRANCH  31  32
HETATM   32  C6  UNL     1     -56.996 100.016  19.540  1.00  0.00     0.291 C 
BRANCH  32  33
HETATM   33  N3  UNL     1     -57.546  99.541  20.785  1.00  0.00     0.081 N 
HETATM   34  C7  UNL     1     -56.699  98.474  21.339  1.00  0.00     0.309 C 
HETATM   35  C8  UNL     1     -57.556 100.582  21.804  1.00  0.00     0.309 C 
ENDBRANCH  32  33
ENDBRANCH  31  32
ENDBRANCH  29  31
ENDBRANCH   4  29
BRANCH   1  36
HETATM   36  C2  UNL     1     -50.139 101.934  19.114  1.00  0.00     0.055 C 
HETATM   37  C1  UNL     1     -50.586 103.022  18.163  1.00  0.00     0.011 C 
ENDBRANCH   1  36
TORSDOF 8
ENDMDL
