MODEL 1
REMARK VINA RESULT: -6.879163182      0.000      0.000
REMARK  5 active torsions:
REMARK  status: ('A' for Active; 'I' for Inactive)
REMARK    1  A    between atoms: C2_2  and  C3_3 
REMARK    2  A    between atoms: C3_3  and  C6_6 
REMARK    3  A    between atoms: C6_6  and  O1_7 
REMARK    4  A    between atoms: O1_7  and  C7_8 
REMARK    5  A    between atoms: C18_24  and  O2_25 
ROOT
HETATM    1  C7  UNL     1       2.930  15.684  11.584  1.00  0.00     0.103 A 
HETATM    2  C8  UNL     1       3.975  15.177  10.835  1.00  0.00     0.053 A 
HETATM    3  C9  UNL     1       4.166  13.803  10.738  1.00  0.00    -0.006 A 
HETATM    4  C10 UNL     1       5.211  13.297   9.988  1.00  0.00     0.032 A 
HETATM    5  C11 UNL     1       5.362  11.909   9.922  1.00  0.00     0.049 A 
HETATM    6  C12 UNL     1       6.275  11.098   9.279  1.00  0.00     0.152 A 
HETATM    7  F1  UNL     1       7.293  11.562   8.519  1.00  0.00    -0.203 F 
HETATM    8  C13 UNL     1       5.928   9.799   9.575  1.00  0.00     0.046 A 
HETATM    9  C14 UNL     1       6.640   8.580   9.092  1.00  0.00     0.071 C 
HETATM   10  N1  UNL     1       4.846   9.771  10.369  1.00  0.00    -0.343 N 
ATOM     11  H1  UNL     1       4.379   8.943  10.739  1.00  0.00     0.167 HD
HETATM   12  C15 UNL     1       4.501  11.058  10.580  1.00  0.00     0.119 A 
HETATM   13  N2  UNL     1       3.501  11.592  11.296  1.00  0.00    -0.341 N 
ATOM     14  H2  UNL     1       2.859  10.970  11.786  1.00  0.00     0.167 HD
HETATM   15  C16 UNL     1       3.317  12.930  11.389  1.00  0.00     0.046 A 
HETATM   16  C17 UNL     1       2.265  13.427  12.144  1.00  0.00     0.069 A 
HETATM   17  C18 UNL     1       2.094  14.797  12.225  1.00  0.00     0.101 A 
ENDROOT
BRANCH   1  18
HETATM   18  O1  UNL     1       2.689  17.037  11.717  1.00  0.00    -0.344 OA
BRANCH  18  19
HETATM   19  C6  UNL     1       3.526  18.024  11.146  1.00  0.00     0.214 C 
BRANCH  19  20
HETATM   20  C3  UNL     1       2.713  19.112  10.518  1.00  0.00    -0.039 C 
HETATM   21  C4  UNL     1       1.594  18.820   9.886  1.00  0.00    -0.022 C 
HETATM   22  C5  UNL     1       0.793  19.883   9.269  1.00  0.00     0.036 C 
BRANCH  20  23
HETATM   23  C2  UNL     1       3.133  20.505  10.591  1.00  0.00    -0.001 C 
HETATM   24  C1  UNL     1       3.199  21.177  11.717  1.00  0.00     0.012 C 
ENDBRANCH  20  23
ENDBRANCH  19  20
ENDBRANCH  18  19
ENDBRANCH   1  18
BRANCH  17  25
HETATM   25  O2  UNL     1       1.033  15.315  12.987  1.00  0.00    -0.358 OA
ATOM     26  H2  UNL     1       0.239  14.798  13.064  1.00  0.00     0.217 HD
ENDBRANCH  17  25
TORSDOF 5
ENDMDL
MODEL 2
REMARK VINA RESULT: -6.701865416      3.253      7.484
REMARK  5 active torsions:
REMARK  status: ('A' for Active; 'I' for Inactive)
REMARK    1  A    between atoms: C2_2  and  C3_3 
REMARK    2  A    between atoms: C3_3  and  C6_6 
REMARK    3  A    between atoms: C6_6  and  O1_7 
REMARK    4  A    between atoms: O1_7  and  C7_8 
REMARK    5  A    between atoms: C18_24  and  O2_25 
ROOT
HETATM    1  C7  UNL     1       5.653  13.391  11.245  1.00  0.00     0.103 A 
HETATM    2  C8  UNL     1       5.892  14.728  10.984  1.00  0.00     0.053 A 
HETATM    3  C9  UNL     1       4.830  15.617  10.852  1.00  0.00    -0.006 A 
HETATM    4  C10 UNL     1       5.070  16.952  10.592  1.00  0.00     0.032 A 
HETATM    5  C11 UNL     1       3.970  17.807  10.467  1.00  0.00     0.049 A 
HETATM    6  C12 UNL     1       3.861  19.159  10.215  1.00  0.00     0.152 A 
HETATM    7  F1  UNL     1       4.920  19.979  10.025  1.00  0.00    -0.203 F 
HETATM    8  C13 UNL     1       2.516  19.452  10.205  1.00  0.00     0.046 A 
HETATM    9  C14 UNL     1       1.925  20.803   9.969  1.00  0.00     0.071 C 
HETATM   10  N1  UNL     1       1.792  18.347  10.437  1.00  0.00    -0.343 N 
ATOM     11  H1  UNL     1       0.775  18.279  10.484  1.00  0.00     0.167 HD
HETATM   12  C15 UNL     1       2.679  17.343  10.598  1.00  0.00     0.119 A 
HETATM   13  N2  UNL     1       2.493  16.039  10.850  1.00  0.00    -0.341 N 
ATOM     14  H2  UNL     1       1.541  15.687  10.949  1.00  0.00     0.167 HD
HETATM   15  C16 UNL     1       3.527  15.176  10.978  1.00  0.00     0.046 A 
HETATM   16  C17 UNL     1       3.276  13.838  11.239  1.00  0.00     0.069 A 
HETATM   17  C18 UNL     1       4.347  12.971  11.368  1.00  0.00     0.101 A 
ENDROOT
BRANCH   1  18
HETATM   18  O1  UNL     1       6.665  12.462  11.387  1.00  0.00    -0.344 OA
BRANCH  18  19
HETATM   19  C6  UNL     1       7.556  12.133  10.339  1.00  0.00     0.214 C 
BRANCH  19  20
HETATM   20  C3  UNL     1       6.883  11.270   9.320  1.00  0.00    -0.039 C 
HETATM   21  C4  UNL     1       6.573  10.023   9.611  1.00  0.00    -0.022 C 
HETATM   22  C5  UNL     1       5.912   9.172   8.614  1.00  0.00     0.036 C 
BRANCH  20  23
HETATM   23  C2  UNL     1       6.556  11.781   7.996  1.00  0.00    -0.001 C 
HETATM   24  C1  UNL     1       6.618  13.056   7.683  1.00  0.00     0.012 C 
ENDBRANCH  20  23
ENDBRANCH  19  20
ENDBRANCH  18  19
ENDBRANCH   1  18
BRANCH  17  25
HETATM   25  O2  UNL     1       4.107  11.612  11.631  1.00  0.00    -0.358 OA
ATOM     26  H2  UNL     1       3.288  11.234  11.333  1.00  0.00     0.217 HD
ENDBRANCH  17  25
TORSDOF 5
ENDMDL
MODEL 3
REMARK VINA RESULT: -6.698657047      3.487      8.207
REMARK  5 active torsions:
REMARK  status: ('A' for Active; 'I' for Inactive)
REMARK    1  A    between atoms: C2_2  and  C3_3 
REMARK    2  A    between atoms: C3_3  and  C6_6 
REMARK    3  A    between atoms: C6_6  and  O1_7 
REMARK    4  A    between atoms: O1_7  and  C7_8 
REMARK    5  A    between atoms: C18_24  and  O2_25 
ROOT
HETATM    1  C7  UNL     1       6.594  11.716  11.690  1.00  0.00     0.103 A 
HETATM    2  C8  UNL     1       5.731  12.305  10.784  1.00  0.00     0.053 A 
HETATM    3  C9  UNL     1       5.281  13.605  10.989  1.00  0.00    -0.006 A 
HETATM    4  C10 UNL     1       4.420  14.193  10.082  1.00  0.00     0.032 A 
HETATM    5  C11 UNL     1       3.993  15.501  10.332  1.00  0.00     0.049 A 
HETATM    6  C12 UNL     1       3.156  16.358   9.647  1.00  0.00     0.152 A 
HETATM    7  F1  UNL     1       2.536  16.040   8.487  1.00  0.00    -0.203 F 
HETATM    8  C13 UNL     1       3.107  17.527  10.373  1.00  0.00     0.046 A 
HETATM    9  C14 UNL     1       2.319  18.740  10.008  1.00  0.00     0.071 C 
HETATM   10  N1  UNL     1       3.872  17.431  11.471  1.00  0.00    -0.343 N 
ATOM     11  H1  UNL     1       4.016  18.148  12.182  1.00  0.00     0.167 HD
HETATM   12  C15 UNL     1       4.413  16.195  11.446  1.00  0.00     0.119 A 
HETATM   13  N2  UNL     1       5.249  15.586  12.299  1.00  0.00    -0.341 N 
ATOM     14  H2  UNL     1       5.565  16.092  13.126  1.00  0.00     0.167 HD
HETATM   15  C16 UNL     1       5.687  14.320  12.098  1.00  0.00     0.046 A 
HETATM   16  C17 UNL     1       6.551  13.740  13.014  1.00  0.00     0.069 A 
HETATM   17  C18 UNL     1       6.987  12.446  12.789  1.00  0.00     0.101 A 
ENDROOT
BRANCH   1  18
HETATM   18  O1  UNL     1       7.075  10.430  11.540  1.00  0.00    -0.344 OA
BRANCH  18  19
HETATM   19  C6  UNL     1       6.231   9.297  11.478  1.00  0.00     0.214 C 
BRANCH  19  20
HETATM   20  C3  UNL     1       6.557   8.457  10.285  1.00  0.00    -0.039 C 
HETATM   21  C4  UNL     1       6.319   8.911   9.071  1.00  0.00    -0.022 C 
HETATM   22  C5  UNL     1       6.637   8.089   7.898  1.00  0.00     0.036 C 
BRANCH  20  23
HETATM   23  C2  UNL     1       7.141   7.130  10.434  1.00  0.00    -0.001 C 
HETATM   24  C1  UNL     1       8.013   6.831  11.370  1.00  0.00     0.012 C 
ENDBRANCH  20  23
ENDBRANCH  19  20
ENDBRANCH  18  19
ENDBRANCH   1  18
BRANCH  17  25
HETATM   25  O2  UNL     1       7.863  11.845  13.709  1.00  0.00    -0.358 OA
ATOM     26  H2  UNL     1       8.756  12.166  13.757  1.00  0.00     0.217 HD
ENDBRANCH  17  25
TORSDOF 5
ENDMDL
MODEL 4
REMARK VINA RESULT: -6.690161741      5.244      7.123
REMARK  5 active torsions:
REMARK  status: ('A' for Active; 'I' for Inactive)
REMARK    1  A    between atoms: C2_2  and  C3_3 
REMARK    2  A    between atoms: C3_3  and  C6_6 
REMARK    3  A    between atoms: C6_6  and  O1_7 
REMARK    4  A    between atoms: O1_7  and  C7_8 
REMARK    5  A    between atoms: C18_24  and  O2_25 
ROOT
HETATM    1  C7  UNL     1       5.347  13.059   8.493  1.00  0.00     0.103 A 
HETATM    2  C8  UNL     1       4.629  12.550   7.426  1.00  0.00     0.053 A 
HETATM    3  C9  UNL     1       4.141  13.402   6.441  1.00  0.00    -0.006 A 
HETATM    4  C10 UNL     1       3.424  12.893   5.374  1.00  0.00     0.032 A 
HETATM    5  C11 UNL     1       2.954  13.788   4.410  1.00  0.00     0.049 A 
HETATM    6  C12 UNL     1       2.225  13.616   3.251  1.00  0.00     0.152 A 
HETATM    7  F1  UNL     1       1.793  12.415   2.803  1.00  0.00    -0.203 F 
HETATM    8  C13 UNL     1       2.054  14.867   2.701  1.00  0.00     0.046 A 
HETATM    9  C14 UNL     1       1.322  15.164   1.435  1.00  0.00     0.071 C 
HETATM   10  N1  UNL     1       2.643  15.800   3.464  1.00  0.00    -0.343 N 
ATOM     11  H1  UNL     1       2.670  16.805   3.291  1.00  0.00     0.167 HD
HETATM   12  C15 UNL     1       3.192  15.142   4.506  1.00  0.00     0.119 A 
HETATM   13  N2  UNL     1       3.892  15.592   5.558  1.00  0.00    -0.341 N 
ATOM     14  H2  UNL     1       4.073  16.593   5.637  1.00  0.00     0.167 HD
HETATM   15  C16 UNL     1       4.366  14.762   6.516  1.00  0.00     0.046 A 
HETATM   16  C17 UNL     1       5.084  15.283   7.581  1.00  0.00     0.069 A 
HETATM   17  C18 UNL     1       5.561  14.417   8.550  1.00  0.00     0.101 A 
ENDROOT
BRANCH   1  18
HETATM   18  O1  UNL     1       5.856  12.264   9.501  1.00  0.00    -0.344 OA
BRANCH  18  19
HETATM   19  C6  UNL     1       5.059  11.747  10.548  1.00  0.00     0.214 C 
BRANCH  19  20
HETATM   20  C3  UNL     1       5.117  12.637  11.749  1.00  0.00    -0.039 C 
HETATM   21  C4  UNL     1       6.241  12.762  12.425  1.00  0.00    -0.022 C 
HETATM   22  C5  UNL     1       6.303  13.634  13.604  1.00  0.00     0.036 C 
BRANCH  20  23
HETATM   23  C2  UNL     1       3.946  13.381  12.194  1.00  0.00    -0.001 C 
HETATM   24  C1  UNL     1       3.364  14.307  11.467  1.00  0.00     0.012 C 
ENDBRANCH  20  23
ENDBRANCH  19  20
ENDBRANCH  18  19
ENDBRANCH   1  18
BRANCH  17  25
HETATM   25  O2  UNL     1       6.290  14.931   9.636  1.00  0.00    -0.358 OA
ATOM     26  H2  UNL     1       5.886  14.917  10.496  1.00  0.00     0.217 HD
ENDBRANCH  17  25
TORSDOF 5
ENDMDL
MODEL 5
REMARK VINA RESULT: -6.682457920      1.371      1.497
REMARK  5 active torsions:
REMARK  status: ('A' for Active; 'I' for Inactive)
REMARK    1  A    between atoms: C2_2  and  C3_3 
REMARK    2  A    between atoms: C3_3  and  C6_6 
REMARK    3  A    between atoms: C6_6  and  O1_7 
REMARK    4  A    between atoms: O1_7  and  C7_8 
REMARK    5  A    between atoms: C18_24  and  O2_25 
ROOT
HETATM    1  C7  UNL     1       3.329  15.443  11.086  1.00  0.00     0.103 A 
HETATM    2  C8  UNL     1       4.291  15.291  10.105  1.00  0.00     0.053 A 
HETATM    3  C9  UNL     1       4.677  14.019   9.694  1.00  0.00    -0.006 A 
HETATM    4  C10 UNL     1       5.638  13.868   8.712  1.00  0.00     0.032 A 
HETATM    5  C11 UNL     1       5.994  12.570   8.334  1.00  0.00     0.049 A 
HETATM    6  C12 UNL     1       6.894  12.079   7.410  1.00  0.00     0.152 A 
HETATM    7  F1  UNL     1       7.673  12.861   6.627  1.00  0.00    -0.203 F 
HETATM    8  C13 UNL     1       6.816  10.706   7.472  1.00  0.00     0.046 A 
HETATM    9  C14 UNL     1       7.615   9.755   6.646  1.00  0.00     0.071 C 
HETATM   10  N1  UNL     1       5.912  10.327   8.389  1.00  0.00    -0.343 N 
ATOM     11  H1  UNL     1       5.656   9.372   8.638  1.00  0.00     0.167 HD
HETATM   12  C15 UNL     1       5.411  11.464   8.914  1.00  0.00     0.119 A 
HETATM   13  N2  UNL     1       4.482  11.658   9.862  1.00  0.00    -0.341 N 
ATOM     14  H2  UNL     1       4.045  10.846  10.297  1.00  0.00     0.167 HD
HETATM   15  C16 UNL     1       4.107  12.896  10.261  1.00  0.00     0.046 A 
HETATM   16  C17 UNL     1       3.142  13.037  11.246  1.00  0.00     0.069 A 
HETATM   17  C18 UNL     1       2.773  14.311  11.639  1.00  0.00     0.101 A 
ENDROOT
BRANCH   1  18
HETATM   18  O1  UNL     1       2.904  16.678  11.534  1.00  0.00    -0.344 OA
BRANCH  18  19
HETATM   19  C6  UNL     1       3.673  17.855  11.382  1.00  0.00     0.214 C 
BRANCH  19  20
HETATM   20  C3  UNL     1       2.878  18.925  10.703  1.00  0.00    -0.039 C 
HETATM   21  C4  UNL     1       1.744  18.625  10.102  1.00  0.00    -0.022 C 
HETATM   22  C5  UNL     1       0.960  19.671   9.435  1.00  0.00     0.036 C 
BRANCH  20  23
HETATM   23  C2  UNL     1       3.331  20.309  10.692  1.00  0.00    -0.001 C 
HETATM   24  C1  UNL     1       3.192  21.119  11.717  1.00  0.00     0.012 C 
ENDBRANCH  20  23
ENDBRANCH  19  20
ENDBRANCH  18  19
ENDBRANCH   1  18
BRANCH  17  25
HETATM   25  O2  UNL     1       1.796  14.469  12.637  1.00  0.00    -0.358 OA
ATOM     26  H2  UNL     1       1.296  13.706  12.902  1.00  0.00     0.217 HD
ENDBRANCH  17  25
TORSDOF 5
ENDMDL
