MODEL 1
REMARK VINA RESULT: -8.165228027      0.000      0.000
REMARK  5 active torsions:
REMARK  status: ('A' for Active; 'I' for Inactive)
REMARK       I    between atoms: C2_2  and  N1_4 
REMARK    1  A    between atoms: N1_4  and  C3_6 
REMARK    2  A    between atoms: C3_6  and  C4_7 
REMARK    3  A    between atoms: C4_7  and  C5_8 
REMARK       I    between atoms: C5_8  and  N2_10 
REMARK    4  A    between atoms: N2_10  and  C6_12 
REMARK    5  A    between atoms: C6_12  and  C7_14 
ROOT
HETATM    1  C5  UNL     1      22.237  43.490  55.341  1.00  0.00     0.253 C 
HETATM    2  O2  UNL     1      23.021  42.565  55.013  1.00  0.00    -0.270 OA
HETATM    3  N2  UNL     1      21.247  43.877  54.402  1.00  0.00    -0.328 N 
ATOM      4  H2  UNL     1      20.589  44.622  54.631  1.00  0.00     0.165 HD
ENDROOT
BRANCH   1   5
HETATM    5  C4  UNL     1      22.404  44.095  56.671  1.00  0.00     0.148 C 
HETATM    6  C14 UNL     1      21.635  45.389  56.677  1.00  0.00     0.056 C 
HETATM    7  C15 UNL     1      22.614  46.525  56.716  1.00  0.00     0.106 C 
HETATM    8  C16 UNL     1      23.896  45.820  56.363  1.00  0.00     0.220 C 
HETATM    9  O3  UNL     1      24.847  46.344  55.735  1.00  0.00    -0.273 OA
HETATM   10  N3  UNL     1      23.794  44.502  56.874  1.00  0.00    -0.334 N 
HETATM   11  C17 UNL     1      24.883  43.751  57.463  1.00  0.00     0.154 C 
BRANCH   5  12
HETATM   12  C3  UNL     1      21.931  43.271  57.804  1.00  0.00     0.105 C 
BRANCH  12  13
HETATM   13  N1  UNL     1      20.641  43.405  58.343  1.00  0.00    -0.338 N 
HETATM   14  C2  UNL     1      20.077  43.068  59.555  1.00  0.00     0.217 C 
HETATM   15  C1  UNL     1      18.617  43.387  59.803  1.00  0.00     0.117 C 
HETATM   16  O1  UNL     1      20.642  42.517  60.503  1.00  0.00    -0.274 OA
ATOM     17  H1  UNL     1      19.980  43.844  57.701  1.00  0.00     0.167 HD
ENDBRANCH  12  13
ENDBRANCH   5  12
ENDBRANCH   1   5
BRANCH   3  18
HETATM   18  C6  UNL     1      21.174  43.222  53.134  1.00  0.00     0.282 C 
HETATM   19  F1  UNL     1      22.443  43.090  52.583  1.00  0.00    -0.226 F 
BRANCH  18  20
HETATM   20  C7  UNL     1      20.393  41.958  53.083  1.00  0.00     0.122 C 
HETATM   21  C8  UNL     1      18.980  42.312  53.671  1.00  0.00     0.095 C 
HETATM   22  C9  UNL     1      18.050  41.682  52.846  1.00  0.00    -0.182 C 
HETATM   23  C10 UNL     1      17.135  41.071  51.971  1.00  0.00     0.080 C 
HETATM   24  C11 UNL     1      18.022  40.465  50.823  1.00  0.00     0.017 C 
HETATM   25  C12 UNL     1      19.467  40.343  51.250  1.00  0.00     0.080 C 
HETATM   26  C13 UNL     1      20.324  41.397  51.693  1.00  0.00     0.252 C 
HETATM   27  F2  UNL     1      21.622  40.786  51.628  1.00  0.00    -0.206 F 
HETATM   28  F3  UNL     1      20.536  42.400  50.723  1.00  0.00    -0.206 F 
ENDBRANCH  18  20
ENDBRANCH   3  18
TORSDOF 5
ENDMDL
MODEL 2
REMARK VINA RESULT: -7.678595430      3.809      5.931
REMARK  5 active torsions:
REMARK  status: ('A' for Active; 'I' for Inactive)
REMARK       I    between atoms: C2_2  and  N1_4 
REMARK    1  A    between atoms: N1_4  and  C3_6 
REMARK    2  A    between atoms: C3_6  and  C4_7 
REMARK    3  A    between atoms: C4_7  and  C5_8 
REMARK       I    between atoms: C5_8  and  N2_10 
REMARK    4  A    between atoms: N2_10  and  C6_12 
REMARK    5  A    between atoms: C6_12  and  C7_14 
ROOT
HETATM    1  C5  UNL     1      24.442  43.475  53.568  1.00  0.00     0.253 C 
HETATM    2  O2  UNL     1      24.619  42.236  53.672  1.00  0.00    -0.270 OA
HETATM    3  N2  UNL     1      23.131  43.972  53.784  1.00  0.00    -0.328 N 
ATOM      4  H2  UNL     1      22.946  44.972  53.712  1.00  0.00     0.165 HD
ENDROOT
BRANCH   1   5
HETATM    5  C4  UNL     1      25.604  44.312  53.236  1.00  0.00     0.148 C 
HETATM    6  C14 UNL     1      26.828  43.440  53.333  1.00  0.00     0.056 C 
HETATM    7  C15 UNL     1      27.631  43.876  54.523  1.00  0.00     0.106 C 
HETATM    8  C16 UNL     1      26.633  44.737  55.250  1.00  0.00     0.220 C 
HETATM    9  O3  UNL     1      26.584  44.870  56.497  1.00  0.00    -0.273 OA
HETATM   10  N3  UNL     1      25.808  45.332  54.264  1.00  0.00    -0.334 N 
HETATM   11  C17 UNL     1      25.290  46.684  54.317  1.00  0.00     0.154 C 
BRANCH   5  12
HETATM   12  C3  UNL     1      25.579  44.925  51.891  1.00  0.00     0.105 C 
BRANCH  12  13
HETATM   13  N1  UNL     1      26.740  45.083  51.116  1.00  0.00    -0.338 N 
HETATM   14  C2  UNL     1      27.147  44.577  49.899  1.00  0.00     0.217 C 
HETATM   15  C1  UNL     1      28.495  44.989  49.344  1.00  0.00     0.117 C 
HETATM   16  O1  UNL     1      26.519  43.800  49.177  1.00  0.00    -0.274 OA
ATOM     17  H1  UNL     1      27.428  45.702  51.543  1.00  0.00     0.167 HD
ENDBRANCH  12  13
ENDBRANCH   5  12
ENDBRANCH   1   5
BRANCH   3  18
HETATM   18  C6  UNL     1      22.071  43.068  54.102  1.00  0.00     0.282 C 
HETATM   19  F1  UNL     1      21.828  43.069  55.470  1.00  0.00    -0.226 F 
BRANCH  18  20
HETATM   20  C7  UNL     1      20.825  43.197  53.299  1.00  0.00     0.122 C 
HETATM   21  C8  UNL     1      21.209  42.728  51.849  1.00  0.00     0.095 C 
HETATM   22  C9  UNL     1      20.154  41.930  51.410  1.00  0.00    -0.182 C 
HETATM   23  C10 UNL     1      19.095  41.096  51.011  1.00  0.00     0.080 C 
HETATM   24  C11 UNL     1      18.165  40.998  52.275  1.00  0.00     0.017 C 
HETATM   25  C12 UNL     1      18.448  42.114  53.255  1.00  0.00     0.080 C 
HETATM   26  C13 UNL     1      19.695  42.405  53.889  1.00  0.00     0.252 C 
HETATM   27  F2  UNL     1      19.304  43.308  54.935  1.00  0.00    -0.206 F 
HETATM   28  F3  UNL     1      20.171  41.359  54.708  1.00  0.00    -0.206 F 
ENDBRANCH  18  20
ENDBRANCH   3  18
TORSDOF 5
ENDMDL
MODEL 3
REMARK VINA RESULT: -7.500799666      1.253      1.696
REMARK  5 active torsions:
REMARK  status: ('A' for Active; 'I' for Inactive)
REMARK       I    between atoms: C2_2  and  N1_4 
REMARK    1  A    between atoms: N1_4  and  C3_6 
REMARK    2  A    between atoms: C3_6  and  C4_7 
REMARK    3  A    between atoms: C4_7  and  C5_8 
REMARK       I    between atoms: C5_8  and  N2_10 
REMARK    4  A    between atoms: N2_10  and  C6_12 
REMARK    5  A    between atoms: C6_12  and  C7_14 
ROOT
HETATM    1  C5  UNL     1      22.494  44.033  55.297  1.00  0.00     0.253 C 
HETATM    2  O2  UNL     1      23.461  44.308  54.543  1.00  0.00    -0.270 OA
HETATM    3  N2  UNL     1      21.365  43.403  54.715  1.00  0.00    -0.328 N 
ATOM      4  H2  UNL     1      20.561  43.160  55.293  1.00  0.00     0.165 HD
ENDROOT
BRANCH   1   5
HETATM    5  C4  UNL     1      22.610  44.381  56.720  1.00  0.00     0.148 C 
HETATM    6  C14 UNL     1      21.877  45.679  56.927  1.00  0.00     0.056 C 
HETATM    7  C15 UNL     1      22.882  46.755  57.216  1.00  0.00     0.106 C 
HETATM    8  C16 UNL     1      24.161  46.080  56.798  1.00  0.00     0.220 C 
HETATM    9  O3  UNL     1      25.155  46.676  56.317  1.00  0.00    -0.273 OA
HETATM   10  N3  UNL     1      23.999  44.697  57.055  1.00  0.00    -0.334 N 
HETATM   11  C17 UNL     1      25.038  43.814  57.546  1.00  0.00     0.154 C 
BRANCH   5  12
HETATM   12  C3  UNL     1      22.061  43.384  57.663  1.00  0.00     0.105 C 
BRANCH  12  13
HETATM   13  N1  UNL     1      20.776  43.505  58.219  1.00  0.00    -0.338 N 
HETATM   14  C2  UNL     1      20.203  43.063  59.393  1.00  0.00     0.217 C 
HETATM   15  C1  UNL     1      18.755  43.403  59.679  1.00  0.00     0.117 C 
HETATM   16  O1  UNL     1      20.751  42.399  60.276  1.00  0.00    -0.274 OA
ATOM     17  H1  UNL     1      20.130  44.029  57.629  1.00  0.00     0.167 HD
ENDBRANCH  12  13
ENDBRANCH   5  12
ENDBRANCH   1   5
BRANCH   3  18
HETATM   18  C6  UNL     1      21.356  43.109  53.316  1.00  0.00     0.282 C 
HETATM   19  F1  UNL     1      22.163  42.010  53.047  1.00  0.00    -0.226 F 
BRANCH  18  20
HETATM   20  C7  UNL     1      20.022  43.013  52.666  1.00  0.00     0.122 C 
HETATM   21  C8  UNL     1      20.306  42.553  51.190  1.00  0.00     0.095 C 
HETATM   22  C9  UNL     1      19.347  41.586  50.896  1.00  0.00    -0.182 C 
HETATM   23  C10 UNL     1      18.394  40.583  50.644  1.00  0.00     0.080 C 
HETATM   24  C11 UNL     1      17.642  40.392  52.012  1.00  0.00     0.017 C 
HETATM   25  C12 UNL     1      17.856  41.575  52.928  1.00  0.00     0.080 C 
HETATM   26  C13 UNL     1      19.106  42.080  53.402  1.00  0.00     0.252 C 
HETATM   27  F2  UNL     1      18.701  42.952  54.468  1.00  0.00    -0.206 F 
HETATM   28  F3  UNL     1      19.833  41.152  54.179  1.00  0.00    -0.206 F 
ENDBRANCH  18  20
ENDBRANCH   3  18
TORSDOF 5
ENDMDL
MODEL 4
REMARK VINA RESULT: -7.439233488      3.277      4.435
REMARK  5 active torsions:
REMARK  status: ('A' for Active; 'I' for Inactive)
REMARK       I    between atoms: C2_2  and  N1_4 
REMARK    1  A    between atoms: N1_4  and  C3_6 
REMARK    2  A    between atoms: C3_6  and  C4_7 
REMARK    3  A    between atoms: C4_7  and  C5_8 
REMARK       I    between atoms: C5_8  and  N2_10 
REMARK    4  A    between atoms: N2_10  and  C6_12 
REMARK    5  A    between atoms: C6_12  and  C7_14 
ROOT
HETATM    1  C5  UNL     1      24.603  43.691  53.540  1.00  0.00     0.253 C 
HETATM    2  O2  UNL     1      24.998  42.502  53.629  1.00  0.00    -0.270 OA
HETATM    3  N2  UNL     1      23.204  43.918  53.500  1.00  0.00    -0.328 N 
ATOM      4  H2  UNL     1      22.842  44.869  53.432  1.00  0.00     0.165 HD
ENDROOT
BRANCH   1   5
HETATM    5  C4  UNL     1      25.620  44.752  53.488  1.00  0.00     0.148 C 
HETATM    6  C14 UNL     1      25.066  45.864  52.638  1.00  0.00     0.056 C 
HETATM    7  C15 UNL     1      25.838  45.912  51.352  1.00  0.00     0.106 C 
HETATM    8  C16 UNL     1      26.553  44.587  51.390  1.00  0.00     0.220 C 
HETATM    9  O3  UNL     1      26.851  43.912  50.376  1.00  0.00    -0.273 OA
HETATM   10  N3  UNL     1      26.798  44.292  52.754  1.00  0.00    -0.334 N 
HETATM   11  C17 UNL     1      27.994  43.654  53.264  1.00  0.00     0.154 C 
BRANCH   5  12
HETATM   12  C3  UNL     1      26.009  45.320  54.796  1.00  0.00     0.105 C 
BRANCH  12  13
HETATM   13  N1  UNL     1      25.486  44.840  56.009  1.00  0.00    -0.338 N 
HETATM   14  C2  UNL     1      25.795  43.769  56.819  1.00  0.00     0.217 C 
HETATM   15  C1  UNL     1      25.010  43.563  58.098  1.00  0.00     0.117 C 
HETATM   16  O1  UNL     1      26.671  42.924  56.623  1.00  0.00    -0.274 OA
ATOM     17  H1  UNL     1      24.714  45.404  56.365  1.00  0.00     0.167 HD
ENDBRANCH  12  13
ENDBRANCH   5  12
ENDBRANCH   1   5
BRANCH   3  18
HETATM   18  C6  UNL     1      22.302  42.810  53.557  1.00  0.00     0.282 C 
HETATM   19  F1  UNL     1      22.186  42.346  54.861  1.00  0.00    -0.226 F 
BRANCH  18  20
HETATM   20  C7  UNL     1      20.982  42.995  52.896  1.00  0.00     0.122 C 
HETATM   21  C8  UNL     1      21.114  42.298  51.493  1.00  0.00     0.095 C 
HETATM   22  C9  UNL     1      19.927  41.593  51.300  1.00  0.00    -0.182 C 
HETATM   23  C10 UNL     1      18.737  40.858  51.153  1.00  0.00     0.080 C 
HETATM   24  C11 UNL     1      17.980  41.045  52.518  1.00  0.00     0.017 C 
HETATM   25  C12 UNL     1      18.514  42.231  53.287  1.00  0.00     0.080 C 
HETATM   26  C13 UNL     1      19.860  42.438  53.721  1.00  0.00     0.252 C 
HETATM   27  F2  UNL     1      19.716  43.512  54.665  1.00  0.00    -0.206 F 
HETATM   28  F3  UNL     1      20.321  41.454  54.621  1.00  0.00    -0.206 F 
ENDBRANCH  18  20
ENDBRANCH   3  18
TORSDOF 5
ENDMDL
MODEL 5
REMARK VINA RESULT: -7.210253505      3.088      6.719
REMARK  5 active torsions:
REMARK  status: ('A' for Active; 'I' for Inactive)
REMARK       I    between atoms: C2_2  and  N1_4 
REMARK    1  A    between atoms: N1_4  and  C3_6 
REMARK    2  A    between atoms: C3_6  and  C4_7 
REMARK    3  A    between atoms: C4_7  and  C5_8 
REMARK       I    between atoms: C5_8  and  N2_10 
REMARK    4  A    between atoms: N2_10  and  C6_12 
REMARK    5  A    between atoms: C6_12  and  C7_14 
ROOT
HETATM    1  C5  UNL     1      23.272  44.036  54.999  1.00  0.00     0.253 C 
HETATM    2  O2  UNL     1      23.467  42.799  54.906  1.00  0.00    -0.270 OA
HETATM    3  N2  UNL     1      24.252  44.900  54.447  1.00  0.00    -0.328 N 
ATOM      4  H2  UNL     1      24.129  45.911  54.498  1.00  0.00     0.165 HD
ENDROOT
BRANCH   1   5
HETATM    5  C4  UNL     1      22.043  44.491  55.666  1.00  0.00     0.148 C 
HETATM    6  C14 UNL     1      22.033  45.995  55.614  1.00  0.00     0.056 C 
HETATM    7  C15 UNL     1      22.247  46.522  57.002  1.00  0.00     0.106 C 
HETATM    8  C16 UNL     1      22.731  45.287  57.713  1.00  0.00     0.220 C 
HETATM    9  O3  UNL     1      23.544  45.288  58.669  1.00  0.00    -0.273 OA
HETATM   10  N3  UNL     1      22.096  44.182  57.095  1.00  0.00    -0.334 N 
HETATM   11  C17 UNL     1      21.619  43.002  57.786  1.00  0.00     0.154 C 
BRANCH   5  12
HETATM   12  C3  UNL     1      20.782  43.999  55.073  1.00  0.00     0.105 C 
BRANCH  12  13
HETATM   13  N1  UNL     1      20.734  43.393  53.806  1.00  0.00    -0.338 N 
HETATM   14  C2  UNL     1      19.782  42.644  53.146  1.00  0.00     0.217 C 
HETATM   15  C1  UNL     1      20.074  42.156  51.742  1.00  0.00     0.117 C 
HETATM   16  O1  UNL     1      18.677  42.311  53.578  1.00  0.00    -0.274 OA
ATOM     17  H1  UNL     1      21.582  43.538  53.258  1.00  0.00     0.167 HD
ENDBRANCH  12  13
ENDBRANCH   5  12
ENDBRANCH   1   5
BRANCH   3  18
HETATM   18  C6  UNL     1      25.413  44.351  53.819  1.00  0.00     0.282 C 
HETATM   19  F1  UNL     1      25.179  44.144  52.465  1.00  0.00    -0.226 F 
BRANCH  18  20
HETATM   20  C7  UNL     1      26.701  45.048  54.077  1.00  0.00     0.122 C 
HETATM   21  C8  UNL     1      26.348  46.239  55.041  1.00  0.00     0.095 C 
HETATM   22  C9  UNL     1      27.355  46.266  56.005  1.00  0.00    -0.182 C 
HETATM   23  C10 UNL     1      28.361  46.241  56.987  1.00  0.00     0.080 C 
HETATM   24  C11 UNL     1      29.220  44.969  56.648  1.00  0.00     0.017 C 
HETATM   25  C12 UNL     1      28.983  44.506  55.228  1.00  0.00     0.080 C 
HETATM   26  C13 UNL     1      27.735  44.122  54.647  1.00  0.00     0.252 C 
HETATM   27  F2  UNL     1      28.148  43.469  53.437  1.00  0.00    -0.206 F 
HETATM   28  F3  UNL     1      27.138  43.007  55.273  1.00  0.00    -0.206 F 
ENDBRANCH  18  20
ENDBRANCH   3  18
TORSDOF 5
ENDMDL
