MODEL 1
REMARK VINA RESULT: -8.317295211      0.000      0.000
REMARK  6 active torsions:
REMARK  status: ('A' for Active; 'I' for Inactive)
REMARK    1  A    between atoms: C2_2  and  C3_3 
REMARK    2  A    between atoms: C2_2  and  C4_8 
REMARK    3  A    between atoms: C2_2  and  C9_16 
REMARK    4  A    between atoms: C3_3  and  N1_4 
REMARK    5  A    between atoms: C4_8  and  C5_9 
REMARK    6  A    between atoms: C13_23  and  C14_24 
REMARK       I    between atoms: C14_24  and  N3_26 
ROOT
HETATM    1  C9  UNL     1      22.914  43.904  54.261  1.00  0.00     0.028 C 
HETATM    2  C10 UNL     1      24.102  43.051  53.742  1.00  0.00     0.017 C 
HETATM    3  C11 UNL     1      25.183  43.932  53.189  1.00  0.00     0.103 C 
HETATM    4  C12 UNL     1      25.334  45.180  53.974  1.00  0.00     0.218 C 
HETATM    5  O1  UNL     1      26.371  45.864  53.750  1.00  0.00    -0.274 OA
HETATM    6  N2  UNL     1      24.408  45.593  54.902  1.00  0.00    -0.347 N 
ATOM      7  H2  UNL     1      24.378  46.563  55.218  1.00  0.00     0.163 HD
HETATM    8  C13 UNL     1      23.433  44.571  55.442  1.00  0.00     0.181 C 
ENDROOT
BRANCH   1   9
HETATM    9  C2  UNL     1      21.633  43.219  54.098  1.00  0.00    -0.014 C 
HETATM   10  C1  UNL     1      21.607  42.014  55.042  1.00  0.00     0.017 C 
BRANCH   9  11
HETATM   11  C3  UNL     1      20.522  44.074  54.755  1.00  0.00     0.239 C 
BRANCH  11  12
HETATM   12  N1  UNL     1      19.660  43.473  55.655  1.00  0.00    -0.079 N 
ATOM     13  H13 UNL     1      18.716  43.490  55.268  1.00  0.00     0.274 HD
ATOM     14  H12 UNL     1      19.849  42.472  55.673  1.00  0.00     0.274 HD
ATOM     15  H11 UNL     1      19.629  43.819  56.615  1.00  0.00     0.274 HD
ENDBRANCH  11  12
ENDBRANCH   9  11
BRANCH   9  16
HETATM   16  C4  UNL     1      21.252  42.783  52.750  1.00  0.00     0.019 C 
BRANCH  16  17
HETATM   17  C5  UNL     1      20.424  41.598  52.532  1.00  0.00     0.032 C 
HETATM   18  C6  UNL     1      20.378  40.870  51.248  1.00  0.00     0.089 C 
HETATM   19  C7  UNL     1      18.882  40.628  51.536  1.00  0.00     0.274 C 
HETATM   20  F1  UNL     1      18.092  40.629  50.427  1.00  0.00    -0.203 F 
HETATM   21  F2  UNL     1      18.658  39.566  52.366  1.00  0.00    -0.203 F 
HETATM   22  C8  UNL     1      18.953  41.986  52.253  1.00  0.00     0.246 C 
HETATM   23  F3  UNL     1      18.150  41.972  53.348  1.00  0.00    -0.243 F 
ENDBRANCH  16  17
ENDBRANCH   9  16
ENDBRANCH   1   9
BRANCH   8  24
HETATM   24  C14 UNL     1      22.691  45.331  56.395  1.00  0.00     0.243 C 
HETATM   25  O2  UNL     1      22.289  46.509  56.123  1.00  0.00    -0.271 OA
HETATM   26  N3  UNL     1      22.353  44.888  57.669  1.00  0.00    -0.350 N 
HETATM   27  C15 UNL     1      22.755  43.598  58.156  1.00  0.00     0.126 C 
HETATM   28  C19 UNL     1      21.568  45.686  58.618  1.00  0.00     0.126 C 
HETATM   29  C16 UNL     1      22.921  43.643  59.669  1.00  0.00     0.020 C 
HETATM   30  C17 UNL     1      23.377  44.989  60.140  1.00  0.00     0.003 C 
HETATM   31  C18 UNL     1      22.493  46.114  59.708  1.00  0.00     0.020 C 
ENDBRANCH   8  24
TORSDOF 6
ENDMDL
MODEL 2
REMARK VINA RESULT: -7.247765434      2.539      5.196
REMARK  6 active torsions:
REMARK  status: ('A' for Active; 'I' for Inactive)
REMARK    1  A    between atoms: C2_2  and  C3_3 
REMARK    2  A    between atoms: C2_2  and  C4_8 
REMARK    3  A    between atoms: C2_2  and  C9_16 
REMARK    4  A    between atoms: C3_3  and  N1_4 
REMARK    5  A    between atoms: C4_8  and  C5_9 
REMARK    6  A    between atoms: C13_23  and  C14_24 
REMARK       I    between atoms: C14_24  and  N3_26 
ROOT
HETATM    1  C9  UNL     1      24.965  44.445  55.233  1.00  0.00     0.028 C 
HETATM    2  C10 UNL     1      25.404  44.990  56.619  1.00  0.00     0.017 C 
HETATM    3  C11 UNL     1      26.691  44.353  57.053  1.00  0.00     0.103 C 
HETATM    4  C12 UNL     1      27.612  44.137  55.913  1.00  0.00     0.218 C 
HETATM    5  O1  UNL     1      28.806  43.845  56.202  1.00  0.00    -0.274 OA
HETATM    6  N2  UNL     1      27.213  44.242  54.601  1.00  0.00    -0.347 N 
ATOM      7  H2  UNL     1      27.764  43.825  53.851  1.00  0.00     0.163 HD
HETATM    8  C13 UNL     1      25.936  44.993  54.302  1.00  0.00     0.181 C 
ENDROOT
BRANCH   1   9
HETATM    9  C2  UNL     1      23.511  44.395  55.099  1.00  0.00    -0.014 C 
HETATM   10  C1  UNL     1      22.948  43.568  56.258  1.00  0.00     0.017 C 
BRANCH   9  11
HETATM   11  C3  UNL     1      22.926  45.778  55.474  1.00  0.00     0.239 C 
BRANCH  11  12
HETATM   12  N1  UNL     1      21.901  45.842  56.402  1.00  0.00    -0.079 N 
ATOM     13  H13 UNL     1      21.511  46.785  56.396  1.00  0.00     0.274 HD
ATOM     14  H12 UNL     1      21.111  45.298  56.057  1.00  0.00     0.274 HD
ATOM     15  H11 UNL     1      22.091  45.570  57.367  1.00  0.00     0.274 HD
ENDBRANCH  11  12
ENDBRANCH   9  11
BRANCH   9  16
HETATM   16  C4  UNL     1      22.952  43.897  53.837  1.00  0.00     0.019 C 
BRANCH  16  17
HETATM   17  C5  UNL     1      21.851  42.937  53.811  1.00  0.00     0.032 C 
HETATM   18  C6  UNL     1      21.439  42.213  52.591  1.00  0.00     0.089 C 
HETATM   19  C7  UNL     1      19.991  42.338  53.108  1.00  0.00     0.274 C 
HETATM   20  F1  UNL     1      19.060  42.501  52.127  1.00  0.00    -0.203 F 
HETATM   21  F2  UNL     1      19.660  41.377  54.021  1.00  0.00    -0.203 F 
HETATM   22  C8  UNL     1      20.483  43.655  53.727  1.00  0.00     0.246 C 
HETATM   23  F3  UNL     1      19.879  43.855  54.926  1.00  0.00    -0.243 F 
ENDBRANCH  16  17
ENDBRANCH   9  16
ENDBRANCH   1   9
BRANCH   8  24
HETATM   24  C14 UNL     1      25.881  44.946  52.876  1.00  0.00     0.243 C 
HETATM   25  O2  UNL     1      25.936  43.834  52.256  1.00  0.00    -0.271 OA
HETATM   26  N3  UNL     1      25.777  46.061  52.052  1.00  0.00    -0.350 N 
HETATM   27  C15 UNL     1      25.739  47.396  52.580  1.00  0.00     0.126 C 
HETATM   28  C19 UNL     1      25.699  45.977  50.589  1.00  0.00     0.126 C 
HETATM   29  C16 UNL     1      26.340  48.368  51.575  1.00  0.00     0.020 C 
HETATM   30  C17 UNL     1      27.421  47.731  50.760  1.00  0.00     0.003 C 
HETATM   31  C18 UNL     1      26.991  46.491  50.046  1.00  0.00     0.020 C 
ENDBRANCH   8  24
TORSDOF 6
ENDMDL
MODEL 3
REMARK VINA RESULT: -7.247504442      2.291      4.897
REMARK  6 active torsions:
REMARK  status: ('A' for Active; 'I' for Inactive)
REMARK    1  A    between atoms: C2_2  and  C3_3 
REMARK    2  A    between atoms: C2_2  and  C4_8 
REMARK    3  A    between atoms: C2_2  and  C9_16 
REMARK    4  A    between atoms: C3_3  and  N1_4 
REMARK    5  A    between atoms: C4_8  and  C5_9 
REMARK    6  A    between atoms: C13_23  and  C14_24 
REMARK       I    between atoms: C14_24  and  N3_26 
ROOT
HETATM    1  C9  UNL     1      24.110  43.915  56.097  1.00  0.00     0.028 C 
HETATM    2  C10 UNL     1      24.504  44.517  57.472  1.00  0.00     0.017 C 
HETATM    3  C11 UNL     1      25.756  43.872  57.991  1.00  0.00     0.103 C 
HETATM    4  C12 UNL     1      26.718  43.579  56.903  1.00  0.00     0.218 C 
HETATM    5  O1  UNL     1      27.891  43.274  57.257  1.00  0.00    -0.274 OA
HETATM    6  N2  UNL     1      26.376  43.628  55.572  1.00  0.00    -0.347 N 
ATOM      7  H2  UNL     1      26.947  43.161  54.867  1.00  0.00     0.163 HD
HETATM    8  C13 UNL     1      25.132  44.393  55.183  1.00  0.00     0.181 C 
ENDROOT
BRANCH   1   9
HETATM    9  C2  UNL     1      22.661  43.891  55.903  1.00  0.00    -0.014 C 
HETATM   10  C1  UNL     1      21.992  43.825  57.279  1.00  0.00     0.017 C 
BRANCH   9  11
HETATM   11  C3  UNL     1      22.193  45.301  55.467  1.00  0.00     0.239 C 
BRANCH  11  12
HETATM   12  N1  UNL     1      21.722  46.177  56.429  1.00  0.00    -0.079 N 
ATOM     13  H13 UNL     1      22.200  47.072  56.321  1.00  0.00     0.274 HD
ATOM     14  H12 UNL     1      20.764  46.435  56.198  1.00  0.00     0.274 HD
ATOM     15  H11 UNL     1      21.760  45.900  57.410  1.00  0.00     0.274 HD
ENDBRANCH  11  12
ENDBRANCH   9  11
BRANCH   9  16
HETATM   16  C4  UNL     1      22.098  42.845  55.043  1.00  0.00     0.019 C 
BRANCH  16  17
HETATM   17  C5  UNL     1      21.013  43.125  54.105  1.00  0.00     0.032 C 
HETATM   18  C6  UNL     1      19.592  43.178  54.506  1.00  0.00     0.089 C 
HETATM   19  C7  UNL     1      19.269  42.551  53.133  1.00  0.00     0.274 C 
HETATM   20  F1  UNL     1      18.213  41.693  53.146  1.00  0.00    -0.203 F 
HETATM   21  F2  UNL     1      19.216  43.469  52.122  1.00  0.00    -0.203 F 
HETATM   22  C8  UNL     1      20.635  41.864  53.293  1.00  0.00     0.246 C 
HETATM   23  F3  UNL     1      21.247  41.770  52.085  1.00  0.00    -0.243 F 
ENDBRANCH  16  17
ENDBRANCH   9  16
ENDBRANCH   1   9
BRANCH   8  24
HETATM   24  C14 UNL     1      25.135  44.276  53.760  1.00  0.00     0.243 C 
HETATM   25  O2  UNL     1      24.792  43.188  53.192  1.00  0.00    -0.271 OA
HETATM   26  N3  UNL     1      25.506  45.290  52.884  1.00  0.00    -0.350 N 
HETATM   27  C15 UNL     1      25.953  46.572  53.352  1.00  0.00     0.126 C 
HETATM   28  C19 UNL     1      25.476  45.146  51.425  1.00  0.00     0.126 C 
HETATM   29  C16 UNL     1      26.930  47.177  52.354  1.00  0.00     0.020 C 
HETATM   30  C17 UNL     1      27.726  46.126  51.645  1.00  0.00     0.003 C 
HETATM   31  C18 UNL     1      26.891  45.096  50.955  1.00  0.00     0.020 C 
ENDBRANCH   8  24
TORSDOF 6
ENDMDL
MODEL 4
REMARK VINA RESULT: -7.053580012      3.614      6.442
REMARK  6 active torsions:
REMARK  status: ('A' for Active; 'I' for Inactive)
REMARK    1  A    between atoms: C2_2  and  C3_3 
REMARK    2  A    between atoms: C2_2  and  C4_8 
REMARK    3  A    between atoms: C2_2  and  C9_16 
REMARK    4  A    between atoms: C3_3  and  N1_4 
REMARK    5  A    between atoms: C4_8  and  C5_9 
REMARK    6  A    between atoms: C13_23  and  C14_24 
REMARK       I    between atoms: C14_24  and  N3_26 
ROOT
HETATM    1  C9  UNL     1      23.251  44.110  55.982  1.00  0.00     0.028 C 
HETATM    2  C10 UNL     1      24.226  45.184  55.432  1.00  0.00     0.017 C 
HETATM    3  C11 UNL     1      25.421  44.536  54.795  1.00  0.00     0.103 C 
HETATM    4  C12 UNL     1      25.057  43.294  54.075  1.00  0.00     0.218 C 
HETATM    5  O1  UNL     1      25.932  42.814  53.302  1.00  0.00    -0.274 OA
HETATM    6  N2  UNL     1      23.838  42.675  54.224  1.00  0.00    -0.347 N 
ATOM      7  H2  UNL     1      23.708  41.700  53.955  1.00  0.00     0.163 HD
HETATM    8  C13 UNL     1      22.694  43.481  54.798  1.00  0.00     0.181 C 
ENDROOT
BRANCH   1   9
HETATM    9  C2  UNL     1      22.548  44.569  57.179  1.00  0.00    -0.014 C 
HETATM   10  C1  UNL     1      23.590  45.000  58.215  1.00  0.00     0.017 C 
BRANCH   9  11
HETATM   11  C3  UNL     1      21.907  45.947  56.883  1.00  0.00     0.239 C 
BRANCH  11  12
HETATM   12  N1  UNL     1      21.603  46.784  57.942  1.00  0.00    -0.079 N 
ATOM     13  H13 UNL     1      21.346  46.215  58.749  1.00  0.00     0.274 HD
ATOM     14  H12 UNL     1      22.462  47.221  58.273  1.00  0.00     0.274 HD
ATOM     15  H11 UNL     1      20.896  47.508  57.811  1.00  0.00     0.274 HD
ENDBRANCH  11  12
ENDBRANCH   9  11
BRANCH   9  16
HETATM   16  C4  UNL     1      21.592  43.653  57.811  1.00  0.00     0.019 C 
BRANCH  16  17
HETATM   17  C5  UNL     1      21.509  43.513  59.263  1.00  0.00     0.032 C 
HETATM   18  C6  UNL     1      21.404  42.206  59.944  1.00  0.00     0.089 C 
HETATM   19  C7  UNL     1      20.485  42.908  60.966  1.00  0.00     0.274 C 
HETATM   20  F1  UNL     1      19.483  42.122  61.448  1.00  0.00    -0.203 F 
HETATM   21  F2  UNL     1      21.174  43.575  61.940  1.00  0.00    -0.203 F 
HETATM   22  C8  UNL     1      20.073  43.782  59.771  1.00  0.00     0.246 C 
HETATM   23  F3  UNL     1      19.854  45.056  60.186  1.00  0.00    -0.243 F 
ENDBRANCH  16  17
ENDBRANCH   9  16
ENDBRANCH   1   9
BRANCH   8  24
HETATM   24  C14 UNL     1      21.611  42.553  54.747  1.00  0.00     0.243 C 
HETATM   25  O2  UNL     1      21.455  41.678  55.659  1.00  0.00    -0.271 OA
HETATM   26  N3  UNL     1      20.660  42.502  53.733  1.00  0.00    -0.350 N 
HETATM   27  C15 UNL     1      20.703  43.392  52.606  1.00  0.00     0.126 C 
HETATM   28  C19 UNL     1      19.544  41.550  53.721  1.00  0.00     0.126 C 
HETATM   29  C16 UNL     1      20.092  42.715  51.388  1.00  0.00     0.020 C 
HETATM   30  C17 UNL     1      20.313  41.235  51.401  1.00  0.00     0.003 C 
HETATM   31  C18 UNL     1      19.818  40.560  52.639  1.00  0.00     0.020 C 
ENDBRANCH   8  24
TORSDOF 6
ENDMDL
MODEL 5
REMARK VINA RESULT: -7.031820163      1.550      1.832
REMARK  6 active torsions:
REMARK  status: ('A' for Active; 'I' for Inactive)
REMARK    1  A    between atoms: C2_2  and  C3_3 
REMARK    2  A    between atoms: C2_2  and  C4_8 
REMARK    3  A    between atoms: C2_2  and  C9_16 
REMARK    4  A    between atoms: C3_3  and  N1_4 
REMARK    5  A    between atoms: C4_8  and  C5_9 
REMARK    6  A    between atoms: C13_23  and  C14_24 
REMARK       I    between atoms: C14_24  and  N3_26 
ROOT
HETATM    1  C9  UNL     1      23.641  44.339  54.138  1.00  0.00     0.028 C 
HETATM    2  C10 UNL     1      24.659  43.681  53.169  1.00  0.00     0.017 C 
HETATM    3  C11 UNL     1      25.440  44.730  52.433  1.00  0.00     0.103 C 
HETATM    4  C12 UNL     1      25.744  45.897  53.293  1.00  0.00     0.218 C 
HETATM    5  O1  UNL     1      26.603  46.712  52.854  1.00  0.00    -0.274 OA
HETATM    6  N2  UNL     1      25.135  46.107  54.508  1.00  0.00    -0.347 N 
ATOM      7  H2  UNL     1      25.138  47.029  54.944  1.00  0.00     0.163 HD
HETATM    8  C13 UNL     1      24.460  44.932  55.180  1.00  0.00     0.181 C 
ENDROOT
BRANCH   1   9
HETATM    9  C2  UNL     1      22.428  43.537  54.287  1.00  0.00    -0.014 C 
HETATM   10  C1  UNL     1      22.636  42.559  55.448  1.00  0.00     0.017 C 
BRANCH   9  11
HETATM   11  C3  UNL     1      21.317  44.422  54.904  1.00  0.00     0.239 C 
BRANCH  11  12
HETATM   12  N1  UNL     1      20.899  44.165  56.198  1.00  0.00    -0.079 N 
ATOM     13  H13 UNL     1      20.132  43.493  56.168  1.00  0.00     0.274 HD
ATOM     14  H12 UNL     1      21.619  43.624  56.675  1.00  0.00     0.274 HD
ATOM     15  H11 UNL     1      20.628  44.949  56.793  1.00  0.00     0.274 HD
ENDBRANCH  11  12
ENDBRANCH   9  11
BRANCH   9  16
HETATM   16  C4  UNL     1      21.942  42.798  53.117  1.00  0.00     0.019 C 
BRANCH  16  17
HETATM   17  C5  UNL     1      20.531  42.456  52.957  1.00  0.00     0.032 C 
HETATM   18  C6  UNL     1      19.910  41.274  53.589  1.00  0.00     0.089 C 
HETATM   19  C7  UNL     1      19.047  41.151  52.315  1.00  0.00     0.274 C 
HETATM   20  F1  UNL     1      18.766  39.869  51.953  1.00  0.00    -0.203 F 
HETATM   21  F2  UNL     1      17.953  41.970  52.325  1.00  0.00    -0.203 F 
HETATM   22  C8  UNL     1      20.275  41.746  51.607  1.00  0.00     0.246 C 
HETATM   23  F3  UNL     1      19.875  42.570  50.606  1.00  0.00    -0.243 F 
ENDBRANCH  16  17
ENDBRANCH   9  16
ENDBRANCH   1   9
BRANCH   8  24
HETATM   24  C14 UNL     1      24.008  45.502  56.409  1.00  0.00     0.243 C 
HETATM   25  O2  UNL     1      23.193  46.481  56.415  1.00  0.00    -0.271 OA
HETATM   26  N3  UNL     1      24.403  45.073  57.671  1.00  0.00    -0.350 N 
HETATM   27  C15 UNL     1      25.344  44.004  57.851  1.00  0.00     0.126 C 
HETATM   28  C19 UNL     1      23.901  45.665  58.916  1.00  0.00     0.126 C 
HETATM   29  C16 UNL     1      26.121  44.208  59.143  1.00  0.00     0.020 C 
HETATM   30  C17 UNL     1      26.305  45.659  59.460  1.00  0.00     0.003 C 
HETATM   31  C18 UNL     1      25.027  46.431  59.527  1.00  0.00     0.020 C 
ENDBRANCH   8  24
TORSDOF 6
ENDMDL
