MODEL 1
REMARK VINA RESULT: -5.655103248      0.000      0.000
REMARK  8 active torsions:
REMARK  status: ('A' for Active; 'I' for Inactive)
REMARK    1  A    between atoms: O1_2  and  C2_3 
REMARK    2  A    between atoms: C2_3  and  C3_5 
REMARK    3  A    between atoms: C3_5  and  C4_6 
REMARK    4  A    between atoms: C8_10  and  N1_11 
REMARK    5  A    between atoms: N1_11  and  C9_13 
REMARK    6  A    between atoms: C9_13  and  N2_15 
REMARK    7  A    between atoms: N2_15  and  C10_17 
REMARK    8  A    between atoms: C10_17  and  C11_18 
ROOT
HETATM    1  C4  UNL     1      23.370  45.287  57.858  1.00  0.00     0.021 C 
HETATM    2  C5  UNL     1      22.308  46.246  57.363  1.00  0.00     0.019 C 
HETATM    3  C6  UNL     1      22.274  46.054  55.861  1.00  0.00    -0.009 C 
HETATM    4  C7  UNL     1      21.428  44.836  55.610  1.00  0.00     0.036 C 
HETATM    5  C8  UNL     1      21.987  43.574  56.178  1.00  0.00     0.037 C 
HETATM    6  C12 UNL     1      21.666  43.511  57.667  1.00  0.00     0.069 C 
HETATM    7  C13 UNL     1      22.704  44.142  58.538  1.00  0.00     0.183 C 
HETATM    8  F2  UNL     1      23.606  43.220  59.042  1.00  0.00    -0.248 F 
HETATM    9  C14 UNL     1      23.499  43.482  56.092  1.00  0.00     0.057 C 
HETATM   10  C15 UNL     1      24.068  44.773  56.604  1.00  0.00     0.050 C 
HETATM   11 CL1  UNL     1      25.800  44.558  56.856  1.00  0.00    -0.118 Cl
HETATM   12  C16 UNL     1      23.749  45.831  55.586  1.00  0.00     0.031 C 
ENDROOT
BRANCH   5  13
HETATM   13  N1  UNL     1      21.333  42.449  55.544  1.00  0.00    -0.358 N 
ATOM     14  H1  UNL     1      21.285  41.587  56.087  1.00  0.00     0.162 HD
BRANCH  13  15
HETATM   15  C9  UNL     1      20.762  42.412  54.268  1.00  0.00     0.168 C 
HETATM   16  S1  UNL     1      21.574  42.580  52.854  1.00  0.00    -0.041 SA
BRANCH  15  17
HETATM   17  N2  UNL     1      19.359  42.208  54.143  1.00  0.00    -0.365 N 
ATOM     18  H2  UNL     1      18.796  42.002  54.967  1.00  0.00     0.161 HD
BRANCH  17  19
HETATM   19  C10 UNL     1      18.733  42.296  52.837  1.00  0.00     0.153 C 
BRANCH  19  20
HETATM   20  C11 UNL     1      18.262  40.968  52.336  1.00  0.00     0.241 C 
HETATM   21  F1  UNL     1      17.281  41.230  51.372  1.00  0.00    -0.254 F 
ENDBRANCH  19  20
ENDBRANCH  17  19
ENDBRANCH  15  17
ENDBRANCH  13  15
ENDBRANCH   5  13
BRANCH   1  22
HETATM   22  C3  UNL     1      24.313  46.082  58.706  1.00  0.00     0.125 C 
BRANCH  22  23
HETATM   23  C2  UNL     1      24.023  46.150  60.127  1.00  0.00     0.259 C 
HETATM   24  O2  UNL     1      23.143  46.883  60.620  1.00  0.00    -0.265 OA
BRANCH  23  25
HETATM   25  O1  UNL     1      24.761  45.359  60.995  1.00  0.00    -0.326 OA
HETATM   26  C1  UNL     1      26.064  44.898  60.615  1.00  0.00     0.213 C 
ENDBRANCH  23  25
ENDBRANCH  22  23
ENDBRANCH   1  22
TORSDOF 8
ENDMDL
MODEL 2
REMARK VINA RESULT: -5.617586467      3.664      4.733
REMARK  8 active torsions:
REMARK  status: ('A' for Active; 'I' for Inactive)
REMARK    1  A    between atoms: O1_2  and  C2_3 
REMARK    2  A    between atoms: C2_3  and  C3_5 
REMARK    3  A    between atoms: C3_5  and  C4_6 
REMARK    4  A    between atoms: C8_10  and  N1_11 
REMARK    5  A    between atoms: N1_11  and  C9_13 
REMARK    6  A    between atoms: C9_13  and  N2_15 
REMARK    7  A    between atoms: N2_15  and  C10_17 
REMARK    8  A    between atoms: C10_17  and  C11_18 
ROOT
HETATM    1  C4  UNL     1      25.736  45.684  54.732  1.00  0.00     0.021 C 
HETATM    2  C5  UNL     1      25.519  45.345  53.272  1.00  0.00     0.019 C 
HETATM    3  C6  UNL     1      25.517  43.832  53.216  1.00  0.00    -0.009 C 
HETATM    4  C7  UNL     1      24.136  43.395  53.622  1.00  0.00     0.036 C 
HETATM    5  C8  UNL     1      23.765  43.759  55.021  1.00  0.00     0.037 C 
HETATM    6  C12 UNL     1      23.333  45.221  55.060  1.00  0.00     0.069 C 
HETATM    7  C13 UNL     1      24.454  46.178  55.306  1.00  0.00     0.183 C 
HETATM    8  F2  UNL     1      24.566  46.532  56.641  1.00  0.00    -0.248 F 
HETATM    9  C14 UNL     1      24.916  43.658  56.005  1.00  0.00     0.057 C 
HETATM   10  C15 UNL     1      26.097  44.365  55.404  1.00  0.00     0.050 C 
HETATM   11 CL1  UNL     1      27.316  44.579  56.660  1.00  0.00    -0.118 Cl
HETATM   12  C16 UNL     1      26.577  43.524  54.256  1.00  0.00     0.031 C 
ENDROOT
BRANCH   5  13
HETATM   13  N1  UNL     1      22.629  42.958  55.425  1.00  0.00    -0.358 N 
ATOM     14  H1  UNL     1      22.595  42.006  55.062  1.00  0.00     0.162 HD
BRANCH  13  15
HETATM   15  C9  UNL     1      21.575  43.345  56.257  1.00  0.00     0.168 C 
HETATM   16  S1  UNL     1      21.676  43.586  57.875  1.00  0.00    -0.041 SA
BRANCH  15  17
HETATM   17  N2  UNL     1      20.288  43.564  55.689  1.00  0.00    -0.365 N 
ATOM     18  H2  UNL     1      19.492  43.772  56.291  1.00  0.00     0.161 HD
BRANCH  17  19
HETATM   19  C10 UNL     1      20.113  43.491  54.251  1.00  0.00     0.153 C 
BRANCH  19  20
HETATM   20  C11 UNL     1      19.126  42.445  53.845  1.00  0.00     0.241 C 
HETATM   21  F1  UNL     1      19.843  41.249  53.707  1.00  0.00    -0.254 F 
ENDBRANCH  19  20
ENDBRANCH  17  19
ENDBRANCH  15  17
ENDBRANCH  13  15
ENDBRANCH   5  13
BRANCH   1  22
HETATM   22  C3  UNL     1      26.882  46.644  54.790  1.00  0.00     0.125 C 
BRANCH  22  23
HETATM   23  C2  UNL     1      27.111  47.469  53.617  1.00  0.00     0.259 C 
HETATM   24  O2  UNL     1      28.007  47.249  52.779  1.00  0.00    -0.265 OA
BRANCH  23  25
HETATM   25  O1  UNL     1      26.290  48.568  53.406  1.00  0.00    -0.326 OA
HETATM   26  C1  UNL     1      25.780  48.842  52.095  1.00  0.00     0.213 C 
ENDBRANCH  23  25
ENDBRANCH  22  23
ENDBRANCH   1  22
TORSDOF 8
ENDMDL
MODEL 3
REMARK VINA RESULT: -5.542200364      3.310      4.120
REMARK  8 active torsions:
REMARK  status: ('A' for Active; 'I' for Inactive)
REMARK    1  A    between atoms: O1_2  and  C2_3 
REMARK    2  A    between atoms: C2_3  and  C3_5 
REMARK    3  A    between atoms: C3_5  and  C4_6 
REMARK    4  A    between atoms: C8_10  and  N1_11 
REMARK    5  A    between atoms: N1_11  and  C9_13 
REMARK    6  A    between atoms: C9_13  and  N2_15 
REMARK    7  A    between atoms: N2_15  and  C10_17 
REMARK    8  A    between atoms: C10_17  and  C11_18 
ROOT
HETATM    1  C4  UNL     1      25.733  45.727  54.796  1.00  0.00     0.021 C 
HETATM    2  C5  UNL     1      25.517  45.438  53.326  1.00  0.00     0.019 C 
HETATM    3  C6  UNL     1      25.511  43.927  53.219  1.00  0.00    -0.009 C 
HETATM    4  C7  UNL     1      24.128  43.481  53.608  1.00  0.00     0.036 C 
HETATM    5  C8  UNL     1      23.756  43.800  55.019  1.00  0.00     0.037 C 
HETATM    6  C12 UNL     1      23.327  45.261  55.105  1.00  0.00     0.069 C 
HETATM    7  C13 UNL     1      24.451  46.207  55.384  1.00  0.00     0.183 C 
HETATM    8  F2  UNL     1      24.562  46.516  56.730  1.00  0.00    -0.248 F 
HETATM    9  C14 UNL     1      24.905  43.663  56.000  1.00  0.00     0.057 C 
HETATM   10  C15 UNL     1      26.089  44.386  55.425  1.00  0.00     0.050 C 
HETATM   11 CL1  UNL     1      27.306  44.555  56.690  1.00  0.00    -0.118 Cl
HETATM   12  C16 UNL     1      26.569  43.583  54.251  1.00  0.00     0.031 C 
ENDROOT
BRANCH   5  13
HETATM   13  N1  UNL     1      22.617  42.989  55.394  1.00  0.00    -0.358 N 
ATOM     14  H1  UNL     1      22.581  42.049  55.001  1.00  0.00     0.162 HD
BRANCH  13  15
HETATM   15  C9  UNL     1      21.561  43.352  56.234  1.00  0.00     0.168 C 
HETATM   16  S1  UNL     1      21.669  43.587  57.853  1.00  0.00    -0.041 SA
BRANCH  15  17
HETATM   17  N2  UNL     1      20.267  43.549  55.677  1.00  0.00    -0.365 N 
ATOM     18  H2  UNL     1      19.468  43.723  56.286  1.00  0.00     0.161 HD
BRANCH  17  19
HETATM   19  C10 UNL     1      20.088  43.502  54.238  1.00  0.00     0.153 C 
BRANCH  19  20
HETATM   20  C11 UNL     1      19.136  42.431  53.812  1.00  0.00     0.241 C 
HETATM   21  F1  UNL     1      19.880  41.247  53.725  1.00  0.00    -0.254 F 
ENDBRANCH  19  20
ENDBRANCH  17  19
ENDBRANCH  15  17
ENDBRANCH  13  15
ENDBRANCH   5  13
BRANCH   1  22
HETATM   22  C3  UNL     1      26.881  46.682  54.888  1.00  0.00     0.125 C 
BRANCH  22  23
HETATM   23  C2  UNL     1      26.579  48.094  54.732  1.00  0.00     0.259 C 
HETATM   24  O2  UNL     1      26.395  48.645  53.629  1.00  0.00    -0.265 OA
BRANCH  23  25
HETATM   25  O1  UNL     1      26.486  48.884  55.869  1.00  0.00    -0.326 OA
HETATM   26  C1  UNL     1      27.254  48.558  57.034  1.00  0.00     0.213 C 
ENDBRANCH  23  25
ENDBRANCH  22  23
ENDBRANCH   1  22
TORSDOF 8
ENDMDL
MODEL 4
REMARK VINA RESULT: -5.481849070      2.569      3.338
REMARK  8 active torsions:
REMARK  status: ('A' for Active; 'I' for Inactive)
REMARK    1  A    between atoms: O1_2  and  C2_3 
REMARK    2  A    between atoms: C2_3  and  C3_5 
REMARK    3  A    between atoms: C3_5  and  C4_6 
REMARK    4  A    between atoms: C8_10  and  N1_11 
REMARK    5  A    between atoms: N1_11  and  C9_13 
REMARK    6  A    between atoms: C9_13  and  N2_15 
REMARK    7  A    between atoms: N2_15  and  C10_17 
REMARK    8  A    between atoms: C10_17  and  C11_18 
ROOT
HETATM    1  C4  UNL     1      22.494  45.216  58.770  1.00  0.00     0.021 C 
HETATM    2  C5  UNL     1      22.039  46.283  57.797  1.00  0.00     0.019 C 
HETATM    3  C6  UNL     1      23.272  46.626  56.986  1.00  0.00    -0.009 C 
HETATM    4  C7  UNL     1      23.386  45.570  55.923  1.00  0.00     0.036 C 
HETATM    5  C8  UNL     1      23.607  44.190  56.451  1.00  0.00     0.037 C 
HETATM    6  C12 UNL     1      22.273  43.610  56.907  1.00  0.00     0.069 C 
HETATM    7  C13 UNL     1      21.941  43.903  58.335  1.00  0.00     0.183 C 
HETATM    8  F2  UNL     1      22.293  42.866  59.184  1.00  0.00    -0.248 F 
HETATM    9  C14 UNL     1      24.503  44.140  57.674  1.00  0.00     0.057 C 
HETATM   10  C15 UNL     1      24.012  45.174  58.646  1.00  0.00     0.050 C 
HETATM   11 CL1  UNL     1      24.792  44.890  60.202  1.00  0.00    -0.118 Cl
HETATM   12  C16 UNL     1      24.337  46.519  58.061  1.00  0.00     0.031 C 
ENDROOT
BRANCH   5  13
HETATM   13  N1  UNL     1      24.100  43.355  55.377  1.00  0.00    -0.358 N 
ATOM     14  H1  UNL     1      24.369  42.404  55.629  1.00  0.00     0.162 HD
BRANCH  13  15
HETATM   15  C9  UNL     1      24.249  43.706  54.032  1.00  0.00     0.168 C 
HETATM   16  S1  UNL     1      25.663  44.102  53.302  1.00  0.00    -0.041 SA
BRANCH  15  17
HETATM   17  N2  UNL     1      23.103  43.729  53.190  1.00  0.00    -0.365 N 
ATOM     18  H2  UNL     1      22.981  44.480  52.511  1.00  0.00     0.161 HD
BRANCH  17  19
HETATM   19  C10 UNL     1      22.108  42.679  53.299  1.00  0.00     0.153 C 
BRANCH  19  20
HETATM   20  C11 UNL     1      20.731  43.214  53.527  1.00  0.00     0.241 C 
HETATM   21  F1  UNL     1      20.884  44.533  53.974  1.00  0.00    -0.254 F 
ENDBRANCH  19  20
ENDBRANCH  17  19
ENDBRANCH  15  17
ENDBRANCH  13  15
ENDBRANCH   5  13
BRANCH   1  22
HETATM   22  C3  UNL     1      22.082  45.668  60.136  1.00  0.00     0.125 C 
BRANCH  22  23
HETATM   23  C2  UNL     1      21.006  44.933  60.777  1.00  0.00     0.259 C 
HETATM   24  O2  UNL     1      21.175  44.153  61.735  1.00  0.00    -0.265 OA
BRANCH  23  25
HETATM   25  O1  UNL     1      19.712  45.101  60.305  1.00  0.00    -0.326 OA
HETATM   26  C1  UNL     1      18.798  43.997  60.309  1.00  0.00     0.213 C 
ENDBRANCH  23  25
ENDBRANCH  22  23
ENDBRANCH   1  22
TORSDOF 8
ENDMDL
MODEL 5
REMARK VINA RESULT: -5.441799869      4.259      5.405
REMARK  8 active torsions:
REMARK  status: ('A' for Active; 'I' for Inactive)
REMARK    1  A    between atoms: O1_2  and  C2_3 
REMARK    2  A    between atoms: C2_3  and  C3_5 
REMARK    3  A    between atoms: C3_5  and  C4_6 
REMARK    4  A    between atoms: C8_10  and  N1_11 
REMARK    5  A    between atoms: N1_11  and  C9_13 
REMARK    6  A    between atoms: C9_13  and  N2_15 
REMARK    7  A    between atoms: N2_15  and  C10_17 
REMARK    8  A    between atoms: C10_17  and  C11_18 
ROOT
HETATM    1  C4  UNL     1      24.003  44.672  55.542  1.00  0.00     0.021 C 
HETATM    2  C5  UNL     1      23.684  46.151  55.496  1.00  0.00     0.019 C 
HETATM    3  C6  UNL     1      22.224  46.251  55.884  1.00  0.00    -0.009 C 
HETATM    4  C7  UNL     1      22.180  46.191  57.386  1.00  0.00     0.036 C 
HETATM    5  C8  UNL     1      22.677  44.906  57.963  1.00  0.00     0.037 C 
HETATM    6  C12 UNL     1      24.201  44.927  57.991  1.00  0.00     0.069 C 
HETATM    7  C13 UNL     1      24.838  44.399  56.746  1.00  0.00     0.183 C 
HETATM    8  F2  UNL     1      25.195  43.065  56.857  1.00  0.00    -0.248 F 
HETATM    9  C14 UNL     1      22.310  43.685  57.141  1.00  0.00     0.057 C 
HETATM   10  C15 UNL     1      22.660  43.973  55.709  1.00  0.00     0.050 C 
HETATM   11 CL1  UNL     1      22.588  42.461  54.804  1.00  0.00    -0.118 Cl
HETATM   12  C16 UNL     1      21.683  45.001  55.215  1.00  0.00     0.031 C 
ENDROOT
BRANCH   5  13
HETATM   13  N1  UNL     1      22.218  44.802  59.331  1.00  0.00    -0.358 N 
ATOM     14  H1  UNL     1      22.708  45.374  60.019  1.00  0.00     0.162 HD
BRANCH  13  15
HETATM   15  C9  UNL     1      21.176  44.005  59.816  1.00  0.00     0.168 C 
HETATM   16  S1  UNL     1      21.355  42.567  60.583  1.00  0.00    -0.041 SA
BRANCH  15  17
HETATM   17  N2  UNL     1      19.833  44.445  59.654  1.00  0.00    -0.365 N 
ATOM     18  H2  UNL     1      19.641  45.389  59.321  1.00  0.00     0.161 HD
BRANCH  17  19
HETATM   19  C10 UNL     1      18.738  43.546  59.965  1.00  0.00     0.153 C 
BRANCH  19  20
HETATM   20  C11 UNL     1      17.888  44.044  61.090  1.00  0.00     0.241 C 
HETATM   21  F1  UNL     1      16.590  43.575  60.848  1.00  0.00    -0.254 F 
ENDBRANCH  19  20
ENDBRANCH  17  19
ENDBRANCH  15  17
ENDBRANCH  13  15
ENDBRANCH   5  13
BRANCH   1  22
HETATM   22  C3  UNL     1      24.629  44.320  54.230  1.00  0.00     0.125 C 
BRANCH  22  23
HETATM   23  C2  UNL     1      26.066  44.111  54.220  1.00  0.00     0.259 C 
HETATM   24  O2  UNL     1      26.602  42.985  54.187  1.00  0.00    -0.265 OA
BRANCH  23  25
HETATM   25  O1  UNL     1      26.900  45.219  54.249  1.00  0.00    -0.326 OA
HETATM   26  C1  UNL     1      26.727  46.274  53.295  1.00  0.00     0.213 C 
ENDBRANCH  23  25
ENDBRANCH  22  23
ENDBRANCH   1  22
TORSDOF 8
ENDMDL
