MODEL 1
REMARK VINA RESULT: -8.778563431      0.000      0.000
REMARK  11 active torsions:
REMARK  status: ('A' for Active; 'I' for Inactive)
REMARK    1  A    between atoms: N1_1  and  C1_4 
REMARK    2  A    between atoms: C2_7  and  N3_8 
REMARK    3  A    between atoms: N4_11  and  C3_12 
REMARK    4  A    between atoms: C4_18  and  N8_19 
REMARK    5  A    between atoms: C6_21  and  C7_22 
REMARK    6  A    between atoms: C9_25  and  C10_26 
REMARK    7  A    between atoms: C10_26  and  C11_27 
REMARK    8  A    between atoms: C12_33  and  C13_34 
REMARK       I    between atoms: C13_34  and  N10_36 
REMARK    9  A    between atoms: N10_36  and  C14_38 
REMARK   10  A    between atoms: C14_38  and  C15_39 
REMARK   11  A    between atoms: C15_39  and  C16_40 
ROOT
HETATM    1  N8  UNL     1      -4.053   0.734 -10.032  1.00  0.00    -0.241 N 
HETATM    2  C5  UNL     1      -3.183  -0.254  -9.705  1.00  0.00     0.145 A 
HETATM    3  C6  UNL     1      -2.000  -0.064 -10.357  1.00  0.00     0.075 A 
HETATM    4  N11 UNL     1      -2.168   1.051 -11.083  1.00  0.00    -0.286 N 
ATOM      5  H11 UNL     1      -1.472   1.479 -11.693  1.00  0.00     0.188 HD
HETATM    6  N12 UNL     1      -3.397   1.500 -10.866  1.00  0.00    -0.237 N 
ATOM      7  H12 UNL     1      -3.783   2.340 -11.297  1.00  0.00     0.208 HD
ENDROOT
BRANCH   1   8
HETATM    8  C4  UNL     1      -5.396   0.805  -9.496  1.00  0.00     0.373 C 
HETATM    9  N7  UNL     1      -6.288   1.513 -10.412  1.00  0.00    -0.070 NA
HETATM   10  N6  UNL     1      -7.131   0.644 -11.114  1.00  0.00    -0.239 N 
HETATM   11  N5  UNL     1      -7.899  -0.236 -10.341  1.00  0.00    -0.252 N 
ATOM     12  H6  UNL     1      -7.183   0.651 -12.133  1.00  0.00     0.204 HD
HETATM   13  C3  UNL     1      -7.265  -0.815  -9.347  1.00  0.00     0.269 C 
ATOM     14  H5  UNL     1      -8.884  -0.415 -10.536  1.00  0.00     0.191 HD
HETATM   15  O7  UNL     1      -5.931  -0.461  -9.225  1.00  0.00    -0.276 OA
BRANCH  13  16
HETATM   16  N4  UNL     1      -7.922  -1.727  -8.486  1.00  0.00    -0.056 N 
HETATM   17  C2  UNL     1      -7.199  -2.710  -7.916  1.00  0.00     0.704 A 
HETATM   18  N2  UNL     1      -7.805  -3.595  -7.088  1.00  0.00    -0.022 N 
HETATM   19  C1  UNL     1      -9.120  -3.507  -6.828  1.00  0.00     0.694 A 
ATOM     20  H2  UNL     1      -7.255  -4.338  -6.657  1.00  0.00     0.203 HD
HETATM   21  N13 UNL     1      -9.850  -2.534  -7.388  1.00  0.00    -0.140 N 
HETATM   22  C17 UNL     1      -9.232  -1.666  -8.206  1.00  0.00     0.362 A 
ATOM     23  H13 UNL     1     -10.850  -2.454  -7.198  1.00  0.00     0.189 HD
HETATM   24  O8  UNL     1      -9.934  -0.761  -8.723  1.00  0.00    -0.245 OA
BRANCH  17  25
HETATM   25  N3  UNL     1      -5.943  -2.846  -8.126  1.00  0.00    -0.233 N 
ATOM     26  H32 UNL     1      -5.552  -3.676  -8.573  1.00  0.00     0.174 HD
ATOM     27  H31 UNL     1      -5.324  -2.090  -7.833  1.00  0.00     0.174 HD
ENDBRANCH  17  25
BRANCH  19  28
HETATM   28  N1  UNL     1      -9.720  -4.341  -6.041  1.00  0.00    -0.234 N 
ATOM     29  H12 UNL     1     -10.346  -3.963  -5.329  1.00  0.00     0.174 HD
ATOM     30  H11 UNL     1      -9.583  -5.348  -6.117  1.00  0.00     0.174 HD
ENDBRANCH  19  28
ENDBRANCH  13  16
ENDBRANCH   1   8
BRANCH   3  31
HETATM   31  C7  UNL     1      -0.787  -0.876 -10.279  1.00  0.00     0.214 C 
HETATM   32  O1  UNL     1       0.395  -0.172 -10.075  1.00  0.00    -0.375 OA
HETATM   33  C8  UNL     1       1.414  -1.001 -10.506  1.00  0.00     0.202 C 
HETATM   34  C9  UNL     1       1.315  -2.438 -10.199  1.00  0.00     0.220 C 
HETATM   35  N9  UNL     1       0.098  -2.960  -9.679  1.00  0.00    -0.053 N 
HETATM   36  C12 UNL     1      -0.794  -1.906  -9.159  1.00  0.00     0.312 C 
ATOM     37  H92 UNL     1      -0.381  -3.535 -10.373  1.00  0.00     0.278 HD
ATOM     38  H91 UNL     1       0.277  -3.671  -8.971  1.00  0.00     0.278 HD
BRANCH  34  39
HETATM   39  C10 UNL     1       1.650  -3.190 -11.503  1.00  0.00     0.148 C 
BRANCH  39  40
HETATM   40  C11 UNL     1       0.454  -3.964 -11.953  1.00  0.00     0.174 C 
HETATM   41  O2  UNL     1       0.321  -5.191 -11.691  1.00  0.00    -0.648 OA
HETATM   42  O3  UNL     1      -0.564  -3.368 -12.682  1.00  0.00    -0.648 OA
ENDBRANCH  39  40
ENDBRANCH  34  39
BRANCH  36  43
HETATM   43  C13 UNL     1      -0.156  -1.411  -7.921  1.00  0.00     0.251 C 
HETATM   44  O4  UNL     1       0.624  -2.162  -7.289  1.00  0.00    -0.271 OA
HETATM   45  N10 UNL     1      -0.366  -0.123  -7.389  1.00  0.00    -0.359 N 
ATOM     46  H10 UNL     1      -0.997   0.508  -7.884  1.00  0.00     0.162 HD
BRANCH  45  47
HETATM   47  C14 UNL     1       0.260   0.346  -6.189  1.00  0.00     0.133 C 
BRANCH  47  48
HETATM   48  C15 UNL     1      -0.440   1.484  -5.513  1.00  0.00     0.133 C 
BRANCH  48  49
HETATM   49  C16 UNL     1      -0.355   1.252  -4.041  1.00  0.00     0.174 C 
HETATM   50  O5  UNL     1      -1.103   1.826  -3.232  1.00  0.00    -0.648 OA
HETATM   51  O6  UNL     1       0.588   0.361  -3.501  1.00  0.00    -0.648 OA
ENDBRANCH  48  49
ENDBRANCH  47  48
ENDBRANCH  45  47
ENDBRANCH  36  43
ENDBRANCH   3  31
TORSDOF 11
ENDMDL
MODEL 2
REMARK VINA RESULT: -8.633574955      3.826      8.877
REMARK  11 active torsions:
REMARK  status: ('A' for Active; 'I' for Inactive)
REMARK    1  A    between atoms: N1_1  and  C1_4 
REMARK    2  A    between atoms: C2_7  and  N3_8 
REMARK    3  A    between atoms: N4_11  and  C3_12 
REMARK    4  A    between atoms: C4_18  and  N8_19 
REMARK    5  A    between atoms: C6_21  and  C7_22 
REMARK    6  A    between atoms: C9_25  and  C10_26 
REMARK    7  A    between atoms: C10_26  and  C11_27 
REMARK    8  A    between atoms: C12_33  and  C13_34 
REMARK       I    between atoms: C13_34  and  N10_36 
REMARK    9  A    between atoms: N10_36  and  C14_38 
REMARK   10  A    between atoms: C14_38  and  C15_39 
REMARK   11  A    between atoms: C15_39  and  C16_40 
ROOT
HETATM    1  N8  UNL     1      -8.366  -2.119  -9.251  1.00  0.00    -0.241 N 
HETATM    2  C5  UNL     1      -8.307  -2.324  -7.911  1.00  0.00     0.145 A 
HETATM    3  C6  UNL     1      -8.933  -3.495  -7.595  1.00  0.00     0.075 A 
HETATM    4  N11 UNL     1      -9.369  -3.993  -8.761  1.00  0.00    -0.286 N 
ATOM      5  H11 UNL     1      -9.884  -4.864  -8.884  1.00  0.00     0.188 HD
HETATM    6  N12 UNL     1      -9.016  -3.152  -9.723  1.00  0.00    -0.237 N 
ATOM      7  H12 UNL     1      -9.225  -3.294 -10.712  1.00  0.00     0.208 HD
ENDROOT
BRANCH   1   8
HETATM    8  C4  UNL     1      -7.787  -0.957  -9.892  1.00  0.00     0.373 C 
HETATM    9  N7  UNL     1      -8.394   0.273  -9.391  1.00  0.00    -0.070 NA
HETATM   10  N6  UNL     1      -7.562   0.951  -8.492  1.00  0.00    -0.239 N 
HETATM   11  N5  UNL     1      -6.271   1.249  -8.946  1.00  0.00    -0.252 N 
ATOM     12  H6  UNL     1      -7.879   1.215  -7.559  1.00  0.00     0.204 HD
HETATM   13  C3  UNL     1      -5.662   0.281  -9.590  1.00  0.00     0.269 C 
ATOM     14  H5  UNL     1      -5.833   2.156  -8.786  1.00  0.00     0.191 HD
HETATM   15  O7  UNL     1      -6.399  -0.886  -9.717  1.00  0.00    -0.276 OA
BRANCH  13  16
HETATM   16  N4  UNL     1      -4.352   0.447 -10.102  1.00  0.00    -0.056 N 
HETATM   17  C2  UNL     1      -3.466  -0.556  -9.945  1.00  0.00     0.704 A 
HETATM   18  N2  UNL     1      -2.207  -0.421 -10.426  1.00  0.00    -0.022 N 
HETATM   19  C1  UNL     1      -1.827   0.701 -11.059  1.00  0.00     0.694 A 
ATOM     20  H2  UNL     1      -1.539  -1.183 -10.307  1.00  0.00     0.203 HD
HETATM   21  N13 UNL     1      -2.698   1.706 -11.222  1.00  0.00    -0.140 N 
HETATM   22  C17 UNL     1      -3.942   1.554 -10.738  1.00  0.00     0.362 A 
ATOM     23  H13 UNL     1      -2.424   2.564 -11.701  1.00  0.00     0.189 HD
HETATM   24  O8  UNL     1      -4.744   2.507 -10.900  1.00  0.00    -0.245 OA
BRANCH  17  25
HETATM   25  N3  UNL     1      -3.769  -1.650  -9.351  1.00  0.00    -0.233 N 
ATOM     26  H32 UNL     1      -3.957  -2.513  -9.861  1.00  0.00     0.174 HD
ATOM     27  H31 UNL     1      -3.820  -1.644  -8.331  1.00  0.00     0.174 HD
ENDBRANCH  17  25
BRANCH  19  28
HETATM   28  N1  UNL     1      -0.630   0.853 -11.527  1.00  0.00    -0.234 N 
ATOM     29  H12 UNL     1      -0.068   0.016 -11.685  1.00  0.00     0.174 HD
ATOM     30  H11 UNL     1      -0.245   1.773 -11.736  1.00  0.00     0.174 HD
ENDBRANCH  19  28
ENDBRANCH  13  16
ENDBRANCH   1   8
BRANCH   3  31
HETATM   31  C7  UNL     1      -9.085  -4.107  -6.276  1.00  0.00     0.214 C 
HETATM   32  O1  UNL     1      -8.438  -5.327  -6.101  1.00  0.00    -0.375 OA
HETATM   33  C8  UNL     1      -9.071  -5.947  -5.041  1.00  0.00     0.202 C 
HETATM   34  C9  UNL     1      -9.469  -5.118  -3.890  1.00  0.00     0.220 C 
HETATM   35  N9  UNL     1      -9.399  -3.701  -3.991  1.00  0.00    -0.053 N 
HETATM   36  C12 UNL     1      -8.569  -3.255  -5.126  1.00  0.00     0.312 C 
ATOM     37  H92 UNL     1     -10.331  -3.290  -4.035  1.00  0.00     0.278 HD
ATOM     38  H91 UNL     1      -9.077  -3.287  -3.117  1.00  0.00     0.278 HD
BRANCH  34  39
HETATM   39  C10 UNL     1     -10.920  -5.512  -3.546  1.00  0.00     0.148 C 
BRANCH  39  40
HETATM   40  C11 UNL     1     -10.912  -6.620  -2.544  1.00  0.00     0.174 C 
HETATM   41  O2  UNL     1      -9.840  -7.041  -2.030  1.00  0.00    -0.648 OA
HETATM   42  O3  UNL     1     -12.085  -7.237  -2.134  1.00  0.00    -0.648 OA
ENDBRANCH  39  40
ENDBRANCH  34  39
BRANCH  36  43
HETATM   43  C13 UNL     1      -7.174  -3.574  -4.758  1.00  0.00     0.251 C 
HETATM   44  O4  UNL     1      -6.835  -3.543  -3.551  1.00  0.00    -0.271 OA
HETATM   45  N10 UNL     1      -6.174  -3.920  -5.689  1.00  0.00    -0.359 N 
ATOM     46  H10 UNL     1      -6.423  -3.952  -6.678  1.00  0.00     0.162 HD
BRANCH  45  47
HETATM   47  C14 UNL     1      -4.825  -4.229  -5.318  1.00  0.00     0.133 C 
BRANCH  47  48
HETATM   48  C15 UNL     1      -4.192  -5.338  -6.100  1.00  0.00     0.133 C 
BRANCH  48  49
HETATM   49  C16 UNL     1      -4.672  -5.223  -7.510  1.00  0.00     0.174 C 
HETATM   50  O5  UNL     1      -5.752  -5.706  -7.887  1.00  0.00    -0.648 OA
HETATM   51  O6  UNL     1      -3.910  -4.553  -8.482  1.00  0.00    -0.648 OA
ENDBRANCH  48  49
ENDBRANCH  47  48
ENDBRANCH  45  47
ENDBRANCH  36  43
ENDBRANCH   3  31
TORSDOF 11
ENDMDL
MODEL 3
REMARK VINA RESULT: -8.584671275      3.707      8.162
REMARK  11 active torsions:
REMARK  status: ('A' for Active; 'I' for Inactive)
REMARK    1  A    between atoms: N1_1  and  C1_4 
REMARK    2  A    between atoms: C2_7  and  N3_8 
REMARK    3  A    between atoms: N4_11  and  C3_12 
REMARK    4  A    between atoms: C4_18  and  N8_19 
REMARK    5  A    between atoms: C6_21  and  C7_22 
REMARK    6  A    between atoms: C9_25  and  C10_26 
REMARK    7  A    between atoms: C10_26  and  C11_27 
REMARK    8  A    between atoms: C12_33  and  C13_34 
REMARK       I    between atoms: C13_34  and  N10_36 
REMARK    9  A    between atoms: N10_36  and  C14_38 
REMARK   10  A    between atoms: C14_38  and  C15_39 
REMARK   11  A    between atoms: C15_39  and  C16_40 
ROOT
HETATM    1  N8  UNL     1      -8.656  -3.031  -8.739  1.00  0.00    -0.241 N 
HETATM    2  C5  UNL     1      -7.853  -3.474  -7.740  1.00  0.00     0.145 A 
HETATM    3  C6  UNL     1      -8.288  -4.690  -7.300  1.00  0.00     0.075 A 
HETATM    4  N11 UNL     1      -9.364  -4.975  -8.048  1.00  0.00    -0.286 N 
ATOM      5  H11 UNL     1      -9.936  -5.816  -7.979  1.00  0.00     0.188 HD
HETATM    6  N12 UNL     1      -9.554  -3.970  -8.892  1.00  0.00    -0.237 N 
ATOM      7  H12 UNL     1     -10.309  -3.934  -9.577  1.00  0.00     0.208 HD
ENDROOT
BRANCH   1   8
HETATM    8  C4  UNL     1      -8.447  -1.765  -9.410  1.00  0.00     0.373 C 
HETATM    9  N7  UNL     1      -9.321  -0.731  -8.861  1.00  0.00    -0.070 NA
HETATM   10  N6  UNL     1      -8.639   0.151  -8.016  1.00  0.00    -0.239 N 
HETATM   11  N5  UNL     1      -7.504   0.772  -8.553  1.00  0.00    -0.252 N 
ATOM     12  H6  UNL     1      -8.951   0.333  -7.061  1.00  0.00     0.204 HD
HETATM   13  C3  UNL     1      -6.706  -0.009  -9.243  1.00  0.00     0.269 C 
ATOM     14  H5  UNL     1      -7.311   1.764  -8.417  1.00  0.00     0.191 HD
HETATM   15  O7  UNL     1      -7.118  -1.330  -9.328  1.00  0.00    -0.276 OA
BRANCH  13  16
HETATM   16  N4  UNL     1      -5.524   0.489  -9.841  1.00  0.00    -0.056 N 
HETATM   17  C2  UNL     1      -4.403  -0.255  -9.770  1.00  0.00     0.704 A 
HETATM   18  N2  UNL     1      -3.259   0.200 -10.335  1.00  0.00    -0.022 N 
HETATM   19  C1  UNL     1      -3.225   1.386 -10.966  1.00  0.00     0.694 A 
ATOM     20  H2  UNL     1      -2.411  -0.365 -10.281  1.00  0.00     0.203 HD
HETATM   21  N13 UNL     1      -4.332   2.136 -11.043  1.00  0.00    -0.140 N 
HETATM   22  C17 UNL     1      -5.457   1.668 -10.477  1.00  0.00     0.362 A 
ATOM     23  H13 UNL     1      -4.321   3.038 -11.520  1.00  0.00     0.189 HD
HETATM   24  O8  UNL     1      -6.485   2.385 -10.560  1.00  0.00    -0.245 OA
BRANCH  17  25
HETATM   25  N3  UNL     1      -4.373  -1.393  -9.183  1.00  0.00    -0.233 N 
ATOM     26  H32 UNL     1      -3.715  -1.601  -8.431  1.00  0.00     0.174 HD
ATOM     27  H31 UNL     1      -5.036  -2.106  -9.487  1.00  0.00     0.174 HD
ENDBRANCH  17  25
BRANCH  19  28
HETATM   28  N1  UNL     1      -2.143   1.841 -11.512  1.00  0.00    -0.234 N 
ATOM     29  H12 UNL     1      -1.474   2.329 -10.916  1.00  0.00     0.174 HD
ATOM     30  H11 UNL     1      -1.951   1.725 -12.506  1.00  0.00     0.174 HD
ENDBRANCH  19  28
ENDBRANCH  13  16
ENDBRANCH   1   8
BRANCH   3  31
HETATM   31  C7  UNL     1      -7.707  -5.533  -6.256  1.00  0.00     0.214 C 
HETATM   32  O1  UNL     1      -7.157  -6.734  -6.690  1.00  0.00    -0.375 OA
HETATM   33  C8  UNL     1      -7.118  -7.560  -5.583  1.00  0.00     0.202 C 
HETATM   34  C9  UNL     1      -6.738  -6.965  -4.289  1.00  0.00     0.220 C 
HETATM   35  N9  UNL     1      -6.645  -5.551  -4.170  1.00  0.00    -0.053 N 
HETATM   36  C12 UNL     1      -6.576  -4.875  -5.479  1.00  0.00     0.312 C 
ATOM     37  H92 UNL     1      -7.409  -5.180  -3.605  1.00  0.00     0.278 HD
ATOM     38  H91 UNL     1      -5.858  -5.285  -3.578  1.00  0.00     0.278 HD
BRANCH  34  39
HETATM   39  C10 UNL     1      -7.762  -7.476  -3.254  1.00  0.00     0.148 C 
BRANCH  39  40
HETATM   40  C11 UNL     1      -8.485  -6.314  -2.654  1.00  0.00     0.174 C 
HETATM   41  O2  UNL     1      -8.112  -5.791  -1.569  1.00  0.00    -0.648 OA
HETATM   42  O3  UNL     1      -9.599  -5.759  -3.265  1.00  0.00    -0.648 OA
ENDBRANCH  39  40
ENDBRANCH  34  39
BRANCH  36  43
HETATM   43  C13 UNL     1      -5.242  -5.194  -6.029  1.00  0.00     0.251 C 
HETATM   44  O4  UNL     1      -4.302  -5.465  -5.245  1.00  0.00    -0.271 OA
HETATM   45  N10 UNL     1      -4.944  -5.215  -7.407  1.00  0.00    -0.359 N 
ATOM     46  H10 UNL     1      -5.691  -4.997  -8.067  1.00  0.00     0.162 HD
BRANCH  45  47
HETATM   47  C14 UNL     1      -3.647  -5.527  -7.928  1.00  0.00     0.133 C 
BRANCH  47  48
HETATM   48  C15 UNL     1      -2.785  -4.341  -8.232  1.00  0.00     0.133 C 
BRANCH  48  49
HETATM   49  C16 UNL     1      -2.600  -4.289  -9.713  1.00  0.00     0.174 C 
HETATM   50  O5  UNL     1      -2.674  -5.301 -10.429  1.00  0.00    -0.648 OA
HETATM   51  O6  UNL     1      -2.332  -3.075 -10.368  1.00  0.00    -0.648 OA
ENDBRANCH  48  49
ENDBRANCH  47  48
ENDBRANCH  45  47
ENDBRANCH  36  43
ENDBRANCH   3  31
TORSDOF 11
ENDMDL
MODEL 4
REMARK VINA RESULT: -8.516526182      3.884      8.733
REMARK  11 active torsions:
REMARK  status: ('A' for Active; 'I' for Inactive)
REMARK    1  A    between atoms: N1_1  and  C1_4 
REMARK    2  A    between atoms: C2_7  and  N3_8 
REMARK    3  A    between atoms: N4_11  and  C3_12 
REMARK    4  A    between atoms: C4_18  and  N8_19 
REMARK    5  A    between atoms: C6_21  and  C7_22 
REMARK    6  A    between atoms: C9_25  and  C10_26 
REMARK    7  A    between atoms: C10_26  and  C11_27 
REMARK    8  A    between atoms: C12_33  and  C13_34 
REMARK       I    between atoms: C13_34  and  N10_36 
REMARK    9  A    between atoms: N10_36  and  C14_38 
REMARK   10  A    between atoms: C14_38  and  C15_39 
REMARK   11  A    between atoms: C15_39  and  C16_40 
ROOT
HETATM    1  N8  UNL     1      -8.503  -2.627  -8.884  1.00  0.00    -0.241 N 
HETATM    2  C5  UNL     1      -8.215  -2.839  -7.576  1.00  0.00     0.145 A 
HETATM    3  C6  UNL     1      -8.773  -4.015  -7.165  1.00  0.00     0.075 A 
HETATM    4  N11 UNL     1      -9.400  -4.508  -8.242  1.00  0.00    -0.286 N 
ATOM      5  H11 UNL     1      -9.924  -5.382  -8.282  1.00  0.00     0.188 HD
HETATM    6  N12 UNL     1      -9.220  -3.660  -9.245  1.00  0.00    -0.237 N 
ATOM      7  H12 UNL     1      -9.594  -3.797 -10.185  1.00  0.00     0.208 HD
ENDROOT
BRANCH   1   8
HETATM    8  C4  UNL     1      -8.047  -1.457  -9.607  1.00  0.00     0.373 C 
HETATM    9  N7  UNL     1      -8.787  -0.267  -9.196  1.00  0.00    -0.070 NA
HETATM   10  N6  UNL     1      -8.042   0.560  -8.348  1.00  0.00    -0.239 N 
HETATM   11  N5  UNL     1      -6.786   0.961  -8.821  1.00  0.00    -0.252 N 
ATOM     12  H6  UNL     1      -8.393   0.853  -7.436  1.00  0.00     0.204 HD
HETATM   13  C3  UNL     1      -6.070   0.021  -9.393  1.00  0.00     0.269 C 
ATOM     14  H5  UNL     1      -6.450   1.920  -8.726  1.00  0.00     0.191 HD
HETATM   15  O7  UNL     1      -6.677  -1.224  -9.436  1.00  0.00    -0.276 OA
BRANCH  13  16
HETATM   16  N4  UNL     1      -4.782   0.291  -9.915  1.00  0.00    -0.056 N 
HETATM   17  C2  UNL     1      -3.800  -0.608  -9.704  1.00  0.00     0.704 A 
HETATM   18  N2  UNL     1      -2.559  -0.373 -10.194  1.00  0.00    -0.022 N 
HETATM   19  C1  UNL     1      -2.292   0.747 -10.887  1.00  0.00     0.694 A 
ATOM     20  H2  UNL     1      -1.818  -1.055 -10.035  1.00  0.00     0.203 HD
HETATM   21  N13 UNL     1      -3.259   1.648 -11.103  1.00  0.00    -0.140 N 
HETATM   22  C17 UNL     1      -4.483   1.398 -10.610  1.00  0.00     0.362 A 
ATOM     23  H13 UNL     1      -3.070   2.502 -11.628  1.00  0.00     0.189 HD
HETATM   24  O8  UNL     1      -5.376   2.255 -10.822  1.00  0.00    -0.245 OA
BRANCH  17  25
HETATM   25  N3  UNL     1      -3.994  -1.693  -9.052  1.00  0.00    -0.233 N 
ATOM     26  H32 UNL     1      -3.324  -2.462  -9.062  1.00  0.00     0.174 HD
ATOM     27  H31 UNL     1      -4.852  -1.777  -8.506  1.00  0.00     0.174 HD
ENDBRANCH  17  25
BRANCH  19  28
HETATM   28  N1  UNL     1      -1.114   0.993 -11.363  1.00  0.00    -0.234 N 
ATOM     29  H12 UNL     1      -0.304   0.712 -10.809  1.00  0.00     0.174 HD
ATOM     30  H11 UNL     1      -0.981   1.453 -12.263  1.00  0.00     0.174 HD
ENDBRANCH  19  28
ENDBRANCH  13  16
ENDBRANCH   1   8
BRANCH   3  31
HETATM   31  C7  UNL     1      -8.694  -4.636  -5.843  1.00  0.00     0.214 C 
HETATM   32  O1  UNL     1      -7.887  -5.766  -5.757  1.00  0.00    -0.375 OA
HETATM   33  C8  UNL     1      -8.312  -6.455  -4.637  1.00  0.00     0.202 C 
HETATM   34  C9  UNL     1      -8.672  -5.677  -3.440  1.00  0.00     0.220 C 
HETATM   35  N9  UNL     1      -8.788  -4.262  -3.534  1.00  0.00    -0.053 N 
HETATM   36  C12 UNL     1      -8.157  -3.722  -4.752  1.00  0.00     0.312 C 
ATOM     37  H92 UNL     1      -9.763  -3.969  -3.465  1.00  0.00     0.278 HD
ATOM     38  H91 UNL     1      -8.420  -3.808  -2.698  1.00  0.00     0.278 HD
BRANCH  34  39
HETATM   39  C10 UNL     1     -10.014  -6.244  -2.934  1.00  0.00     0.148 C 
BRANCH  39  40
HETATM   40  C11 UNL     1      -9.754  -7.323  -1.934  1.00  0.00     0.174 C 
HETATM   41  O2  UNL     1     -10.561  -8.277  -1.763  1.00  0.00    -0.648 OA
HETATM   42  O3  UNL     1      -8.611  -7.324  -1.149  1.00  0.00    -0.648 OA
ENDBRANCH  39  40
ENDBRANCH  34  39
BRANCH  36  43
HETATM   43  C13 UNL     1      -6.700  -3.866  -4.551  1.00  0.00     0.251 C 
HETATM   44  O4  UNL     1      -6.224  -3.742  -3.398  1.00  0.00    -0.271 OA
HETATM   45  N10 UNL     1      -5.786  -4.139  -5.589  1.00  0.00    -0.359 N 
ATOM     46  H10 UNL     1      -6.147  -4.243  -6.537  1.00  0.00     0.162 HD
BRANCH  45  47
HETATM   47  C14 UNL     1      -4.375  -4.278  -5.380  1.00  0.00     0.133 C 
BRANCH  47  48
HETATM   48  C15 UNL     1      -3.706  -5.302  -6.243  1.00  0.00     0.133 C 
BRANCH  48  49
HETATM   49  C16 UNL     1      -4.316  -5.211  -7.603  1.00  0.00     0.174 C 
HETATM   50  O5  UNL     1      -3.751  -4.639  -8.549  1.00  0.00    -0.648 OA
HETATM   51  O6  UNL     1      -5.573  -5.779  -7.872  1.00  0.00    -0.648 OA
ENDBRANCH  48  49
ENDBRANCH  47  48
ENDBRANCH  45  47
ENDBRANCH  36  43
ENDBRANCH   3  31
TORSDOF 11
ENDMDL
MODEL 5
REMARK VINA RESULT: -8.457703366      3.311      9.450
REMARK  11 active torsions:
REMARK  status: ('A' for Active; 'I' for Inactive)
REMARK    1  A    between atoms: N1_1  and  C1_4 
REMARK    2  A    between atoms: C2_7  and  N3_8 
REMARK    3  A    between atoms: N4_11  and  C3_12 
REMARK    4  A    between atoms: C4_18  and  N8_19 
REMARK    5  A    between atoms: C6_21  and  C7_22 
REMARK    6  A    between atoms: C9_25  and  C10_26 
REMARK    7  A    between atoms: C10_26  and  C11_27 
REMARK    8  A    between atoms: C12_33  and  C13_34 
REMARK       I    between atoms: C13_34  and  N10_36 
REMARK    9  A    between atoms: N10_36  and  C14_38 
REMARK   10  A    between atoms: C14_38  and  C15_39 
REMARK   11  A    between atoms: C15_39  and  C16_40 
ROOT
HETATM    1  N8  UNL     1      -3.735  -1.935  -8.793  1.00  0.00    -0.241 N 
HETATM    2  C5  UNL     1      -4.277  -2.972  -8.106  1.00  0.00     0.145 A 
HETATM    3  C6  UNL     1      -5.601  -2.733  -7.878  1.00  0.00     0.075 A 
HETATM    4  N11 UNL     1      -5.849  -1.540  -8.436  1.00  0.00    -0.286 N 
ATOM      5  H11 UNL     1      -6.749  -1.059  -8.447  1.00  0.00     0.188 HD
HETATM    6  N12 UNL     1      -4.721  -1.094  -8.971  1.00  0.00    -0.237 N 
ATOM      7  H12 UNL     1      -4.632  -0.204  -9.461  1.00  0.00     0.208 HD
ENDROOT
BRANCH   1   8
HETATM    8  C4  UNL     1      -2.341  -1.898  -9.184  1.00  0.00     0.373 C 
HETATM    9  N7  UNL     1      -1.926  -3.173  -9.765  1.00  0.00    -0.070 NA
HETATM   10  N6  UNL     1      -1.822  -3.116 -11.159  1.00  0.00    -0.239 N 
HETATM   11  N5  UNL     1      -1.001  -2.107 -11.679  1.00  0.00    -0.252 N 
ATOM     12  H6  UNL     1      -2.315  -3.773 -11.764  1.00  0.00     0.204 HD
HETATM   13  C3  UNL     1      -1.133  -0.927 -11.118  1.00  0.00     0.269 C 
ATOM     14  H5  UNL     1      -0.346  -2.276 -12.441  1.00  0.00     0.191 HD
HETATM   15  O7  UNL     1      -2.069  -0.871 -10.097  1.00  0.00    -0.276 OA
BRANCH  13  16
HETATM   16  N4  UNL     1      -0.365   0.182 -11.546  1.00  0.00    -0.056 N 
HETATM   17  C2  UNL     1      -0.993   1.353 -11.770  1.00  0.00     0.704 A 
HETATM   18  N2  UNL     1      -0.279   2.429 -12.180  1.00  0.00    -0.022 N 
HETATM   19  C1  UNL     1       1.048   2.346 -12.368  1.00  0.00     0.694 A 
ATOM     20  H2  UNL     1      -0.757   3.315 -12.348  1.00  0.00     0.203 HD
HETATM   21  N13 UNL     1       1.685   1.188 -12.149  1.00  0.00    -0.140 N 
HETATM   22  C17 UNL     1       0.960   0.132 -11.743  1.00  0.00     0.362 A 
ATOM     23  H13 UNL     1       2.692   1.110 -12.287  1.00  0.00     0.189 HD
HETATM   24  O8  UNL     1       1.575  -0.946 -11.544  1.00  0.00    -0.245 OA
BRANCH  17  25
HETATM   25  N3  UNL     1      -2.256   1.495 -11.608  1.00  0.00    -0.233 N 
ATOM     26  H32 UNL     1      -2.677   1.611 -10.686  1.00  0.00     0.174 HD
ATOM     27  H31 UNL     1      -2.849   1.489 -12.438  1.00  0.00     0.174 HD
ENDBRANCH  17  25
BRANCH  19  28
HETATM   28  N1  UNL     1       1.750   3.360 -12.760  1.00  0.00    -0.234 N 
ATOM     29  H12 UNL     1       2.572   3.615 -12.212  1.00  0.00     0.174 HD
ATOM     30  H11 UNL     1       1.502   3.900 -13.589  1.00  0.00     0.174 HD
ENDBRANCH  19  28
ENDBRANCH  13  16
ENDBRANCH   1   8
BRANCH   3  31
HETATM   31  C7  UNL     1      -6.567  -3.593  -7.196  1.00  0.00     0.214 C 
HETATM   32  O1  UNL     1      -7.670  -2.943  -6.651  1.00  0.00    -0.375 OA
HETATM   33  C8  UNL     1      -8.172  -3.789  -5.680  1.00  0.00     0.202 C 
HETATM   34  C9  UNL     1      -8.198  -5.233  -5.967  1.00  0.00     0.220 C 
HETATM   35  N9  UNL     1      -7.515  -5.732  -7.111  1.00  0.00    -0.053 N 
HETATM   36  C12 UNL     1      -7.180  -4.671  -8.078  1.00  0.00     0.312 C 
ATOM     37  H92 UNL     1      -6.684  -6.258  -6.841  1.00  0.00     0.278 HD
ATOM     38  H91 UNL     1      -8.046  -6.480  -7.556  1.00  0.00     0.278 HD
BRANCH  34  39
HETATM   39  C10 UNL     1      -7.634  -5.939  -4.716  1.00  0.00     0.148 C 
BRANCH  39  40
HETATM   40  C11 UNL     1      -8.491  -5.619  -3.535  1.00  0.00     0.174 C 
HETATM   41  O2  UNL     1      -8.001  -5.165  -2.464  1.00  0.00    -0.648 OA
HETATM   42  O3  UNL     1      -9.864  -5.807  -3.563  1.00  0.00    -0.648 OA
ENDBRANCH  39  40
ENDBRANCH  34  39
BRANCH  36  43
HETATM   43  C13 UNL     1      -8.463  -4.254  -8.682  1.00  0.00     0.251 C 
HETATM   44  O4  UNL     1      -9.402  -5.082  -8.763  1.00  0.00    -0.271 OA
HETATM   45  N10 UNL     1      -8.713  -2.961  -9.185  1.00  0.00    -0.359 N 
ATOM     46  H10 UNL     1      -7.965  -2.269  -9.133  1.00  0.00     0.162 HD
BRANCH  45  47
HETATM   47  C14 UNL     1      -9.962  -2.570  -9.768  1.00  0.00     0.133 C 
BRANCH  47  48
HETATM   48  C15 UNL     1      -9.949  -1.241 -10.458  1.00  0.00     0.133 C 
BRANCH  48  49
HETATM   49  C16 UNL     1      -8.669  -0.561 -10.098  1.00  0.00     0.174 C 
HETATM   50  O5  UNL     1      -8.559   0.164  -9.096  1.00  0.00    -0.648 OA
HETATM   51  O6  UNL     1      -7.519  -0.717 -10.891  1.00  0.00    -0.648 OA
ENDBRANCH  48  49
ENDBRANCH  47  48
ENDBRANCH  45  47
ENDBRANCH  36  43
ENDBRANCH   3  31
TORSDOF 11
ENDMDL
