MODEL 1
REMARK VINA RESULT: -8.816808369      0.000      0.000
REMARK  12 active torsions:
REMARK  status: ('A' for Active; 'I' for Inactive)
REMARK    1  A    between atoms: C2_2  and  O1_3 
REMARK    2  A    between atoms: O1_3  and  C3_4 
REMARK    3  A    between atoms: C4_5  and  O2_6 
REMARK    4  A    between atoms: C5_8  and  C6_9 
REMARK    5  A    between atoms: C6_9  and  N1_10 
REMARK    6  A    between atoms: C6_9  and  C7_14 
REMARK    7  A    between atoms: C7_14  and  O3_15 
REMARK    8  A    between atoms: C8_18  and  N2_19 
REMARK    9  A    between atoms: C9_20  and  C10_21 
REMARK       I    between atoms: C10_21  and  N3_23 
REMARK   10  A    between atoms: C11_25  and  C12_26 
REMARK       I    between atoms: C12_26  and  N4_28 
REMARK       I    between atoms: N4_28  and  C13_30 
REMARK       I    between atoms: C13_30  and  N5_31 
REMARK       I    between atoms: C13_30  and  N6_35 
REMARK   11  A    between atoms: C15_42  and  C16_43 
REMARK   12  A    between atoms: C18_55  and  O8_56 
ROOT
HETATM    1  N2  UNL     1      -6.077  -3.048  -7.770  1.00  0.00    -0.282 N 
HETATM    2  C9  UNL     1      -4.830  -2.814  -8.180  1.00  0.00     0.181 A 
HETATM    3  N7  UNL     1      -4.787  -1.609  -8.852  1.00  0.00    -0.333 N 
ATOM      4  H7  UNL     1      -3.956  -1.190  -9.270  1.00  0.00     0.168 HD
HETATM    5  C14 UNL     1      -5.996  -1.091  -8.864  1.00  0.00     0.108 A 
HETATM    6  C15 UNL     1      -6.516   0.092  -9.393  1.00  0.00     0.099 A 
HETATM    7  N11 UNL     1      -7.816   0.328  -9.228  1.00  0.00    -0.318 N 
ATOM      8  H11 UNL     1      -8.201   1.191  -9.612  1.00  0.00     0.169 HD
HETATM    9  C18 UNL     1      -8.649  -0.505  -8.582  1.00  0.00     0.223 A 
HETATM   10  N12 UNL     1      -8.109  -1.629  -8.089  1.00  0.00    -0.306 N 
ATOM     11  H12 UNL     1      -8.724  -2.276  -7.595  1.00  0.00     0.171 HD
HETATM   12  C19 UNL     1      -6.803  -1.961  -8.204  1.00  0.00     0.144 A 
ENDROOT
BRANCH   1  13
HETATM   13  C8  UNL     1      -6.677  -4.079  -7.063  1.00  0.00     0.263 C 
HETATM   14  C3  UNL     1      -7.346  -5.202  -7.813  1.00  0.00     0.202 C 
HETATM   15  C4  UNL     1      -7.745  -6.074  -6.635  1.00  0.00     0.182 C 
HETATM   16  C5  UNL     1      -7.642  -5.118  -5.491  1.00  0.00     0.188 C 
HETATM   17  O4  UNL     1      -7.548  -3.836  -6.036  1.00  0.00    -0.353 OA
BRANCH  14  18
HETATM   18  O1  UNL     1      -8.302  -4.928  -8.685  1.00  0.00    -0.379 OA
BRANCH  18  19
HETATM   19  C2  UNL     1      -9.620  -4.940  -8.385  1.00  0.00     0.164 C 
HETATM   20  C1  UNL     1     -10.465  -3.971  -9.177  1.00  0.00     0.033 C 
ENDBRANCH  18  19
ENDBRANCH  14  18
BRANCH  15  21
HETATM   21  O2  UNL     1      -6.804  -7.091  -6.497  1.00  0.00    -0.390 OA
ATOM     22  H2  UNL     1      -6.674  -7.258  -5.571  1.00  0.00     0.210 HD
ENDBRANCH  15  21
BRANCH  16  23
HETATM   23  C6  UNL     1      -8.736  -5.243  -4.479  1.00  0.00     0.238 C 
BRANCH  23  24
HETATM   24  N1  UNL     1      -8.249  -5.642  -3.184  1.00  0.00    -0.070 N 
ATOM     25  H13 UNL     1      -7.240  -5.788  -3.201  1.00  0.00     0.274 HD
ATOM     26  H12 UNL     1      -8.292  -4.867  -2.522  1.00  0.00     0.274 HD
ATOM     27  H11 UNL     1      -8.731  -6.463  -2.818  1.00  0.00     0.274 HD
ENDBRANCH  23  24
BRANCH  23  28
HETATM   28  C7  UNL     1      -9.589  -4.008  -4.428  1.00  0.00     0.199 C 
BRANCH  28  29
HETATM   29  O3  UNL     1     -10.946  -4.277  -4.359  1.00  0.00    -0.399 OA
ATOM     30  H3  UNL     1     -11.492  -3.524  -4.555  1.00  0.00     0.209 HD
ENDBRANCH  28  29
ENDBRANCH  23  28
ENDBRANCH  16  23
ENDBRANCH   1  13
BRANCH   2  31
HETATM   31  C10 UNL     1      -3.625  -3.581  -8.038  1.00  0.00     0.290 C 
HETATM   32  O5  UNL     1      -2.526  -2.926  -7.928  1.00  0.00    -0.264 OA
HETATM   33  N3  UNL     1      -3.508  -4.946  -8.004  1.00  0.00    -0.325 N 
HETATM   34  C11 UNL     1      -2.782  -5.795  -8.558  1.00  0.00     0.165 C 
ATOM     35  H3  UNL     1      -4.180  -5.374  -7.367  1.00  0.00     0.168 HD
BRANCH  34  36
HETATM   36  C12 UNL     1      -1.741  -5.548  -9.505  1.00  0.00     0.259 C 
HETATM   37  O6  UNL     1      -0.504  -5.752  -9.336  1.00  0.00    -0.267 OA
HETATM   38  N4  UNL     1      -2.074  -5.007 -10.808  1.00  0.00    -0.307 N 
HETATM   39  C13 UNL     1      -1.079  -4.735 -11.809  1.00  0.00     0.483 C 
ATOM     40  H4  UNL     1      -3.052  -4.813 -11.023  1.00  0.00     0.166 HD
HETATM   41  N5  UNL     1      -1.066  -3.339 -12.232  1.00  0.00    -0.033 N 
HETATM   42  N6  UNL     1      -1.296  -5.537 -13.010  1.00  0.00    -0.033 N 
ATOM     43  H53 UNL     1      -1.991  -3.045 -12.548  1.00  0.00     0.278 HD
ATOM     44  H52 UNL     1      -0.958  -2.716 -11.432  1.00  0.00     0.278 HD
ATOM     45  H51 UNL     1      -0.360  -3.145 -12.943  1.00  0.00     0.278 HD
ATOM     46  H63 UNL     1      -1.343  -6.532 -12.791  1.00  0.00     0.278 HD
ATOM     47  H62 UNL     1      -2.240  -5.412 -13.377  1.00  0.00     0.278 HD
ATOM     48  H61 UNL     1      -0.590  -5.343 -13.720  1.00  0.00     0.278 HD
ENDBRANCH  34  36
ENDBRANCH   2  31
BRANCH   6  49
HETATM   49  C16 UNL     1      -5.617   1.000 -10.095  1.00  0.00     0.131 A 
HETATM   50  N8  UNL     1      -4.542   0.625 -10.833  1.00  0.00    -0.236 N 
HETATM   51  O7  UNL     1      -3.960   1.707 -11.319  1.00  0.00    -0.155 OA
ATOM     52  H8  UNL     1      -4.234  -0.335 -10.987  1.00  0.00     0.197 HD
HETATM   53  N9  UNL     1      -4.622   2.753 -10.920  1.00  0.00    -0.224 N 
HETATM   54  C17 UNL     1      -5.654   2.371 -10.162  1.00  0.00     0.152 A 
ATOM     55  H9  UNL     1      -4.389   3.719 -11.152  1.00  0.00     0.198 HD
HETATM   56  N10 UNL     1      -6.537   3.097  -9.581  1.00  0.00    -0.382 N 
ATOM     57 2H10 UNL     1      -7.325   2.805  -9.002  1.00  0.00     0.157 HD
ATOM     58 1H10 UNL     1      -6.564   4.115  -9.630  1.00  0.00     0.157 HD
ENDBRANCH   6  49
BRANCH   9  59
HETATM   59  O8  UNL     1     -10.003  -0.202  -8.440  1.00  0.00    -0.332 OA
ATOM     60  H8  UNL     1     -10.639  -0.879  -8.240  1.00  0.00     0.220 HD
ENDBRANCH   9  59
TORSDOF 12
ENDMDL
MODEL 2
REMARK VINA RESULT: -8.704101398      3.005      7.580
REMARK  12 active torsions:
REMARK  status: ('A' for Active; 'I' for Inactive)
REMARK    1  A    between atoms: C2_2  and  O1_3 
REMARK    2  A    between atoms: O1_3  and  C3_4 
REMARK    3  A    between atoms: C4_5  and  O2_6 
REMARK    4  A    between atoms: C5_8  and  C6_9 
REMARK    5  A    between atoms: C6_9  and  N1_10 
REMARK    6  A    between atoms: C6_9  and  C7_14 
REMARK    7  A    between atoms: C7_14  and  O3_15 
REMARK    8  A    between atoms: C8_18  and  N2_19 
REMARK    9  A    between atoms: C9_20  and  C10_21 
REMARK       I    between atoms: C10_21  and  N3_23 
REMARK   10  A    between atoms: C11_25  and  C12_26 
REMARK       I    between atoms: C12_26  and  N4_28 
REMARK       I    between atoms: N4_28  and  C13_30 
REMARK       I    between atoms: C13_30  and  N5_31 
REMARK       I    between atoms: C13_30  and  N6_35 
REMARK   11  A    between atoms: C15_42  and  C16_43 
REMARK   12  A    between atoms: C18_55  and  O8_56 
ROOT
HETATM    1  N2  UNL     1      -2.878  -1.442  -9.254  1.00  0.00    -0.282 N 
HETATM    2  C9  UNL     1      -3.731  -2.334  -8.750  1.00  0.00     0.181 A 
HETATM    3  N7  UNL     1      -5.014  -1.830  -8.818  1.00  0.00    -0.333 N 
ATOM      4  H7  UNL     1      -5.858  -2.308  -8.501  1.00  0.00     0.168 HD
HETATM    5  C14 UNL     1      -4.968  -0.632  -9.360  1.00  0.00     0.108 A 
HETATM    6  C15 UNL     1      -5.952   0.311  -9.663  1.00  0.00     0.099 A 
HETATM    7  N11 UNL     1      -5.565   1.455 -10.224  1.00  0.00    -0.318 N 
ATOM      8  H11 UNL     1      -6.279   2.147 -10.449  1.00  0.00     0.169 HD
HETATM    9  C18 UNL     1      -4.286   1.749 -10.512  1.00  0.00     0.223 A 
HETATM   10  N12 UNL     1      -3.372   0.816 -10.205  1.00  0.00    -0.306 N 
ATOM     11  H12 UNL     1      -2.395   1.019 -10.415  1.00  0.00     0.171 HD
HETATM   12  C19 UNL     1      -3.663  -0.375  -9.634  1.00  0.00     0.144 A 
ENDROOT
BRANCH   1  13
HETATM   13  C8  UNL     1      -1.503  -1.424  -9.436  1.00  0.00     0.263 C 
HETATM   14  C3  UNL     1      -0.602  -1.149  -8.258  1.00  0.00     0.202 C 
HETATM   15  C4  UNL     1       0.744  -1.325  -8.939  1.00  0.00     0.182 C 
HETATM   16  C5  UNL     1       0.379  -1.219 -10.384  1.00  0.00     0.188 C 
HETATM   17  O4  UNL     1      -0.919  -0.706 -10.442  1.00  0.00    -0.353 OA
BRANCH  14  18
HETATM   18  O1  UNL     1      -0.761  -0.037  -7.560  1.00  0.00    -0.379 OA
BRANCH  18  19
HETATM   19  C2  UNL     1       0.069   0.353  -6.568  1.00  0.00     0.164 C 
HETATM   20  C1  UNL     1      -0.447   1.483  -5.709  1.00  0.00     0.033 C 
ENDBRANCH  18  19
ENDBRANCH  14  18
BRANCH  15  21
HETATM   21  O2  UNL     1       1.221  -2.603  -8.657  1.00  0.00    -0.390 OA
ATOM     22  H2  UNL     1       1.636  -2.950  -9.437  1.00  0.00     0.210 HD
ENDBRANCH  15  21
BRANCH  16  23
HETATM   23  C6  UNL     1       1.351  -0.444 -11.214  1.00  0.00     0.238 C 
BRANCH  23  24
HETATM   24  N1  UNL     1       1.934  -1.234 -12.267  1.00  0.00    -0.070 N 
ATOM     25  H13 UNL     1       1.934  -2.225 -12.025  1.00  0.00     0.274 HD
ATOM     26  H12 UNL     1       1.324  -1.263 -13.084  1.00  0.00     0.274 HD
ATOM     27  H11 UNL     1       2.871  -0.920 -12.521  1.00  0.00     0.274 HD
ENDBRANCH  23  24
BRANCH  23  28
HETATM   28  C7  UNL     1       0.756   0.843 -11.710  1.00  0.00     0.199 C 
BRANCH  28  29
HETATM   29  O3  UNL     1      -0.231   0.663 -12.666  1.00  0.00    -0.399 OA
ATOM     30  H3  UNL     1      -0.603   1.477 -12.984  1.00  0.00     0.209 HD
ENDBRANCH  28  29
ENDBRANCH  23  28
ENDBRANCH  16  23
ENDBRANCH   1  13
BRANCH   2  31
HETATM   31  C10 UNL     1      -3.518  -3.636  -8.187  1.00  0.00     0.290 C 
HETATM   32  O5  UNL     1      -3.684  -4.644  -8.967  1.00  0.00    -0.264 OA
HETATM   33  N3  UNL     1      -3.153  -3.937  -6.900  1.00  0.00    -0.325 N 
HETATM   34  C11 UNL     1      -3.543  -4.731  -6.023  1.00  0.00     0.165 C 
ATOM     35  H3  UNL     1      -2.367  -3.370  -6.582  1.00  0.00     0.168 HD
BRANCH  34  36
HETATM   36  C12 UNL     1      -4.618  -5.667  -6.129  1.00  0.00     0.259 C 
HETATM   37  O6  UNL     1      -4.518  -6.908  -6.355  1.00  0.00    -0.267 OA
HETATM   38  N4  UNL     1      -5.984  -5.207  -5.970  1.00  0.00    -0.307 N 
HETATM   39  C13 UNL     1      -7.113  -6.091  -6.063  1.00  0.00     0.483 C 
ATOM     40  H4  UNL     1      -6.150  -4.217  -5.786  1.00  0.00     0.166 HD
HETATM   41  N5  UNL     1      -8.056  -5.702  -7.106  1.00  0.00    -0.033 N 
HETATM   42  N6  UNL     1      -7.863  -6.131  -4.811  1.00  0.00    -0.033 N 
ATOM     43  H53 UNL     1      -8.359  -4.736  -6.981  1.00  0.00     0.278 HD
ATOM     44  H52 UNL     1      -7.587  -5.614  -8.007  1.00  0.00     0.278 HD
ATOM     45  H51 UNL     1      -8.857  -6.330  -7.171  1.00  0.00     0.278 HD
ATOM     46  H63 UNL     1      -7.262  -6.374  -4.023  1.00  0.00     0.278 HD
ATOM     47  H62 UNL     1      -8.144  -5.197  -4.513  1.00  0.00     0.278 HD
ATOM     48  H61 UNL     1      -8.665  -6.759  -4.877  1.00  0.00     0.278 HD
ENDBRANCH  34  36
ENDBRANCH   2  31
BRANCH   6  49
HETATM   49  C16 UNL     1      -7.341  -0.002  -9.353  1.00  0.00     0.131 A 
HETATM   50  N8  UNL     1      -7.942   0.201  -8.154  1.00  0.00    -0.236 N 
HETATM   51  O7  UNL     1      -9.199  -0.198  -8.234  1.00  0.00    -0.155 OA
ATOM     52  H8  UNL     1      -7.497   0.597  -7.327  1.00  0.00     0.197 HD
HETATM   53  N9  UNL     1      -9.420  -0.647  -9.435  1.00  0.00    -0.224 N 
HETATM   54  C17 UNL     1      -8.305  -0.548 -10.165  1.00  0.00     0.152 A 
ATOM     55  H9  UNL     1     -10.310  -1.017  -9.769  1.00  0.00     0.198 HD
HETATM   56  N10 UNL     1      -8.112  -0.882 -11.387  1.00  0.00    -0.382 N 
ATOM     57 2H10 UNL     1      -7.261  -0.806 -11.945  1.00  0.00     0.157 HD
ATOM     58 1H10 UNL     1      -8.828  -1.287 -11.990  1.00  0.00     0.157 HD
ENDBRANCH   6  49
BRANCH   9  59
HETATM   59  O8  UNL     1      -3.941   2.965 -11.101  1.00  0.00    -0.332 OA
ATOM     60  H8  UNL     1      -3.382   2.998 -11.869  1.00  0.00     0.220 HD
ENDBRANCH   9  59
TORSDOF 12
ENDMDL
MODEL 3
REMARK VINA RESULT: -8.588252094      3.490      7.327
REMARK  12 active torsions:
REMARK  status: ('A' for Active; 'I' for Inactive)
REMARK    1  A    between atoms: C2_2  and  O1_3 
REMARK    2  A    between atoms: O1_3  and  C3_4 
REMARK    3  A    between atoms: C4_5  and  O2_6 
REMARK    4  A    between atoms: C5_8  and  C6_9 
REMARK    5  A    between atoms: C6_9  and  N1_10 
REMARK    6  A    between atoms: C6_9  and  C7_14 
REMARK    7  A    between atoms: C7_14  and  O3_15 
REMARK    8  A    between atoms: C8_18  and  N2_19 
REMARK    9  A    between atoms: C9_20  and  C10_21 
REMARK       I    between atoms: C10_21  and  N3_23 
REMARK   10  A    between atoms: C11_25  and  C12_26 
REMARK       I    between atoms: C12_26  and  N4_28 
REMARK       I    between atoms: N4_28  and  C13_30 
REMARK       I    between atoms: C13_30  and  N5_31 
REMARK       I    between atoms: C13_30  and  N6_35 
REMARK   11  A    between atoms: C15_42  and  C16_43 
REMARK   12  A    between atoms: C18_55  and  O8_56 
ROOT
HETATM    1  N2  UNL     1      -2.866  -1.229  -9.474  1.00  0.00    -0.282 N 
HETATM    2  C9  UNL     1      -3.676  -2.163  -8.976  1.00  0.00     0.181 A 
HETATM    3  N7  UNL     1      -4.976  -1.697  -8.989  1.00  0.00    -0.333 N 
ATOM      4  H7  UNL     1      -5.795  -2.210  -8.663  1.00  0.00     0.168 HD
HETATM    5  C14 UNL     1      -4.981  -0.481  -9.491  1.00  0.00     0.108 A 
HETATM    6  C15 UNL     1      -6.002   0.441  -9.734  1.00  0.00     0.099 A 
HETATM    7  N11 UNL     1      -5.666   1.613 -10.267  1.00  0.00    -0.318 N 
ATOM      8  H11 UNL     1      -6.408   2.290 -10.448  1.00  0.00     0.169 HD
HETATM    9  C18 UNL     1      -4.407   1.956 -10.583  1.00  0.00     0.223 A 
HETATM   10  N12 UNL     1      -3.457   1.042 -10.334  1.00  0.00    -0.306 N 
ATOM     11  H12 UNL     1      -2.492   1.282 -10.566  1.00  0.00     0.171 HD
HETATM   12  C19 UNL     1      -3.694  -0.175  -9.795  1.00  0.00     0.144 A 
ENDROOT
BRANCH   1  13
HETATM   13  C8  UNL     1      -1.499  -1.163  -9.696  1.00  0.00     0.263 C 
HETATM   14  C3  UNL     1      -0.564  -0.996  -8.524  1.00  0.00     0.202 C 
HETATM   15  C4  UNL     1       0.761  -1.070  -9.262  1.00  0.00     0.182 C 
HETATM   16  C5  UNL     1       0.347  -0.819 -10.675  1.00  0.00     0.188 C 
HETATM   17  O4  UNL     1      -0.961  -0.329 -10.637  1.00  0.00    -0.353 OA
BRANCH  14  18
HETATM   18  O1  UNL     1      -0.720   0.032  -7.706  1.00  0.00    -0.379 OA
BRANCH  18  19
HETATM   19  C2  UNL     1       0.043   0.242  -6.611  1.00  0.00     0.164 C 
HETATM   20  C1  UNL     1      -0.392   1.398  -5.741  1.00  0.00     0.033 C 
ENDBRANCH  18  19
ENDBRANCH  14  18
BRANCH  15  21
HETATM   21  O2  UNL     1       1.270  -2.360  -9.133  1.00  0.00    -0.390 OA
ATOM     22  H2  UNL     1       0.564  -2.979  -9.279  1.00  0.00     0.210 HD
ENDBRANCH  15  21
BRANCH  16  23
HETATM   23  C6  UNL     1       1.278   0.061 -11.447  1.00  0.00     0.238 C 
BRANCH  23  24
HETATM   24  N1  UNL     1       1.935  -0.636 -12.521  1.00  0.00    -0.070 N 
ATOM     25  H13 UNL     1       1.379  -1.430 -12.837  1.00  0.00     0.274 HD
ATOM     26  H12 UNL     1       1.928  -0.080 -13.376  1.00  0.00     0.274 HD
ATOM     27  H11 UNL     1       2.883  -0.925 -12.280  1.00  0.00     0.274 HD
ENDBRANCH  23  24
BRANCH  23  28
HETATM   28  C7  UNL     1       0.601   1.325 -11.896  1.00  0.00     0.199 C 
BRANCH  28  29
HETATM   29  O3  UNL     1      -0.384   1.117 -12.847  1.00  0.00    -0.399 OA
ATOM     30  H3  UNL     1      -1.126   0.620 -12.522  1.00  0.00     0.209 HD
ENDBRANCH  28  29
ENDBRANCH  23  28
ENDBRANCH  16  23
ENDBRANCH   1  13
BRANCH   2  31
HETATM   31  C10 UNL     1      -3.408  -3.476  -8.463  1.00  0.00     0.290 C 
HETATM   32  O5  UNL     1      -3.666  -3.682  -7.221  1.00  0.00    -0.264 OA
HETATM   33  N3  UNL     1      -2.904  -4.550  -9.150  1.00  0.00    -0.325 N 
HETATM   34  C11 UNL     1      -2.006  -5.392  -8.957  1.00  0.00     0.165 C 
ATOM     35  H3  UNL     1      -3.383  -4.696 -10.038  1.00  0.00     0.168 HD
BRANCH  34  36
HETATM   36  C12 UNL     1      -1.141  -5.481  -7.822  1.00  0.00     0.259 C 
HETATM   37  O6  UNL     1      -0.964  -6.495  -7.086  1.00  0.00    -0.267 OA
HETATM   38  N4  UNL     1      -0.362  -4.325  -7.425  1.00  0.00    -0.307 N 
HETATM   39  C13 UNL     1       0.528  -4.342  -6.297  1.00  0.00     0.483 C 
ATOM     40  H4  UNL     1      -0.449  -3.465  -7.968  1.00  0.00     0.166 HD
HETATM   41  N5  UNL     1       0.195  -3.337  -5.295  1.00  0.00    -0.033 N 
HETATM   42  N6  UNL     1       1.908  -4.092  -6.702  1.00  0.00    -0.033 N 
ATOM     43  H53 UNL     1       0.154  -2.406  -5.712  1.00  0.00     0.278 HD
ATOM     44  H52 UNL     1      -0.775  -3.428  -4.995  1.00  0.00     0.278 HD
ATOM     45  H51 UNL     1       0.827  -3.349  -4.494  1.00  0.00     0.278 HD
ATOM     46  H63 UNL     1       2.210  -4.745  -7.425  1.00  0.00     0.278 HD
ATOM     47  H62 UNL     1       1.991  -3.223  -7.230  1.00  0.00     0.278 HD
ATOM     48  H61 UNL     1       2.540  -4.104  -5.901  1.00  0.00     0.278 HD
ENDBRANCH  34  36
ENDBRANCH   2  31
BRANCH   6  49
HETATM   49  C16 UNL     1      -7.372   0.075  -9.394  1.00  0.00     0.131 A 
HETATM   50  N8  UNL     1      -7.934   0.197  -8.165  1.00  0.00    -0.236 N 
HETATM   51  O7  UNL     1      -9.183  -0.230  -8.223  1.00  0.00    -0.155 OA
ATOM     52  H8  UNL     1      -7.468   0.560  -7.333  1.00  0.00     0.197 HD
HETATM   53  N9  UNL     1      -9.436  -0.618  -9.439  1.00  0.00    -0.224 N 
HETATM   54  C17 UNL     1      -8.350  -0.451 -10.200  1.00  0.00     0.152 A 
ATOM     55  H9  UNL     1     -10.328  -0.993  -9.762  1.00  0.00     0.198 HD
HETATM   56  N10 UNL     1      -8.194  -0.714 -11.445  1.00  0.00    -0.382 N 
ATOM     57 2H10 UNL     1      -7.365  -0.586 -12.027  1.00  0.00     0.157 HD
ATOM     58 1H10 UNL     1      -8.921  -1.104 -12.044  1.00  0.00     0.157 HD
ENDBRANCH   6  49
BRANCH   9  59
HETATM   59  O8  UNL     1      -4.116   3.201 -11.141  1.00  0.00    -0.332 OA
ATOM     60  H8  UNL     1      -3.883   3.286 -12.058  1.00  0.00     0.220 HD
ENDBRANCH   9  59
TORSDOF 12
ENDMDL
MODEL 4
REMARK VINA RESULT: -8.547819061      1.898      2.240
REMARK  12 active torsions:
REMARK  status: ('A' for Active; 'I' for Inactive)
REMARK    1  A    between atoms: C2_2  and  O1_3 
REMARK    2  A    between atoms: O1_3  and  C3_4 
REMARK    3  A    between atoms: C4_5  and  O2_6 
REMARK    4  A    between atoms: C5_8  and  C6_9 
REMARK    5  A    between atoms: C6_9  and  N1_10 
REMARK    6  A    between atoms: C6_9  and  C7_14 
REMARK    7  A    between atoms: C7_14  and  O3_15 
REMARK    8  A    between atoms: C8_18  and  N2_19 
REMARK    9  A    between atoms: C9_20  and  C10_21 
REMARK       I    between atoms: C10_21  and  N3_23 
REMARK   10  A    between atoms: C11_25  and  C12_26 
REMARK       I    between atoms: C12_26  and  N4_28 
REMARK       I    between atoms: N4_28  and  C13_30 
REMARK       I    between atoms: C13_30  and  N5_31 
REMARK       I    between atoms: C13_30  and  N6_35 
REMARK   11  A    between atoms: C15_42  and  C16_43 
REMARK   12  A    between atoms: C18_55  and  O8_56 
ROOT
HETATM    1  N2  UNL     1      -6.101  -3.141  -7.627  1.00  0.00    -0.282 N 
HETATM    2  C9  UNL     1      -4.837  -2.920  -7.987  1.00  0.00     0.181 A 
HETATM    3  N7  UNL     1      -4.764  -1.739  -8.700  1.00  0.00    -0.333 N 
ATOM      4  H7  UNL     1      -3.915  -1.334  -9.094  1.00  0.00     0.168 HD
HETATM    5  C14 UNL     1      -5.971  -1.224  -8.785  1.00  0.00     0.108 A 
HETATM    6  C15 UNL     1      -6.468  -0.063  -9.380  1.00  0.00     0.099 A 
HETATM    7  N11 UNL     1      -7.774   0.177  -9.282  1.00  0.00    -0.318 N 
ATOM      8  H11 UNL     1      -8.142   1.024  -9.715  1.00  0.00     0.169 HD
HETATM    9  C18 UNL     1      -8.635  -0.635  -8.646  1.00  0.00     0.223 A 
HETATM   10  N12 UNL     1      -8.118  -1.739  -8.089  1.00  0.00    -0.306 N 
ATOM     11  H12 UNL     1      -8.754  -2.369  -7.600  1.00  0.00     0.171 HD
HETATM   12  C19 UNL     1      -6.807  -2.072  -8.132  1.00  0.00     0.144 A 
ENDROOT
BRANCH   1  13
HETATM   13  C8  UNL     1      -6.732  -4.147  -6.911  1.00  0.00     0.263 C 
HETATM   14  C3  UNL     1      -7.406  -5.275  -7.651  1.00  0.00     0.202 C 
HETATM   15  C4  UNL     1      -7.842  -6.115  -6.464  1.00  0.00     0.182 C 
HETATM   16  C5  UNL     1      -7.745  -5.138  -5.337  1.00  0.00     0.188 C 
HETATM   17  O4  UNL     1      -7.618  -3.869  -5.907  1.00  0.00    -0.353 OA
BRANCH  14  18
HETATM   18  O1  UNL     1      -8.340  -5.002  -8.547  1.00  0.00    -0.379 OA
BRANCH  18  19
HETATM   19  C2  UNL     1      -9.664  -5.012  -8.279  1.00  0.00     0.164 C 
HETATM   20  C1  UNL     1     -10.497  -4.088  -9.135  1.00  0.00     0.033 C 
ENDBRANCH  18  19
ENDBRANCH  14  18
BRANCH  15  21
HETATM   21  O2  UNL     1      -6.922  -7.145  -6.286  1.00  0.00    -0.390 OA
ATOM     22  H2  UNL     1      -6.075  -6.763  -6.089  1.00  0.00     0.210 HD
ENDBRANCH  15  21
BRANCH  16  23
HETATM   23  C6  UNL     1      -8.860  -5.224  -4.344  1.00  0.00     0.238 C 
BRANCH  23  24
HETATM   24  N1  UNL     1      -8.402  -5.582  -3.027  1.00  0.00    -0.070 N 
ATOM     25  H13 UNL     1      -8.934  -5.091  -2.309  1.00  0.00     0.274 HD
ATOM     26  H12 UNL     1      -8.661  -6.541  -2.797  1.00  0.00     0.274 HD
ATOM     27  H11 UNL     1      -7.400  -5.434  -2.906  1.00  0.00     0.274 HD
ENDBRANCH  23  24
BRANCH  23  28
HETATM   28  C7  UNL     1      -9.707  -3.984  -4.353  1.00  0.00     0.199 C 
BRANCH  28  29
HETATM   29  O3  UNL     1     -11.066  -4.244  -4.430  1.00  0.00    -0.399 OA
ATOM     30  H3  UNL     1     -11.272  -5.170  -4.488  1.00  0.00     0.209 HD
ENDBRANCH  28  29
ENDBRANCH  23  28
ENDBRANCH  16  23
ENDBRANCH   1  13
BRANCH   2  31
HETATM   31  C10 UNL     1      -3.640  -3.678  -7.763  1.00  0.00     0.290 C 
HETATM   32  O5  UNL     1      -3.404  -4.055  -6.558  1.00  0.00    -0.264 OA
HETATM   33  N3  UNL     1      -2.707  -4.054  -8.695  1.00  0.00    -0.325 N 
HETATM   34  C11 UNL     1      -1.464  -4.023  -8.777  1.00  0.00     0.165 C 
ATOM     35  H3  UNL     1      -3.136  -4.461  -9.526  1.00  0.00     0.168 HD
BRANCH  34  36
HETATM   36  C12 UNL     1      -0.550  -3.519  -7.800  1.00  0.00     0.259 C 
HETATM   37  O6  UNL     1      -0.006  -4.178  -6.867  1.00  0.00    -0.267 OA
HETATM   38  N4  UNL     1      -0.173  -2.120  -7.829  1.00  0.00    -0.307 N 
HETATM   39  C13 UNL     1       0.740  -1.546  -6.879  1.00  0.00     0.483 C 
ATOM     40  H4  UNL     1      -0.570  -1.519  -8.552  1.00  0.00     0.166 HD
HETATM   41  N5  UNL     1       0.157  -0.442  -6.125  1.00  0.00    -0.033 N 
HETATM   42  N6  UNL     1       1.934  -1.021  -7.536  1.00  0.00    -0.033 N 
ATOM     43  H53 UNL     1      -0.214   0.273  -6.753  1.00  0.00     0.278 HD
ATOM     44  H52 UNL     1      -0.710  -0.729  -5.671  1.00  0.00     0.278 HD
ATOM     45  H51 UNL     1       0.805  -0.034  -5.451  1.00  0.00     0.278 HD
ATOM     46  H63 UNL     1       2.389  -1.733  -8.108  1.00  0.00     0.278 HD
ATOM     47  H62 UNL     1       1.695  -0.358  -8.273  1.00  0.00     0.278 HD
ATOM     48  H61 UNL     1       2.582  -0.614  -6.862  1.00  0.00     0.278 HD
ENDBRANCH  34  36
ENDBRANCH   2  31
BRANCH   6  49
HETATM   49  C16 UNL     1      -5.538   0.822 -10.072  1.00  0.00     0.131 A 
HETATM   50  N8  UNL     1      -4.495   0.417 -10.839  1.00  0.00    -0.236 N 
HETATM   51  O7  UNL     1      -3.870   1.484 -11.306  1.00  0.00    -0.155 OA
ATOM     52  H8  UNL     1      -4.235  -0.552 -11.025  1.00  0.00     0.197 HD
HETATM   53  N9  UNL     1      -4.475   2.549 -10.867  1.00  0.00    -0.224 N 
HETATM   54  C17 UNL     1      -5.511   2.194 -10.101  1.00  0.00     0.152 A 
ATOM     55  H9  UNL     1      -4.201   3.508 -11.076  1.00  0.00     0.198 HD
HETATM   56  N10 UNL     1      -6.349   2.944  -9.485  1.00  0.00    -0.382 N 
ATOM     57 2H10 UNL     1      -7.140   2.673  -8.901  1.00  0.00     0.157 HD
ATOM     58 1H10 UNL     1      -6.329   3.963  -9.506  1.00  0.00     0.157 HD
ENDBRANCH   6  49
BRANCH   9  59
HETATM   59  O8  UNL     1      -9.994  -0.330  -8.577  1.00  0.00    -0.332 OA
ATOM     60  H8  UNL     1     -10.509  -0.196  -9.364  1.00  0.00     0.220 HD
ENDBRANCH   9  59
TORSDOF 12
ENDMDL
MODEL 5
REMARK VINA RESULT: -8.455200113      1.409      1.702
REMARK  12 active torsions:
REMARK  status: ('A' for Active; 'I' for Inactive)
REMARK    1  A    between atoms: C2_2  and  O1_3 
REMARK    2  A    between atoms: O1_3  and  C3_4 
REMARK    3  A    between atoms: C4_5  and  O2_6 
REMARK    4  A    between atoms: C5_8  and  C6_9 
REMARK    5  A    between atoms: C6_9  and  N1_10 
REMARK    6  A    between atoms: C6_9  and  C7_14 
REMARK    7  A    between atoms: C7_14  and  O3_15 
REMARK    8  A    between atoms: C8_18  and  N2_19 
REMARK    9  A    between atoms: C9_20  and  C10_21 
REMARK       I    between atoms: C10_21  and  N3_23 
REMARK   10  A    between atoms: C11_25  and  C12_26 
REMARK       I    between atoms: C12_26  and  N4_28 
REMARK       I    between atoms: N4_28  and  C13_30 
REMARK       I    between atoms: C13_30  and  N5_31 
REMARK       I    between atoms: C13_30  and  N6_35 
REMARK   11  A    between atoms: C15_42  and  C16_43 
REMARK   12  A    between atoms: C18_55  and  O8_56 
ROOT
HETATM    1  N2  UNL     1      -6.109  -3.167  -7.614  1.00  0.00    -0.282 N 
HETATM    2  C9  UNL     1      -4.842  -2.952  -7.972  1.00  0.00     0.181 A 
HETATM    3  N7  UNL     1      -4.761  -1.774  -8.687  1.00  0.00    -0.333 N 
ATOM      4  H7  UNL     1      -3.909  -1.374  -9.080  1.00  0.00     0.168 HD
HETATM    5  C14 UNL     1      -5.966  -1.253  -8.778  1.00  0.00     0.108 A 
HETATM    6  C15 UNL     1      -6.455  -0.091  -9.378  1.00  0.00     0.099 A 
HETATM    7  N11 UNL     1      -7.761   0.154  -9.285  1.00  0.00    -0.318 N 
ATOM      8  H11 UNL     1      -8.123   1.003  -9.721  1.00  0.00     0.169 HD
HETATM    9  C18 UNL     1      -8.627  -0.651  -8.650  1.00  0.00     0.223 A 
HETATM   10  N12 UNL     1      -8.117  -1.756  -8.087  1.00  0.00    -0.306 N 
ATOM     11  H12 UNL     1      -8.758  -2.382  -7.599  1.00  0.00     0.171 HD
HETATM   12  C19 UNL     1      -6.808  -2.095  -8.126  1.00  0.00     0.144 A 
ENDROOT
BRANCH   1  13
HETATM   13  C8  UNL     1      -6.747  -4.167  -6.897  1.00  0.00     0.263 C 
HETATM   14  C3  UNL     1      -7.426  -5.292  -7.637  1.00  0.00     0.202 C 
HETATM   15  C4  UNL     1      -7.870  -6.128  -6.449  1.00  0.00     0.182 C 
HETATM   16  C5  UNL     1      -7.769  -5.149  -5.324  1.00  0.00     0.188 C 
HETATM   17  O4  UNL     1      -7.633  -3.882  -5.895  1.00  0.00    -0.353 OA
BRANCH  14  18
HETATM   18  O1  UNL     1      -8.357  -5.016  -8.535  1.00  0.00    -0.379 OA
BRANCH  18  19
HETATM   19  C2  UNL     1      -9.682  -5.015  -8.269  1.00  0.00     0.164 C 
HETATM   20  C1  UNL     1     -10.509  -4.097  -9.137  1.00  0.00     0.033 C 
ENDBRANCH  18  19
ENDBRANCH  14  18
BRANCH  15  21
HETATM   21  O2  UNL     1      -6.955  -7.163  -6.268  1.00  0.00    -0.390 OA
ATOM     22  H2  UNL     1      -6.099  -6.862  -6.548  1.00  0.00     0.210 HD
ENDBRANCH  15  21
BRANCH  16  23
HETATM   23  C6  UNL     1      -8.885  -5.227  -4.333  1.00  0.00     0.238 C 
BRANCH  23  24
HETATM   24  N1  UNL     1      -8.430  -5.570  -3.011  1.00  0.00    -0.070 N 
ATOM     25  H13 UNL     1      -7.905  -4.802  -2.594  1.00  0.00     0.274 HD
ATOM     26  H12 UNL     1      -9.209  -5.613  -2.355  1.00  0.00     0.274 HD
ATOM     27  H11 UNL     1      -7.889  -6.435  -2.994  1.00  0.00     0.274 HD
ENDBRANCH  23  24
BRANCH  23  28
HETATM   28  C7  UNL     1      -9.735  -3.988  -4.356  1.00  0.00     0.199 C 
BRANCH  28  29
HETATM   29  O3  UNL     1     -11.093  -4.252  -4.420  1.00  0.00    -0.399 OA
ATOM     30  H3  UNL     1     -11.300  -5.082  -4.834  1.00  0.00     0.209 HD
ENDBRANCH  28  29
ENDBRANCH  23  28
ENDBRANCH  16  23
ENDBRANCH   1  13
BRANCH   2  31
HETATM   31  C10 UNL     1      -3.650  -3.715  -7.742  1.00  0.00     0.290 C 
HETATM   32  O5  UNL     1      -2.873  -3.903  -8.748  1.00  0.00    -0.264 OA
HETATM   33  N3  UNL     1      -3.234  -4.273  -6.560  1.00  0.00    -0.325 N 
HETATM   34  C11 UNL     1      -2.804  -5.386  -6.200  1.00  0.00     0.165 C 
ATOM     35  H3  UNL     1      -3.291  -3.614  -5.784  1.00  0.00     0.168 HD
BRANCH  34  36
HETATM   36  C12 UNL     1      -2.600  -6.536  -7.024  1.00  0.00     0.259 C 
HETATM   37  O6  UNL     1      -3.293  -7.595  -7.025  1.00  0.00    -0.267 OA
HETATM   38  N4  UNL     1      -1.506  -6.549  -7.975  1.00  0.00    -0.307 N 
HETATM   39  C13 UNL     1      -1.244  -7.670  -8.835  1.00  0.00     0.483 C 
ATOM     40  H4  UNL     1      -0.900  -5.731  -8.036  1.00  0.00     0.166 HD
HETATM   41  N5  UNL     1       0.094  -8.222  -8.657  1.00  0.00    -0.033 N 
HETATM   42  N6  UNL     1      -1.363  -7.301 -10.243  1.00  0.00    -0.033 N 
ATOM     43  H53 UNL     1       0.805  -7.499  -8.773  1.00  0.00     0.278 HD
ATOM     44  H52 UNL     1       0.261  -8.465  -7.681  1.00  0.00     0.278 HD
ATOM     45  H51 UNL     1       0.281  -9.018  -9.268  1.00  0.00     0.278 HD
ATOM     46  H63 UNL     1      -2.270  -6.881 -10.444  1.00  0.00     0.278 HD
ATOM     47  H62 UNL     1      -0.767  -6.506 -10.473  1.00  0.00     0.278 HD
ATOM     48  H61 UNL     1      -1.176  -8.097 -10.854  1.00  0.00     0.278 HD
ENDBRANCH  34  36
ENDBRANCH   2  31
BRANCH   6  49
HETATM   49  C16 UNL     1      -5.519   0.787 -10.070  1.00  0.00     0.131 A 
HETATM   50  N8  UNL     1      -4.487   0.375 -10.848  1.00  0.00    -0.236 N 
HETATM   51  O7  UNL     1      -3.852   1.437 -11.311  1.00  0.00    -0.155 OA
ATOM     52  H8  UNL     1      -4.242  -0.595 -11.045  1.00  0.00     0.197 HD
HETATM   53  N9  UNL     1      -4.439   2.506 -10.858  1.00  0.00    -0.224 N 
HETATM   54  C17 UNL     1      -5.474   2.159 -10.087  1.00  0.00     0.152 A 
ATOM     55  H9  UNL     1      -4.153   3.464 -11.061  1.00  0.00     0.198 HD
HETATM   56  N10 UNL     1      -6.297   2.914  -9.458  1.00  0.00    -0.382 N 
ATOM     57 2H10 UNL     1      -7.087   2.649  -8.869  1.00  0.00     0.157 HD
ATOM     58 1H10 UNL     1      -6.263   3.933  -9.470  1.00  0.00     0.157 HD
ENDBRANCH   6  49
BRANCH   9  59
HETATM   59  O8  UNL     1      -9.986  -0.340  -8.585  1.00  0.00    -0.332 OA
ATOM     60  H8  UNL     1     -10.616  -0.773  -9.149  1.00  0.00     0.220 HD
ENDBRANCH   9  59
TORSDOF 12
ENDMDL
