MODEL 1
REMARK VINA RESULT: -7.733130622      0.000      0.000
REMARK  14 active torsions:
REMARK  status: ('A' for Active; 'I' for Inactive)
REMARK    1  A    between atoms: C2_2  and  O1_3 
REMARK    2  A    between atoms: C2_2  and  C3_5 
REMARK    3  A    between atoms: C3_5  and  C4_6 
REMARK    4  A    between atoms: C3_5  and  N1_10 
REMARK    5  A    between atoms: C4_6  and  C5_7 
REMARK    6  A    between atoms: C5_7  and  S1_8 
REMARK       I    between atoms: N1_10  and  C6_12 
REMARK    7  A    between atoms: C6_12  and  C7_14 
REMARK    8  A    between atoms: C11_24  and  C12_25 
REMARK    9  A    between atoms: C12_25  and  O6_26 
REMARK   10  A    between atoms: C13_28  and  C14_29 
REMARK   11  A    between atoms: C14_29  and  O7_30 
REMARK   12  A    between atoms: C14_29  and  C15_32 
REMARK   13  A    between atoms: C15_32  and  O8_33 
REMARK   14  A    between atoms: C17_37  and  O10_38 
ROOT
HETATM    1  C7  UNL     1     -14.759   1.957   8.916  1.00  0.00     0.350 C 
HETATM    2  N2  UNL     1     -15.813   2.640   9.717  1.00  0.00    -0.006 N 
ATOM      3  H21 UNL     1     -16.678   2.845   9.218  1.00  0.00     0.284 HD
ATOM      4  H22 UNL     1     -15.618   3.611   9.960  1.00  0.00     0.284 HD
HETATM    5  C8  UNL     1     -15.939   1.736  10.829  1.00  0.00     0.475 C 
HETATM    6  O3  UNL     1     -15.867   0.511  10.122  1.00  0.00    -0.294 OA
HETATM    7  C9  UNL     1     -14.515   0.748   9.675  1.00  0.00     0.271 C 
HETATM    8  O4  UNL     1     -13.900  -0.324   9.180  1.00  0.00    -0.315 OA
HETATM    9  C10 UNL     1     -12.635  -0.326   9.737  1.00  0.00     0.308 C 
HETATM   10  O5  UNL     1     -12.077  -1.538  10.022  1.00  0.00    -0.348 OA
HETATM   11  C11 UNL     1     -10.767  -1.294  10.474  1.00  0.00     0.179 C 
HETATM   12  C13 UNL     1     -10.660  -0.325  11.585  1.00  0.00     0.185 C 
HETATM   13  O9  UNL     1     -11.566   0.756  11.462  1.00  0.00    -0.355 OA
HETATM   14  C16 UNL     1     -12.769   0.315  11.136  1.00  0.00     0.226 C 
HETATM   15  C17 UNL     1     -13.253  -0.736  12.146  1.00  0.00     0.368 C 
HETATM   16  N3  UNL     1     -14.582  -0.379  11.780  1.00  0.00    -0.004 N 
ATOM     17  H31 UNL     1     -15.311  -0.294  12.489  1.00  0.00     0.284 HD
ATOM     18  H32 UNL     1     -15.173  -1.034  11.268  1.00  0.00     0.284 HD
HETATM   19  C18 UNL     1     -14.030   0.835  11.107  1.00  0.00     0.332 C 
HETATM   20  O11 UNL     1     -14.721   1.881  11.539  1.00  0.00    -0.293 OA
ENDROOT
BRANCH   1  21
HETATM   21  C6  UNL     1     -13.732   2.924   8.624  1.00  0.00     0.255 C 
HETATM   22  N1  UNL     1     -14.034   4.166   8.044  1.00  0.00    -0.352 N 
ATOM     23  H1  UNL     1     -14.999   4.400   7.812  1.00  0.00     0.163 HD
HETATM   24  O2  UNL     1     -12.534   2.690   8.886  1.00  0.00    -0.271 OA
BRANCH  22  25
HETATM   25  C3  UNL     1     -12.967   5.120   7.775  1.00  0.00     0.113 C 
BRANCH  25  26
HETATM   26  C2  UNL     1     -12.855   6.137   8.903  1.00  0.00     0.136 C 
HETATM   27  C1  UNL     1     -11.943   7.269   8.397  1.00  0.00     0.041 C 
BRANCH  26  28
HETATM   28  O1  UNL     1     -12.383   5.599  10.069  1.00  0.00    -0.394 OA
ATOM     29  H1  UNL     1     -11.493   5.282   9.969  1.00  0.00     0.210 HD
ENDBRANCH  26  28
ENDBRANCH  25  26
BRANCH  25  30
HETATM   30  C4  UNL     1     -13.199   5.874   6.502  1.00  0.00     0.038 C 
BRANCH  30  31
HETATM   31  C5  UNL     1     -13.452   4.984   5.314  1.00  0.00     0.089 C 
BRANCH  31  32
HETATM   32  S1  UNL     1     -12.445   5.439   3.875  1.00  0.00    -0.085 SA
HETATM   33  S2  UNL     1     -12.300   3.771   2.541  1.00  0.00    -0.013 SA
ENDBRANCH  31  32
ENDBRANCH  30  31
ENDBRANCH  25  30
ENDBRANCH  22  25
ENDBRANCH   1  21
BRANCH  15  34
HETATM   34  O10 UNL     1     -13.017  -0.365  13.474  1.00  0.00    -0.367 OA
ATOM     35  H10 UNL     1     -13.506  -0.889  14.098  1.00  0.00     0.212 HD
ENDBRANCH  15  34
BRANCH  11  36
HETATM   36  C12 UNL     1     -10.268  -2.673  10.883  1.00  0.00     0.198 C 
BRANCH  36  37
HETATM   37  O6  UNL     1     -11.089  -3.187  11.914  1.00  0.00    -0.398 OA
ATOM     38  H6  UNL     1     -10.545  -3.550  12.603  1.00  0.00     0.209 HD
ENDBRANCH  36  37
ENDBRANCH  11  36
BRANCH  12  39
HETATM   39  C14 UNL     1      -9.303   0.366  11.596  1.00  0.00     0.173 C 
BRANCH  39  40
HETATM   40  O7  UNL     1      -9.128   1.215  12.662  1.00  0.00    -0.391 OA
ATOM     41  H7  UNL     1      -8.607   1.983  12.455  1.00  0.00     0.210 HD
ENDBRANCH  39  40
BRANCH  39  42
HETATM   42  C15 UNL     1      -8.839   0.942  10.318  1.00  0.00     0.198 C 
BRANCH  42  43
HETATM   43  O8  UNL     1      -9.687   1.986   9.933  1.00  0.00    -0.398 OA
ATOM     44  H8  UNL     1     -10.146   1.751   9.136  1.00  0.00     0.209 HD
ENDBRANCH  42  43
ENDBRANCH  39  42
ENDBRANCH  12  39
TORSDOF 14
ENDMDL
MODEL 2
REMARK VINA RESULT: -7.710268367      1.617      1.879
REMARK  14 active torsions:
REMARK  status: ('A' for Active; 'I' for Inactive)
REMARK    1  A    between atoms: C2_2  and  O1_3 
REMARK    2  A    between atoms: C2_2  and  C3_5 
REMARK    3  A    between atoms: C3_5  and  C4_6 
REMARK    4  A    between atoms: C3_5  and  N1_10 
REMARK    5  A    between atoms: C4_6  and  C5_7 
REMARK    6  A    between atoms: C5_7  and  S1_8 
REMARK       I    between atoms: N1_10  and  C6_12 
REMARK    7  A    between atoms: C6_12  and  C7_14 
REMARK    8  A    between atoms: C11_24  and  C12_25 
REMARK    9  A    between atoms: C12_25  and  O6_26 
REMARK   10  A    between atoms: C13_28  and  C14_29 
REMARK   11  A    between atoms: C14_29  and  O7_30 
REMARK   12  A    between atoms: C14_29  and  C15_32 
REMARK   13  A    between atoms: C15_32  and  O8_33 
REMARK   14  A    between atoms: C17_37  and  O10_38 
ROOT
HETATM    1  C7  UNL     1     -15.216   2.380   9.311  1.00  0.00     0.350 C 
HETATM    2  N2  UNL     1     -15.997   3.330  10.149  1.00  0.00    -0.006 N 
ATOM      3  H21 UNL     1     -16.845   3.699   9.720  1.00  0.00     0.284 HD
ATOM      4  H22 UNL     1     -15.566   4.244  10.293  1.00  0.00     0.284 HD
HETATM    5  C8  UNL     1     -16.196   2.546  11.339  1.00  0.00     0.475 C 
HETATM    6  O3  UNL     1     -16.477   1.298  10.730  1.00  0.00    -0.294 OA
HETATM    7  C9  UNL     1     -15.163   1.193  10.139  1.00  0.00     0.271 C 
HETATM    8  O4  UNL     1     -14.860  -0.018   9.678  1.00  0.00    -0.315 OA
HETATM    9  C10 UNL     1     -13.573  -0.277  10.110  1.00  0.00     0.308 C 
HETATM   10  O5  UNL     1     -13.269  -1.566  10.440  1.00  0.00    -0.348 OA
HETATM   11  C11 UNL     1     -11.896  -1.603  10.744  1.00  0.00     0.179 C 
HETATM   12  C13 UNL     1     -11.454  -0.621  11.756  1.00  0.00     0.185 C 
HETATM   13  O9  UNL     1     -12.106   0.630  11.632  1.00  0.00    -0.355 OA
HETATM   14  C16 UNL     1     -13.406   0.458  11.458  1.00  0.00     0.226 C 
HETATM   15  C17 UNL     1     -13.995  -0.393  12.593  1.00  0.00     0.368 C 
HETATM   16  N3  UNL     1     -15.244   0.236  12.327  1.00  0.00    -0.004 N 
ATOM     17  H31 UNL     1     -15.853   0.527  13.092  1.00  0.00     0.284 HD
ATOM     18  H32 UNL     1     -16.019  -0.295  11.929  1.00  0.00     0.284 HD
HETATM   19  C18 UNL     1     -14.515   1.250  11.507  1.00  0.00     0.332 C 
HETATM   20  O11 UNL     1     -14.905   2.449  11.916  1.00  0.00    -0.293 OA
ENDROOT
BRANCH   1  21
HETATM   21  C6  UNL     1     -14.039   3.066   8.845  1.00  0.00     0.255 C 
HETATM   22  N1  UNL     1     -13.473   4.130   9.567  1.00  0.00    -0.352 N 
ATOM     23  H1  UNL     1     -13.900   4.438  10.440  1.00  0.00     0.163 HD
HETATM   24  O2  UNL     1     -13.476   2.733   7.781  1.00  0.00    -0.271 OA
BRANCH  22  25
HETATM   25  C3  UNL     1     -12.276   4.790   9.067  1.00  0.00     0.113 C 
BRANCH  25  26
HETATM   26  C2  UNL     1     -11.029   4.224   9.732  1.00  0.00     0.136 C 
HETATM   27  C1  UNL     1      -9.817   4.827   9.001  1.00  0.00     0.041 C 
BRANCH  26  28
HETATM   28  O1  UNL     1     -10.987   2.856   9.724  1.00  0.00    -0.394 OA
ATOM     29  H1  UNL     1     -11.724   2.484  10.193  1.00  0.00     0.210 HD
ENDBRANCH  26  28
ENDBRANCH  25  26
BRANCH  25  30
HETATM   30  C4  UNL     1     -12.301   6.265   9.326  1.00  0.00     0.038 C 
BRANCH  30  31
HETATM   31  C5  UNL     1     -12.772   7.074   8.147  1.00  0.00     0.089 C 
BRANCH  31  32
HETATM   32  S1  UNL     1     -12.757   6.126   6.600  1.00  0.00    -0.085 SA
HETATM   33  S2  UNL     1     -14.767   5.683   6.007  1.00  0.00    -0.013 SA
ENDBRANCH  31  32
ENDBRANCH  30  31
ENDBRANCH  25  30
ENDBRANCH  22  25
ENDBRANCH   1  21
BRANCH  15  34
HETATM   34  O10 UNL     1     -13.537  -0.010  13.857  1.00  0.00    -0.367 OA
ATOM     35  H10 UNL     1     -13.246  -0.744  14.385  1.00  0.00     0.212 HD
ENDBRANCH  15  34
BRANCH  11  36
HETATM   36  C12 UNL     1     -11.672  -3.033  11.215  1.00  0.00     0.198 C 
BRANCH  36  37
HETATM   37  O6  UNL     1     -10.367  -3.448  10.861  1.00  0.00    -0.398 OA
ATOM     38  H6  UNL     1     -10.328  -4.398  10.849  1.00  0.00     0.209 HD
ENDBRANCH  36  37
ENDBRANCH  11  36
BRANCH  12  39
HETATM   39  C14 UNL     1      -9.985  -0.259  11.582  1.00  0.00     0.173 C 
BRANCH  39  40
HETATM   40  O7  UNL     1      -9.568   0.757  12.408  1.00  0.00    -0.391 OA
ATOM     41  H7  UNL     1      -9.345   1.556  11.944  1.00  0.00     0.210 HD
ENDBRANCH  39  40
BRANCH  39  42
HETATM   42  C15 UNL     1      -9.496  -0.114  10.196  1.00  0.00     0.198 C 
BRANCH  42  43
HETATM   43  O8  UNL     1      -8.886  -1.304   9.782  1.00  0.00    -0.398 OA
ATOM     44  H8  UNL     1      -9.247  -2.036  10.268  1.00  0.00     0.209 HD
ENDBRANCH  42  43
ENDBRANCH  39  42
ENDBRANCH  12  39
TORSDOF 14
ENDMDL
MODEL 3
REMARK VINA RESULT: -7.679166382      1.060      1.130
REMARK  14 active torsions:
REMARK  status: ('A' for Active; 'I' for Inactive)
REMARK    1  A    between atoms: C2_2  and  O1_3 
REMARK    2  A    between atoms: C2_2  and  C3_5 
REMARK    3  A    between atoms: C3_5  and  C4_6 
REMARK    4  A    between atoms: C3_5  and  N1_10 
REMARK    5  A    between atoms: C4_6  and  C5_7 
REMARK    6  A    between atoms: C5_7  and  S1_8 
REMARK       I    between atoms: N1_10  and  C6_12 
REMARK    7  A    between atoms: C6_12  and  C7_14 
REMARK    8  A    between atoms: C11_24  and  C12_25 
REMARK    9  A    between atoms: C12_25  and  O6_26 
REMARK   10  A    between atoms: C13_28  and  C14_29 
REMARK   11  A    between atoms: C14_29  and  O7_30 
REMARK   12  A    between atoms: C14_29  and  C15_32 
REMARK   13  A    between atoms: C15_32  and  O8_33 
REMARK   14  A    between atoms: C17_37  and  O10_38 
ROOT
HETATM    1  C7  UNL     1     -14.688   1.972   8.903  1.00  0.00     0.350 C 
HETATM    2  N2  UNL     1     -15.746   2.662   9.691  1.00  0.00    -0.006 N 
ATOM      3  H21 UNL     1     -16.603   2.875   9.181  1.00  0.00     0.284 HD
ATOM      4  H22 UNL     1     -15.547   3.632   9.938  1.00  0.00     0.284 HD
HETATM    5  C8  UNL     1     -15.894   1.758  10.801  1.00  0.00     0.475 C 
HETATM    6  O3  UNL     1     -15.823   0.533  10.093  1.00  0.00    -0.294 OA
HETATM    7  C9  UNL     1     -14.463   0.760   9.663  1.00  0.00     0.271 C 
HETATM    8  O4  UNL     1     -13.850  -0.316   9.175  1.00  0.00    -0.315 OA
HETATM    9  C10 UNL     1     -12.593  -0.328   9.748  1.00  0.00     0.308 C 
HETATM   10  O5  UNL     1     -12.048  -1.545  10.039  1.00  0.00    -0.348 OA
HETATM   11  C11 UNL     1     -10.742  -1.313  10.508  1.00  0.00     0.179 C 
HETATM   12  C13 UNL     1     -10.641  -0.345  11.621  1.00  0.00     0.185 C 
HETATM   13  O9  UNL     1     -11.537   0.743  11.487  1.00  0.00    -0.355 OA
HETATM   14  C16 UNL     1     -12.740   0.312  11.146  1.00  0.00     0.226 C 
HETATM   15  C17 UNL     1     -13.244  -0.735  12.149  1.00  0.00     0.368 C 
HETATM   16  N3  UNL     1     -14.566  -0.368  11.767  1.00  0.00    -0.004 N 
ATOM     17  H31 UNL     1     -15.303  -0.278  12.466  1.00  0.00     0.284 HD
ATOM     18  H32 UNL     1     -15.156  -1.017  11.247  1.00  0.00     0.284 HD
HETATM   19  C18 UNL     1     -13.996   0.843  11.101  1.00  0.00     0.332 C 
HETATM   20  O11 UNL     1     -14.684   1.893  11.526  1.00  0.00    -0.293 OA
ENDROOT
BRANCH   1  21
HETATM   21  C6  UNL     1     -13.649   2.930   8.625  1.00  0.00     0.255 C 
HETATM   22  N1  UNL     1     -13.927   4.153   7.992  1.00  0.00    -0.352 N 
ATOM     23  H1  UNL     1     -14.881   4.378   7.711  1.00  0.00     0.163 HD
HETATM   24  O2  UNL     1     -12.463   2.707   8.945  1.00  0.00    -0.271 OA
BRANCH  22  25
HETATM   25  C3  UNL     1     -12.850   5.100   7.740  1.00  0.00     0.113 C 
BRANCH  25  26
HETATM   26  C2  UNL     1     -12.844   6.205   8.788  1.00  0.00     0.136 C 
HETATM   27  C1  UNL     1     -11.857   7.280   8.300  1.00  0.00     0.041 C 
BRANCH  26  28
HETATM   28  O1  UNL     1     -12.519   5.759  10.039  1.00  0.00    -0.394 OA
ATOM     29  H1  UNL     1     -12.627   4.818  10.111  1.00  0.00     0.210 HD
ENDBRANCH  26  28
ENDBRANCH  25  26
BRANCH  25  30
HETATM   30  C4  UNL     1     -12.978   5.747   6.395  1.00  0.00     0.038 C 
BRANCH  30  31
HETATM   31  C5  UNL     1     -14.345   5.595   5.783  1.00  0.00     0.089 C 
BRANCH  31  32
HETATM   32  S1  UNL     1     -14.997   7.160   5.135  1.00  0.00    -0.085 SA
HETATM   33  S2  UNL     1     -13.418   8.601   5.011  1.00  0.00    -0.013 SA
ENDBRANCH  31  32
ENDBRANCH  30  31
ENDBRANCH  25  30
ENDBRANCH  22  25
ENDBRANCH   1  21
BRANCH  15  34
HETATM   34  O10 UNL     1     -13.022  -0.368  13.480  1.00  0.00    -0.367 OA
ATOM     35  H10 UNL     1     -13.731  -0.624  14.059  1.00  0.00     0.212 HD
ENDBRANCH  15  34
BRANCH  11  36
HETATM   36  C12 UNL     1     -10.259  -2.696  10.922  1.00  0.00     0.198 C 
BRANCH  36  37
HETATM   37  O6  UNL     1     -11.117  -3.218  11.919  1.00  0.00    -0.398 OA
ATOM     38  H6  UNL     1     -10.918  -4.136  12.060  1.00  0.00     0.209 HD
ENDBRANCH  36  37
ENDBRANCH  11  36
BRANCH  12  39
HETATM   39  C14 UNL     1      -9.279   0.335  11.649  1.00  0.00     0.173 C 
BRANCH  39  40
HETATM   40  O7  UNL     1      -9.119   1.199  12.706  1.00  0.00    -0.391 OA
ATOM     41  H7  UNL     1      -9.369   2.094  12.505  1.00  0.00     0.210 HD
ENDBRANCH  39  40
BRANCH  39  42
HETATM   42  C15 UNL     1      -8.784   0.887  10.373  1.00  0.00     0.198 C 
BRANCH  42  43
HETATM   43  O8  UNL     1      -9.625   1.919   9.944  1.00  0.00    -0.398 OA
ATOM     44  H8  UNL     1      -9.246   2.350   9.188  1.00  0.00     0.209 HD
ENDBRANCH  42  43
ENDBRANCH  39  42
ENDBRANCH  12  39
TORSDOF 14
ENDMDL
MODEL 4
REMARK VINA RESULT: -7.515289757      0.920      1.061
REMARK  14 active torsions:
REMARK  status: ('A' for Active; 'I' for Inactive)
REMARK    1  A    between atoms: C2_2  and  O1_3 
REMARK    2  A    between atoms: C2_2  and  C3_5 
REMARK    3  A    between atoms: C3_5  and  C4_6 
REMARK    4  A    between atoms: C3_5  and  N1_10 
REMARK    5  A    between atoms: C4_6  and  C5_7 
REMARK    6  A    between atoms: C5_7  and  S1_8 
REMARK       I    between atoms: N1_10  and  C6_12 
REMARK    7  A    between atoms: C6_12  and  C7_14 
REMARK    8  A    between atoms: C11_24  and  C12_25 
REMARK    9  A    between atoms: C12_25  and  O6_26 
REMARK   10  A    between atoms: C13_28  and  C14_29 
REMARK   11  A    between atoms: C14_29  and  O7_30 
REMARK   12  A    between atoms: C14_29  and  C15_32 
REMARK   13  A    between atoms: C15_32  and  O8_33 
REMARK   14  A    between atoms: C17_37  and  O10_38 
ROOT
HETATM    1  C7  UNL     1     -15.013   2.199   9.185  1.00  0.00     0.350 C 
HETATM    2  N2  UNL     1     -15.817   3.149  10.001  1.00  0.00    -0.006 N 
ATOM      3  H21 UNL     1     -16.666   3.499   9.557  1.00  0.00     0.284 HD
ATOM      4  H22 UNL     1     -15.402   4.071  10.138  1.00  0.00     0.284 HD
HETATM    5  C8  UNL     1     -16.020   2.377  11.199  1.00  0.00     0.475 C 
HETATM    6  O3  UNL     1     -16.274   1.117  10.604  1.00  0.00    -0.294 OA
HETATM    7  C9  UNL     1     -14.952   1.024  10.030  1.00  0.00     0.271 C 
HETATM    8  O4  UNL     1     -14.625  -0.189   9.588  1.00  0.00    -0.315 OA
HETATM    9  C10 UNL     1     -13.340  -0.422  10.039  1.00  0.00     0.308 C 
HETATM   10  O5  UNL     1     -13.021  -1.702  10.390  1.00  0.00    -0.348 OA
HETATM   11  C11 UNL     1     -11.651  -1.714  10.711  1.00  0.00     0.179 C 
HETATM   12  C13 UNL     1     -11.236  -0.712  11.715  1.00  0.00     0.185 C 
HETATM   13  O9  UNL     1     -11.906   0.527  11.566  1.00  0.00    -0.355 OA
HETATM   14  C16 UNL     1     -13.200   0.333  11.380  1.00  0.00     0.226 C 
HETATM   15  C17 UNL     1     -13.791  -0.512  12.518  1.00  0.00     0.368 C 
HETATM   16  N3  UNL     1     -15.045   0.095  12.228  1.00  0.00    -0.004 N 
ATOM     17  H31 UNL     1     -15.668   0.387  12.983  1.00  0.00     0.284 HD
ATOM     18  H32 UNL     1     -15.807  -0.453  11.828  1.00  0.00     0.284 HD
HETATM   19  C18 UNL     1     -14.322   1.109  11.404  1.00  0.00     0.332 C 
HETATM   20  O11 UNL     1     -14.735   2.308  11.792  1.00  0.00    -0.293 OA
ENDROOT
BRANCH   1  21
HETATM   21  C6  UNL     1     -13.840   2.897   8.724  1.00  0.00     0.255 C 
HETATM   22  N1  UNL     1     -13.888   4.253   8.360  1.00  0.00    -0.352 N 
ATOM     23  H1  UNL     1     -14.767   4.765   8.411  1.00  0.00     0.163 HD
HETATM   24  O2  UNL     1     -12.737   2.319   8.639  1.00  0.00    -0.271 OA
BRANCH  22  25
HETATM   25  C3  UNL     1     -12.677   4.925   7.909  1.00  0.00     0.113 C 
BRANCH  25  26
HETATM   26  C2  UNL     1     -12.063   5.744   9.036  1.00  0.00     0.136 C 
HETATM   27  C1  UNL     1     -10.676   5.142   9.324  1.00  0.00     0.041 C 
BRANCH  26  28
HETATM   28  O1  UNL     1     -12.837   5.777  10.164  1.00  0.00    -0.394 OA
ATOM     29  H1  UNL     1     -13.716   6.080   9.971  1.00  0.00     0.210 HD
ENDBRANCH  26  28
ENDBRANCH  25  26
BRANCH  25  30
HETATM   30  C4  UNL     1     -12.945   5.853   6.765  1.00  0.00     0.038 C 
BRANCH  30  31
HETATM   31  C5  UNL     1     -13.391   5.147   5.511  1.00  0.00     0.089 C 
BRANCH  31  32
HETATM   32  S1  UNL     1     -12.433   5.645   4.053  1.00  0.00    -0.085 SA
HETATM   33  S2  UNL     1     -12.268   3.993   2.701  1.00  0.00    -0.013 SA
ENDBRANCH  31  32
ENDBRANCH  30  31
ENDBRANCH  25  30
ENDBRANCH  22  25
ENDBRANCH   1  21
BRANCH  15  34
HETATM   34  O10 UNL     1     -13.354  -0.105  13.783  1.00  0.00    -0.367 OA
ATOM     35  H10 UNL     1     -13.333  -0.815  14.414  1.00  0.00     0.212 HD
ENDBRANCH  15  34
BRANCH  11  36
HETATM   36  C12 UNL     1     -11.412  -3.134  11.204  1.00  0.00     0.198 C 
BRANCH  36  37
HETATM   37  O6  UNL     1     -10.087  -3.524  10.896  1.00  0.00    -0.398 OA
ATOM     38  H6  UNL     1      -9.511  -2.771  10.958  1.00  0.00     0.209 HD
ENDBRANCH  36  37
ENDBRANCH  11  36
BRANCH  12  39
HETATM   39  C14 UNL     1      -9.771  -0.331  11.554  1.00  0.00     0.173 C 
BRANCH  39  40
HETATM   40  O7  UNL     1      -8.919  -1.087  12.322  1.00  0.00    -0.391 OA
ATOM     41  H7  UNL     1      -8.215  -1.487  11.826  1.00  0.00     0.210 HD
ENDBRANCH  39  40
BRANCH  39  42
HETATM   42  C15 UNL     1      -9.451   1.110  11.585  1.00  0.00     0.198 C 
BRANCH  42  43
HETATM   43  O8  UNL     1      -8.586   1.380  12.651  1.00  0.00    -0.398 OA
ATOM     44  H8  UNL     1      -8.000   2.090  12.418  1.00  0.00     0.209 HD
ENDBRANCH  42  43
ENDBRANCH  39  42
ENDBRANCH  12  39
TORSDOF 14
ENDMDL
MODEL 5
REMARK VINA RESULT: -7.001019043      2.448      2.899
REMARK  14 active torsions:
REMARK  status: ('A' for Active; 'I' for Inactive)
REMARK    1  A    between atoms: C2_2  and  O1_3 
REMARK    2  A    between atoms: C2_2  and  C3_5 
REMARK    3  A    between atoms: C3_5  and  C4_6 
REMARK    4  A    between atoms: C3_5  and  N1_10 
REMARK    5  A    between atoms: C4_6  and  C5_7 
REMARK    6  A    between atoms: C5_7  and  S1_8 
REMARK       I    between atoms: N1_10  and  C6_12 
REMARK    7  A    between atoms: C6_12  and  C7_14 
REMARK    8  A    between atoms: C11_24  and  C12_25 
REMARK    9  A    between atoms: C12_25  and  O6_26 
REMARK   10  A    between atoms: C13_28  and  C14_29 
REMARK   11  A    between atoms: C14_29  and  O7_30 
REMARK   12  A    between atoms: C14_29  and  C15_32 
REMARK   13  A    between atoms: C15_32  and  O8_33 
REMARK   14  A    between atoms: C17_37  and  O10_38 
ROOT
HETATM    1  C7  UNL     1     -14.806   3.505   9.461  1.00  0.00     0.350 C 
HETATM    2  N2  UNL     1     -15.855   4.013  10.386  1.00  0.00    -0.006 N 
ATOM      3  H21 UNL     1     -16.613   4.534   9.946  1.00  0.00     0.284 HD
ATOM      4  H22 UNL     1     -15.568   4.776  10.999  1.00  0.00     0.284 HD
HETATM    5  C8  UNL     1     -16.246   2.798  11.051  1.00  0.00     0.475 C 
HETATM    6  O3  UNL     1     -16.244   1.929   9.931  1.00  0.00    -0.294 OA
HETATM    7  C9  UNL     1     -14.825   2.078   9.708  1.00  0.00     0.271 C 
HETATM    8  O4  UNL     1     -14.298   1.177   8.882  1.00  0.00    -0.315 OA
HETATM    9  C10 UNL     1     -13.128   0.751   9.483  1.00  0.00     0.308 C 
HETATM   10  O5  UNL     1     -12.778  -0.557   9.317  1.00  0.00    -0.348 OA
HETATM   11  C11 UNL     1     -11.518  -0.728   9.919  1.00  0.00     0.179 C 
HETATM   12  C13 UNL     1     -11.430  -0.273  11.323  1.00  0.00     0.185 C 
HETATM   13  O9  UNL     1     -12.162   0.915  11.563  1.00  0.00    -0.355 OA
HETATM   14  C16 UNL     1     -13.360   0.841  11.008  1.00  0.00     0.226 C 
HETATM   15  C17 UNL     1     -14.106  -0.409  11.496  1.00  0.00     0.368 C 
HETATM   16  N3  UNL     1     -15.317   0.281  11.204  1.00  0.00    -0.004 N 
ATOM     17  H31 UNL     1     -16.115   0.222  11.836  1.00  0.00     0.284 HD
ATOM     18  H32 UNL     1     -15.917  -0.025  10.438  1.00  0.00     0.284 HD
HETATM   19  C18 UNL     1     -14.526   1.544  11.093  1.00  0.00     0.332 C 
HETATM   20  O11 UNL     1     -15.123   2.457  11.846  1.00  0.00    -0.293 OA
ENDROOT
BRANCH   1  21
HETATM   21  C6  UNL     1     -13.630   4.318   9.639  1.00  0.00     0.255 C 
HETATM   22  N1  UNL     1     -12.460   4.092   8.895  1.00  0.00    -0.352 N 
ATOM     23  H1  UNL     1     -12.426   3.333   8.215  1.00  0.00     0.163 HD
HETATM   24  O2  UNL     1     -13.614   5.259  10.459  1.00  0.00    -0.271 OA
BRANCH  22  25
HETATM   25  C3  UNL     1     -11.296   4.944   9.097  1.00  0.00     0.113 C 
BRANCH  25  26
HETATM   26  C2  UNL     1     -11.122   5.905   7.929  1.00  0.00     0.136 C 
HETATM   27  C1  UNL     1     -11.181   7.330   8.509  1.00  0.00     0.041 C 
BRANCH  26  28
HETATM   28  O1  UNL     1     -12.051   5.729   6.941  1.00  0.00    -0.394 OA
ATOM     29  H1  UNL     1     -11.718   5.171   6.248  1.00  0.00     0.210 HD
ENDBRANCH  26  28
ENDBRANCH  25  26
BRANCH  25  30
HETATM   30  C4  UNL     1     -10.035   4.146   9.225  1.00  0.00     0.038 C 
BRANCH  30  31
HETATM   31  C5  UNL     1      -9.083   4.688  10.258  1.00  0.00     0.089 C 
BRANCH  31  32
HETATM   32  S1  UNL     1      -7.362   4.215   9.935  1.00  0.00    -0.085 SA
HETATM   33  S2  UNL     1      -7.303   2.685   8.439  1.00  0.00    -0.013 SA
ENDBRANCH  31  32
ENDBRANCH  30  31
ENDBRANCH  25  30
ENDBRANCH  22  25
ENDBRANCH   1  21
BRANCH  15  34
HETATM   34  O10 UNL     1     -14.000  -0.603  12.877  1.00  0.00    -0.367 OA
ATOM     35  H10 UNL     1     -14.841  -0.736  13.299  1.00  0.00     0.212 HD
ENDBRANCH  15  34
BRANCH  11  36
HETATM   36  C12 UNL     1     -11.264  -2.224   9.798  1.00  0.00     0.198 C 
BRANCH  36  37
HETATM   37  O6  UNL     1     -11.894  -2.900  10.870  1.00  0.00    -0.398 OA
ATOM     38  H6  UNL     1     -11.951  -3.827  10.671  1.00  0.00     0.209 HD
ENDBRANCH  36  37
ENDBRANCH  11  36
BRANCH  12  39
HETATM   39  C14 UNL     1     -10.007   0.119  11.696  1.00  0.00     0.173 C 
BRANCH  39  40
HETATM   40  O7  UNL     1      -9.535   1.202  10.995  1.00  0.00    -0.391 OA
ATOM     41  H7  UNL     1      -9.106   0.969  10.180  1.00  0.00     0.210 HD
ENDBRANCH  39  40
BRANCH  39  42
HETATM   42  C15 UNL     1      -9.022  -0.974  11.802  1.00  0.00     0.198 C 
BRANCH  42  43
HETATM   43  O8  UNL     1      -9.525  -1.989  12.624  1.00  0.00    -0.398 OA
ATOM     44  H8  UNL     1     -10.239  -2.434  12.185  1.00  0.00     0.209 HD
ENDBRANCH  42  43
ENDBRANCH  39  42
ENDBRANCH  12  39
TORSDOF 14
ENDMDL
