MODEL 1
REMARK VINA RESULT: -9.522408088      0.000      0.000
REMARK  17 active torsions:
REMARK  status: ('A' for Active; 'I' for Inactive)
REMARK    1  A    between atoms: C2_2  and  O1_3 
REMARK    2  A    between atoms: O1_3  and  C3_4 
REMARK       I    between atoms: C3_4  and  N1_6 
REMARK    3  A    between atoms: N1_6  and  C4_8 
REMARK    4  A    between atoms: C4_8  and  C5_9 
REMARK    5  A    between atoms: C4_8  and  C18_49 
REMARK    6  A    between atoms: C5_9  and  O3_10 
REMARK    7  A    between atoms: C5_9  and  N2_12 
REMARK    8  A    between atoms: C6_17  and  C7_18 
REMARK    9  A    between atoms: C7_18  and  C8_20 
REMARK   10  A    between atoms: C8_20  and  O5_21 
REMARK   11  A    between atoms: C8_20  and  C9_23 
REMARK   12  A    between atoms: C9_23  and  N5_24 
REMARK   13  A    between atoms: C12_29  and  N7_30 
REMARK   14  A    between atoms: C13_35  and  N9_36 
REMARK   15  A    between atoms: C15_42  and  N11_43 
REMARK       I    between atoms: N11_43  and  C16_45 
REMARK   16  A    between atoms: C18_49  and  O7_50 
REMARK   17  A    between atoms: C18_49  and  O8_52 
ROOT
HETATM    1  N11 UNL     1     -14.872  -0.108  11.475  1.00  0.00    -0.297 N 
ATOM      2  H11 UNL     1     -15.736  -0.458  11.061  1.00  0.00     0.171 HD
HETATM    3  C16 UNL     1     -14.835  -0.046  12.869  1.00  0.00     0.328 C 
HETATM    4  O6  UNL     1     -13.805   0.181  13.532  1.00  0.00    -0.256 OA
HETATM    5  C17 UNL     1     -16.038  -0.250  13.644  1.00  0.00     0.162 C 
HETATM    6  N12 UNL     1     -17.012  -0.412  14.250  1.00  0.00    -0.186 NA
ENDROOT
BRANCH   1   7
HETATM    7  C15 UNL     1     -13.851   0.258  10.572  1.00  0.00     0.166 A 
HETATM    8  N2  UNL     1     -13.867   1.405   9.829  1.00  0.00    -0.202 N 
HETATM    9  N3  UNL     1     -12.655   1.479   9.216  1.00  0.00    -0.232 N 
HETATM   10  N4  UNL     1     -11.945   0.462   9.550  1.00  0.00    -0.279 N 
ATOM     11  H3  UNL     1     -12.355   2.226   8.590  1.00  0.00     0.209 HD
HETATM   12  C6  UNL     1     -12.634  -0.374  10.423  1.00  0.00     0.144 A 
ATOM     13  H4  UNL     1     -10.997   0.288   9.217  1.00  0.00     0.189 HD
BRANCH   8  14
HETATM   14  C5  UNL     1     -14.804   2.416   9.633  1.00  0.00     0.169 C 
BRANCH  14  15
HETATM   15  C4  UNL     1     -14.572   3.745   9.089  1.00  0.00     0.218 C 
BRANCH  15  16
HETATM   16  N1  UNL     1     -15.793   4.201   8.368  1.00  0.00    -0.320 N 
HETATM   17  C3  UNL     1     -15.848   4.057   6.985  1.00  0.00     0.361 C 
HETATM   18  O2  UNL     1     -14.861   3.547   6.373  1.00  0.00    -0.238 OA
ATOM     19  H1  UNL     1     -16.574   4.612   8.879  1.00  0.00     0.165 HD
BRANCH  17  20
HETATM   20  O1  UNL     1     -16.919   4.434   6.194  1.00  0.00    -0.304 OA
BRANCH  20  21
HETATM   21  C2  UNL     1     -17.153   5.805   5.851  1.00  0.00     0.176 C 
HETATM   22  C1  UNL     1     -15.813   6.433   5.542  1.00  0.00     0.034 C 
ENDBRANCH  20  21
ENDBRANCH  17  20
ENDBRANCH  15  16
BRANCH  15  23
HETATM   23  C18 UNL     1     -14.480   4.799  10.204  1.00  0.00     0.284 C 
BRANCH  23  24
HETATM   24  O7  UNL     1     -14.946   4.404  11.412  1.00  0.00    -0.369 OA
ATOM     25  H7  UNL     1     -14.313   4.435  12.120  1.00  0.00     0.212 HD
ENDBRANCH  23  24
BRANCH  23  26
HETATM   26  O8  UNL     1     -13.146   5.195  10.272  1.00  0.00    -0.369 OA
ATOM     27  H8  UNL     1     -12.812   4.885  11.106  1.00  0.00     0.212 HD
ENDBRANCH  23  26
ENDBRANCH  15  23
ENDBRANCH  14  15
BRANCH  14  28
HETATM   28  O3  UNL     1     -16.037   2.120   9.990  1.00  0.00    -0.346 OA
ATOM     29  H3  UNL     1     -16.191   1.248  10.334  1.00  0.00     0.219 HD
ENDBRANCH  14  28
ENDBRANCH   8  14
BRANCH  12  30
HETATM   30  C7  UNL     1     -11.978  -1.482  11.093  1.00  0.00     0.211 C 
HETATM   31  O4  UNL     1     -12.428  -2.649  11.086  1.00  0.00    -0.288 OA
BRANCH  30  32
HETATM   32  C8  UNL     1     -10.700  -1.222  11.829  1.00  0.00     0.212 C 
BRANCH  32  33
HETATM   33  O5  UNL     1     -10.873  -0.129  12.649  1.00  0.00    -0.386 OA
ATOM     34  H5  UNL     1     -10.311  -0.223  13.409  1.00  0.00     0.210 HD
ENDBRANCH  32  33
BRANCH  32  35
HETATM   35  C9  UNL     1      -9.537  -1.102  10.873  1.00  0.00     0.171 C 
BRANCH  35  36
HETATM   36  N5  UNL     1      -8.472  -0.289  11.423  1.00  0.00    -0.324 N 
HETATM   37  C10 UNL     1      -8.236   1.035  11.192  1.00  0.00     0.185 A 
HETATM   38  N6  UNL     1      -7.162   1.443  11.887  1.00  0.00    -0.346 N 
HETATM   39  C11 UNL     1      -6.697   0.394  12.570  1.00  0.00     0.123 A 
ATOM     40  H6  UNL     1      -6.771   2.385  11.892  1.00  0.00     0.167 HD
HETATM   41  C12 UNL     1      -5.630   0.242  13.432  1.00  0.00     0.145 A 
HETATM   42  C14 UNL     1      -7.506  -0.687  12.287  1.00  0.00     0.155 A 
HETATM   43  N8  UNL     1      -5.423  -0.974  13.964  1.00  0.00    -0.175 N 
HETATM   44  C13 UNL     1      -6.225  -2.018  13.675  1.00  0.00     0.679 A 
ATOM     45  H8  UNL     1      -4.641  -1.110  14.604  1.00  0.00     0.186 HD
HETATM   46  N10 UNL     1      -7.266  -1.894  12.844  1.00  0.00    -0.174 N 
ATOM     47  H10 UNL     1      -7.866  -2.692  12.635  1.00  0.00     0.186 HD
BRANCH  41  48
HETATM   48  N7  UNL     1      -4.856   1.243  13.717  1.00  0.00    -0.383 N 
ATOM     49  H72 UNL     1      -5.050   2.180  13.364  1.00  0.00     0.157 HD
ATOM     50  H71 UNL     1      -4.031   1.117  14.303  1.00  0.00     0.157 HD
ENDBRANCH  41  48
BRANCH  44  51
HETATM   51  N9  UNL     1      -5.970  -3.154  14.222  1.00  0.00    -0.234 N 
ATOM     52  H92 UNL     1      -6.542  -3.489  14.996  1.00  0.00     0.174 HD
ATOM     53  H91 UNL     1      -5.187  -3.701  13.862  1.00  0.00     0.174 HD
ENDBRANCH  44  51
ENDBRANCH  35  36
ENDBRANCH  32  35
ENDBRANCH  30  32
ENDBRANCH  12  30
ENDBRANCH   1   7
TORSDOF 17
ENDMDL
MODEL 2
REMARK VINA RESULT: -9.157367305      1.586      1.944
REMARK  17 active torsions:
REMARK  status: ('A' for Active; 'I' for Inactive)
REMARK    1  A    between atoms: C2_2  and  O1_3 
REMARK    2  A    between atoms: O1_3  and  C3_4 
REMARK       I    between atoms: C3_4  and  N1_6 
REMARK    3  A    between atoms: N1_6  and  C4_8 
REMARK    4  A    between atoms: C4_8  and  C5_9 
REMARK    5  A    between atoms: C4_8  and  C18_49 
REMARK    6  A    between atoms: C5_9  and  O3_10 
REMARK    7  A    between atoms: C5_9  and  N2_12 
REMARK    8  A    between atoms: C6_17  and  C7_18 
REMARK    9  A    between atoms: C7_18  and  C8_20 
REMARK   10  A    between atoms: C8_20  and  O5_21 
REMARK   11  A    between atoms: C8_20  and  C9_23 
REMARK   12  A    between atoms: C9_23  and  N5_24 
REMARK   13  A    between atoms: C12_29  and  N7_30 
REMARK   14  A    between atoms: C13_35  and  N9_36 
REMARK   15  A    between atoms: C15_42  and  N11_43 
REMARK       I    between atoms: N11_43  and  C16_45 
REMARK   16  A    between atoms: C18_49  and  O7_50 
REMARK   17  A    between atoms: C18_49  and  O8_52 
ROOT
HETATM    1  N11 UNL     1     -14.944  -0.111  11.399  1.00  0.00    -0.297 N 
ATOM      2  H11 UNL     1     -15.801  -0.495  11.000  1.00  0.00     0.171 HD
HETATM    3  C16 UNL     1     -14.898  -0.019  12.791  1.00  0.00     0.328 C 
HETATM    4  O6  UNL     1     -13.869   0.252  13.440  1.00  0.00    -0.256 OA
HETATM    5  C17 UNL     1     -16.087  -0.244  13.581  1.00  0.00     0.162 C 
HETATM    6  N12 UNL     1     -17.051  -0.422  14.199  1.00  0.00    -0.186 NA
ENDROOT
BRANCH   1   7
HETATM    7  C15 UNL     1     -13.942   0.267  10.480  1.00  0.00     0.166 A 
HETATM    8  N2  UNL     1     -13.962   1.436   9.770  1.00  0.00    -0.202 N 
HETATM    9  N3  UNL     1     -12.765   1.511   9.127  1.00  0.00    -0.232 N 
HETATM   10  N4  UNL     1     -12.061   0.476   9.413  1.00  0.00    -0.279 N 
ATOM     11  H3  UNL     1     -12.472   2.272   8.514  1.00  0.00     0.209 HD
HETATM   12  C6  UNL     1     -12.738  -0.375  10.281  1.00  0.00     0.144 A 
ATOM     13  H4  UNL     1     -11.124   0.300   9.051  1.00  0.00     0.189 HD
BRANCH   8  14
HETATM   14  C5  UNL     1     -14.890   2.463   9.626  1.00  0.00     0.169 C 
BRANCH  14  15
HETATM   15  C4  UNL     1     -14.661   3.794   9.084  1.00  0.00     0.218 C 
BRANCH  15  16
HETATM   16  N1  UNL     1     -15.903   4.271   8.414  1.00  0.00    -0.320 N 
HETATM   17  C3  UNL     1     -15.871   4.524   7.045  1.00  0.00     0.361 C 
HETATM   18  O2  UNL     1     -14.792   4.345   6.405  1.00  0.00    -0.238 OA
ATOM     19  H1  UNL     1     -16.760   4.411   8.948  1.00  0.00     0.165 HD
BRANCH  17  20
HETATM   20  O1  UNL     1     -16.950   4.965   6.300  1.00  0.00    -0.304 OA
BRANCH  20  21
HETATM   21  C2  UNL     1     -16.908   6.203   5.580  1.00  0.00     0.176 C 
HETATM   22  C1  UNL     1     -18.325   6.545   5.178  1.00  0.00     0.034 C 
ENDBRANCH  20  21
ENDBRANCH  17  20
ENDBRANCH  15  16
BRANCH  15  23
HETATM   23  C18 UNL     1     -14.513   4.838  10.202  1.00  0.00     0.284 C 
BRANCH  23  24
HETATM   24  O7  UNL     1     -14.922   4.433  11.428  1.00  0.00    -0.369 OA
ATOM     25  H7  UNL     1     -14.640   4.981  12.151  1.00  0.00     0.212 HD
ENDBRANCH  23  24
BRANCH  23  26
HETATM   26  O8  UNL     1     -13.176   5.228  10.211  1.00  0.00    -0.369 OA
ATOM     27  H8  UNL     1     -13.168   6.171  10.326  1.00  0.00     0.212 HD
ENDBRANCH  23  26
ENDBRANCH  15  23
ENDBRANCH  14  15
BRANCH  14  28
HETATM   28  O3  UNL     1     -16.110   2.184  10.038  1.00  0.00    -0.346 OA
ATOM     29  H3  UNL     1     -16.231   2.043  10.970  1.00  0.00     0.219 HD
ENDBRANCH  14  28
ENDBRANCH   8  14
BRANCH  12  30
HETATM   30  C7  UNL     1     -12.080  -1.510  10.903  1.00  0.00     0.211 C 
HETATM   31  O4  UNL     1     -12.693  -2.382  11.558  1.00  0.00    -0.288 OA
BRANCH  30  32
HETATM   32  C8  UNL     1     -10.596  -1.649  10.756  1.00  0.00     0.212 C 
BRANCH  32  33
HETATM   33  O5  UNL     1     -10.267  -2.984  10.819  1.00  0.00    -0.386 OA
ATOM     34  H5  UNL     1      -9.535  -3.148  10.235  1.00  0.00     0.210 HD
ENDBRANCH  32  33
BRANCH  32  35
HETATM   35  C9  UNL     1      -9.867  -0.782  11.755  1.00  0.00     0.171 C 
BRANCH  35  36
HETATM   36  N5  UNL     1      -8.821  -0.003  11.126  1.00  0.00    -0.324 N 
HETATM   37  C10 UNL     1      -8.465  -0.004   9.809  1.00  0.00     0.185 A 
HETATM   38  N6  UNL     1      -7.456   0.857   9.600  1.00  0.00    -0.346 N 
HETATM   39  C11 UNL     1      -7.153   1.420  10.773  1.00  0.00     0.123 A 
ATOM     40  H6  UNL     1      -7.002   1.048   8.706  1.00  0.00     0.167 HD
HETATM   41  C12 UNL     1      -6.210   2.359  11.139  1.00  0.00     0.145 A 
HETATM   42  C14 UNL     1      -7.996   0.890  11.727  1.00  0.00     0.155 A 
HETATM   43  N8  UNL     1      -6.156   2.720  12.432  1.00  0.00    -0.175 N 
HETATM   44  C13 UNL     1      -6.990   2.191  13.350  1.00  0.00     0.679 A 
ATOM     45  H8  UNL     1      -5.468   3.412  12.727  1.00  0.00     0.186 HD
HETATM   46  N10 UNL     1      -7.912   1.280  13.017  1.00  0.00    -0.174 N 
ATOM     47  H10 UNL     1      -8.538   0.888  13.722  1.00  0.00     0.186 HD
BRANCH  41  48
HETATM   48  N7  UNL     1      -5.407   2.875  10.262  1.00  0.00    -0.383 N 
ATOM     49  H72 UNL     1      -5.716   3.612   9.629  1.00  0.00     0.157 HD
ATOM     50  H71 UNL     1      -4.442   2.553  10.181  1.00  0.00     0.157 HD
ENDBRANCH  41  48
BRANCH  44  51
HETATM   51  N9  UNL     1      -6.884   2.583  14.571  1.00  0.00    -0.234 N 
ATOM     52  H92 UNL     1      -7.160   3.529  14.828  1.00  0.00     0.174 HD
ATOM     53  H91 UNL     1      -6.518   1.927  15.261  1.00  0.00     0.174 HD
ENDBRANCH  44  51
ENDBRANCH  35  36
ENDBRANCH  32  35
ENDBRANCH  30  32
ENDBRANCH  12  30
ENDBRANCH   1   7
TORSDOF 17
ENDMDL
MODEL 3
REMARK VINA RESULT: -8.984626285      1.154      2.435
REMARK  17 active torsions:
REMARK  status: ('A' for Active; 'I' for Inactive)
REMARK    1  A    between atoms: C2_2  and  O1_3 
REMARK    2  A    between atoms: O1_3  and  C3_4 
REMARK       I    between atoms: C3_4  and  N1_6 
REMARK    3  A    between atoms: N1_6  and  C4_8 
REMARK    4  A    between atoms: C4_8  and  C5_9 
REMARK    5  A    between atoms: C4_8  and  C18_49 
REMARK    6  A    between atoms: C5_9  and  O3_10 
REMARK    7  A    between atoms: C5_9  and  N2_12 
REMARK    8  A    between atoms: C6_17  and  C7_18 
REMARK    9  A    between atoms: C7_18  and  C8_20 
REMARK   10  A    between atoms: C8_20  and  O5_21 
REMARK   11  A    between atoms: C8_20  and  C9_23 
REMARK   12  A    between atoms: C9_23  and  N5_24 
REMARK   13  A    between atoms: C12_29  and  N7_30 
REMARK   14  A    between atoms: C13_35  and  N9_36 
REMARK   15  A    between atoms: C15_42  and  N11_43 
REMARK       I    between atoms: N11_43  and  C16_45 
REMARK   16  A    between atoms: C18_49  and  O7_50 
REMARK   17  A    between atoms: C18_49  and  O8_52 
ROOT
HETATM    1  N11 UNL     1     -14.827  -0.160  11.439  1.00  0.00    -0.297 N 
ATOM      2  H11 UNL     1     -15.685  -0.524  11.024  1.00  0.00     0.171 HD
HETATM    3  C16 UNL     1     -14.800  -0.080  12.832  1.00  0.00     0.328 C 
HETATM    4  O6  UNL     1     -13.776   0.166  13.499  1.00  0.00    -0.256 OA
HETATM    5  C17 UNL     1     -16.005  -0.286  13.603  1.00  0.00     0.162 C 
HETATM    6  N12 UNL     1     -16.981  -0.449  14.205  1.00  0.00    -0.186 NA
ENDROOT
BRANCH   1   7
HETATM    7  C15 UNL     1     -13.803   0.205  10.537  1.00  0.00     0.166 A 
HETATM    8  N2  UNL     1     -13.811   1.359   9.805  1.00  0.00    -0.202 N 
HETATM    9  N3  UNL     1     -12.598   1.427   9.191  1.00  0.00    -0.232 N 
HETATM   10  N4  UNL     1     -11.897   0.400   9.514  1.00  0.00    -0.279 N 
ATOM     11  H3  UNL     1     -12.293   2.177   8.570  1.00  0.00     0.209 HD
HETATM   12  C6  UNL     1     -12.593  -0.436  10.381  1.00  0.00     0.144 A 
ATOM     13  H4  UNL     1     -10.951   0.221   9.178  1.00  0.00     0.189 HD
BRANCH   8  14
HETATM   14  C5  UNL     1     -14.738   2.379   9.619  1.00  0.00     0.169 C 
BRANCH  14  15
HETATM   15  C4  UNL     1     -14.496   3.709   9.080  1.00  0.00     0.218 C 
BRANCH  15  16
HETATM   16  N1  UNL     1     -15.719   4.182   8.372  1.00  0.00    -0.320 N 
HETATM   17  C3  UNL     1     -15.804   4.012   6.993  1.00  0.00     0.361 C 
HETATM   18  O2  UNL     1     -14.842   3.464   6.374  1.00  0.00    -0.238 OA
ATOM     19  H1  UNL     1     -16.480   4.623   8.889  1.00  0.00     0.165 HD
BRANCH  17  20
HETATM   20  O1  UNL     1     -16.880   4.401   6.215  1.00  0.00    -0.304 OA
BRANCH  20  21
HETATM   21  C2  UNL     1     -17.110   5.776   5.886  1.00  0.00     0.176 C 
HETATM   22  C1  UNL     1     -15.769   6.399   5.567  1.00  0.00     0.034 C 
ENDBRANCH  20  21
ENDBRANCH  17  20
ENDBRANCH  15  16
BRANCH  15  23
HETATM   23  C18 UNL     1     -14.383   4.756  10.198  1.00  0.00     0.284 C 
BRANCH  23  24
HETATM   24  O7  UNL     1     -14.865   4.369  11.403  1.00  0.00    -0.369 OA
ATOM     25  H7  UNL     1     -15.633   4.841  11.703  1.00  0.00     0.212 HD
ENDBRANCH  23  24
BRANCH  23  26
HETATM   26  O8  UNL     1     -13.039   5.116  10.275  1.00  0.00    -0.369 OA
ATOM     27  H8  UNL     1     -12.621   4.488  10.851  1.00  0.00     0.212 HD
ENDBRANCH  23  26
ENDBRANCH  15  23
ENDBRANCH  14  15
BRANCH  14  28
HETATM   28  O3  UNL     1     -15.972   2.094   9.982  1.00  0.00    -0.346 OA
ATOM     29  H3  UNL     1     -16.442   1.457   9.456  1.00  0.00     0.219 HD
ENDBRANCH  14  28
ENDBRANCH   8  14
BRANCH  12  30
HETATM   30  C7  UNL     1     -11.946  -1.556  11.041  1.00  0.00     0.211 C 
HETATM   31  O4  UNL     1     -12.340  -2.739  10.927  1.00  0.00    -0.288 OA
BRANCH  30  32
HETATM   32  C8  UNL     1     -10.748  -1.291  11.899  1.00  0.00     0.212 C 
BRANCH  32  33
HETATM   33  O5  UNL     1     -11.019  -0.222  12.723  1.00  0.00    -0.386 OA
ATOM     34  H5  UNL     1     -10.322  -0.144  13.364  1.00  0.00     0.210 HD
ENDBRANCH  32  33
BRANCH  32  35
HETATM   35  C9  UNL     1      -9.503  -1.126  11.058  1.00  0.00     0.171 C 
BRANCH  35  36
HETATM   36  N5  UNL     1      -8.581  -0.178  11.646  1.00  0.00    -0.324 N 
HETATM   37  C10 UNL     1      -7.513  -0.450  12.451  1.00  0.00     0.185 A 
HETATM   38  N6  UNL     1      -6.887   0.688  12.793  1.00  0.00    -0.346 N 
HETATM   39  C11 UNL     1      -7.540   1.700  12.215  1.00  0.00     0.123 A 
ATOM     40  H6  UNL     1      -6.061   0.766  13.387  1.00  0.00     0.167 HD
HETATM   41  C12 UNL     1      -7.339   3.066  12.227  1.00  0.00     0.145 A 
HETATM   42  C14 UNL     1      -8.594   1.170  11.501  1.00  0.00     0.155 A 
HETATM   43  N8  UNL     1      -8.197   3.830  11.530  1.00  0.00    -0.175 N 
HETATM   44  C13 UNL     1      -9.222   3.293  10.838  1.00  0.00     0.679 A 
ATOM     45  H8  UNL     1      -8.069   4.842  11.524  1.00  0.00     0.186 HD
HETATM   46  N10 UNL     1      -9.434   1.972  10.812  1.00  0.00    -0.174 N 
ATOM     47  H10 UNL     1     -10.213   1.579  10.283  1.00  0.00     0.186 HD
BRANCH  41  48
HETATM   48  N7  UNL     1      -6.354   3.589  12.888  1.00  0.00    -0.383 N 
ATOM     49  H72 UNL     1      -5.473   3.090  13.008  1.00  0.00     0.157 HD
ATOM     50  H71 UNL     1      -6.437   4.515  13.307  1.00  0.00     0.157 HD
ENDBRANCH  41  48
BRANCH  44  51
HETATM   51  N9  UNL     1     -10.004   4.084  10.192  1.00  0.00    -0.234 N 
ATOM     52  H92 UNL     1      -9.998   5.084  10.393  1.00  0.00     0.174 HD
ATOM     53  H91 UNL     1     -10.622   3.685   9.485  1.00  0.00     0.174 HD
ENDBRANCH  44  51
ENDBRANCH  35  36
ENDBRANCH  32  35
ENDBRANCH  30  32
ENDBRANCH  12  30
ENDBRANCH   1   7
TORSDOF 17
ENDMDL
MODEL 4
REMARK VINA RESULT: -8.858751906      2.240      9.475
REMARK  17 active torsions:
REMARK  status: ('A' for Active; 'I' for Inactive)
REMARK    1  A    between atoms: C2_2  and  O1_3 
REMARK    2  A    between atoms: O1_3  and  C3_4 
REMARK       I    between atoms: C3_4  and  N1_6 
REMARK    3  A    between atoms: N1_6  and  C4_8 
REMARK    4  A    between atoms: C4_8  and  C5_9 
REMARK    5  A    between atoms: C4_8  and  C18_49 
REMARK    6  A    between atoms: C5_9  and  O3_10 
REMARK    7  A    between atoms: C5_9  and  N2_12 
REMARK    8  A    between atoms: C6_17  and  C7_18 
REMARK    9  A    between atoms: C7_18  and  C8_20 
REMARK   10  A    between atoms: C8_20  and  O5_21 
REMARK   11  A    between atoms: C8_20  and  C9_23 
REMARK   12  A    between atoms: C9_23  and  N5_24 
REMARK   13  A    between atoms: C12_29  and  N7_30 
REMARK   14  A    between atoms: C13_35  and  N9_36 
REMARK   15  A    between atoms: C15_42  and  N11_43 
REMARK       I    between atoms: N11_43  and  C16_45 
REMARK   16  A    between atoms: C18_49  and  O7_50 
REMARK   17  A    between atoms: C18_49  and  O8_52 
ROOT
HETATM    1  N11 UNL     1     -14.833   0.067  11.656  1.00  0.00    -0.297 N 
ATOM      2  H11 UNL     1     -15.614  -0.374  11.171  1.00  0.00     0.171 HD
HETATM    3  C16 UNL     1     -14.857   0.006  13.050  1.00  0.00     0.328 C 
HETATM    4  O6  UNL     1     -13.901   0.330  13.781  1.00  0.00    -0.256 OA
HETATM    5  C17 UNL     1     -16.037  -0.455  13.745  1.00  0.00     0.162 C 
HETATM    6  N12 UNL     1     -16.994  -0.822  14.285  1.00  0.00    -0.186 NA
ENDROOT
BRANCH   1   7
HETATM    7  C15 UNL     1     -13.852   0.671  10.839  1.00  0.00     0.166 A 
HETATM    8  N2  UNL     1     -12.604   0.151  10.638  1.00  0.00    -0.202 N 
HETATM    9  N3  UNL     1     -12.022   0.919   9.678  1.00  0.00    -0.232 N 
HETATM   10  N4  UNL     1     -12.840   1.840   9.314  1.00  0.00    -0.279 N 
ATOM     11  H3  UNL     1     -11.082   0.785   9.306  1.00  0.00     0.209 HD
HETATM   12  C6  UNL     1     -14.043   1.752  10.005  1.00  0.00     0.144 A 
ATOM     13  H4  UNL     1     -12.633   2.546   8.607  1.00  0.00     0.189 HD
BRANCH   8  14
HETATM   14  C5  UNL     1     -11.910  -0.930  11.174  1.00  0.00     0.169 C 
BRANCH  14  15
HETATM   15  C4  UNL     1     -10.471  -1.146  11.175  1.00  0.00     0.218 C 
BRANCH  15  16
HETATM   16  N1  UNL     1      -9.835  -0.219  12.152  1.00  0.00    -0.320 N 
HETATM   17  C3  UNL     1      -9.095   0.857  11.672  1.00  0.00     0.361 C 
HETATM   18  O2  UNL     1      -8.977   1.021  10.420  1.00  0.00    -0.238 OA
ATOM     19  H1  UNL     1      -9.941  -0.371  13.156  1.00  0.00     0.165 HD
BRANCH  17  20
HETATM   20  O1  UNL     1      -8.457   1.793  12.467  1.00  0.00    -0.304 OA
BRANCH  20  21
HETATM   21  C2  UNL     1      -7.034   1.956  12.440  1.00  0.00     0.176 C 
HETATM   22  C1  UNL     1      -6.422   0.718  13.056  1.00  0.00     0.034 C 
ENDBRANCH  20  21
ENDBRANCH  17  20
ENDBRANCH  15  16
BRANCH  15  23
HETATM   23  C18 UNL     1     -10.108  -2.509  11.786  1.00  0.00     0.284 C 
BRANCH  23  24
HETATM   24  O7  UNL     1     -10.172  -3.559  10.934  1.00  0.00    -0.369 OA
ATOM     25  H7  UNL     1     -10.696  -4.292  11.234  1.00  0.00     0.212 HD
ENDBRANCH  23  24
BRANCH  23  26
HETATM   26  O8  UNL     1      -8.837  -2.374  12.340  1.00  0.00    -0.369 OA
ATOM     27  H8  UNL     1      -8.483  -3.251  12.425  1.00  0.00     0.212 HD
ENDBRANCH  23  26
ENDBRANCH  15  23
ENDBRANCH  14  15
BRANCH  14  28
HETATM   28  O3  UNL     1     -12.657  -1.857  11.738  1.00  0.00    -0.346 OA
ATOM     29  H3  UNL     1     -12.585  -1.958  12.680  1.00  0.00     0.219 HD
ENDBRANCH  14  28
ENDBRANCH   8  14
BRANCH  12  30
HETATM   30  C7  UNL     1     -15.195   2.556   9.635  1.00  0.00     0.211 C 
HETATM   31  O4  UNL     1     -16.372   2.235   9.913  1.00  0.00    -0.288 OA
BRANCH  30  32
HETATM   32  C8  UNL     1     -14.969   3.832   8.884  1.00  0.00     0.212 C 
BRANCH  32  33
HETATM   33  O5  UNL     1     -15.738   4.823   9.450  1.00  0.00    -0.386 OA
ATOM     34  H5  UNL     1     -15.865   5.516   8.813  1.00  0.00     0.210 HD
ENDBRANCH  32  33
BRANCH  32  35
HETATM   35  C9  UNL     1     -15.197   3.638   7.403  1.00  0.00     0.171 C 
BRANCH  35  36
HETATM   36  N5  UNL     1     -14.802   4.806   6.643  1.00  0.00    -0.324 N 
HETATM   37  C10 UNL     1     -13.534   5.258   6.418  1.00  0.00     0.185 A 
HETATM   38  N6  UNL     1     -13.565   6.367   5.660  1.00  0.00    -0.346 N 
HETATM   39  C11 UNL     1     -14.845   6.639   5.390  1.00  0.00     0.123 A 
ATOM     40  H6  UNL     1     -12.757   6.905   5.346  1.00  0.00     0.167 HD
HETATM   41  C12 UNL     1     -15.450   7.646   4.666  1.00  0.00     0.145 A 
HETATM   42  C14 UNL     1     -15.620   5.674   5.998  1.00  0.00     0.155 A 
HETATM   43  N8  UNL     1     -16.791   7.640   4.587  1.00  0.00    -0.175 N 
HETATM   44  C13 UNL     1     -17.532   6.688   5.188  1.00  0.00     0.679 A 
ATOM     45  H8  UNL     1     -17.261   8.375   4.057  1.00  0.00     0.186 HD
HETATM   46  N10 UNL     1     -16.966   5.702   5.894  1.00  0.00    -0.174 N 
ATOM     47  H10 UNL     1     -17.538   4.987   6.343  1.00  0.00     0.186 HD
BRANCH  41  48
HETATM   48  N7  UNL     1     -14.744   8.564   4.082  1.00  0.00    -0.383 N 
ATOM     49  H72 UNL     1     -14.875   9.551   4.299  1.00  0.00     0.157 HD
ATOM     50  H71 UNL     1     -14.039   8.319   3.388  1.00  0.00     0.157 HD
ENDBRANCH  41  48
BRANCH  44  51
HETATM   51  N9  UNL     1     -18.811   6.743   5.070  1.00  0.00    -0.234 N 
ATOM     52  H92 UNL     1     -19.248   7.542   4.611  1.00  0.00     0.174 HD
ATOM     53  H91 UNL     1     -19.367   5.975   5.446  1.00  0.00     0.174 HD
ENDBRANCH  44  51
ENDBRANCH  35  36
ENDBRANCH  32  35
ENDBRANCH  30  32
ENDBRANCH  12  30
ENDBRANCH   1   7
TORSDOF 17
ENDMDL
MODEL 5
REMARK VINA RESULT: -8.826315379      2.339      2.988
REMARK  17 active torsions:
REMARK  status: ('A' for Active; 'I' for Inactive)
REMARK    1  A    between atoms: C2_2  and  O1_3 
REMARK    2  A    between atoms: O1_3  and  C3_4 
REMARK       I    between atoms: C3_4  and  N1_6 
REMARK    3  A    between atoms: N1_6  and  C4_8 
REMARK    4  A    between atoms: C4_8  and  C5_9 
REMARK    5  A    between atoms: C4_8  and  C18_49 
REMARK    6  A    between atoms: C5_9  and  O3_10 
REMARK    7  A    between atoms: C5_9  and  N2_12 
REMARK    8  A    between atoms: C6_17  and  C7_18 
REMARK    9  A    between atoms: C7_18  and  C8_20 
REMARK   10  A    between atoms: C8_20  and  O5_21 
REMARK   11  A    between atoms: C8_20  and  C9_23 
REMARK   12  A    between atoms: C9_23  and  N5_24 
REMARK   13  A    between atoms: C12_29  and  N7_30 
REMARK   14  A    between atoms: C13_35  and  N9_36 
REMARK   15  A    between atoms: C15_42  and  N11_43 
REMARK       I    between atoms: N11_43  and  C16_45 
REMARK   16  A    between atoms: C18_49  and  O7_50 
REMARK   17  A    between atoms: C18_49  and  O8_52 
ROOT
HETATM    1  N11 UNL     1     -13.299  -0.475  12.423  1.00  0.00    -0.297 N 
ATOM      2  H11 UNL     1     -12.487  -0.298  13.013  1.00  0.00     0.171 HD
HETATM    3  C16 UNL     1     -14.542  -0.444  13.056  1.00  0.00     0.328 C 
HETATM    4  O6  UNL     1     -15.634  -0.458  12.456  1.00  0.00    -0.256 OA
HETATM    5  C17 UNL     1     -14.630  -0.391  14.498  1.00  0.00     0.162 C 
HETATM    6  N12 UNL     1     -14.682  -0.354  15.655  1.00  0.00    -0.186 NA
ENDROOT
BRANCH   1   7
HETATM    7  C15 UNL     1     -13.036  -0.725  11.058  1.00  0.00     0.166 A 
HETATM    8  N2  UNL     1     -13.662  -0.074  10.031  1.00  0.00    -0.202 N 
HETATM    9  N3  UNL     1     -13.032  -0.467   8.892  1.00  0.00    -0.232 N 
HETATM   10  N4  UNL     1     -12.094  -1.294   9.186  1.00  0.00    -0.279 N 
ATOM     11  H3  UNL     1     -13.267  -0.155   7.950  1.00  0.00     0.209 HD
HETATM   12  C6  UNL     1     -12.022  -1.513  10.558  1.00  0.00     0.144 A 
ATOM     13  H4  UNL     1     -11.479  -1.734   8.501  1.00  0.00     0.189 HD
BRANCH   8  14
HETATM   14  C5  UNL     1     -14.707   0.842   9.963  1.00  0.00     0.169 C 
BRANCH  14  15
HETATM   15  C4  UNL     1     -14.615   2.294   9.994  1.00  0.00     0.218 C 
BRANCH  15  16
HETATM   16  N1  UNL     1     -15.669   2.872   9.114  1.00  0.00    -0.320 N 
HETATM   17  C3  UNL     1     -15.283   3.539   7.954  1.00  0.00     0.361 C 
HETATM   18  O2  UNL     1     -14.050   3.641   7.678  1.00  0.00    -0.238 OA
ATOM     19  H1  UNL     1     -16.655   2.780   9.356  1.00  0.00     0.165 HD
BRANCH  17  20
HETATM   20  O1  UNL     1     -16.156   4.117   7.049  1.00  0.00    -0.304 OA
BRANCH  20  21
HETATM   21  C2  UNL     1     -15.785   5.266   6.279  1.00  0.00     0.176 C 
HETATM   22  C1  UNL     1     -17.056   5.886   5.743  1.00  0.00     0.034 C 
ENDBRANCH  20  21
ENDBRANCH  17  20
ENDBRANCH  15  16
BRANCH  15  23
HETATM   23  C18 UNL     1     -15.037   2.855  11.361  1.00  0.00     0.284 C 
BRANCH  23  24
HETATM   24  O7  UNL     1     -14.953   4.200  11.484  1.00  0.00    -0.369 OA
ATOM     25  H7  UNL     1     -14.088   4.567  11.347  1.00  0.00     0.212 HD
ENDBRANCH  23  24
BRANCH  23  26
HETATM   26  O8  UNL     1     -16.331   2.397  11.599  1.00  0.00    -0.369 OA
ATOM     27  H8  UNL     1     -16.906   3.149  11.516  1.00  0.00     0.212 HD
ENDBRANCH  23  26
ENDBRANCH  15  23
ENDBRANCH  14  15
BRANCH  14  28
HETATM   28  O3  UNL     1     -15.912   0.319   9.864  1.00  0.00    -0.346 OA
ATOM     29  H3  UNL     1     -16.613   0.896   9.585  1.00  0.00     0.219 HD
ENDBRANCH  14  28
ENDBRANCH   8  14
BRANCH  12  30
HETATM   30  C7  UNL     1     -10.924  -2.252  11.154  1.00  0.00     0.211 C 
HETATM   31  O4  UNL     1     -11.044  -3.415  11.602  1.00  0.00    -0.288 OA
BRANCH  30  32
HETATM   32  C8  UNL     1      -9.580  -1.598  11.239  1.00  0.00     0.212 C 
BRANCH  32  33
HETATM   33  O5  UNL     1      -8.733  -2.412  11.957  1.00  0.00    -0.386 OA
ATOM     34  H5  UNL     1      -9.253  -3.005  12.487  1.00  0.00     0.210 HD
ENDBRANCH  32  33
BRANCH  32  35
HETATM   35  C9  UNL     1      -9.693  -0.192  11.778  1.00  0.00     0.171 C 
BRANCH  35  36
HETATM   36  N5  UNL     1      -9.438   0.798  10.752  1.00  0.00    -0.324 N 
HETATM   37  C10 UNL     1     -10.301   1.743  10.279  1.00  0.00     0.185 A 
HETATM   38  N6  UNL     1      -9.702   2.488   9.335  1.00  0.00    -0.346 N 
HETATM   39  C11 UNL     1      -8.454   2.034   9.191  1.00  0.00     0.123 A 
ATOM     40  H6  UNL     1     -10.124   3.261   8.821  1.00  0.00     0.167 HD
HETATM   41  C12 UNL     1      -7.412   2.419   8.372  1.00  0.00     0.145 A 
HETATM   42  C14 UNL     1      -8.282   0.983  10.068  1.00  0.00     0.155 A 
HETATM   43  N8  UNL     1      -6.257   1.740   8.468  1.00  0.00    -0.175 N 
HETATM   44  C13 UNL     1      -6.108   0.715   9.332  1.00  0.00     0.679 A 
ATOM     45  H8  UNL     1      -5.473   2.006   7.873  1.00  0.00     0.186 HD
HETATM   46  N10 UNL     1      -7.105   0.326  10.136  1.00  0.00    -0.174 N 
ATOM     47  H10 UNL     1      -6.978  -0.450  10.786  1.00  0.00     0.186 HD
BRANCH  41  48
HETATM   48  N7  UNL     1      -7.547   3.405   7.541  1.00  0.00    -0.383 N 
ATOM     49  H72 UNL     1      -6.919   3.518   6.747  1.00  0.00     0.157 HD
ATOM     50  H71 UNL     1      -8.288   4.096   7.664  1.00  0.00     0.157 HD
ENDBRANCH  41  48
BRANCH  44  51
HETATM   51  N9  UNL     1      -4.974   0.110   9.372  1.00  0.00    -0.234 N 
ATOM     52  H92 UNL     1      -4.730  -0.463  10.179  1.00  0.00     0.174 HD
ATOM     53  H91 UNL     1      -4.336   0.221   8.584  1.00  0.00     0.174 HD
ENDBRANCH  44  51
ENDBRANCH  35  36
ENDBRANCH  32  35
ENDBRANCH  30  32
ENDBRANCH  12  30
ENDBRANCH   1   7
TORSDOF 17
ENDMDL
