MODEL 1
REMARK VINA RESULT: -7.948088155      0.000      0.000
REMARK  15 active torsions:
REMARK  status: ('A' for Active; 'I' for Inactive)
REMARK    1  A    between atoms: N1_1  and  C1_4 
REMARK    2  A    between atoms: N3_9  and  C4_10 
REMARK    3  A    between atoms: C5_13  and  N5_14 
REMARK       I    between atoms: N5_14  and  C6_16 
REMARK    4  A    between atoms: C6_16  and  C7_18 
REMARK    5  A    between atoms: C8_23  and  C9_24 
REMARK    6  A    between atoms: C9_24  and  C10_25 
REMARK    7  A    between atoms: C10_25  and  N8_26 
REMARK    8  A    between atoms: C10_25  and  C17_42 
REMARK       I    between atoms: N8_26  and  C11_28 
REMARK    9  A    between atoms: C11_28  and  C12_30 
REMARK   10  A    between atoms: C13_33  and  O3_34 
REMARK   11  A    between atoms: C14_36  and  C15_37 
REMARK   12  A    between atoms: C15_37  and  C16_38 
REMARK   13  A    between atoms: C17_42  and  O6_43 
REMARK   14  A    between atoms: C17_42  and  O7_45 
REMARK   15  A    between atoms: C18_48  and  O8_49 
ROOT
HETATM    1  C7  UNL     1     -12.487  -0.606  10.346  1.00  0.00     0.159 A 
HETATM    2  N6  UNL     1     -11.760  -1.423   9.592  1.00  0.00    -0.289 N 
ATOM      3  H6  UNL     1     -11.998  -1.553   8.609  1.00  0.00     0.188 HD
HETATM    4  N7  UNL     1     -10.778  -2.039  10.087  1.00  0.00    -0.297 N 
ATOM      5  H7  UNL     1     -10.224  -2.666   9.503  1.00  0.00     0.187 HD
HETATM    6  C8  UNL     1     -10.462  -1.877  11.367  1.00  0.00     0.070 A 
HETATM    7  S1  UNL     1     -11.678  -0.760  11.851  1.00  0.00    -0.051 SA
ENDROOT
BRANCH   6   8
HETATM    8  C9  UNL     1      -9.354  -2.494  12.164  1.00  0.00     0.096 C 
BRANCH   8   9
HETATM    9  C10 UNL     1      -8.085  -1.742  12.012  1.00  0.00     0.145 C 
BRANCH   9  10
HETATM   10  N8  UNL     1      -8.180  -0.313  12.136  1.00  0.00    -0.344 N 
HETATM   11  C11 UNL     1      -8.231   0.583  11.063  1.00  0.00     0.293 C 
HETATM   12  O2  UNL     1      -8.193   0.137   9.888  1.00  0.00    -0.264 OA
ATOM     13  H8  UNL     1      -8.212   0.076  13.078  1.00  0.00     0.163 HD
BRANCH  11  14
HETATM   14  C12 UNL     1      -8.327   2.024  11.237  1.00  0.00     0.219 A 
HETATM   15  N9  UNL     1      -8.302   2.716  12.390  1.00  0.00    -0.311 N 
HETATM   16  C13 UNL     1      -8.415   4.030  12.146  1.00  0.00     0.173 A 
ATOM     17  H9  UNL     1      -8.211   2.301  13.318  1.00  0.00     0.170 HD
HETATM   18  C14 UNL     1      -8.513   4.130  10.776  1.00  0.00     0.114 A 
HETATM   19  O5  UNL     1      -8.456   2.922  10.272  1.00  0.00    -0.288 OA
BRANCH  16  20
HETATM   20  O3  UNL     1      -8.433   5.092  13.048  1.00  0.00    -0.344 OA
ATOM     21  H3  UNL     1      -8.811   5.132  13.919  1.00  0.00     0.219 HD
ENDBRANCH  16  20
BRANCH  18  22
HETATM   22  C15 UNL     1      -8.658   5.379   9.955  1.00  0.00     0.169 C 
BRANCH  22  23
HETATM   23  C16 UNL     1      -9.988   5.431   9.331  1.00  0.00     0.237 C 
HETATM   24  N10 UNL     1     -10.180   6.049   8.074  1.00  0.00    -0.062 NA
HETATM   25  O4  UNL     1     -10.970   4.921   9.919  1.00  0.00    -0.277 OA
ENDBRANCH  22  23
ENDBRANCH  18  22
ENDBRANCH  11  14
ENDBRANCH   9  10
BRANCH   9  26
HETATM   26  C17 UNL     1      -7.083  -2.186  13.091  1.00  0.00     0.276 C 
BRANCH  26  27
HETATM   27  O6  UNL     1      -7.674  -2.994  14.039  1.00  0.00    -0.369 OA
ATOM     28  H6  UNL     1      -7.548  -2.658  14.919  1.00  0.00     0.212 HD
ENDBRANCH  26  27
BRANCH  26  29
HETATM   29  O7  UNL     1      -6.462  -1.069  13.610  1.00  0.00    -0.369 OA
ATOM     30  H7  UNL     1      -6.539  -0.357  12.986  1.00  0.00     0.212 HD
ENDBRANCH  26  29
ENDBRANCH   9  26
ENDBRANCH   8   9
ENDBRANCH   6   8
BRANCH   1  31
HETATM   31  C6  UNL     1     -13.644   0.181   9.958  1.00  0.00     0.278 C 
HETATM   32  N5  UNL     1     -14.093   1.215  10.802  1.00  0.00    -0.329 N 
ATOM     33  H5  UNL     1     -13.592   1.390  11.673  1.00  0.00     0.165 HD
HETATM   34  O1  UNL     1     -14.230  -0.057   8.890  1.00  0.00    -0.265 OA
BRANCH  32  35
HETATM   35  C5  UNL     1     -15.245   2.044  10.477  1.00  0.00     0.243 C 
HETATM   36  N4  UNL     1     -15.218   2.557   9.135  1.00  0.00    -0.330 N 
HETATM   37  C4  UNL     1     -14.785   3.771   9.110  1.00  0.00     0.244 C 
ATOM     38  H4  UNL     1     -15.503   2.030   8.310  1.00  0.00     0.165 HD
HETATM   39  O9  UNL     1     -14.489   4.166  10.413  1.00  0.00    -0.286 OA
HETATM   40  C18 UNL     1     -15.196   3.327  11.305  1.00  0.00     0.309 C 
BRANCH  37  41
HETATM   41  N3  UNL     1     -14.634   4.577   7.920  1.00  0.00    -0.120 N 
HETATM   42  C1  UNL     1     -13.944   5.728   7.814  1.00  0.00     0.685 A 
HETATM   43  N2  UNL     1     -14.027   6.196   6.550  1.00  0.00    -0.200 N 
HETATM   44  C2  UNL     1     -14.773   5.352   5.817  1.00  0.00     0.124 A 
ATOM     45  H2  UNL     1     -13.592   7.053   6.206  1.00  0.00     0.183 HD
HETATM   46  C3  UNL     1     -15.146   4.339   6.704  1.00  0.00     0.136 A 
BRANCH  42  47
HETATM   47  N1  UNL     1     -13.305   6.269   8.820  1.00  0.00    -0.234 N 
ATOM     48  H12 UNL     1     -12.321   6.080   9.017  1.00  0.00     0.174 HD
ATOM     49  H11 UNL     1     -13.677   6.919   9.511  1.00  0.00     0.174 HD
ENDBRANCH  42  47
ENDBRANCH  37  41
BRANCH  40  50
HETATM   50  O8  UNL     1     -16.494   3.828  11.405  1.00  0.00    -0.367 OA
ATOM     51  H8  UNL     1     -16.494   4.519  12.056  1.00  0.00     0.212 HD
ENDBRANCH  40  50
ENDBRANCH  32  35
ENDBRANCH   1  31
TORSDOF 15
ENDMDL
MODEL 2
REMARK VINA RESULT: -7.635117582      4.362     10.136
REMARK  15 active torsions:
REMARK  status: ('A' for Active; 'I' for Inactive)
REMARK    1  A    between atoms: N1_1  and  C1_4 
REMARK    2  A    between atoms: N3_9  and  C4_10 
REMARK    3  A    between atoms: C5_13  and  N5_14 
REMARK       I    between atoms: N5_14  and  C6_16 
REMARK    4  A    between atoms: C6_16  and  C7_18 
REMARK    5  A    between atoms: C8_23  and  C9_24 
REMARK    6  A    between atoms: C9_24  and  C10_25 
REMARK    7  A    between atoms: C10_25  and  N8_26 
REMARK    8  A    between atoms: C10_25  and  C17_42 
REMARK       I    between atoms: N8_26  and  C11_28 
REMARK    9  A    between atoms: C11_28  and  C12_30 
REMARK   10  A    between atoms: C13_33  and  O3_34 
REMARK   11  A    between atoms: C14_36  and  C15_37 
REMARK   12  A    between atoms: C15_37  and  C16_38 
REMARK   13  A    between atoms: C17_42  and  O6_43 
REMARK   14  A    between atoms: C17_42  and  O7_45 
REMARK   15  A    between atoms: C18_48  and  O8_49 
ROOT
HETATM    1  C7  UNL     1     -14.156   1.347  10.073  1.00  0.00     0.159 A 
HETATM    2  N6  UNL     1     -15.437   1.700  10.078  1.00  0.00    -0.289 N 
ATOM      3  H6  UNL     1     -16.125   1.107  10.543  1.00  0.00     0.188 HD
HETATM    4  N7  UNL     1     -15.806   2.763   9.510  1.00  0.00    -0.297 N 
ATOM      5  H7  UNL     1     -16.791   3.028   9.517  1.00  0.00     0.187 HD
HETATM    6  C8  UNL     1     -14.917   3.540   8.903  1.00  0.00     0.070 A 
HETATM    7  S1  UNL     1     -13.473   2.649   9.189  1.00  0.00    -0.051 SA
ENDROOT
BRANCH   6   8
HETATM    8  C9  UNL     1     -15.117   4.833   8.173  1.00  0.00     0.096 C 
BRANCH   8   9
HETATM    9  C10 UNL     1     -15.367   4.613   6.727  1.00  0.00     0.145 C 
BRANCH   9  10
HETATM   10  N8  UNL     1     -15.591   5.795   5.941  1.00  0.00    -0.344 N 
HETATM   11  C11 UNL     1     -16.844   6.244   5.507  1.00  0.00     0.293 C 
HETATM   12  O2  UNL     1     -17.871   5.586   5.812  1.00  0.00    -0.264 OA
ATOM     13  H8  UNL     1     -14.776   6.349   5.679  1.00  0.00     0.163 HD
BRANCH  11  14
HETATM   14  C12 UNL     1     -17.024   7.448   4.711  1.00  0.00     0.219 A 
HETATM   15  N9  UNL     1     -16.070   8.269   4.236  1.00  0.00    -0.311 N 
HETATM   16  C13 UNL     1     -16.625   9.274   3.544  1.00  0.00     0.173 A 
ATOM     17  H9  UNL     1     -15.068   8.145   4.382  1.00  0.00     0.170 HD
HETATM   18  C14 UNL     1     -17.981   9.044   3.608  1.00  0.00     0.114 A 
HETATM   19  O5  UNL     1     -18.179   7.954   4.306  1.00  0.00    -0.288 OA
BRANCH  16  20
HETATM   20  O3  UNL     1     -16.005  10.337   2.889  1.00  0.00    -0.344 OA
ATOM     21  H3  UNL     1     -16.341  10.890   2.194  1.00  0.00     0.219 HD
ENDBRANCH  16  20
BRANCH  18  22
HETATM   22  C15 UNL     1     -19.081   9.866   3.000  1.00  0.00     0.169 C 
BRANCH  22  23
HETATM   23  C16 UNL     1     -18.697  11.285   2.957  1.00  0.00     0.237 C 
HETATM   24  N10 UNL     1     -18.453  11.938   1.727  1.00  0.00    -0.062 NA
HETATM   25  O4  UNL     1     -18.582  11.930   4.026  1.00  0.00    -0.277 OA
ENDBRANCH  22  23
ENDBRANCH  18  22
ENDBRANCH  11  14
ENDBRANCH   9  10
BRANCH   9  26
HETATM   26  C17 UNL     1     -14.155   3.915   6.088  1.00  0.00     0.276 C 
BRANCH  26  27
HETATM   27  O6  UNL     1     -13.504   4.736   5.191  1.00  0.00    -0.369 OA
ATOM     28  H6  UNL     1     -12.714   5.109   5.563  1.00  0.00     0.212 HD
ENDBRANCH  26  27
BRANCH  26  29
HETATM   29  O7  UNL     1     -14.563   2.710   5.556  1.00  0.00    -0.369 OA
ATOM     30  H7  UNL     1     -14.506   2.042   6.228  1.00  0.00     0.212 HD
ENDBRANCH  26  29
ENDBRANCH   9  26
ENDBRANCH   8   9
ENDBRANCH   6   8
BRANCH   1  31
HETATM   31  C6  UNL     1     -13.548   0.170  10.667  1.00  0.00     0.278 C 
HETATM   32  N5  UNL     1     -12.154   0.133  10.857  1.00  0.00    -0.329 N 
ATOM     33  H5  UNL     1     -11.598   0.938  10.572  1.00  0.00     0.165 HD
HETATM   34  O1  UNL     1     -14.254  -0.794  11.003  1.00  0.00    -0.265 OA
BRANCH  32  35
HETATM   35  C5  UNL     1     -11.476  -1.014  11.445  1.00  0.00     0.243 C 
HETATM   36  N4  UNL     1     -10.329  -0.654  12.235  1.00  0.00    -0.330 N 
HETATM   37  C4  UNL     1      -9.238  -0.802  11.564  1.00  0.00     0.244 C 
ATOM     38  H4  UNL     1     -10.374  -0.325  13.198  1.00  0.00     0.165 HD
HETATM   39  O9  UNL     1      -9.557  -1.265  10.289  1.00  0.00    -0.286 OA
HETATM   40  C18 UNL     1     -10.842  -1.852  10.336  1.00  0.00     0.309 C 
BRANCH  37  41
HETATM   41  N3  UNL     1      -7.910  -0.528  12.064  1.00  0.00    -0.120 N 
HETATM   42  C1  UNL     1      -7.133  -1.366  12.776  1.00  0.00     0.685 A 
HETATM   43  N2  UNL     1      -5.959  -0.764  13.066  1.00  0.00    -0.200 N 
HETATM   44  C2  UNL     1      -5.959   0.475  12.545  1.00  0.00     0.124 A 
ATOM     45  H2  UNL     1      -5.195  -1.182  13.597  1.00  0.00     0.183 HD
HETATM   46  C3  UNL     1      -7.201   0.600  11.917  1.00  0.00     0.136 A 
BRANCH  42  47
HETATM   47  N1  UNL     1      -7.510  -2.573  13.109  1.00  0.00    -0.234 N 
ATOM     48  H12 UNL     1      -8.471  -2.804  13.361  1.00  0.00     0.174 HD
ATOM     49  H11 UNL     1      -6.929  -3.410  13.161  1.00  0.00     0.174 HD
ENDBRANCH  42  47
ENDBRANCH  37  41
BRANCH  40  50
HETATM   50  O8  UNL     1     -10.686  -3.154  10.812  1.00  0.00    -0.367 OA
ATOM     51  H8  UNL     1     -11.495  -3.412  11.236  1.00  0.00     0.212 HD
ENDBRANCH  40  50
ENDBRANCH  32  35
ENDBRANCH   1  31
TORSDOF 15
ENDMDL
MODEL 3
REMARK VINA RESULT: -7.522781087      1.516      1.839
REMARK  15 active torsions:
REMARK  status: ('A' for Active; 'I' for Inactive)
REMARK    1  A    between atoms: N1_1  and  C1_4 
REMARK    2  A    between atoms: N3_9  and  C4_10 
REMARK    3  A    between atoms: C5_13  and  N5_14 
REMARK       I    between atoms: N5_14  and  C6_16 
REMARK    4  A    between atoms: C6_16  and  C7_18 
REMARK    5  A    between atoms: C8_23  and  C9_24 
REMARK    6  A    between atoms: C9_24  and  C10_25 
REMARK    7  A    between atoms: C10_25  and  N8_26 
REMARK    8  A    between atoms: C10_25  and  C17_42 
REMARK       I    between atoms: N8_26  and  C11_28 
REMARK    9  A    between atoms: C11_28  and  C12_30 
REMARK   10  A    between atoms: C13_33  and  O3_34 
REMARK   11  A    between atoms: C14_36  and  C15_37 
REMARK   12  A    between atoms: C15_37  and  C16_38 
REMARK   13  A    between atoms: C17_42  and  O6_43 
REMARK   14  A    between atoms: C17_42  and  O7_45 
REMARK   15  A    between atoms: C18_48  and  O8_49 
ROOT
HETATM    1  C7  UNL     1     -13.696  -0.287  10.659  1.00  0.00     0.159 A 
HETATM    2  N6  UNL     1     -13.659  -1.162  11.659  1.00  0.00    -0.289 N 
ATOM      3  H6  UNL     1     -14.456  -1.248  12.289  1.00  0.00     0.188 HD
HETATM    4  N7  UNL     1     -12.641  -1.886  11.831  1.00  0.00    -0.297 N 
ATOM      5  H7  UNL     1     -12.618  -2.555  12.600  1.00  0.00     0.187 HD
HETATM    6  C8  UNL     1     -11.599  -1.781  11.015  1.00  0.00     0.070 A 
HETATM    7  S1  UNL     1     -12.159  -0.553   9.948  1.00  0.00    -0.051 SA
ENDROOT
BRANCH   6   8
HETATM    8  C9  UNL     1     -10.299  -2.525  11.022  1.00  0.00     0.096 C 
BRANCH   8   9
HETATM    9  C10 UNL     1      -9.138  -1.602  11.054  1.00  0.00     0.145 C 
BRANCH   9  10
HETATM   10  N8  UNL     1      -9.441  -0.205  10.910  1.00  0.00    -0.344 N 
HETATM   11  C11 UNL     1      -8.711   0.698  10.129  1.00  0.00     0.293 C 
HETATM   12  O2  UNL     1      -7.709   0.287   9.491  1.00  0.00    -0.264 OA
ATOM     13  H8  UNL     1     -10.250   0.157  11.417  1.00  0.00     0.163 HD
BRANCH  11  14
HETATM   14  C12 UNL     1      -9.055   2.106  10.014  1.00  0.00     0.219 A 
HETATM   15  N9  UNL     1     -10.279   2.662  10.077  1.00  0.00    -0.311 N 
HETATM   16  C13 UNL     1     -10.193   3.991   9.929  1.00  0.00     0.173 A 
ATOM     17  H9  UNL     1     -11.147   2.145  10.218  1.00  0.00     0.170 HD
HETATM   18  C14 UNL     1      -8.849   4.246   9.767  1.00  0.00     0.114 A 
HETATM   19  O5  UNL     1      -8.207   3.106   9.824  1.00  0.00    -0.288 OA
BRANCH  16  20
HETATM   20  O3  UNL     1     -11.212   4.943   9.931  1.00  0.00    -0.344 OA
ATOM     21  H3  UNL     1     -11.788   5.205   9.223  1.00  0.00     0.219 HD
ENDBRANCH  16  20
BRANCH  18  22
HETATM   22  C15 UNL     1      -8.186   5.578   9.561  1.00  0.00     0.169 C 
BRANCH  22  23
HETATM   23  C16 UNL     1      -8.612   6.171   8.285  1.00  0.00     0.237 C 
HETATM   24  N10 UNL     1      -9.632   7.149   8.240  1.00  0.00    -0.062 NA
HETATM   25  O4  UNL     1      -8.066   5.806   7.218  1.00  0.00    -0.277 OA
ENDBRANCH  22  23
ENDBRANCH  18  22
ENDBRANCH  11  14
ENDBRANCH   9  10
BRANCH   9  26
HETATM   26  C17 UNL     1      -8.406  -1.731  12.400  1.00  0.00     0.276 C 
BRANCH  26  27
HETATM   27  O6  UNL     1      -7.279  -0.939  12.449  1.00  0.00    -0.369 OA
ATOM     28  H6  UNL     1      -7.447  -0.111  12.883  1.00  0.00     0.212 HD
ENDBRANCH  26  27
BRANCH  26  29
HETATM   29  O7  UNL     1      -8.170  -3.065  12.654  1.00  0.00    -0.369 OA
ATOM     30  H7  UNL     1      -8.102  -3.193  13.594  1.00  0.00     0.212 HD
ENDBRANCH  26  29
ENDBRANCH   9  26
ENDBRANCH   8   9
ENDBRANCH   6   8
BRANCH   1  31
HETATM   31  C6  UNL     1     -14.770   0.625  10.306  1.00  0.00     0.278 C 
HETATM   32  N5  UNL     1     -14.507   2.005  10.226  1.00  0.00    -0.329 N 
ATOM     33  H5  UNL     1     -13.562   2.337  10.418  1.00  0.00     0.165 HD
HETATM   34  O1  UNL     1     -15.909   0.188  10.078  1.00  0.00    -0.265 OA
BRANCH  32  35
HETATM   35  C5  UNL     1     -15.534   2.978   9.879  1.00  0.00     0.243 C 
HETATM   36  N4  UNL     1     -15.389   3.510   8.552  1.00  0.00    -0.330 N 
HETATM   37  C4  UNL     1     -14.808   4.661   8.573  1.00  0.00     0.244 C 
ATOM     38  H4  UNL     1     -15.704   3.039   7.704  1.00  0.00     0.165 HD
HETATM   39  O9  UNL     1     -14.518   4.990   9.896  1.00  0.00    -0.286 OA
HETATM   40  C18 UNL     1     -15.359   4.228  10.739  1.00  0.00     0.309 C 
BRANCH  37  41
HETATM   41  N3  UNL     1     -14.510   5.465   7.410  1.00  0.00    -0.120 N 
HETATM   42  C1  UNL     1     -13.549   6.403   7.308  1.00  0.00     0.685 A 
HETATM   43  N2  UNL     1     -13.569   6.945   6.071  1.00  0.00    -0.200 N 
HETATM   44  C2  UNL     1     -14.545   6.365   5.353  1.00  0.00     0.124 A 
ATOM     45  H2  UNL     1     -12.944   7.678   5.736  1.00  0.00     0.183 HD
HETATM   46  C3  UNL     1     -15.125   5.435   6.219  1.00  0.00     0.136 A 
BRANCH  42  47
HETATM   47  N1  UNL     1     -12.743   6.703   8.294  1.00  0.00    -0.234 N 
ATOM     48  H12 UNL     1     -12.839   6.305   9.229  1.00  0.00     0.174 HD
ATOM     49  H11 UNL     1     -11.949   7.342   8.270  1.00  0.00     0.174 HD
ENDBRANCH  42  47
ENDBRANCH  37  41
BRANCH  40  50
HETATM   50  O8  UNL     1     -16.588   4.885  10.803  1.00  0.00    -0.367 OA
ATOM     51  H8  UNL     1     -17.264   4.273  10.539  1.00  0.00     0.212 HD
ENDBRANCH  40  50
ENDBRANCH  32  35
ENDBRANCH   1  31
TORSDOF 15
ENDMDL
MODEL 4
REMARK VINA RESULT: -7.427240392      1.150      1.313
REMARK  15 active torsions:
REMARK  status: ('A' for Active; 'I' for Inactive)
REMARK    1  A    between atoms: N1_1  and  C1_4 
REMARK    2  A    between atoms: N3_9  and  C4_10 
REMARK    3  A    between atoms: C5_13  and  N5_14 
REMARK       I    between atoms: N5_14  and  C6_16 
REMARK    4  A    between atoms: C6_16  and  C7_18 
REMARK    5  A    between atoms: C8_23  and  C9_24 
REMARK    6  A    between atoms: C9_24  and  C10_25 
REMARK    7  A    between atoms: C10_25  and  N8_26 
REMARK    8  A    between atoms: C10_25  and  C17_42 
REMARK       I    between atoms: N8_26  and  C11_28 
REMARK    9  A    between atoms: C11_28  and  C12_30 
REMARK   10  A    between atoms: C13_33  and  O3_34 
REMARK   11  A    between atoms: C14_36  and  C15_37 
REMARK   12  A    between atoms: C15_37  and  C16_38 
REMARK   13  A    between atoms: C17_42  and  O6_43 
REMARK   14  A    between atoms: C17_42  and  O7_45 
REMARK   15  A    between atoms: C18_48  and  O8_49 
ROOT
HETATM    1  C7  UNL     1     -12.438  -0.456  10.188  1.00  0.00     0.159 A 
HETATM    2  N6  UNL     1     -11.863  -1.465   9.543  1.00  0.00    -0.289 N 
ATOM      3  H6  UNL     1     -12.190  -1.725   8.613  1.00  0.00     0.188 HD
HETATM    4  N7  UNL     1     -10.915  -2.102  10.077  1.00  0.00    -0.297 N 
ATOM      5  H7  UNL     1     -10.478  -2.876   9.577  1.00  0.00     0.187 HD
HETATM    6  C8  UNL     1     -10.483  -1.769  11.287  1.00  0.00     0.070 A 
HETATM    7  S1  UNL     1     -11.532  -0.454  11.645  1.00  0.00    -0.051 SA
ENDROOT
BRANCH   6   8
HETATM    8  C9  UNL     1      -9.386  -2.372  12.110  1.00  0.00     0.096 C 
BRANCH   8   9
HETATM    9  C10 UNL     1      -8.118  -1.615  11.974  1.00  0.00     0.145 C 
BRANCH   9  10
HETATM   10  N8  UNL     1      -8.214  -0.191  12.145  1.00  0.00    -0.344 N 
HETATM   11  C11 UNL     1      -8.050   0.752  11.123  1.00  0.00     0.293 C 
HETATM   12  O2  UNL     1      -7.799   0.357   9.957  1.00  0.00    -0.264 OA
ATOM     13  H8  UNL     1      -8.417   0.159  13.081  1.00  0.00     0.163 HD
BRANCH  11  14
HETATM   14  C12 UNL     1      -8.156   2.186  11.344  1.00  0.00     0.219 A 
HETATM   15  N9  UNL     1      -8.225   2.834  12.521  1.00  0.00    -0.311 N 
HETATM   16  C13 UNL     1      -8.313   4.157  12.318  1.00  0.00     0.173 A 
ATOM     17  H9  UNL     1      -8.212   2.384  13.436  1.00  0.00     0.170 HD
HETATM   18  C14 UNL     1      -8.297   4.309  10.949  1.00  0.00     0.114 A 
HETATM   19  O5  UNL     1      -8.202   3.121  10.406  1.00  0.00    -0.288 OA
BRANCH  16  20
HETATM   20  O3  UNL     1      -8.403   5.185  13.255  1.00  0.00    -0.344 OA
ATOM     21  H3  UNL     1      -8.788   6.048  13.162  1.00  0.00     0.219 HD
ENDBRANCH  16  20
BRANCH  18  22
HETATM   22  C15 UNL     1      -8.371   5.589  10.167  1.00  0.00     0.169 C 
BRANCH  22  23
HETATM   23  C16 UNL     1      -7.115   6.344  10.300  1.00  0.00     0.237 C 
HETATM   24  N10 UNL     1      -6.957   7.323  11.307  1.00  0.00    -0.062 NA
HETATM   25  O4  UNL     1      -6.169   6.119   9.510  1.00  0.00    -0.277 OA
ENDBRANCH  22  23
ENDBRANCH  18  22
ENDBRANCH  11  14
ENDBRANCH   9  10
BRANCH   9  26
HETATM   26  C17 UNL     1      -7.109  -2.091  13.032  1.00  0.00     0.276 C 
BRANCH  26  27
HETATM   27  O6  UNL     1      -7.689  -2.943  13.947  1.00  0.00    -0.369 OA
ATOM     28  H6  UNL     1      -7.244  -2.918  14.786  1.00  0.00     0.212 HD
ENDBRANCH  26  27
BRANCH  26  29
HETATM   29  O7  UNL     1      -6.498  -0.990  13.594  1.00  0.00    -0.369 OA
ATOM     30  H7  UNL     1      -6.477  -1.099  14.538  1.00  0.00     0.212 HD
ENDBRANCH  26  29
ENDBRANCH   9  26
ENDBRANCH   8   9
ENDBRANCH   6   8
BRANCH   1  31
HETATM   31  C6  UNL     1     -13.533   0.387   9.741  1.00  0.00     0.278 C 
HETATM   32  N5  UNL     1     -14.043   1.374  10.605  1.00  0.00    -0.329 N 
ATOM     33  H5  UNL     1     -13.630   1.478  11.531  1.00  0.00     0.165 HD
HETATM   34  O1  UNL     1     -14.013   0.235   8.607  1.00  0.00    -0.265 OA
BRANCH  32  35
HETATM   35  C5  UNL     1     -15.140   2.254  10.225  1.00  0.00     0.243 C 
HETATM   36  N4  UNL     1     -14.911   2.946   8.985  1.00  0.00    -0.330 N 
HETATM   37  C4  UNL     1     -14.491   4.147   9.195  1.00  0.00     0.244 C 
ATOM     38  H4  UNL     1     -15.062   2.540   8.062  1.00  0.00     0.165 HD
HETATM   39  O9  UNL     1     -14.402   4.356  10.569  1.00  0.00    -0.286 OA
HETATM   40  C18 UNL     1     -15.229   3.411  11.218  1.00  0.00     0.309 C 
BRANCH  37  41
HETATM   41  N3  UNL     1     -14.166   5.107   8.164  1.00  0.00    -0.120 N 
HETATM   42  C1  UNL     1     -13.234   6.075   8.236  1.00  0.00     0.685 A 
HETATM   43  N2  UNL     1     -13.214   6.777   7.082  1.00  0.00    -0.200 N 
HETATM   44  C2  UNL     1     -14.136   6.271   6.244  1.00  0.00     0.124 A 
ATOM     45  H2  UNL     1     -12.599   7.565   6.878  1.00  0.00     0.183 HD
HETATM   46  C3  UNL     1     -14.724   5.218   6.950  1.00  0.00     0.136 A 
BRANCH  42  47
HETATM   47  N1  UNL     1     -12.485   6.264   9.292  1.00  0.00    -0.234 N 
ATOM     48  H12 UNL     1     -11.518   5.944   9.350  1.00  0.00     0.174 HD
ATOM     49  H11 UNL     1     -12.747   6.732  10.160  1.00  0.00     0.174 HD
ENDBRANCH  42  47
ENDBRANCH  37  41
BRANCH  40  50
HETATM   50  O8  UNL     1     -16.532   3.909  11.186  1.00  0.00    -0.367 OA
ATOM     51  H8  UNL     1     -17.120   3.187  11.001  1.00  0.00     0.212 HD
ENDBRANCH  40  50
ENDBRANCH  32  35
ENDBRANCH   1  31
TORSDOF 15
ENDMDL
MODEL 5
REMARK VINA RESULT: -7.420073320      1.098      1.845
REMARK  15 active torsions:
REMARK  status: ('A' for Active; 'I' for Inactive)
REMARK    1  A    between atoms: N1_1  and  C1_4 
REMARK    2  A    between atoms: N3_9  and  C4_10 
REMARK    3  A    between atoms: C5_13  and  N5_14 
REMARK       I    between atoms: N5_14  and  C6_16 
REMARK    4  A    between atoms: C6_16  and  C7_18 
REMARK    5  A    between atoms: C8_23  and  C9_24 
REMARK    6  A    between atoms: C9_24  and  C10_25 
REMARK    7  A    between atoms: C10_25  and  N8_26 
REMARK    8  A    between atoms: C10_25  and  C17_42 
REMARK       I    between atoms: N8_26  and  C11_28 
REMARK    9  A    between atoms: C11_28  and  C12_30 
REMARK   10  A    between atoms: C13_33  and  O3_34 
REMARK   11  A    between atoms: C14_36  and  C15_37 
REMARK   12  A    between atoms: C15_37  and  C16_38 
REMARK   13  A    between atoms: C17_42  and  O6_43 
REMARK   14  A    between atoms: C17_42  and  O7_45 
REMARK   15  A    between atoms: C18_48  and  O8_49 
ROOT
HETATM    1  C7  UNL     1     -12.933  -0.415  10.428  1.00  0.00     0.159 A 
HETATM    2  N6  UNL     1     -12.289  -1.207   9.578  1.00  0.00    -0.289 N 
ATOM      3  H6  UNL     1     -12.628  -1.307   8.621  1.00  0.00     0.188 HD
HETATM    4  N7  UNL     1     -11.261  -1.836   9.949  1.00  0.00    -0.297 N 
ATOM      5  H7  UNL     1     -10.772  -2.443   9.291  1.00  0.00     0.187 HD
HETATM    6  C8  UNL     1     -10.814  -1.711  11.193  1.00  0.00     0.070 A 
HETATM    7  S1  UNL     1     -11.972  -0.613  11.835  1.00  0.00    -0.051 SA
ENDROOT
BRANCH   6   8
HETATM    8  C9  UNL     1      -9.630  -2.350  11.851  1.00  0.00     0.096 C 
BRANCH   8   9
HETATM    9  C10 UNL     1      -8.427  -1.485  11.774  1.00  0.00     0.145 C 
BRANCH   9  10
HETATM   10  N8  UNL     1      -8.672  -0.072  11.690  1.00  0.00    -0.344 N 
HETATM   11  C11 UNL     1      -8.473   0.710  10.546  1.00  0.00     0.293 C 
HETATM   12  O2  UNL     1      -8.049   0.165   9.496  1.00  0.00    -0.264 OA
ATOM     13  H8  UNL     1      -9.017   0.397  12.528  1.00  0.00     0.163 HD
BRANCH  11  14
HETATM   14  C12 UNL     1      -8.735   2.140  10.508  1.00  0.00     0.219 A 
HETATM   15  N9  UNL     1      -9.850   2.761  10.081  1.00  0.00    -0.311 N 
HETATM   16  C13 UNL     1      -9.716   4.090  10.200  1.00  0.00     0.173 A 
ATOM     17  H9  UNL     1     -10.678   2.288   9.718  1.00  0.00     0.170 HD
HETATM   18  C14 UNL     1      -8.456   4.275  10.725  1.00  0.00     0.114 A 
HETATM   19  O5  UNL     1      -7.906   3.098  10.894  1.00  0.00    -0.288 OA
BRANCH  16  20
HETATM   20  O3  UNL     1     -10.625   5.096   9.878  1.00  0.00    -0.344 OA
ATOM     21  H3  UNL     1     -11.007   5.760  10.440  1.00  0.00     0.219 HD
ENDBRANCH  16  20
BRANCH  18  22
HETATM   22  C15 UNL     1      -7.785   5.575  11.064  1.00  0.00     0.169 C 
BRANCH  22  23
HETATM   23  C16 UNL     1      -7.489   5.640  12.503  1.00  0.00     0.237 C 
HETATM   24  N10 UNL     1      -6.237   6.102  12.969  1.00  0.00    -0.062 NA
HETATM   25  O4  UNL     1      -8.357   5.280  13.332  1.00  0.00    -0.277 OA
ENDBRANCH  22  23
ENDBRANCH  18  22
ENDBRANCH  11  14
ENDBRANCH   9  10
BRANCH   9  26
HETATM   26  C17 UNL     1      -7.562  -1.681  13.031  1.00  0.00     0.276 C 
BRANCH  26  27
HETATM   27  O6  UNL     1      -6.239  -1.374  12.796  1.00  0.00    -0.369 OA
ATOM     28  H6  UNL     1      -5.979  -0.571  13.233  1.00  0.00     0.212 HD
ENDBRANCH  26  27
BRANCH  26  29
HETATM   29  O7  UNL     1      -7.767  -2.954  13.520  1.00  0.00    -0.369 OA
ATOM     30  H7  UNL     1      -8.149  -2.892  14.388  1.00  0.00     0.212 HD
ENDBRANCH  26  29
ENDBRANCH   9  26
ENDBRANCH   8   9
ENDBRANCH   6   8
BRANCH   1  31
HETATM   31  C6  UNL     1     -14.123   0.381  10.186  1.00  0.00     0.278 C 
HETATM   32  N5  UNL     1     -14.106   1.758  10.480  1.00  0.00    -0.329 N 
ATOM     33  H5  UNL     1     -13.253   2.169  10.858  1.00  0.00     0.165 HD
HETATM   34  O1  UNL     1     -15.145  -0.150   9.724  1.00  0.00    -0.265 OA
BRANCH  32  35
HETATM   35  C5  UNL     1     -15.262   2.617  10.264  1.00  0.00     0.243 C 
HETATM   36  N4  UNL     1     -15.362   3.109   8.917  1.00  0.00    -0.330 N 
HETATM   37  C4  UNL     1     -14.898   4.309   8.825  1.00  0.00     0.244 C 
ATOM     38  H4  UNL     1     -15.748   2.579   8.136  1.00  0.00     0.165 HD
HETATM   39  O9  UNL     1     -14.455   4.714  10.083  1.00  0.00    -0.286 OA
HETATM   40  C18 UNL     1     -15.088   3.910  11.058  1.00  0.00     0.309 C 
BRANCH  37  41
HETATM   41  N3  UNL     1     -14.851   5.092   7.612  1.00  0.00    -0.120 N 
HETATM   42  C1  UNL     1     -13.859   5.918   7.229  1.00  0.00     0.685 A 
HETATM   43  N2  UNL     1     -14.163   6.478   6.038  1.00  0.00    -0.200 N 
HETATM   44  C2  UNL     1     -15.361   6.022   5.632  1.00  0.00     0.124 A 
ATOM     45  H2  UNL     1     -13.579   7.141   5.529  1.00  0.00     0.183 HD
HETATM   46  C3  UNL     1     -15.774   5.149   6.642  1.00  0.00     0.136 A 
BRANCH  42  47
HETATM   47  N1  UNL     1     -12.780   6.111   7.944  1.00  0.00    -0.234 N 
ATOM     48  H12 UNL     1     -12.179   6.928   7.830  1.00  0.00     0.174 HD
ATOM     49  H11 UNL     1     -12.407   5.507   8.677  1.00  0.00     0.174 HD
ENDBRANCH  42  47
ENDBRANCH  37  41
BRANCH  40  50
HETATM   50  O8  UNL     1     -16.353   4.453  11.286  1.00  0.00    -0.367 OA
ATOM     51  H8  UNL     1     -16.462   4.564  12.223  1.00  0.00     0.212 HD
ENDBRANCH  40  50
ENDBRANCH  32  35
ENDBRANCH   1  31
TORSDOF 15
ENDMDL
