MODEL 1
REMARK VINA RESULT: -9.603783542      0.000      0.000
REMARK  15 active torsions:
REMARK  status: ('A' for Active; 'I' for Inactive)
REMARK    1  A    between atoms: C2_2  and  C3_3 
REMARK    2  A    between atoms: C2_2  and  N11_34 
REMARK    3  A    between atoms: C3_3  and  C4_4 
REMARK    4  A    between atoms: C4_4  and  O2_6 
REMARK    5  A    between atoms: O2_6  and  C5_7 
REMARK    6  A    between atoms: C5_7  and  C6_8 
REMARK    7  A    between atoms: C5_7  and  C7_17 
REMARK    8  A    between atoms: C9_25  and  N8_26 
REMARK    9  A    between atoms: N11_34  and  N12_36 
REMARK       I    between atoms: N12_36  and  C11_38 
REMARK   10  A    between atoms: C11_38  and  C12_40 
REMARK   11  A    between atoms: C12_40  and  N13_41 
REMARK   12  A    between atoms: C14_43  and  C15_44 
REMARK   13  A    between atoms: C15_44  and  O4_45 
REMARK   14  A    between atoms: C15_44  and  O5_47 
REMARK   15  A    between atoms: C16_49  and  N14_50 
ROOT
HETATM    1  C4  UNL     1      -9.618   1.539  11.040  1.00  0.00     0.265 C 
HETATM    2  O1  UNL     1     -10.475   1.208  10.164  1.00  0.00    -0.265 OA
ENDROOT
BRANCH   1   3
HETATM    3  C3  UNL     1      -9.101   2.929  11.131  1.00  0.00     0.164 C 
BRANCH   3   4
HETATM    4  C2  UNL     1      -9.309   3.688   9.878  1.00  0.00     0.009 C 
HETATM    5  C1  UNL     1      -8.235   3.754   8.872  1.00  0.00     0.065 C 
BRANCH   4   6
HETATM    6  N11 UNL     1     -10.415   4.280   9.677  1.00  0.00    -0.306 N 
ATOM      7  H11 UNL     1     -10.426   5.296   9.767  1.00  0.00     0.186 HD
BRANCH   6   8
HETATM    8  N12 UNL     1     -11.603   3.660   9.345  1.00  0.00    -0.269 N 
HETATM    9  C11 UNL     1     -12.883   4.187   9.611  1.00  0.00     0.254 C 
HETATM   10  O3  UNL     1     -12.958   5.301  10.191  1.00  0.00    -0.270 OA
ATOM     11  H12 UNL     1     -11.551   2.757   8.874  1.00  0.00     0.190 HD
BRANCH   9  12
HETATM   12  C12 UNL     1     -14.126   3.468   9.226  1.00  0.00     0.237 C 
BRANCH  12  13
HETATM   13  N13 UNL     1     -14.597   2.590  10.253  1.00  0.00    -0.300 N 
HETATM   14  C13 UNL     1     -13.876   1.483  10.529  1.00  0.00     0.112 A 
HETATM   15  C14 UNL     1     -14.281   0.597  11.510  1.00  0.00     0.055 A 
HETATM   16  C16 UNL     1     -15.443   0.859  12.213  1.00  0.00     0.115 A 
HETATM   17  N15 UNL     1     -16.150   1.966  11.927  1.00  0.00    -0.294 N 
HETATM   18  C17 UNL     1     -15.710   2.779  10.973  1.00  0.00     0.328 A 
ATOM     19  H15 UNL     1     -17.009   2.177  12.434  1.00  0.00     0.172 HD
HETATM   20  O6  UNL     1     -16.405   3.819  10.728  1.00  0.00    -0.246 OA
BRANCH  15  21
HETATM   21  C15 UNL     1     -13.531  -0.624  11.849  1.00  0.00     0.293 C 
BRANCH  21  22
HETATM   22  O4  UNL     1     -13.594  -1.485  10.741  1.00  0.00    -0.367 OA
ATOM     23  H4  UNL     1     -12.903  -1.233  10.141  1.00  0.00     0.213 HD
ENDBRANCH  21  22
BRANCH  21  24
HETATM   24  O5  UNL     1     -12.240  -0.379  12.259  1.00  0.00    -0.367 OA
ATOM     25  H5  UNL     1     -11.582  -0.725  11.667  1.00  0.00     0.213 HD
ENDBRANCH  21  24
ENDBRANCH  15  21
BRANCH  16  26
HETATM   26  N14 UNL     1     -15.845   0.061  13.126  1.00  0.00    -0.385 N 
ATOM     27 2H14 UNL     1     -15.208  -0.638  13.510  1.00  0.00     0.157 HD
ATOM     28 1H14 UNL     1     -16.801   0.113  13.477  1.00  0.00     0.157 HD
ENDBRANCH  16  26
ENDBRANCH  12  13
ENDBRANCH   9  12
ENDBRANCH   6   8
ENDBRANCH   4   6
ENDBRANCH   3   4
ENDBRANCH   1   3
BRANCH   1  29
HETATM   29  O2  UNL     1      -9.203   0.532  11.892  1.00  0.00    -0.300 OA
BRANCH  29  30
HETATM   30  C5  UNL     1      -8.666  -0.706  11.460  1.00  0.00     0.269 C 
BRANCH  30  31
HETATM   31  C6  UNL     1      -9.712  -1.745  11.327  1.00  0.00     0.150 A 
HETATM   32  N1  UNL     1     -10.409  -2.014  10.214  1.00  0.00    -0.270 N 
HETATM   33  N2  UNL     1     -11.253  -3.006  10.479  1.00  0.00    -0.227 N 
ATOM     34  H1  UNL     1     -10.309  -1.539   9.317  1.00  0.00     0.190 HD
HETATM   35  N3  UNL     1     -11.109  -3.375  11.737  1.00  0.00    -0.227 N 
ATOM     36  H2  UNL     1     -11.908  -3.418   9.815  1.00  0.00     0.210 HD
HETATM   37  N4  UNL     1     -10.164  -2.602  12.257  1.00  0.00    -0.270 N 
ATOM     38  H3  UNL     1     -11.624  -4.112  12.217  1.00  0.00     0.210 HD
ATOM     39  H4  UNL     1      -9.831  -2.652  13.219  1.00  0.00     0.190 HD
ENDBRANCH  30  31
BRANCH  30  40
HETATM   40  C7  UNL     1      -7.589  -1.118  12.392  1.00  0.00     0.122 A 
HETATM   41  N5  UNL     1      -7.327  -2.362  12.872  1.00  0.00    -0.325 N 
HETATM   42  C8  UNL     1      -6.265  -2.330  13.694  1.00  0.00     0.167 A 
ATOM     43  H5  UNL     1      -7.861  -3.200  12.642  1.00  0.00     0.169 HD
HETATM   44  N6  UNL     1      -5.577  -3.211  14.425  1.00  0.00    -0.268 N 
HETATM   45  C10 UNL     1      -5.836  -0.934  13.718  1.00  0.00     0.168 A 
HETATM   46  N7  UNL     1      -4.540  -2.818  15.146  1.00  0.00    -0.131 N 
ATOM     47  H6  UNL     1      -5.853  -4.192  14.428  1.00  0.00     0.189 HD
HETATM   48  C9  UNL     1      -4.110  -1.547  15.200  1.00  0.00     0.692 A 
ATOM     49  H7  UNL     1      -4.039  -3.520  15.691  1.00  0.00     0.205 HD
HETATM   50  N9  UNL     1      -4.770  -0.621  14.480  1.00  0.00    -0.172 N 
ATOM     51  H9  UNL     1      -4.452   0.348  14.513  1.00  0.00     0.186 HD
HETATM   52  N10 UNL     1      -6.680  -0.285  12.916  1.00  0.00    -0.326 N 
ATOM     53  H10 UNL     1      -6.640   0.716  12.726  1.00  0.00     0.169 HD
BRANCH  48  54
HETATM   54  N8  UNL     1      -3.076  -1.222  15.934  1.00  0.00    -0.233 N 
ATOM     55  H82 UNL     1      -3.181  -0.639  16.764  1.00  0.00     0.174 HD
ATOM     56  H81 UNL     1      -2.140  -1.546  15.689  1.00  0.00     0.174 HD
ENDBRANCH  48  54
ENDBRANCH  30  40
ENDBRANCH  29  30
ENDBRANCH   1  29
TORSDOF 15
ENDMDL
MODEL 2
REMARK VINA RESULT: -9.563155336      0.395      1.019
REMARK  15 active torsions:
REMARK  status: ('A' for Active; 'I' for Inactive)
REMARK    1  A    between atoms: C2_2  and  C3_3 
REMARK    2  A    between atoms: C2_2  and  N11_34 
REMARK    3  A    between atoms: C3_3  and  C4_4 
REMARK    4  A    between atoms: C4_4  and  O2_6 
REMARK    5  A    between atoms: O2_6  and  C5_7 
REMARK    6  A    between atoms: C5_7  and  C6_8 
REMARK    7  A    between atoms: C5_7  and  C7_17 
REMARK    8  A    between atoms: C9_25  and  N8_26 
REMARK    9  A    between atoms: N11_34  and  N12_36 
REMARK       I    between atoms: N12_36  and  C11_38 
REMARK   10  A    between atoms: C11_38  and  C12_40 
REMARK   11  A    between atoms: C12_40  and  N13_41 
REMARK   12  A    between atoms: C14_43  and  C15_44 
REMARK   13  A    between atoms: C15_44  and  O4_45 
REMARK   14  A    between atoms: C15_44  and  O5_47 
REMARK   15  A    between atoms: C16_49  and  N14_50 
ROOT
HETATM    1  C4  UNL     1      -9.694   1.603  10.970  1.00  0.00     0.265 C 
HETATM    2  O1  UNL     1     -10.565   1.245  10.118  1.00  0.00    -0.265 OA
ENDROOT
BRANCH   1   3
HETATM    3  C3  UNL     1      -9.182   2.997  11.015  1.00  0.00     0.164 C 
BRANCH   3   4
HETATM    4  C2  UNL     1      -9.453   3.735   9.762  1.00  0.00     0.009 C 
HETATM    5  C1  UNL     1      -8.417   3.815   8.718  1.00  0.00     0.065 C 
BRANCH   4   6
HETATM    6  N11 UNL     1     -10.580   4.298   9.593  1.00  0.00    -0.306 N 
ATOM      7  H11 UNL     1     -10.614   5.313   9.678  1.00  0.00     0.186 HD
BRANCH   6   8
HETATM    8  N12 UNL     1     -11.761   3.645   9.302  1.00  0.00    -0.269 N 
HETATM    9  C11 UNL     1     -13.044   4.125   9.633  1.00  0.00     0.254 C 
HETATM   10  O3  UNL     1     -13.128   5.226  10.237  1.00  0.00    -0.270 OA
ATOM     11  H12 UNL     1     -11.702   2.753   8.811  1.00  0.00     0.190 HD
BRANCH   9  12
HETATM   12  C12 UNL     1     -14.280   3.373   9.290  1.00  0.00     0.237 C 
BRANCH  12  13
HETATM   13  N13 UNL     1     -14.691   2.483  10.331  1.00  0.00    -0.300 N 
HETATM   14  C13 UNL     1     -13.924   1.403  10.591  1.00  0.00     0.112 A 
HETATM   15  C14 UNL     1     -14.271   0.507  11.585  1.00  0.00     0.055 A 
HETATM   16  C16 UNL     1     -15.423   0.729  12.316  1.00  0.00     0.115 A 
HETATM   17  N15 UNL     1     -16.177   1.809  12.047  1.00  0.00    -0.294 N 
HETATM   18  C17 UNL     1     -15.791   2.634  11.080  1.00  0.00     0.328 A 
ATOM     19  H15 UNL     1     -17.030   1.991  12.576  1.00  0.00     0.172 HD
HETATM   20  O6  UNL     1     -16.530   3.648  10.850  1.00  0.00    -0.246 OA
BRANCH  15  21
HETATM   21  C15 UNL     1     -13.469  -0.685  11.907  1.00  0.00     0.293 C 
BRANCH  21  22
HETATM   22  O4  UNL     1     -13.525  -1.549  10.800  1.00  0.00    -0.367 OA
ATOM     23  H4  UNL     1     -13.383  -2.433  11.117  1.00  0.00     0.213 HD
ENDBRANCH  21  22
BRANCH  21  24
HETATM   24  O5  UNL     1     -12.180  -0.393  12.288  1.00  0.00    -0.367 OA
ATOM     25  H5  UNL     1     -11.552  -0.448  11.577  1.00  0.00     0.213 HD
ENDBRANCH  21  24
ENDBRANCH  15  21
BRANCH  16  26
HETATM   26  N14 UNL     1     -15.772  -0.080  13.242  1.00  0.00    -0.385 N 
ATOM     27 2H14 UNL     1     -15.119  -0.313  13.990  1.00  0.00     0.157 HD
ATOM     28 1H14 UNL     1     -16.702  -0.499  13.242  1.00  0.00     0.157 HD
ENDBRANCH  16  26
ENDBRANCH  12  13
ENDBRANCH   9  12
ENDBRANCH   6   8
ENDBRANCH   4   6
ENDBRANCH   3   4
ENDBRANCH   1   3
BRANCH   1  29
HETATM   29  O2  UNL     1      -9.259   0.621  11.841  1.00  0.00    -0.300 OA
BRANCH  29  30
HETATM   30  C5  UNL     1      -8.666  -0.600  11.433  1.00  0.00     0.269 C 
BRANCH  30  31
HETATM   31  C6  UNL     1      -9.662  -1.692  11.336  1.00  0.00     0.150 A 
HETATM   32  N1  UNL     1     -10.374  -2.006  10.246  1.00  0.00    -0.270 N 
HETATM   33  N2  UNL     1     -11.159  -3.037  10.541  1.00  0.00    -0.227 N 
ATOM     34  H1  UNL     1     -10.324  -1.534   9.343  1.00  0.00     0.190 HD
HETATM   35  N3  UNL     1     -10.961  -3.386  11.797  1.00  0.00    -0.227 N 
ATOM     36  H2  UNL     1     -11.810  -3.487   9.898  1.00  0.00     0.210 HD
HETATM   37  N4  UNL     1     -10.044  -2.562  12.284  1.00  0.00    -0.270 N 
ATOM     38  H3  UNL     1     -11.425  -4.145  12.297  1.00  0.00     0.210 HD
ATOM     39  H4  UNL     1      -9.682  -2.587  13.238  1.00  0.00     0.190 HD
ENDBRANCH  30  31
BRANCH  30  40
HETATM   40  C7  UNL     1      -7.562  -0.935  12.362  1.00  0.00     0.122 A 
HETATM   41  N5  UNL     1      -6.680  -0.088  12.956  1.00  0.00    -0.325 N 
HETATM   42  C8  UNL     1      -5.826  -0.776  13.733  1.00  0.00     0.167 A 
ATOM     43  H5  UNL     1      -6.669   0.924  12.830  1.00  0.00     0.169 HD
HETATM   44  N6  UNL     1      -4.790  -0.489  14.526  1.00  0.00    -0.268 N 
HETATM   45  C10 UNL     1      -6.223  -2.176  13.602  1.00  0.00     0.168 A 
HETATM   46  N7  UNL     1      -4.151  -1.452  15.168  1.00  0.00    -0.131 N 
ATOM     47  H6  UNL     1      -4.490   0.479  14.637  1.00  0.00     0.189 HD
HETATM   48  C9  UNL     1      -4.479  -2.752  15.078  1.00  0.00     0.692 A 
ATOM     49  H7  UNL     1      -3.365  -1.194  15.765  1.00  0.00     0.205 HD
HETATM   50  N9  UNL     1      -5.516  -3.092  14.292  1.00  0.00    -0.172 N 
ATOM     51  H9  UNL     1      -5.775  -4.076  14.215  1.00  0.00     0.186 HD
HETATM   52  N10 UNL     1      -7.263  -2.177  12.768  1.00  0.00    -0.326 N 
ATOM     53  H10 UNL     1      -7.766  -3.015  12.476  1.00  0.00     0.169 HD
BRANCH  48  54
HETATM   54  N8  UNL     1      -3.805  -3.658  15.739  1.00  0.00    -0.233 N 
ATOM     55  H82 UNL     1      -3.774  -3.653  16.758  1.00  0.00     0.174 HD
ATOM     56  H81 UNL     1      -3.294  -4.390  15.246  1.00  0.00     0.174 HD
ENDBRANCH  48  54
ENDBRANCH  30  40
ENDBRANCH  29  30
ENDBRANCH   1  29
TORSDOF 15
ENDMDL
MODEL 3
REMARK VINA RESULT: -8.807368340      2.871      6.170
REMARK  15 active torsions:
REMARK  status: ('A' for Active; 'I' for Inactive)
REMARK    1  A    between atoms: C2_2  and  C3_3 
REMARK    2  A    between atoms: C2_2  and  N11_34 
REMARK    3  A    between atoms: C3_3  and  C4_4 
REMARK    4  A    between atoms: C4_4  and  O2_6 
REMARK    5  A    between atoms: O2_6  and  C5_7 
REMARK    6  A    between atoms: C5_7  and  C6_8 
REMARK    7  A    between atoms: C5_7  and  C7_17 
REMARK    8  A    between atoms: C9_25  and  N8_26 
REMARK    9  A    between atoms: N11_34  and  N12_36 
REMARK       I    between atoms: N12_36  and  C11_38 
REMARK   10  A    between atoms: C11_38  and  C12_40 
REMARK   11  A    between atoms: C12_40  and  N13_41 
REMARK   12  A    between atoms: C14_43  and  C15_44 
REMARK   13  A    between atoms: C15_44  and  O4_45 
REMARK   14  A    between atoms: C15_44  and  O5_47 
REMARK   15  A    between atoms: C16_49  and  N14_50 
ROOT
HETATM    1  C4  UNL     1     -13.309  -0.711  12.181  1.00  0.00     0.265 C 
HETATM    2  O1  UNL     1     -13.789  -1.466  11.281  1.00  0.00    -0.265 OA
ENDROOT
BRANCH   1   3
HETATM    3  C3  UNL     1     -14.087  -0.369  13.401  1.00  0.00     0.164 C 
BRANCH   3   4
HETATM    4  C2  UNL     1     -15.469   0.053  13.085  1.00  0.00     0.009 C 
HETATM    5  C1  UNL     1     -16.558  -0.231  14.036  1.00  0.00     0.065 C 
BRANCH   4   6
HETATM    6  N11 UNL     1     -15.710   0.658  11.995  1.00  0.00    -0.306 N 
ATOM      7  H11 UNL     1     -15.977   0.089  11.192  1.00  0.00     0.186 HD
BRANCH   6   8
HETATM    8  N12 UNL     1     -15.640   2.025  11.809  1.00  0.00    -0.269 N 
HETATM    9  C11 UNL     1     -14.771   2.667  10.903  1.00  0.00     0.254 C 
HETATM   10  O3  UNL     1     -14.002   1.951  10.211  1.00  0.00    -0.270 OA
ATOM     11  H12 UNL     1     -16.261   2.612  12.366  1.00  0.00     0.190 HD
BRANCH   9  12
HETATM   12  C12 UNL     1     -14.745   4.145  10.750  1.00  0.00     0.237 C 
BRANCH  12  13
HETATM   13  N13 UNL     1     -14.320   4.557   9.448  1.00  0.00    -0.300 N 
HETATM   14  C13 UNL     1     -15.238   4.608   8.460  1.00  0.00     0.112 A 
HETATM   15  C14 UNL     1     -14.887   4.999   7.181  1.00  0.00     0.055 A 
HETATM   16  C16 UNL     1     -13.573   5.341   6.922  1.00  0.00     0.115 A 
HETATM   17  N15 UNL     1     -12.669   5.286   7.915  1.00  0.00    -0.294 N 
HETATM   18  C17 UNL     1     -13.068   4.903   9.123  1.00  0.00     0.328 A 
ATOM     19  H15 UNL     1     -11.695   5.536   7.745  1.00  0.00     0.172 HD
HETATM   20  O6  UNL     1     -12.184   4.862  10.042  1.00  0.00    -0.246 OA
BRANCH  15  21
HETATM   21  C15 UNL     1     -15.851   5.071   6.070  1.00  0.00     0.293 C 
BRANCH  21  22
HETATM   22  O4  UNL     1     -17.040   4.456   6.497  1.00  0.00    -0.367 OA
ATOM     23  H4  UNL     1     -17.605   4.366   5.739  1.00  0.00     0.213 HD
ENDBRANCH  21  22
BRANCH  21  24
HETATM   24  O5  UNL     1     -16.052   6.348   5.599  1.00  0.00    -0.367 OA
ATOM     25  H5  UNL     1     -16.830   6.764   5.952  1.00  0.00     0.213 HD
ENDBRANCH  21  24
ENDBRANCH  15  21
BRANCH  16  26
HETATM   26  N14 UNL     1     -13.215   5.707   5.751  1.00  0.00    -0.385 N 
ATOM     27 2H14 UNL     1     -13.840   5.564   4.957  1.00  0.00     0.157 HD
ATOM     28 1H14 UNL     1     -12.306   6.143   5.598  1.00  0.00     0.157 HD
ENDBRANCH  16  26
ENDBRANCH  12  13
ENDBRANCH   9  12
ENDBRANCH   6   8
ENDBRANCH   4   6
ENDBRANCH   3   4
ENDBRANCH   1   3
BRANCH   1  29
HETATM   29  O2  UNL     1     -12.032  -0.233  11.953  1.00  0.00    -0.300 OA
BRANCH  29  30
HETATM   30  C5  UNL     1     -11.201  -0.659  10.888  1.00  0.00     0.269 C 
BRANCH  30  31
HETATM   31  C6  UNL     1     -10.350  -1.807  11.277  1.00  0.00     0.150 A 
HETATM   32  N1  UNL     1      -9.437  -1.806  12.258  1.00  0.00    -0.270 N 
HETATM   33  N2  UNL     1      -8.877  -3.011  12.309  1.00  0.00    -0.227 N 
ATOM     34  H1  UNL     1      -9.210  -1.016  12.862  1.00  0.00     0.190 HD
HETATM   35  N3  UNL     1      -9.414  -3.778  11.382  1.00  0.00    -0.227 N 
ATOM     36  H2  UNL     1      -8.148  -3.295  12.963  1.00  0.00     0.210 HD
HETATM   37  N4  UNL     1     -10.317  -3.041  10.749  1.00  0.00    -0.270 N 
ATOM     38  H3  UNL     1      -9.179  -4.752  11.188  1.00  0.00     0.210 HD
ATOM     39  H4  UNL     1     -10.900  -3.364   9.977  1.00  0.00     0.190 HD
ENDBRANCH  30  31
BRANCH  30  40
HETATM   40  C7  UNL     1     -10.397   0.491  10.411  1.00  0.00     0.122 A 
HETATM   41  N5  UNL     1     -10.809   1.768  10.194  1.00  0.00    -0.325 N 
HETATM   42  C8  UNL     1      -9.783   2.521   9.763  1.00  0.00     0.167 A 
ATOM     43  H5  UNL     1     -11.761   2.106  10.338  1.00  0.00     0.169 HD
HETATM   44  N6  UNL     1      -9.598   3.795   9.405  1.00  0.00    -0.268 N 
HETATM   45  C10 UNL     1      -8.635   1.619   9.711  1.00  0.00     0.168 A 
HETATM   46  N7  UNL     1      -8.406   4.214   9.017  1.00  0.00    -0.131 N 
ATOM     47  H6  UNL     1     -10.381   4.447   9.431  1.00  0.00     0.189 HD
HETATM   48  C9  UNL     1      -7.322   3.423   8.953  1.00  0.00     0.692 A 
ATOM     49  H7  UNL     1      -8.303   5.194   8.751  1.00  0.00     0.205 HD
HETATM   50  N9  UNL     1      -7.458   2.132   9.304  1.00  0.00    -0.172 N 
ATOM     51  H9  UNL     1      -6.642   1.520   9.260  1.00  0.00     0.186 HD
HETATM   52  N10 UNL     1      -9.092   0.433  10.113  1.00  0.00    -0.326 N 
ATOM     53  H10 UNL     1      -8.522  -0.409  10.185  1.00  0.00     0.169 HD
BRANCH  48  54
HETATM   54  N8  UNL     1      -6.169   3.900   8.559  1.00  0.00    -0.233 N 
ATOM     55  H82 UNL     1      -6.096   4.485   7.727  1.00  0.00     0.174 HD
ATOM     56  H81 UNL     1      -5.316   3.694   9.079  1.00  0.00     0.174 HD
ENDBRANCH  48  54
ENDBRANCH  30  40
ENDBRANCH  29  30
ENDBRANCH   1  29
TORSDOF 15
ENDMDL
MODEL 4
REMARK VINA RESULT: -8.643625660      2.640      5.360
REMARK  15 active torsions:
REMARK  status: ('A' for Active; 'I' for Inactive)
REMARK    1  A    between atoms: C2_2  and  C3_3 
REMARK    2  A    between atoms: C2_2  and  N11_34 
REMARK    3  A    between atoms: C3_3  and  C4_4 
REMARK    4  A    between atoms: C4_4  and  O2_6 
REMARK    5  A    between atoms: O2_6  and  C5_7 
REMARK    6  A    between atoms: C5_7  and  C6_8 
REMARK    7  A    between atoms: C5_7  and  C7_17 
REMARK    8  A    between atoms: C9_25  and  N8_26 
REMARK    9  A    between atoms: N11_34  and  N12_36 
REMARK       I    between atoms: N12_36  and  C11_38 
REMARK   10  A    between atoms: C11_38  and  C12_40 
REMARK   11  A    between atoms: C12_40  and  N13_41 
REMARK   12  A    between atoms: C14_43  and  C15_44 
REMARK   13  A    between atoms: C15_44  and  O4_45 
REMARK   14  A    between atoms: C15_44  and  O5_47 
REMARK   15  A    between atoms: C16_49  and  N14_50 
ROOT
HETATM    1  C4  UNL     1     -12.603  -0.055  11.381  1.00  0.00     0.265 C 
HETATM    2  O1  UNL     1     -12.827   0.729  10.408  1.00  0.00    -0.265 OA
ENDROOT
BRANCH   1   3
HETATM    3  C3  UNL     1     -13.672  -0.925  11.936  1.00  0.00     0.164 C 
BRANCH   3   4
HETATM    4  C2  UNL     1     -14.673  -0.158  12.711  1.00  0.00     0.009 C 
HETATM    5  C1  UNL     1     -14.786  -0.360  14.166  1.00  0.00     0.065 C 
BRANCH   4   6
HETATM    6  N11 UNL     1     -15.430   0.671  12.116  1.00  0.00    -0.306 N 
ATOM      7  H11 UNL     1     -16.299   0.312  11.721  1.00  0.00     0.186 HD
BRANCH   6   8
HETATM    8  N12 UNL     1     -15.173   2.018  11.963  1.00  0.00    -0.269 N 
HETATM    9  C11 UNL     1     -15.617   2.801  10.878  1.00  0.00     0.254 C 
HETATM   10  O3  UNL     1     -16.299   2.239   9.982  1.00  0.00    -0.270 OA
ATOM     11  H12 UNL     1     -14.622   2.481  12.687  1.00  0.00     0.190 HD
BRANCH   9  12
HETATM   12  C12 UNL     1     -15.306   4.251  10.773  1.00  0.00     0.237 C 
BRANCH  12  13
HETATM   13  N13 UNL     1     -14.733   4.602   9.510  1.00  0.00    -0.300 N 
HETATM   14  C13 UNL     1     -15.549   4.690   8.438  1.00  0.00     0.112 A 
HETATM   15  C14 UNL     1     -15.053   5.025   7.192  1.00  0.00     0.055 A 
HETATM   16  C16 UNL     1     -13.700   5.272   7.053  1.00  0.00     0.115 A 
HETATM   17  N15 UNL     1     -12.899   5.181   8.129  1.00  0.00    -0.294 N 
HETATM   18  C17 UNL     1     -13.435   4.855   9.300  1.00  0.00     0.328 A 
ATOM     19  H15 UNL     1     -11.899   5.361   8.048  1.00  0.00     0.172 HD
HETATM   20  O6  UNL     1     -12.647   4.778  10.300  1.00  0.00    -0.246 OA
BRANCH  15  21
HETATM   21  C15 UNL     1     -15.900   5.133   5.993  1.00  0.00     0.293 C 
BRANCH  21  22
HETATM   22  O4  UNL     1     -17.134   4.527   6.286  1.00  0.00    -0.367 OA
ATOM     23  H4  UNL     1     -17.820   5.123   6.012  1.00  0.00     0.213 HD
ENDBRANCH  21  22
BRANCH  21  24
HETATM   24  O5  UNL     1     -16.038   6.422   5.532  1.00  0.00    -0.367 OA
ATOM     25  H5  UNL     1     -16.446   6.478   4.676  1.00  0.00     0.213 HD
ENDBRANCH  21  24
ENDBRANCH  15  21
BRANCH  16  26
HETATM   26  N14 UNL     1     -13.209   5.584   5.915  1.00  0.00    -0.385 N 
ATOM     27 2H14 UNL     1     -13.828   5.825   5.141  1.00  0.00     0.157 HD
ATOM     28 1H14 UNL     1     -12.200   5.595   5.770  1.00  0.00     0.157 HD
ENDBRANCH  16  26
ENDBRANCH  12  13
ENDBRANCH   9  12
ENDBRANCH   6   8
ENDBRANCH   4   6
ENDBRANCH   3   4
ENDBRANCH   1   3
BRANCH   1  29
HETATM   29  O2  UNL     1     -11.314  -0.046  11.883  1.00  0.00    -0.300 OA
BRANCH  29  30
HETATM   30  C5  UNL     1     -10.168  -0.427  11.142  1.00  0.00     0.269 C 
BRANCH  30  31
HETATM   31  C6  UNL     1      -9.798  -1.840  11.387  1.00  0.00     0.150 A 
HETATM   32  N1  UNL     1      -8.786  -2.260  12.158  1.00  0.00    -0.270 N 
HETATM   33  N2  UNL     1      -8.766  -3.589  12.135  1.00  0.00    -0.227 N 
ATOM     34  H1  UNL     1      -8.141  -1.663  12.675  1.00  0.00     0.190 HD
HETATM   35  N3  UNL     1      -9.744  -4.024  11.366  1.00  0.00    -0.227 N 
ATOM     36  H2  UNL     1      -8.100  -4.178  12.634  1.00  0.00     0.210 HD
HETATM   37  N4  UNL     1     -10.377  -2.952  10.908  1.00  0.00    -0.270 N 
ATOM     38  H3  UNL     1      -9.971  -4.998  11.162  1.00  0.00     0.210 HD
ATOM     39  H4  UNL     1     -11.184  -2.971  10.284  1.00  0.00     0.190 HD
ENDBRANCH  30  31
BRANCH  30  40
HETATM   40  C7  UNL     1      -9.057   0.501  11.457  1.00  0.00     0.122 A 
HETATM   41  N5  UNL     1      -8.826   1.167  12.620  1.00  0.00    -0.325 N 
HETATM   42  C8  UNL     1      -7.713   1.913  12.515  1.00  0.00     0.167 A 
ATOM     43  H5  UNL     1      -9.412   1.108  13.452  1.00  0.00     0.169 HD
HETATM   44  N6  UNL     1      -7.024   2.743  13.302  1.00  0.00    -0.268 N 
HETATM   45  C10 UNL     1      -7.218   1.682  11.160  1.00  0.00     0.168 A 
HETATM   46  N7  UNL     1      -5.927   3.332  12.857  1.00  0.00    -0.131 N 
ATOM     47  H6  UNL     1      -7.346   2.924  14.253  1.00  0.00     0.189 HD
HETATM   48  C9  UNL     1      -5.434   3.151  11.621  1.00  0.00     0.692 A 
ATOM     49  H7  UNL     1      -5.427   3.958  13.489  1.00  0.00     0.205 HD
HETATM   50  N9  UNL     1      -6.092   2.324  10.790  1.00  0.00    -0.172 N 
ATOM     51  H9  UNL     1      -5.727   2.177   9.848  1.00  0.00     0.186 HD
HETATM   52  N10 UNL     1      -8.078   0.830  10.603  1.00  0.00    -0.326 N 
ATOM     53  H10 UNL     1      -8.002   0.474   9.651  1.00  0.00     0.169 HD
BRANCH  48  54
HETATM   54  N8  UNL     1      -4.342   3.765  11.241  1.00  0.00    -0.233 N 
ATOM     55  H82 UNL     1      -3.818   3.451  10.424  1.00  0.00     0.174 HD
ATOM     56  H81 UNL     1      -3.991   4.571  11.757  1.00  0.00     0.174 HD
ENDBRANCH  48  54
ENDBRANCH  30  40
ENDBRANCH  29  30
ENDBRANCH   1  29
TORSDOF 15
ENDMDL
MODEL 5
REMARK VINA RESULT: -8.587704394      1.836      2.353
REMARK  15 active torsions:
REMARK  status: ('A' for Active; 'I' for Inactive)
REMARK    1  A    between atoms: C2_2  and  C3_3 
REMARK    2  A    between atoms: C2_2  and  N11_34 
REMARK    3  A    between atoms: C3_3  and  C4_4 
REMARK    4  A    between atoms: C4_4  and  O2_6 
REMARK    5  A    between atoms: O2_6  and  C5_7 
REMARK    6  A    between atoms: C5_7  and  C6_8 
REMARK    7  A    between atoms: C5_7  and  C7_17 
REMARK    8  A    between atoms: C9_25  and  N8_26 
REMARK    9  A    between atoms: N11_34  and  N12_36 
REMARK       I    between atoms: N12_36  and  C11_38 
REMARK   10  A    between atoms: C11_38  and  C12_40 
REMARK   11  A    between atoms: C12_40  and  N13_41 
REMARK   12  A    between atoms: C14_43  and  C15_44 
REMARK   13  A    between atoms: C15_44  and  O4_45 
REMARK   14  A    between atoms: C15_44  and  O5_47 
REMARK   15  A    between atoms: C16_49  and  N14_50 
ROOT
HETATM    1  C4  UNL     1     -10.062   2.127  10.316  1.00  0.00     0.265 C 
HETATM    2  O1  UNL     1     -10.638   1.727   9.258  1.00  0.00    -0.265 OA
ENDROOT
BRANCH   1   3
HETATM    3  C3  UNL     1      -9.711   3.557  10.512  1.00  0.00     0.164 C 
BRANCH   3   4
HETATM    4  C2  UNL     1     -10.292   4.427   9.466  1.00  0.00     0.009 C 
HETATM    5  C1  UNL     1      -9.432   4.965   8.397  1.00  0.00     0.065 C 
BRANCH   4   6
HETATM    6  N11 UNL     1     -11.531   4.706   9.495  1.00  0.00    -0.306 N 
ATOM      7  H11 UNL     1     -11.788   5.680   9.653  1.00  0.00     0.186 HD
BRANCH   6   8
HETATM    8  N12 UNL     1     -12.557   3.798   9.328  1.00  0.00    -0.269 N 
HETATM    9  C11 UNL     1     -13.812   3.881   9.965  1.00  0.00     0.254 C 
HETATM   10  O3  UNL     1     -14.020   4.849  10.742  1.00  0.00    -0.270 OA
ATOM     11  H12 UNL     1     -12.397   3.011   8.699  1.00  0.00     0.190 HD
BRANCH   9  12
HETATM   12  C12 UNL     1     -14.877   2.869   9.742  1.00  0.00     0.237 C 
BRANCH  12  13
HETATM   13  N13 UNL     1     -14.504   1.565  10.196  1.00  0.00    -0.300 N 
HETATM   14  C13 UNL     1     -14.796   1.220  11.468  1.00  0.00     0.112 A 
HETATM   15  C14 UNL     1     -14.460  -0.026  11.963  1.00  0.00     0.055 A 
HETATM   16  C16 UNL     1     -13.814  -0.925  11.135  1.00  0.00     0.115 A 
HETATM   17  N15 UNL     1     -13.530  -0.569   9.870  1.00  0.00    -0.294 N 
HETATM   18  C17 UNL     1     -13.878   0.643   9.452  1.00  0.00     0.328 A 
ATOM     19  H15 UNL     1     -13.055  -1.218   9.243  1.00  0.00     0.172 HD
HETATM   20  O6  UNL     1     -13.593   0.948   8.247  1.00  0.00    -0.246 OA
BRANCH  15  21
HETATM   21  C15 UNL     1     -14.757  -0.449  13.342  1.00  0.00     0.293 C 
BRANCH  21  22
HETATM   22  O4  UNL     1     -13.692  -0.027  14.156  1.00  0.00    -0.367 OA
ATOM     23  H4  UNL     1     -14.060   0.473  14.875  1.00  0.00     0.213 HD
ENDBRANCH  21  22
BRANCH  21  24
HETATM   24  O5  UNL     1     -15.980  -0.014  13.799  1.00  0.00    -0.367 OA
ATOM     25  H5  UNL     1     -15.992   0.906  14.032  1.00  0.00     0.213 HD
ENDBRANCH  21  24
ENDBRANCH  15  21
BRANCH  16  26
HETATM   26  N14 UNL     1     -13.490  -2.085  11.561  1.00  0.00    -0.385 N 
ATOM     27 2H14 UNL     1     -14.017  -2.516  12.321  1.00  0.00     0.157 HD
ATOM     28 1H14 UNL     1     -12.705  -2.589  11.149  1.00  0.00     0.157 HD
ENDBRANCH  16  26
ENDBRANCH  12  13
ENDBRANCH   9  12
ENDBRANCH   6   8
ENDBRANCH   4   6
ENDBRANCH   3   4
ENDBRANCH   1   3
BRANCH   1  29
HETATM   29  O2  UNL     1      -9.788   1.155  11.261  1.00  0.00    -0.300 OA
BRANCH  29  30
HETATM   30  C5  UNL     1      -8.812   0.140  11.098  1.00  0.00     0.269 C 
BRANCH  30  31
HETATM   31  C6  UNL     1      -9.394  -1.213  11.249  1.00  0.00     0.150 A 
HETATM   32  N1  UNL     1      -9.887  -1.967  10.257  1.00  0.00    -0.270 N 
HETATM   33  N2  UNL     1     -10.318  -3.112  10.776  1.00  0.00    -0.227 N 
ATOM     34  H1  UNL     1      -9.926  -1.706   9.271  1.00  0.00     0.190 HD
HETATM   35  N3  UNL     1     -10.109  -3.104  12.078  1.00  0.00    -0.227 N 
ATOM     36  H2  UNL     1     -10.742  -3.876  10.251  1.00  0.00     0.210 HD
HETATM   37  N4  UNL     1      -9.543  -1.940  12.368  1.00  0.00    -0.270 N 
ATOM     38  H3  UNL     1     -10.339  -3.849  12.735  1.00  0.00     0.210 HD
ATOM     39  H4  UNL     1      -9.261  -1.642  13.302  1.00  0.00     0.190 HD
ENDBRANCH  30  31
BRANCH  30  40
HETATM   40  C7  UNL     1      -7.703   0.378  12.052  1.00  0.00     0.122 A 
HETATM   41  N5  UNL     1      -6.559  -0.340  12.203  1.00  0.00    -0.325 N 
HETATM   42  C8  UNL     1      -5.800   0.193  13.175  1.00  0.00     0.167 A 
ATOM     43  H5  UNL     1      -6.312  -1.165  11.656  1.00  0.00     0.169 HD
HETATM   44  N6  UNL     1      -4.619  -0.073  13.740  1.00  0.00    -0.268 N 
HETATM   45  C10 UNL     1      -6.551   1.346  13.665  1.00  0.00     0.168 A 
HETATM   46  N7  UNL     1      -4.155   0.692  14.713  1.00  0.00    -0.131 N 
ATOM     47  H6  UNL     1      -4.073  -0.872  13.418  1.00  0.00     0.189 HD
HETATM   48  C9  UNL     1      -4.809   1.761  15.197  1.00  0.00     0.692 A 
ATOM     49  H7  UNL     1      -3.249   0.457  15.119  1.00  0.00     0.205 HD
HETATM   50  N9  UNL     1      -6.003   2.071  14.660  1.00  0.00    -0.172 N 
ATOM     51  H9  UNL     1      -6.509   2.881  15.018  1.00  0.00     0.186 HD
HETATM   52  N10 UNL     1      -7.670   1.380  12.941  1.00  0.00    -0.326 N 
ATOM     53  H10 UNL     1      -8.405   2.079  13.049  1.00  0.00     0.169 HD
BRANCH  48  54
HETATM   54  N8  UNL     1      -4.294   2.478  16.163  1.00  0.00    -0.233 N 
ATOM     55  H82 UNL     1      -4.494   2.267  17.141  1.00  0.00     0.174 HD
ATOM     56  H81 UNL     1      -3.681   3.266  15.957  1.00  0.00     0.174 HD
ENDBRANCH  48  54
ENDBRANCH  30  40
ENDBRANCH  29  30
ENDBRANCH   1  29
TORSDOF 15
ENDMDL
