MODEL 1
REMARK VINA RESULT: -8.243978084      0.000      0.000
REMARK  15 active torsions:
REMARK  status: ('A' for Active; 'I' for Inactive)
REMARK    1  A    between atoms: C2_2  and  N1_3 
REMARK    2  A    between atoms: C4_9  and  C5_10 
REMARK    3  A    between atoms: C5_10  and  N4_11 
REMARK    4  A    between atoms: C8_16  and  N6_17 
REMARK    5  A    between atoms: C9_22  and  N8_23 
REMARK    6  A    between atoms: C13_31  and  C14_32 
REMARK    7  A    between atoms: C14_32  and  O2_33 
REMARK    8  A    between atoms: C14_32  and  N10_35 
REMARK    9  A    between atoms: N10_35  and  C15_37 
REMARK   10  A    between atoms: C15_37  and  O3_38 
REMARK   11  A    between atoms: C15_37  and  C16_40 
REMARK   12  A    between atoms: C16_40  and  O4_41 
REMARK   13  A    between atoms: C16_40  and  C17_43 
REMARK   14  A    between atoms: C17_43  and  C18_45 
REMARK   15  A    between atoms: C18_45  and  O6_46 
ROOT
HETATM    1  N4  UNL     1     -12.389   0.728  10.118  1.00  0.00    -0.146 N 
HETATM    2  C6  UNL     1     -12.559   1.950   9.387  1.00  0.00     0.151 A 
HETATM    3  C7  UNL     1     -11.958   3.223   9.447  1.00  0.00     0.189 A 
HETATM    4  N5  UNL     1     -12.420   4.177   8.632  1.00  0.00    -0.168 N 
ATOM      5  H5  UNL     1     -12.013   5.112   8.645  1.00  0.00     0.186 HD
HETATM    6  C8  UNL     1     -13.440   3.878   7.786  1.00  0.00     0.679 A 
HETATM    7  N7  UNL     1     -14.028   2.681   7.700  1.00  0.00    -0.175 N 
ATOM      8  H7  UNL     1     -14.791   2.512   7.043  1.00  0.00     0.186 HD
HETATM    9  C9  UNL     1     -13.572   1.698   8.521  1.00  0.00     0.147 A 
HETATM   10  O1  UNL     1     -10.910   3.725  10.224  1.00  0.00    -0.332 OA
HETATM   11  C10 UNL     1      -9.592   3.223  10.514  1.00  0.00     0.198 C 
HETATM   12  C11 UNL     1      -9.574   2.169  11.554  1.00  0.00     0.173 C 
HETATM   13  N9  UNL     1     -10.022   0.872  11.219  1.00  0.00    -0.190 N 
HETATM   14  C12 UNL     1      -9.060   0.025  11.617  1.00  0.00     0.126 A 
HETATM   15  C13 UNL     1      -9.149  -1.343  11.490  1.00  0.00     0.074 A 
HETATM   16  C19 UNL     1     -10.274  -1.894  10.929  1.00  0.00     0.271 A 
HETATM   17  O7  UNL     1     -10.404  -3.157  10.792  1.00  0.00    -0.267 OA
HETATM   18  N11 UNL     1     -11.249  -1.052  10.524  1.00  0.00    -0.155 N 
ATOM     19  H11 UNL     1     -12.098  -1.429  10.102  1.00  0.00     0.187 HD
HETATM   20  C20 UNL     1     -11.114   0.277  10.669  1.00  0.00     0.694 A 
ENDROOT
BRANCH  15  21
HETATM   21  C14 UNL     1      -8.024  -2.235  11.964  1.00  0.00     0.257 C 
BRANCH  21  22
HETATM   22  O2  UNL     1      -8.559  -3.428  12.366  1.00  0.00    -0.373 OA
ATOM     23  H2  UNL     1      -8.367  -3.547  13.290  1.00  0.00     0.212 HD
ENDBRANCH  21  22
BRANCH  21  24
HETATM   24  N10 UNL     1      -7.266  -1.504  12.867  1.00  0.00    -0.365 N 
ATOM     25  H10 UNL     1      -7.158  -0.502  12.707  1.00  0.00     0.158 HD
BRANCH  24  26
HETATM   26  C15 UNL     1      -6.646  -2.065  13.982  1.00  0.00     0.252 C 
BRANCH  26  27
HETATM   27  O3  UNL     1      -7.361  -3.069  14.630  1.00  0.00    -0.374 OA
ATOM     28  H3  UNL     1      -6.907  -3.503  15.342  1.00  0.00     0.212 HD
ENDBRANCH  26  27
BRANCH  26  29
HETATM   29  C16 UNL     1      -5.220  -2.489  13.733  1.00  0.00     0.237 C 
BRANCH  29  30
HETATM   30  O4  UNL     1      -5.019  -3.859  13.822  1.00  0.00    -0.384 OA
ATOM     31  H4  UNL     1      -4.522  -4.222  13.098  1.00  0.00     0.210 HD
ENDBRANCH  29  30
BRANCH  29  32
HETATM   32  C17 UNL     1      -4.261  -1.770  14.622  1.00  0.00     0.182 C 
HETATM   33  O5  UNL     1      -3.801  -0.671  14.368  1.00  0.00    -0.293 OA
BRANCH  32  34
HETATM   34  C18 UNL     1      -3.846  -2.432  15.887  1.00  0.00     0.245 C 
BRANCH  34  35
HETATM   35  O6  UNL     1      -4.949  -2.801  16.656  1.00  0.00    -0.393 OA
ATOM     36  H6  UNL     1      -4.885  -2.461  17.542  1.00  0.00     0.209 HD
ENDBRANCH  34  35
ENDBRANCH  32  34
ENDBRANCH  29  32
ENDBRANCH  26  29
ENDBRANCH  24  26
ENDBRANCH  21  24
ENDBRANCH  15  21
BRANCH   1  37
HETATM   37  C5  UNL     1     -13.540   0.015  10.326  1.00  0.00     0.165 C 
BRANCH  37  38
HETATM   38  C4  UNL     1     -14.074   0.033  11.788  1.00  0.00     0.140 A 
HETATM   39  N1  UNL     1     -15.030   0.796  12.266  1.00  0.00    -0.326 N 
HETATM   40  C3  UNL     1     -15.177   0.518  13.572  1.00  0.00     0.201 A 
HETATM   41  N2  UNL     1     -14.287  -0.432  13.877  1.00  0.00    -0.294 N 
HETATM   42  N3  UNL     1     -13.617  -0.720  12.771  1.00  0.00    -0.283 N 
ATOM     43  H2  UNL     1     -14.148  -0.858  14.794  1.00  0.00     0.187 HD
ATOM     44  H3  UNL     1     -12.871  -1.411  12.691  1.00  0.00     0.188 HD
BRANCH  39  45
HETATM   45  C2  UNL     1     -15.816   1.791  11.504  1.00  0.00     0.127 C 
HETATM   46  C1  UNL     1     -15.187   3.144  11.551  1.00  0.00     0.027 C 
ENDBRANCH  39  45
ENDBRANCH  37  38
ENDBRANCH   1  37
BRANCH   9  47
HETATM   47  N8  UNL     1     -14.021   0.503   8.460  1.00  0.00    -0.383 N 
ATOM     48  H82 UNL     1     -13.557  -0.221   7.912  1.00  0.00     0.157 HD
ATOM     49  H81 UNL     1     -14.836   0.272   9.028  1.00  0.00     0.157 HD
ENDBRANCH   9  47
BRANCH   6  50
HETATM   50  N6  UNL     1     -13.859   4.819   7.017  1.00  0.00    -0.234 N 
ATOM     51  H62 UNL     1     -14.106   5.713   7.440  1.00  0.00     0.174 HD
ATOM     52  H61 UNL     1     -13.921   4.613   6.020  1.00  0.00     0.174 HD
ENDBRANCH   6  50
TORSDOF 15
ENDMDL
MODEL 2
REMARK VINA RESULT: -7.970967276      1.190      1.585
REMARK  15 active torsions:
REMARK  status: ('A' for Active; 'I' for Inactive)
REMARK    1  A    between atoms: C2_2  and  N1_3 
REMARK    2  A    between atoms: C4_9  and  C5_10 
REMARK    3  A    between atoms: C5_10  and  N4_11 
REMARK    4  A    between atoms: C8_16  and  N6_17 
REMARK    5  A    between atoms: C9_22  and  N8_23 
REMARK    6  A    between atoms: C13_31  and  C14_32 
REMARK    7  A    between atoms: C14_32  and  O2_33 
REMARK    8  A    between atoms: C14_32  and  N10_35 
REMARK    9  A    between atoms: N10_35  and  C15_37 
REMARK   10  A    between atoms: C15_37  and  O3_38 
REMARK   11  A    between atoms: C15_37  and  C16_40 
REMARK   12  A    between atoms: C16_40  and  O4_41 
REMARK   13  A    between atoms: C16_40  and  C17_43 
REMARK   14  A    between atoms: C17_43  and  C18_45 
REMARK   15  A    between atoms: C18_45  and  O6_46 
ROOT
HETATM    1  N4  UNL     1     -12.424   0.783  10.071  1.00  0.00    -0.146 N 
HETATM    2  C6  UNL     1     -12.610   1.989   9.318  1.00  0.00     0.151 A 
HETATM    3  C7  UNL     1     -12.033   3.273   9.358  1.00  0.00     0.189 A 
HETATM    4  N5  UNL     1     -12.507   4.204   8.523  1.00  0.00    -0.168 N 
ATOM      5  H5  UNL     1     -12.117   5.146   8.522  1.00  0.00     0.186 HD
HETATM    6  C8  UNL     1     -13.516   3.872   7.678  1.00  0.00     0.679 A 
HETATM    7  N7  UNL     1     -14.084   2.663   7.610  1.00  0.00    -0.175 N 
ATOM      8  H7  UNL     1     -14.839   2.469   6.953  1.00  0.00     0.186 HD
HETATM    9  C9  UNL     1     -13.614   1.704   8.451  1.00  0.00     0.147 A 
HETATM   10  O1  UNL     1     -10.997   3.807  10.131  1.00  0.00    -0.332 OA
HETATM   11  C10 UNL     1      -9.673   3.334  10.436  1.00  0.00     0.198 C 
HETATM   12  C11 UNL     1      -9.642   2.300  11.496  1.00  0.00     0.173 C 
HETATM   13  N9  UNL     1     -10.065   0.989  11.182  1.00  0.00    -0.190 N 
HETATM   14  C12 UNL     1      -9.091   0.166  11.600  1.00  0.00     0.126 A 
HETATM   15  C13 UNL     1      -9.155  -1.205  11.498  1.00  0.00     0.074 A 
HETATM   16  C19 UNL     1     -10.267  -1.785  10.941  1.00  0.00     0.271 A 
HETATM   17  O7  UNL     1     -10.374  -3.053  10.825  1.00  0.00    -0.267 OA
HETATM   18  N11 UNL     1     -11.254  -0.968  10.515  1.00  0.00    -0.155 N 
ATOM     19  H11 UNL     1     -12.094  -1.368  10.096  1.00  0.00     0.187 HD
HETATM   20  C20 UNL     1     -11.144   0.365  10.637  1.00  0.00     0.694 A 
ENDROOT
BRANCH  15  21
HETATM   21  C14 UNL     1      -8.017  -2.069  11.993  1.00  0.00     0.257 C 
BRANCH  21  22
HETATM   22  O2  UNL     1      -8.546  -3.134  12.668  1.00  0.00    -0.373 OA
ATOM     23  H2  UNL     1      -8.048  -3.260  13.468  1.00  0.00     0.212 HD
ENDBRANCH  21  22
BRANCH  21  24
HETATM   24  N10 UNL     1      -7.122  -1.238  12.651  1.00  0.00    -0.365 N 
ATOM     25  H10 UNL     1      -7.160  -0.237  12.458  1.00  0.00     0.158 HD
BRANCH  24  26
HETATM   26  C15 UNL     1      -6.172  -1.699  13.561  1.00  0.00     0.252 C 
BRANCH  26  27
HETATM   27  O3  UNL     1      -5.796  -3.032  13.419  1.00  0.00    -0.374 OA
ATOM     28  H3  UNL     1      -5.119  -3.335  14.013  1.00  0.00     0.212 HD
ENDBRANCH  26  27
BRANCH  26  29
HETATM   29  C16 UNL     1      -4.963  -0.804  13.681  1.00  0.00     0.237 C 
BRANCH  29  30
HETATM   30  O4  UNL     1      -4.665  -0.438  14.985  1.00  0.00    -0.384 OA
ATOM     31  H4  UNL     1      -4.598   0.501  15.115  1.00  0.00     0.210 HD
ENDBRANCH  29  30
BRANCH  29  32
HETATM   32  C17 UNL     1      -5.079   0.409  12.820  1.00  0.00     0.182 C 
HETATM   33  O5  UNL     1      -4.857   0.408  11.622  1.00  0.00    -0.293 OA
BRANCH  32  34
HETATM   34  C18 UNL     1      -5.487   1.687  13.461  1.00  0.00     0.245 C 
BRANCH  34  35
HETATM   35  O6  UNL     1      -6.791   1.618  13.951  1.00  0.00    -0.393 OA
ATOM     36  H6  UNL     1      -7.070   2.450  14.316  1.00  0.00     0.209 HD
ENDBRANCH  34  35
ENDBRANCH  32  34
ENDBRANCH  29  32
ENDBRANCH  26  29
ENDBRANCH  24  26
ENDBRANCH  21  24
ENDBRANCH  15  21
BRANCH   1  37
HETATM   37  C5  UNL     1     -13.563   0.054  10.286  1.00  0.00     0.165 C 
BRANCH  37  38
HETATM   38  C4  UNL     1     -14.094   0.074  11.749  1.00  0.00     0.140 A 
HETATM   39  N1  UNL     1     -15.035   0.851  12.234  1.00  0.00    -0.326 N 
HETATM   40  C3  UNL     1     -15.186   0.569  13.538  1.00  0.00     0.201 A 
HETATM   41  N2  UNL     1     -14.313  -0.400  13.836  1.00  0.00    -0.294 N 
HETATM   42  N3  UNL     1     -13.651  -0.694  12.727  1.00  0.00    -0.283 N 
ATOM     43  H2  UNL     1     -14.181  -0.834  14.750  1.00  0.00     0.187 HD
ATOM     44  H3  UNL     1     -12.918  -1.398  12.642  1.00  0.00     0.188 HD
BRANCH  39  45
HETATM   45  C2  UNL     1     -15.802   1.866  11.478  1.00  0.00     0.127 C 
HETATM   46  C1  UNL     1     -15.159   3.211  11.550  1.00  0.00     0.027 C 
ENDBRANCH  39  45
ENDBRANCH  37  38
ENDBRANCH   1  37
BRANCH   9  47
HETATM   47  N8  UNL     1     -14.042   0.500   8.410  1.00  0.00    -0.383 N 
ATOM     48  H82 UNL     1     -14.150  -0.063   9.253  1.00  0.00     0.157 HD
ATOM     49  H81 UNL     1     -14.330   0.128   7.505  1.00  0.00     0.157 HD
ENDBRANCH   9  47
BRANCH   6  50
HETATM   50  N6  UNL     1     -13.948   4.792   6.890  1.00  0.00    -0.234 N 
ATOM     51  H62 UNL     1     -14.736   5.360   7.198  1.00  0.00     0.174 HD
ATOM     52  H61 UNL     1     -13.472   4.899   5.994  1.00  0.00     0.174 HD
ENDBRANCH   6  50
TORSDOF 15
ENDMDL
MODEL 3
REMARK VINA RESULT: -7.683051719      3.965      7.695
REMARK  15 active torsions:
REMARK  status: ('A' for Active; 'I' for Inactive)
REMARK    1  A    between atoms: C2_2  and  N1_3 
REMARK    2  A    between atoms: C4_9  and  C5_10 
REMARK    3  A    between atoms: C5_10  and  N4_11 
REMARK    4  A    between atoms: C8_16  and  N6_17 
REMARK    5  A    between atoms: C9_22  and  N8_23 
REMARK    6  A    between atoms: C13_31  and  C14_32 
REMARK    7  A    between atoms: C14_32  and  O2_33 
REMARK    8  A    between atoms: C14_32  and  N10_35 
REMARK    9  A    between atoms: N10_35  and  C15_37 
REMARK   10  A    between atoms: C15_37  and  O3_38 
REMARK   11  A    between atoms: C15_37  and  C16_40 
REMARK   12  A    between atoms: C16_40  and  O4_41 
REMARK   13  A    between atoms: C16_40  and  C17_43 
REMARK   14  A    between atoms: C17_43  and  C18_45 
REMARK   15  A    between atoms: C18_45  and  O6_46 
ROOT
HETATM    1  N4  UNL     1     -12.726   6.102   8.173  1.00  0.00    -0.146 N 
HETATM    2  C6  UNL     1     -12.798   6.894   6.980  1.00  0.00     0.151 A 
HETATM    3  C7  UNL     1     -13.121   6.620   5.637  1.00  0.00     0.189 A 
HETATM    4  N5  UNL     1     -13.020   7.614   4.749  1.00  0.00    -0.168 N 
ATOM      5  H5  UNL     1     -13.243   7.458   3.766  1.00  0.00     0.186 HD
HETATM    6  C8  UNL     1     -12.614   8.837   5.178  1.00  0.00     0.679 A 
HETATM    7  N7  UNL     1     -12.305   9.133   6.445  1.00  0.00    -0.175 N 
ATOM      8  H7  UNL     1     -12.007  10.071   6.713  1.00  0.00     0.186 HD
HETATM    9  C9  UNL     1     -12.403   8.134   7.362  1.00  0.00     0.147 A 
HETATM   10  O1  UNL     1     -13.561   5.455   5.001  1.00  0.00    -0.332 OA
HETATM   11  C10 UNL     1     -14.602   4.513   5.317  1.00  0.00     0.198 C 
HETATM   12  C11 UNL     1     -14.223   3.540   6.367  1.00  0.00     0.173 C 
HETATM   13  N9  UNL     1     -14.173   3.973   7.711  1.00  0.00    -0.190 N 
HETATM   14  C12 UNL     1     -14.899   3.095   8.419  1.00  0.00     0.126 A 
HETATM   15  C13 UNL     1     -15.058   3.163   9.785  1.00  0.00     0.074 A 
HETATM   16  C19 UNL     1     -14.450   4.177  10.482  1.00  0.00     0.271 A 
HETATM   17  O7  UNL     1     -14.567   4.283  11.750  1.00  0.00    -0.267 OA
HETATM   18  N11 UNL     1     -13.718   5.069   9.780  1.00  0.00    -0.155 N 
ATOM     19  H11 UNL     1     -13.253   5.835  10.269  1.00  0.00     0.187 HD
HETATM   20  C20 UNL     1     -13.593   4.958   8.448  1.00  0.00     0.694 A 
ENDROOT
BRANCH  15  21
HETATM   21  C14 UNL     1     -15.891   2.134  10.516  1.00  0.00     0.257 C 
BRANCH  21  22
HETATM   22  O2  UNL     1     -16.934   2.776  11.124  1.00  0.00    -0.373 OA
ATOM     23  H2  UNL     1     -17.688   2.737  10.547  1.00  0.00     0.212 HD
ENDBRANCH  21  22
BRANCH  21  24
HETATM   24  N10 UNL     1     -15.027   1.377  11.294  1.00  0.00    -0.365 N 
ATOM     25  H10 UNL     1     -14.561   1.831  12.079  1.00  0.00     0.158 HD
BRANCH  24  26
HETATM   26  C15 UNL     1     -14.762   0.029  11.058  1.00  0.00     0.252 C 
BRANCH  26  27
HETATM   27  O3  UNL     1     -14.815  -0.373   9.726  1.00  0.00    -0.374 OA
ATOM     28  H3  UNL     1     -14.579  -1.278   9.559  1.00  0.00     0.212 HD
ENDBRANCH  26  27
BRANCH  26  29
HETATM   29  C16 UNL     1     -13.503  -0.467  11.724  1.00  0.00     0.237 C 
BRANCH  29  30
HETATM   30  O4  UNL     1     -13.456  -0.218  13.089  1.00  0.00    -0.384 OA
ATOM     31  H4  UNL     1     -12.587  -0.304  13.465  1.00  0.00     0.210 HD
ENDBRANCH  29  30
BRANCH  29  32
HETATM   32  C17 UNL     1     -12.275   0.062  11.063  1.00  0.00     0.182 C 
HETATM   33  O5  UNL     1     -12.280   1.001  10.286  1.00  0.00    -0.293 OA
BRANCH  32  34
HETATM   34  C18 UNL     1     -10.976  -0.593  11.369  1.00  0.00     0.245 C 
BRANCH  34  35
HETATM   35  O6  UNL     1     -10.614  -0.409  12.703  1.00  0.00    -0.393 OA
ATOM     36  H6  UNL     1      -9.784   0.050  12.779  1.00  0.00     0.209 HD
ENDBRANCH  34  35
ENDBRANCH  32  34
ENDBRANCH  29  32
ENDBRANCH  26  29
ENDBRANCH  24  26
ENDBRANCH  21  24
ENDBRANCH  15  21
BRANCH   1  37
HETATM   37  C5  UNL     1     -11.728   6.455   9.042  1.00  0.00     0.165 C 
BRANCH  37  38
HETATM   38  C4  UNL     1     -10.495   5.505   9.054  1.00  0.00     0.140 A 
HETATM   39  N1  UNL     1      -9.384   5.649   8.369  1.00  0.00    -0.326 N 
HETATM   40  C3  UNL     1      -8.581   4.609   8.646  1.00  0.00     0.201 A 
HETATM   41  N2  UNL     1      -9.230   3.829   9.517  1.00  0.00    -0.294 N 
HETATM   42  N3  UNL     1     -10.404   4.392   9.759  1.00  0.00    -0.283 N 
ATOM     43  H2  UNL     1      -8.884   2.958   9.922  1.00  0.00     0.187 HD
ATOM     44  H3  UNL     1     -11.120   4.027  10.387  1.00  0.00     0.188 HD
BRANCH  39  45
HETATM   45  C2  UNL     1      -9.066   6.762   7.448  1.00  0.00     0.127 C 
HETATM   46  C1  UNL     1      -9.269   6.373   6.021  1.00  0.00     0.027 C 
ENDBRANCH  39  45
ENDBRANCH  37  38
ENDBRANCH   1  37
BRANCH   9  47
HETATM   47  N8  UNL     1     -12.199   8.337   8.608  1.00  0.00    -0.383 N 
ATOM     48  H82 UNL     1     -11.358   8.003   9.079  1.00  0.00     0.157 HD
ATOM     49  H81 UNL     1     -12.883   8.897   9.117  1.00  0.00     0.157 HD
ENDBRANCH   9  47
BRANCH   6  50
HETATM   50  N6  UNL     1     -12.527   9.770   4.297  1.00  0.00    -0.234 N 
ATOM     51  H62 UNL     1     -13.236   9.810   3.566  1.00  0.00     0.174 HD
ATOM     52  H61 UNL     1     -11.746  10.420   4.383  1.00  0.00     0.174 HD
ENDBRANCH   6  50
TORSDOF 15
ENDMDL
MODEL 4
REMARK VINA RESULT: -7.672202529      1.779      2.231
REMARK  15 active torsions:
REMARK  status: ('A' for Active; 'I' for Inactive)
REMARK    1  A    between atoms: C2_2  and  N1_3 
REMARK    2  A    between atoms: C4_9  and  C5_10 
REMARK    3  A    between atoms: C5_10  and  N4_11 
REMARK    4  A    between atoms: C8_16  and  N6_17 
REMARK    5  A    between atoms: C9_22  and  N8_23 
REMARK    6  A    between atoms: C13_31  and  C14_32 
REMARK    7  A    between atoms: C14_32  and  O2_33 
REMARK    8  A    between atoms: C14_32  and  N10_35 
REMARK    9  A    between atoms: N10_35  and  C15_37 
REMARK   10  A    between atoms: C15_37  and  O3_38 
REMARK   11  A    between atoms: C15_37  and  C16_40 
REMARK   12  A    between atoms: C16_40  and  O4_41 
REMARK   13  A    between atoms: C16_40  and  C17_43 
REMARK   14  A    between atoms: C17_43  and  C18_45 
REMARK   15  A    between atoms: C18_45  and  O6_46 
ROOT
HETATM    1  N4  UNL     1     -12.272   0.646  10.144  1.00  0.00    -0.146 N 
HETATM    2  C6  UNL     1     -12.593   1.779   9.327  1.00  0.00     0.151 A 
HETATM    3  C7  UNL     1     -12.165   3.121   9.296  1.00  0.00     0.189 A 
HETATM    4  N5  UNL     1     -12.740   3.945   8.414  1.00  0.00    -0.168 N 
ATOM      5  H5  UNL     1     -12.460   4.925   8.360  1.00  0.00     0.186 HD
HETATM    6  C8  UNL     1     -13.702   3.456   7.590  1.00  0.00     0.679 A 
HETATM    7  N7  UNL     1     -14.128   2.188   7.590  1.00  0.00    -0.175 N 
ATOM      8  H7  UNL     1     -14.854   1.874   6.946  1.00  0.00     0.186 HD
HETATM    9  C9  UNL     1     -13.555   1.335   8.480  1.00  0.00     0.147 A 
HETATM   10  O1  UNL     1     -11.200   3.811  10.036  1.00  0.00    -0.332 OA
HETATM   11  C10 UNL     1      -9.831   3.509  10.362  1.00  0.00     0.198 C 
HETATM   12  C11 UNL     1      -9.686   2.544  11.476  1.00  0.00     0.173 C 
HETATM   13  N9  UNL     1      -9.956   1.178  11.235  1.00  0.00    -0.190 N 
HETATM   14  C12 UNL     1      -8.896   0.496  11.693  1.00  0.00     0.126 A 
HETATM   15  C13 UNL     1      -8.803  -0.878  11.666  1.00  0.00     0.074 A 
HETATM   16  C19 UNL     1      -9.840  -1.610  11.144  1.00  0.00     0.271 A 
HETATM   17  O7  UNL     1      -9.802  -2.886  11.098  1.00  0.00    -0.267 OA
HETATM   18  N11 UNL     1     -10.912  -0.935  10.678  1.00  0.00    -0.155 N 
ATOM     19  H11 UNL     1     -11.700  -1.450  10.284  1.00  0.00     0.187 HD
HETATM   20  C20 UNL     1     -10.955   0.407  10.728  1.00  0.00     0.694 A 
ENDROOT
BRANCH  15  21
HETATM   21  C14 UNL     1      -7.575  -1.578  12.204  1.00  0.00     0.257 C 
BRANCH  21  22
HETATM   22  O2  UNL     1      -7.983  -2.627  12.981  1.00  0.00    -0.373 OA
ATOM     23  H2  UNL     1      -8.249  -3.338  12.409  1.00  0.00     0.212 HD
ENDBRANCH  21  22
BRANCH  21  24
HETATM   24  N10 UNL     1      -6.757  -0.608  12.764  1.00  0.00    -0.365 N 
ATOM     25  H10 UNL     1      -7.072  -0.144  13.616  1.00  0.00     0.158 HD
BRANCH  24  26
HETATM   26  C15 UNL     1      -5.527  -0.234  12.225  1.00  0.00     0.252 C 
BRANCH  26  27
HETATM   27  O3  UNL     1      -5.527   0.044  10.860  1.00  0.00    -0.374 OA
ATOM     28  H3  UNL     1      -4.749  -0.225  10.385  1.00  0.00     0.212 HD
ENDBRANCH  26  27
BRANCH  26  29
HETATM   29  C16 UNL     1      -4.830   0.855  13.001  1.00  0.00     0.237 C 
BRANCH  29  30
HETATM   30  O4  UNL     1      -4.745   0.605  14.363  1.00  0.00    -0.384 OA
ATOM     31  H4  UNL     1      -4.029   1.058  14.793  1.00  0.00     0.210 HD
ENDBRANCH  29  30
BRANCH  29  32
HETATM   32  C17 UNL     1      -5.446   2.193  12.762  1.00  0.00     0.182 C 
HETATM   33  O5  UNL     1      -5.376   2.786  11.701  1.00  0.00    -0.293 OA
BRANCH  32  34
HETATM   34  C18 UNL     1      -6.186   2.834  13.881  1.00  0.00     0.245 C 
BRANCH  34  35
HETATM   35  O6  UNL     1      -7.308   2.089  14.245  1.00  0.00    -0.393 OA
ATOM     36  H6  UNL     1      -7.194   1.167  14.043  1.00  0.00     0.209 HD
ENDBRANCH  34  35
ENDBRANCH  32  34
ENDBRANCH  29  32
ENDBRANCH  26  29
ENDBRANCH  24  26
ENDBRANCH  21  24
ENDBRANCH  15  21
BRANCH   1  37
HETATM   37  C5  UNL     1     -13.321  -0.196  10.401  1.00  0.00     0.165 C 
BRANCH  37  38
HETATM   38  C4  UNL     1     -13.934  -0.072  11.827  1.00  0.00     0.140 A 
HETATM   39  N1  UNL     1     -14.924   0.710  12.192  1.00  0.00    -0.326 N 
HETATM   40  C3  UNL     1     -15.138   0.534  13.506  1.00  0.00     0.201 A 
HETATM   41  N2  UNL     1     -14.255  -0.376  13.932  1.00  0.00    -0.294 N 
HETATM   42  N3  UNL     1     -13.523  -0.739  12.889  1.00  0.00    -0.283 N 
ATOM     43  H2  UNL     1     -14.161  -0.727  14.885  1.00  0.00     0.187 HD
ATOM     44  H3  UNL     1     -12.765  -1.422  12.904  1.00  0.00     0.188 HD
BRANCH  39  45
HETATM   45  C2  UNL     1     -15.678   1.630  11.313  1.00  0.00     0.127 C 
HETATM   46  C1  UNL     1     -15.267   3.051  11.517  1.00  0.00     0.027 C 
ENDBRANCH  39  45
ENDBRANCH  37  38
ENDBRANCH   1  37
BRANCH   9  47
HETATM   47  N8  UNL     1     -13.842   0.090   8.505  1.00  0.00    -0.383 N 
ATOM     48  H82 UNL     1     -14.731  -0.266   8.153  1.00  0.00     0.157 HD
ATOM     49  H81 UNL     1     -13.129  -0.556   8.841  1.00  0.00     0.157 HD
ENDBRANCH   9  47
BRANCH   6  50
HETATM   50  N6  UNL     1     -14.233   4.277   6.755  1.00  0.00    -0.234 N 
ATOM     51  H62 UNL     1     -14.478   5.209   7.085  1.00  0.00     0.174 HD
ATOM     52  H61 UNL     1     -14.381   3.942   5.803  1.00  0.00     0.174 HD
ENDBRANCH   6  50
TORSDOF 15
ENDMDL
MODEL 5
REMARK VINA RESULT: -7.597787214      2.235      3.495
REMARK  15 active torsions:
REMARK  status: ('A' for Active; 'I' for Inactive)
REMARK    1  A    between atoms: C2_2  and  N1_3 
REMARK    2  A    between atoms: C4_9  and  C5_10 
REMARK    3  A    between atoms: C5_10  and  N4_11 
REMARK    4  A    between atoms: C8_16  and  N6_17 
REMARK    5  A    between atoms: C9_22  and  N8_23 
REMARK    6  A    between atoms: C13_31  and  C14_32 
REMARK    7  A    between atoms: C14_32  and  O2_33 
REMARK    8  A    between atoms: C14_32  and  N10_35 
REMARK    9  A    between atoms: N10_35  and  C15_37 
REMARK   10  A    between atoms: C15_37  and  O3_38 
REMARK   11  A    between atoms: C15_37  and  C16_40 
REMARK   12  A    between atoms: C16_40  and  O4_41 
REMARK   13  A    between atoms: C16_40  and  C17_43 
REMARK   14  A    between atoms: C17_43  and  C18_45 
REMARK   15  A    between atoms: C18_45  and  O6_46 
ROOT
HETATM    1  N4  UNL     1     -13.402   3.361   8.206  1.00  0.00    -0.146 N 
HETATM    2  C6  UNL     1     -13.277   4.478   7.316  1.00  0.00     0.151 A 
HETATM    3  C7  UNL     1     -12.506   5.657   7.320  1.00  0.00     0.189 A 
HETATM    4  N5  UNL     1     -12.695   6.538   6.332  1.00  0.00    -0.168 N 
ATOM      5  H5  UNL     1     -12.158   7.404   6.299  1.00  0.00     0.186 HD
HETATM    6  C8  UNL     1     -13.616   6.258   5.373  1.00  0.00     0.679 A 
HETATM    7  N7  UNL     1     -14.360   5.148   5.336  1.00  0.00    -0.175 N 
ATOM      8  H7  UNL     1     -15.037   4.989   4.589  1.00  0.00     0.186 HD
HETATM    9  C9  UNL     1     -14.181   4.241   6.332  1.00  0.00     0.147 A 
HETATM   10  O1  UNL     1     -11.517   6.123   8.191  1.00  0.00    -0.332 OA
HETATM   11  C10 UNL     1     -10.346   5.499   8.750  1.00  0.00     0.198 C 
HETATM   12  C11 UNL     1     -10.638   4.610   9.899  1.00  0.00     0.173 C 
HETATM   13  N9  UNL     1     -11.225   3.348   9.653  1.00  0.00    -0.190 N 
HETATM   14  C12 UNL     1     -10.470   2.448  10.301  1.00  0.00     0.126 A 
HETATM   15  C13 UNL     1     -10.746   1.100  10.327  1.00  0.00     0.074 A 
HETATM   16  C19 UNL     1     -11.849   0.627   9.660  1.00  0.00     0.271 A 
HETATM   17  O7  UNL     1     -12.147  -0.615   9.656  1.00  0.00    -0.267 OA
HETATM   18  N11 UNL     1     -12.615   1.523   9.003  1.00  0.00    -0.155 N 
ATOM     19  H11 UNL     1     -13.442   1.204   8.497  1.00  0.00     0.187 HD
HETATM   20  C20 UNL     1     -12.303   2.830   9.008  1.00  0.00     0.694 A 
ENDROOT
BRANCH  15  21
HETATM   21  C14 UNL     1      -9.849   0.144  11.082  1.00  0.00     0.257 C 
BRANCH  21  22
HETATM   22  O2  UNL     1     -10.338   0.006  12.352  1.00  0.00    -0.373 OA
ATOM     23  H2  UNL     1     -10.157  -0.879  12.648  1.00  0.00     0.212 HD
ENDBRANCH  21  22
BRANCH  21  24
HETATM   24  N10 UNL     1      -8.543   0.578  10.911  1.00  0.00    -0.365 N 
ATOM     25  H10 UNL     1      -8.248   0.869   9.979  1.00  0.00     0.158 HD
BRANCH  24  26
HETATM   26  C15 UNL     1      -7.611   0.638  11.946  1.00  0.00     0.252 C 
BRANCH  26  27
HETATM   27  O3  UNL     1      -8.020   1.324  13.087  1.00  0.00    -0.374 OA
ATOM     28  H3  UNL     1      -8.474   0.803  13.740  1.00  0.00     0.212 HD
ENDBRANCH  26  27
BRANCH  26  29
HETATM   29  C16 UNL     1      -7.013  -0.700  12.302  1.00  0.00     0.237 C 
BRANCH  29  30
HETATM   30  O4  UNL     1      -7.951  -1.651  12.679  1.00  0.00    -0.384 OA
ATOM     31  H4  UNL     1      -7.592  -2.524  12.782  1.00  0.00     0.210 HD
ENDBRANCH  29  30
BRANCH  29  32
HETATM   32  C17 UNL     1      -5.957  -0.578  13.349  1.00  0.00     0.182 C 
HETATM   33  O5  UNL     1      -5.324   0.443  13.552  1.00  0.00    -0.293 OA
BRANCH  32  34
HETATM   34  C18 UNL     1      -5.662  -1.769  14.189  1.00  0.00     0.245 C 
BRANCH  34  35
HETATM   35  O6  UNL     1      -5.711  -2.946  13.442  1.00  0.00    -0.393 OA
ATOM     36  H6  UNL     1      -4.853  -3.348  13.368  1.00  0.00     0.209 HD
ENDBRANCH  34  35
ENDBRANCH  32  34
ENDBRANCH  29  32
ENDBRANCH  26  29
ENDBRANCH  24  26
ENDBRANCH  21  24
ENDBRANCH  15  21
BRANCH   1  37
HETATM   37  C5  UNL     1     -14.666   2.842   8.307  1.00  0.00     0.165 C 
BRANCH  37  38
HETATM   38  C4  UNL     1     -15.474   3.308   9.553  1.00  0.00     0.140 A 
HETATM   39  N1  UNL     1     -15.803   2.580  10.595  1.00  0.00    -0.326 N 
HETATM   40  C3  UNL     1     -16.512   3.347  11.439  1.00  0.00     0.201 A 
HETATM   41  N2  UNL     1     -16.606   4.561  10.885  1.00  0.00    -0.294 N 
HETATM   42  N3  UNL     1     -15.964   4.522   9.728  1.00  0.00    -0.283 N 
ATOM     43  H2  UNL     1     -17.086   5.370  11.282  1.00  0.00     0.187 HD
ATOM     44  H3  UNL     1     -15.863   5.301   9.077  1.00  0.00     0.188 HD
BRANCH  39  45
HETATM   45  C2  UNL     1     -15.455   1.158  10.810  1.00  0.00     0.127 C 
HETATM   46  C1  UNL     1     -14.899   0.925  12.176  1.00  0.00     0.027 C 
ENDBRANCH  39  45
ENDBRANCH  37  38
ENDBRANCH   1  37
BRANCH   9  47
HETATM   47  N8  UNL     1     -14.793   3.119   6.344  1.00  0.00    -0.383 N 
ATOM     48  H82 UNL     1     -15.711   3.009   6.774  1.00  0.00     0.157 HD
ATOM     49  H81 UNL     1     -14.359   2.335   5.855  1.00  0.00     0.157 HD
ENDBRANCH   9  47
BRANCH   6  50
HETATM   50  N6  UNL     1     -13.772   7.127   4.438  1.00  0.00    -0.234 N 
ATOM     51  H62 UNL     1     -14.307   6.858   3.614  1.00  0.00     0.174 HD
ATOM     52  H61 UNL     1     -13.346   8.043   4.579  1.00  0.00     0.174 HD
ENDBRANCH   6  50
TORSDOF 15
ENDMDL
