MODEL 1
REMARK VINA RESULT: -3.305443921      0.000      0.000
REMARK  5 active torsions:
REMARK  status: ('A' for Active; 'I' for Inactive)
REMARK    1  A    between atoms: C2_2  and  N1_3 
REMARK    2  A    between atoms: N1_3  and  N2_4 
REMARK    3  A    between atoms: N1_3  and  C3_9 
REMARK    4  A    between atoms: N2_4  and  N3_6 
REMARK    5  A    between atoms: C5_11  and  N4_12 
ROOT
HETATM    1  N1  UNL     1       5.232  39.636  -2.005  1.00  0.00    -0.211 NA
ENDROOT
BRANCH   1   2
HETATM    2  C2  UNL     1       4.554  40.373  -3.051  1.00  0.00     0.111 C 
HETATM    3  C1  UNL     1       3.060  40.165  -3.057  1.00  0.00     0.023 C 
ENDBRANCH   1   2
BRANCH   1   4
HETATM    4  N2  UNL     1       4.370  38.718  -1.488  1.00  0.00    -0.269 N 
ATOM      5  H2  UNL     1       3.828  38.090  -2.081  1.00  0.00     0.201 HD
BRANCH   4   6
HETATM    6  N3  UNL     1       4.273  38.691  -0.108  1.00  0.00    -0.335 N 
ATOM      7  H32 UNL     1       3.372  38.787   0.361  1.00  0.00     0.177 HD
ATOM      8  H31 UNL     1       5.151  38.571   0.397  1.00  0.00     0.177 HD
ENDBRANCH   4   6
ENDBRANCH   1   4
BRANCH   1   9
HETATM    9  C3  UNL     1       6.467  39.144  -2.504  1.00  0.00     0.113 A 
HETATM   10  C4  UNL     1       7.693  39.900  -2.019  1.00  0.00     0.058 A 
HETATM   11  C5  UNL     1       7.492  38.446  -1.724  1.00  0.00     0.204 A 
BRANCH  11  12
HETATM   12  N4  UNL     1       8.393  37.547  -2.456  1.00  0.00    -0.073 N 
ATOM     13  H43 UNL     1       7.870  36.737  -2.786  1.00  0.00     0.274 HD
ATOM     14  H42 UNL     1       8.656  37.977  -3.343  1.00  0.00     0.274 HD
ATOM     15  H41 UNL     1       9.233  37.233  -1.969  1.00  0.00     0.274 HD
ENDBRANCH  11  12
ENDBRANCH   1   9
TORSDOF 5
ENDMDL
MODEL 2
REMARK VINA RESULT: -2.927039079      1.793      2.260
REMARK  5 active torsions:
REMARK  status: ('A' for Active; 'I' for Inactive)
REMARK    1  A    between atoms: C2_2  and  N1_3 
REMARK    2  A    between atoms: N1_3  and  N2_4 
REMARK    3  A    between atoms: N1_3  and  C3_9 
REMARK    4  A    between atoms: N2_4  and  N3_6 
REMARK    5  A    between atoms: C5_11  and  N4_12 
ROOT
HETATM    1  N1  UNL     1       5.798  39.494  -1.897  1.00  0.00    -0.211 NA
ENDROOT
BRANCH   1   2
HETATM    2  C2  UNL     1       5.443  40.444  -0.864  1.00  0.00     0.111 C 
HETATM    3  C1  UNL     1       4.158  40.102  -0.152  1.00  0.00     0.023 C 
ENDBRANCH   1   2
BRANCH   1   4
HETATM    4  N2  UNL     1       5.635  40.087  -3.111  1.00  0.00    -0.269 N 
ATOM      5  H2  UNL     1       6.420  40.258  -3.740  1.00  0.00     0.201 HD
BRANCH   4   6
HETATM    6  N3  UNL     1       4.340  40.444  -3.440  1.00  0.00    -0.335 N 
ATOM      7  H32 UNL     1       4.019  41.409  -3.353  1.00  0.00     0.177 HD
ATOM      8  H31 UNL     1       3.739  39.688  -3.768  1.00  0.00     0.177 HD
ENDBRANCH   4   6
ENDBRANCH   1   4
BRANCH   1   9
HETATM    9  C3  UNL     1       7.081  38.953  -1.615  1.00  0.00     0.113 A 
HETATM   10  C4  UNL     1       7.114  37.441  -1.473  1.00  0.00     0.058 A 
HETATM   11  C5  UNL     1       7.896  38.153  -2.533  1.00  0.00     0.204 A 
BRANCH  11  12
HETATM   12  N4  UNL     1       9.349  38.160  -2.316  1.00  0.00    -0.073 N 
ATOM     13  H43 UNL     1       9.545  37.996  -1.329  1.00  0.00     0.274 HD
ATOM     14  H42 UNL     1       9.758  37.323  -2.732  1.00  0.00     0.274 HD
ATOM     15  H41 UNL     1       9.862  38.982  -2.632  1.00  0.00     0.274 HD
ENDBRANCH  11  12
ENDBRANCH   1   9
TORSDOF 5
ENDMDL
MODEL 3
REMARK VINA RESULT: -2.549661350      2.057      4.140
REMARK  5 active torsions:
REMARK  status: ('A' for Active; 'I' for Inactive)
REMARK    1  A    between atoms: C2_2  and  N1_3 
REMARK    2  A    between atoms: N1_3  and  N2_4 
REMARK    3  A    between atoms: N1_3  and  C3_9 
REMARK    4  A    between atoms: N2_4  and  N3_6 
REMARK    5  A    between atoms: C5_11  and  N4_12 
ROOT
HETATM    1  N1  UNL     1       6.095  39.117  -1.370  1.00  0.00    -0.211 NA
ENDROOT
BRANCH   1   2
HETATM    2  C2  UNL     1       6.753  38.278  -2.349  1.00  0.00     0.111 C 
HETATM    3  C1  UNL     1       7.839  37.412  -1.762  1.00  0.00     0.023 C 
ENDBRANCH   1   2
BRANCH   1   4
HETATM    4  N2  UNL     1       6.726  40.323  -1.333  1.00  0.00    -0.269 N 
ATOM      5  H2  UNL     1       6.394  41.090  -0.749  1.00  0.00     0.201 HD
BRANCH   4   6
HETATM    6  N3  UNL     1       7.845  40.444  -2.138  1.00  0.00    -0.335 N 
ATOM      7  H32 UNL     1       7.939  39.901  -2.997  1.00  0.00     0.177 HD
ATOM      8  H31 UNL     1       8.555  41.101  -1.816  1.00  0.00     0.177 HD
ENDBRANCH   4   6
ENDBRANCH   1   4
BRANCH   1   9
HETATM    9  C3  UNL     1       4.699  39.133  -1.628  1.00  0.00     0.113 A 
HETATM   10  C4  UNL     1       3.837  38.628  -0.484  1.00  0.00     0.058 A 
HETATM   11  C5  UNL     1       3.719  40.026  -1.004  1.00  0.00     0.204 A 
BRANCH  11  12
HETATM   12  N4  UNL     1       2.486  40.295  -1.754  1.00  0.00    -0.073 N 
ATOM     13  H43 UNL     1       1.872  40.888  -1.197  1.00  0.00     0.274 HD
ATOM     14  H42 UNL     1       2.692  40.917  -2.536  1.00  0.00     0.274 HD
ATOM     15  H41 UNL     1       1.963  39.488  -2.093  1.00  0.00     0.274 HD
ENDBRANCH  11  12
ENDBRANCH   1   9
TORSDOF 5
ENDMDL
MODEL 4
REMARK VINA RESULT: -2.190906682      9.270     10.517
REMARK  5 active torsions:
REMARK  status: ('A' for Active; 'I' for Inactive)
REMARK    1  A    between atoms: C2_2  and  N1_3 
REMARK    2  A    between atoms: N1_3  and  N2_4 
REMARK    3  A    between atoms: N1_3  and  C3_9 
REMARK    4  A    between atoms: N2_4  and  N3_6 
REMARK    5  A    between atoms: C5_11  and  N4_12 
ROOT
HETATM    1  N1  UNL     1      11.551  32.694   2.161  1.00  0.00    -0.211 NA
ENDROOT
BRANCH   1   2
HETATM    2  C2  UNL     1      12.299  33.642   2.959  1.00  0.00     0.111 C 
HETATM    3  C1  UNL     1      13.639  33.999   2.364  1.00  0.00     0.023 C 
ENDBRANCH   1   2
BRANCH   1   4
HETATM    4  N2  UNL     1      12.400  31.722   1.726  1.00  0.00    -0.269 N 
ATOM      5  H2  UNL     1      13.271  31.941   1.243  1.00  0.00     0.201 HD
BRANCH   4   6
HETATM    6  N3  UNL     1      12.008  30.420   1.979  1.00  0.00    -0.335 N 
ATOM      7  H32 UNL     1      11.365  30.200   2.741  1.00  0.00     0.177 HD
ATOM      8  H31 UNL     1      12.400  29.709   1.362  1.00  0.00     0.177 HD
ENDBRANCH   4   6
ENDBRANCH   1   4
BRANCH   1   9
HETATM    9  C3  UNL     1      10.409  32.267   2.888  1.00  0.00     0.113 A 
HETATM   10  C4  UNL     1       9.106  32.924   2.464  1.00  0.00     0.058 A 
HETATM   11  C5  UNL     1       9.315  31.444   2.365  1.00  0.00     0.204 A 
BRANCH  11  12
HETATM   12  N4  UNL     1       8.547  30.655   3.338  1.00  0.00    -0.073 N 
ATOM     13  H43 UNL     1       8.538  31.139   4.235  1.00  0.00     0.274 HD
ATOM     14  H42 UNL     1       7.557  30.687   3.095  1.00  0.00     0.274 HD
ATOM     15  H41 UNL     1       8.832  29.686   3.477  1.00  0.00     0.274 HD
ENDBRANCH  11  12
ENDBRANCH   1   9
TORSDOF 5
ENDMDL
MODEL 5
REMARK VINA RESULT: -1.876351985      9.503     10.108
REMARK  5 active torsions:
REMARK  status: ('A' for Active; 'I' for Inactive)
REMARK    1  A    between atoms: C2_2  and  N1_3 
REMARK    2  A    between atoms: N1_3  and  N2_4 
REMARK    3  A    between atoms: N1_3  and  C3_9 
REMARK    4  A    between atoms: N2_4  and  N3_6 
REMARK    5  A    between atoms: C5_11  and  N4_12 
ROOT
HETATM    1  N1  UNL     1      11.342  32.756   2.972  1.00  0.00    -0.211 NA
ENDROOT
BRANCH   1   2
HETATM    2  C2  UNL     1      10.010  33.062   2.492  1.00  0.00     0.111 C 
HETATM    3  C1  UNL     1       9.054  31.901   2.599  1.00  0.00     0.023 C 
ENDBRANCH   1   2
BRANCH   1   4
HETATM    4  N2  UNL     1      11.554  31.417   2.847  1.00  0.00    -0.269 N 
ATOM      5  H2  UNL     1      11.524  30.788   3.649  1.00  0.00     0.201 HD
BRANCH   4   6
HETATM    6  N3  UNL     1      11.814  30.963   1.566  1.00  0.00    -0.335 N 
ATOM      7  H32 UNL     1      11.764  29.970   1.338  1.00  0.00     0.177 HD
ATOM      8  H31 UNL     1      12.054  31.679   0.881  1.00  0.00     0.177 HD
ENDBRANCH   4   6
ENDBRANCH   1   4
BRANCH   1   9
HETATM    9  C3  UNL     1      12.278  33.614   2.336  1.00  0.00     0.113 A 
HETATM   10  C4  UNL     1      12.982  34.585   3.269  1.00  0.00     0.058 A 
HETATM   11  C5  UNL     1      13.734  33.557   2.483  1.00  0.00     0.204 A 
BRANCH  11  12
HETATM   12  N4  UNL     1      14.540  34.101   1.382  1.00  0.00    -0.073 N 
ATOM     13  H43 UNL     1      14.015  34.032   0.511  1.00  0.00     0.274 HD
ATOM     14  H42 UNL     1      14.611  35.113   1.481  1.00  0.00     0.274 HD
ATOM     15  H41 UNL     1      15.471  33.707   1.250  1.00  0.00     0.274 HD
ENDBRANCH  11  12
ENDBRANCH   1   9
TORSDOF 5
ENDMDL
