MODEL 1
REMARK VINA RESULT: -3.091500235      0.000      0.000
REMARK  3 active torsions:
REMARK  status: ('A' for Active; 'I' for Inactive)
REMARK    1  A    between atoms: C4_4  and  C6_6 
REMARK    2  A    between atoms: C6_6  and  N1_7 
REMARK    3  A    between atoms: N1_7  and  N2_9 
ROOT
HETATM    1  C1  UNL     1       8.306  37.737  -2.617  1.00  0.00     0.040 C 
HETATM    2  C2  UNL     1       7.429  38.739  -1.924  1.00  0.00     0.185 C 
HETATM    3  C3  UNL     1       6.182  38.947  -2.740  1.00  0.00     0.072 C 
HETATM    4  C4  UNL     1       5.505  39.087  -1.437  1.00  0.00     0.141 C 
HETATM    5  C5  UNL     1       5.496  40.444  -0.763  1.00  0.00     0.048 C 
HETATM    6  N3  UNL     1       6.561  38.215  -0.878  1.00  0.00    -0.061 N 
ATOM      7  H31 UNL     1       6.825  38.263   0.106  1.00  0.00     0.278 HD
ATOM      8  H32 UNL     1       6.416  37.213  -0.758  1.00  0.00     0.278 HD
ENDROOT
BRANCH   4   9
HETATM    9  C6  UNL     1       4.163  38.429  -1.261  1.00  0.00     0.177 C 
BRANCH   9  10
HETATM   10  N1  UNL     1       3.103  39.423  -1.269  1.00  0.00    -0.341 N 
ATOM     11  H1  UNL     1       2.897  39.993  -0.448  1.00  0.00     0.179 HD
BRANCH  10  12
HETATM   12  N2  UNL     1       2.396  39.558  -2.433  1.00  0.00    -0.349 N 
ATOM     13  H22 UNL     1       2.822  39.330  -3.331  1.00  0.00     0.176 HD
ATOM     14  H21 UNL     1       1.436  39.893  -2.349  1.00  0.00     0.176 HD
ENDBRANCH  10  12
ENDBRANCH   9  10
ENDBRANCH   4   9
TORSDOF 3
ENDMDL
MODEL 2
REMARK VINA RESULT: -2.874517630      1.821      4.092
REMARK  3 active torsions:
REMARK  status: ('A' for Active; 'I' for Inactive)
REMARK    1  A    between atoms: C4_4  and  C6_6 
REMARK    2  A    between atoms: C6_6  and  N1_7 
REMARK    3  A    between atoms: N1_7  and  N2_9 
ROOT
HETATM    1  C1  UNL     1       2.890  40.234  -1.353  1.00  0.00     0.040 C 
HETATM    2  C2  UNL     1       4.319  40.408  -1.778  1.00  0.00     0.185 C 
HETATM    3  C3  UNL     1       5.223  39.915  -0.681  1.00  0.00     0.072 C 
HETATM    4  C4  UNL     1       6.096  39.459  -1.777  1.00  0.00     0.141 C 
HETATM    5  C5  UNL     1       7.081  40.441  -2.380  1.00  0.00     0.048 C 
HETATM    6  N3  UNL     1       4.876  39.346  -2.605  1.00  0.00    -0.061 N 
ATOM      7  H31 UNL     1       4.912  39.425  -3.621  1.00  0.00     0.278 HD
ATOM      8  H32 UNL     1       4.394  38.454  -2.723  1.00  0.00     0.278 HD
ENDROOT
BRANCH   4   9
HETATM    9  C6  UNL     1       6.747  38.107  -1.651  1.00  0.00     0.177 C 
BRANCH   9  10
HETATM   10  N1  UNL     1       7.894  38.010  -2.538  1.00  0.00    -0.341 N 
ATOM     11  H1  UNL     1       7.850  38.324  -3.507  1.00  0.00     0.179 HD
BRANCH  10  12
HETATM   12  N2  UNL     1       9.038  37.477  -2.006  1.00  0.00    -0.349 N 
ATOM     13  H22 UNL     1       9.222  36.475  -2.065  1.00  0.00     0.176 HD
ATOM     14  H21 UNL     1       9.680  38.129  -1.557  1.00  0.00     0.176 HD
ENDBRANCH  10  12
ENDBRANCH   9  10
ENDBRANCH   4   9
TORSDOF 3
ENDMDL
MODEL 3
REMARK VINA RESULT: -2.558841627      1.248      1.436
REMARK  3 active torsions:
REMARK  status: ('A' for Active; 'I' for Inactive)
REMARK    1  A    between atoms: C4_4  and  C6_6 
REMARK    2  A    between atoms: C6_6  and  N1_7 
REMARK    3  A    between atoms: N1_7  and  N2_9 
ROOT
HETATM    1  C1  UNL     1       8.534  38.475  -2.007  1.00  0.00     0.040 C 
HETATM    2  C2  UNL     1       7.317  39.206  -2.494  1.00  0.00     0.185 C 
HETATM    3  C3  UNL     1       6.091  38.405  -2.147  1.00  0.00     0.072 C 
HETATM    4  C4  UNL     1       5.450  39.716  -1.935  1.00  0.00     0.141 C 
HETATM    5  C5  UNL     1       4.851  40.436  -3.126  1.00  0.00     0.048 C 
HETATM    6  N3  UNL     1       6.794  40.239  -1.610  1.00  0.00    -0.061 N 
ATOM      7  H31 UNL     1       7.029  41.223  -1.742  1.00  0.00     0.278 HD
ATOM      8  H32 UNL     1       7.113  40.326  -0.645  1.00  0.00     0.278 HD
ENDROOT
BRANCH   4   9
HETATM    9  C6  UNL     1       4.545  39.878  -0.743  1.00  0.00     0.177 C 
BRANCH   9  10
HETATM   10  N1  UNL     1       3.151  39.852  -1.155  1.00  0.00    -0.341 N 
ATOM     11  H1  UNL     1       2.642  40.709  -1.374  1.00  0.00     0.179 HD
BRANCH  10  12
HETATM   12  N2  UNL     1       2.557  38.622  -1.234  1.00  0.00    -0.349 N 
ATOM     13  H22 UNL     1       2.927  37.829  -0.709  1.00  0.00     0.176 HD
ATOM     14  H21 UNL     1       1.738  38.548  -1.838  1.00  0.00     0.176 HD
ENDBRANCH  10  12
ENDBRANCH   9  10
ENDBRANCH   4   9
TORSDOF 3
ENDMDL
MODEL 4
REMARK VINA RESULT: -2.507400767      9.645     10.384
REMARK  3 active torsions:
REMARK  status: ('A' for Active; 'I' for Inactive)
REMARK    1  A    between atoms: C4_4  and  C6_6 
REMARK    2  A    between atoms: C6_6  and  N1_7 
REMARK    3  A    between atoms: N1_7  and  N2_9 
ROOT
HETATM    1  C1  UNL     1       8.456  30.703   3.198  1.00  0.00     0.040 C 
HETATM    2  C2  UNL     1       9.851  30.928   2.692  1.00  0.00     0.185 C 
HETATM    3  C3  UNL     1       9.889  32.211   1.907  1.00  0.00     0.072 C 
HETATM    4  C4  UNL     1      11.240  32.369   2.473  1.00  0.00     0.141 C 
HETATM    5  C5  UNL     1      12.407  31.706   1.770  1.00  0.00     0.048 C 
HETATM    6  N3  UNL     1      10.775  31.562   3.622  1.00  0.00    -0.061 N 
ATOM      7  H31 UNL     1      11.425  31.014   4.185  1.00  0.00     0.278 HD
ATOM      8  H32 UNL     1      10.448  32.001   4.483  1.00  0.00     0.278 HD
ENDROOT
BRANCH   4   9
HETATM    9  C6  UNL     1      11.654  33.736   2.953  1.00  0.00     0.177 C 
BRANCH   9  10
HETATM   10  N1  UNL     1      13.068  33.958   2.700  1.00  0.00    -0.341 N 
ATOM     11  H1  UNL     1      13.681  33.204   2.391  1.00  0.00     0.179 HD
BRANCH  10  12
HETATM   12  N2  UNL     1      13.535  35.229   2.898  1.00  0.00    -0.349 N 
ATOM     13  H22 UNL     1      14.469  35.389   3.275  1.00  0.00     0.176 HD
ATOM     14  H21 UNL     1      12.904  35.992   2.650  1.00  0.00     0.176 HD
ENDBRANCH  10  12
ENDBRANCH   9  10
ENDBRANCH   4   9
TORSDOF 3
ENDMDL
MODEL 5
REMARK VINA RESULT: -2.183260484      1.965      4.073
REMARK  3 active torsions:
REMARK  status: ('A' for Active; 'I' for Inactive)
REMARK    1  A    between atoms: C4_4  and  C6_6 
REMARK    2  A    between atoms: C6_6  and  N1_7 
REMARK    3  A    between atoms: N1_7  and  N2_9 
ROOT
HETATM    1  C1  UNL     1       3.294  40.444  -1.721  1.00  0.00     0.040 C 
HETATM    2  C2  UNL     1       4.377  39.429  -1.493  1.00  0.00     0.185 C 
HETATM    3  C3  UNL     1       5.214  39.315  -2.738  1.00  0.00     0.072 C 
HETATM    4  C4  UNL     1       6.341  39.115  -1.810  1.00  0.00     0.141 C 
HETATM    5  C5  UNL     1       6.618  37.718  -1.290  1.00  0.00     0.048 C 
HETATM    6  N3  UNL     1       5.579  39.913  -0.826  1.00  0.00    -0.061 N 
ATOM      7  H31 UNL     1       5.716  39.794   0.177  1.00  0.00     0.278 HD
ATOM      8  H32 UNL     1       5.753  40.910  -0.700  1.00  0.00     0.278 HD
ENDROOT
BRANCH   4   9
HETATM    9  C6  UNL     1       7.644  39.804  -2.117  1.00  0.00     0.177 C 
BRANCH   9  10
HETATM   10  N1  UNL     1       8.750  38.865  -2.029  1.00  0.00    -0.341 N 
ATOM     11  H1  UNL     1       9.475  38.956  -1.317  1.00  0.00     0.179 HD
BRANCH  10  12
HETATM   12  N2  UNL     1       8.769  37.853  -2.951  1.00  0.00    -0.349 N 
ATOM     13  H22 UNL     1       7.932  37.302  -3.138  1.00  0.00     0.176 HD
ATOM     14  H21 UNL     1       9.655  37.686  -3.428  1.00  0.00     0.176 HD
ENDBRANCH  10  12
ENDBRANCH   9  10
ENDBRANCH   4   9
TORSDOF 3
ENDMDL
