MODEL 1
REMARK VINA RESULT: -4.113327320      0.000      0.000
REMARK  5 active torsions:
REMARK  status: ('A' for Active; 'I' for Inactive)
REMARK    1  A    between atoms: N1_1  and  N2_4 
REMARK    2  A    between atoms: N2_4  and  C1_5 
REMARK    3  A    between atoms: C1_5  and  C2_6 
REMARK    4  A    between atoms: C2_6  and  C3_7 
REMARK    5  A    between atoms: C3_7  and  C4_8 
ROOT
HETATM    1  C4  UNL     1      10.900  31.975   2.080  1.00  0.00     0.025 A 
HETATM    2  C5  UNL     1      10.922  33.201   2.675  1.00  0.00     0.113 A 
HETATM    3  N3  UNL     1      12.223  33.600   2.748  1.00  0.00    -0.360 N 
ATOM      4  H3  UNL     1      12.551  34.480   3.146  1.00  0.00     0.166 HD
HETATM    5  C6  UNL     1      12.996  32.657   2.214  1.00  0.00     0.180 A 
HETATM    6  N4  UNL     1      12.183  31.660   1.805  1.00  0.00    -0.355 N 
ATOM      7  H4  UNL     1      12.491  30.798   1.356  1.00  0.00     0.166 HD
ENDROOT
BRANCH   1   8
HETATM    8  C3  UNL     1       9.771  31.071   1.745  1.00  0.00     0.059 C 
BRANCH   8   9
HETATM    9  C2  UNL     1       8.687  31.179   2.817  1.00  0.00     0.024 C 
BRANCH   9  10
HETATM   10  C1  UNL     1       9.324  30.728   4.112  1.00  0.00     0.135 C 
BRANCH  10  11
HETATM   11  N2  UNL     1       8.703  29.521   4.621  1.00  0.00    -0.148 NA
BRANCH  11  12
HETATM   12  N1  UNL     1       8.649  29.468   5.991  1.00  0.00    -0.348 N 
ATOM     13  H12 UNL     1       9.270  30.020   6.583  1.00  0.00     0.172 HD
ATOM     14  H11 UNL     1       7.936  28.830   6.346  1.00  0.00     0.172 HD
ENDBRANCH  11  12
ENDBRANCH  10  11
ENDBRANCH   9  10
ENDBRANCH   8   9
ENDBRANCH   1   8
TORSDOF 5
ENDMDL
MODEL 2
REMARK VINA RESULT: -4.097876086      0.787      1.219
REMARK  5 active torsions:
REMARK  status: ('A' for Active; 'I' for Inactive)
REMARK    1  A    between atoms: N1_1  and  N2_4 
REMARK    2  A    between atoms: N2_4  and  C1_5 
REMARK    3  A    between atoms: C1_5  and  C2_6 
REMARK    4  A    between atoms: C2_6  and  C3_7 
REMARK    5  A    between atoms: C3_7  and  C4_8 
ROOT
HETATM    1  C4  UNL     1      10.651  32.283   2.181  1.00  0.00     0.025 A 
HETATM    2  C5  UNL     1      11.715  31.562   1.730  1.00  0.00     0.113 A 
HETATM    3  N3  UNL     1      12.848  32.239   2.075  1.00  0.00    -0.360 N 
ATOM      4  H3  UNL     1      13.801  31.941   1.870  1.00  0.00     0.166 HD
HETATM    5  C6  UNL     1      12.506  33.351   2.723  1.00  0.00     0.180 A 
HETATM    6  N4  UNL     1      11.158  33.377   2.786  1.00  0.00    -0.355 N 
ATOM      7  H4  UNL     1      10.606  34.112   3.226  1.00  0.00     0.166 HD
ENDROOT
BRANCH   1   8
HETATM    8  C3  UNL     1       9.190  32.031   2.090  1.00  0.00     0.059 C 
BRANCH   8   9
HETATM    9  C2  UNL     1       8.875  30.631   2.613  1.00  0.00     0.024 C 
BRANCH   9  10
HETATM   10  C1  UNL     1       9.088  30.678   4.110  1.00  0.00     0.135 C 
BRANCH  10  11
HETATM   11  N2  UNL     1       8.737  29.420   4.740  1.00  0.00    -0.148 NA
BRANCH  11  12
HETATM   12  N1  UNL     1       8.616  29.506   6.104  1.00  0.00    -0.348 N 
ATOM     13  H12 UNL     1       8.721  30.387   6.607  1.00  0.00     0.172 HD
ATOM     14  H11 UNL     1       8.414  28.612   6.552  1.00  0.00     0.172 HD
ENDBRANCH  11  12
ENDBRANCH  10  11
ENDBRANCH   9  10
ENDBRANCH   8   9
ENDBRANCH   1   8
TORSDOF 5
ENDMDL
MODEL 3
REMARK VINA RESULT: -3.983561965      0.880      1.051
REMARK  5 active torsions:
REMARK  status: ('A' for Active; 'I' for Inactive)
REMARK    1  A    between atoms: N1_1  and  N2_4 
REMARK    2  A    between atoms: N2_4  and  C1_5 
REMARK    3  A    between atoms: C1_5  and  C2_6 
REMARK    4  A    between atoms: C2_6  and  C3_7 
REMARK    5  A    between atoms: C3_7  and  C4_8 
ROOT
HETATM    1  C4  UNL     1      11.744  32.209   2.220  1.00  0.00     0.025 A 
HETATM    2  C5  UNL     1      11.548  33.370   2.906  1.00  0.00     0.113 A 
HETATM    3  N3  UNL     1      12.713  34.076   2.864  1.00  0.00    -0.360 N 
ATOM      4  H3  UNL     1      12.869  34.988   3.292  1.00  0.00     0.166 HD
HETATM    5  C6  UNL     1      13.614  33.382   2.171  1.00  0.00     0.180 A 
HETATM    6  N4  UNL     1      13.018  32.237   1.778  1.00  0.00    -0.355 N 
ATOM      7  H4  UNL     1      13.464  31.503   1.228  1.00  0.00     0.166 HD
ENDROOT
BRANCH   1   8
HETATM    8  C3  UNL     1      10.832  31.071   1.943  1.00  0.00     0.059 C 
BRANCH   8   9
HETATM    9  C2  UNL     1       9.400  31.581   1.792  1.00  0.00     0.024 C 
BRANCH   9  10
HETATM   10  C1  UNL     1       8.739  31.398   3.140  1.00  0.00     0.135 C 
BRANCH  10  11
HETATM   11  N2  UNL     1       8.817  30.023   3.591  1.00  0.00    -0.148 NA
BRANCH  11  12
HETATM   12  N1  UNL     1       9.014  29.900   4.943  1.00  0.00    -0.348 N 
ATOM     13  H12 UNL     1       9.160  30.707   5.549  1.00  0.00     0.172 HD
ATOM     14  H11 UNL     1       8.999  28.934   5.271  1.00  0.00     0.172 HD
ENDBRANCH  11  12
ENDBRANCH  10  11
ENDBRANCH   9  10
ENDBRANCH   8   9
ENDBRANCH   1   8
TORSDOF 5
ENDMDL
MODEL 4
REMARK VINA RESULT: -3.905707572      1.463      1.976
REMARK  5 active torsions:
REMARK  status: ('A' for Active; 'I' for Inactive)
REMARK    1  A    between atoms: N1_1  and  N2_4 
REMARK    2  A    between atoms: N2_4  and  C1_5 
REMARK    3  A    between atoms: C1_5  and  C2_6 
REMARK    4  A    between atoms: C2_6  and  C3_7 
REMARK    5  A    between atoms: C3_7  and  C4_8 
ROOT
HETATM    1  C4  UNL     1      12.522  32.881   2.299  1.00  0.00     0.025 A 
HETATM    2  C5  UNL     1      12.484  34.054   2.991  1.00  0.00     0.113 A 
HETATM    3  N3  UNL     1      13.652  34.714   2.750  1.00  0.00    -0.360 N 
ATOM      4  H3  UNL     1      13.910  35.622   3.134  1.00  0.00     0.166 HD
HETATM    5  C6  UNL     1      14.401  33.979   1.930  1.00  0.00     0.180 A 
HETATM    6  N4  UNL     1      13.707  32.855   1.655  1.00  0.00    -0.355 N 
ATOM      7  H4  UNL     1      14.029  32.099   1.051  1.00  0.00     0.166 HD
ENDROOT
BRANCH   1   8
HETATM    8  C3  UNL     1      11.534  31.777   2.191  1.00  0.00     0.059 C 
BRANCH   8   9
HETATM    9  C2  UNL     1      10.138  32.299   2.527  1.00  0.00     0.024 C 
BRANCH   9  10
HETATM   10  C1  UNL     1       9.160  31.311   1.931  1.00  0.00     0.135 C 
BRANCH  10  11
HETATM   11  N2  UNL     1       8.284  30.750   2.941  1.00  0.00    -0.148 NA
BRANCH  11  12
HETATM   12  N1  UNL     1       8.943  30.344   4.074  1.00  0.00    -0.348 N 
ATOM     13  H12 UNL     1       8.452  30.099   4.933  1.00  0.00     0.172 HD
ATOM     14  H11 UNL     1       9.958  30.315   3.967  1.00  0.00     0.172 HD
ENDBRANCH  11  12
ENDBRANCH  10  11
ENDBRANCH   9  10
ENDBRANCH   8   9
ENDBRANCH   1   8
TORSDOF 5
ENDMDL
MODEL 5
REMARK VINA RESULT: -3.902502887      1.463      2.297
REMARK  5 active torsions:
REMARK  status: ('A' for Active; 'I' for Inactive)
REMARK    1  A    between atoms: N1_1  and  N2_4 
REMARK    2  A    between atoms: N2_4  and  C1_5 
REMARK    3  A    between atoms: C1_5  and  C2_6 
REMARK    4  A    between atoms: C2_6  and  C3_7 
REMARK    5  A    between atoms: C3_7  and  C4_8 
ROOT
HETATM    1  C4  UNL     1      12.588  32.956   2.323  1.00  0.00     0.025 A 
HETATM    2  C5  UNL     1      13.802  33.202   1.756  1.00  0.00     0.113 A 
HETATM    3  N3  UNL     1      14.259  34.385   2.259  1.00  0.00    -0.360 N 
ATOM      4  H3  UNL     1      15.145  34.828   2.018  1.00  0.00     0.166 HD
HETATM    5  C6  UNL     1      13.360  34.866   3.116  1.00  0.00     0.180 A 
HETATM    6  N4  UNL     1      12.335  33.989   3.152  1.00  0.00    -0.355 N 
ATOM      7  H4  UNL     1      11.496  34.091   3.723  1.00  0.00     0.166 HD
ENDROOT
BRANCH   1   8
HETATM    8  C3  UNL     1      11.639  31.826   2.149  1.00  0.00     0.059 C 
BRANCH   8   9
HETATM    9  C2  UNL     1      10.227  32.276   2.519  1.00  0.00     0.024 C 
BRANCH   9  10
HETATM   10  C1  UNL     1       9.288  31.233   1.955  1.00  0.00     0.135 C 
BRANCH  10  11
HETATM   11  N2  UNL     1       8.336  30.778   2.950  1.00  0.00    -0.148 NA
BRANCH  11  12
HETATM   12  N1  UNL     1       8.924  30.287   4.088  1.00  0.00    -0.348 N 
ATOM     13  H12 UNL     1       8.759  30.696   5.008  1.00  0.00     0.172 HD
ATOM     14  H11 UNL     1       9.533  29.486   3.918  1.00  0.00     0.172 HD
ENDBRANCH  11  12
ENDBRANCH  10  11
ENDBRANCH   9  10
ENDBRANCH   8   9
ENDBRANCH   1   8
TORSDOF 5
ENDMDL
