MODEL 1
REMARK VINA RESULT: -3.374592179      0.000      0.000
REMARK  4 active torsions:
REMARK  status: ('A' for Active; 'I' for Inactive)
REMARK    1  A    between atoms: N1_2  and  C2_3 
REMARK    2  A    between atoms: N1_2  and  C4_9 
REMARK    3  A    between atoms: C2_3  and  C3_4 
REMARK    4  A    between atoms: C3_4  and  N2_5 
ROOT
HETATM    1  C1  UNL     1       6.205  40.437  -2.746  1.00  0.00     0.310 C 
HETATM    2  N1  UNL     1       6.208  39.462  -1.570  1.00  0.00     0.093 N 
ENDROOT
BRANCH   2   3
HETATM    3  C2  UNL     1       6.632  38.239  -2.128  1.00  0.00     0.299 C 
BRANCH   3   4
HETATM    4  C3  UNL     1       7.786  37.513  -1.519  1.00  0.00     0.259 C 
BRANCH   4   5
HETATM    5  N2  UNL     1       9.033  37.827  -2.227  1.00  0.00    -0.078 N 
ATOM      6  H23 UNL     1       9.301  37.079  -2.867  1.00  0.00     0.274 HD
ATOM      7  H22 UNL     1       8.901  38.574  -2.910  1.00  0.00     0.274 HD
ATOM      8  H21 UNL     1       9.779  38.045  -1.568  1.00  0.00     0.274 HD
ENDBRANCH   4   5
ENDBRANCH   3   4
ENDBRANCH   2   3
BRANCH   2   9
HETATM    9  C4  UNL     1       4.912  39.620  -1.049  1.00  0.00     0.273 C 
HETATM   10  C5  UNL     1       3.839  40.075  -2.030  1.00  0.00     0.269 C 
HETATM   11  N3  UNL     1       3.000  38.966  -1.695  1.00  0.00    -0.071 N 
HETATM   12  C6  UNL     1       3.962  38.602  -0.654  1.00  0.00     0.269 C 
ATOM     13  H32 UNL     1       2.016  39.109  -1.467  1.00  0.00     0.277 HD
ATOM     14  H31 UNL     1       2.723  38.290  -2.407  1.00  0.00     0.277 HD
ENDBRANCH   2   9
TORSDOF 4
ENDMDL
MODEL 2
REMARK VINA RESULT: -3.288865501      1.333      4.087
REMARK  4 active torsions:
REMARK  status: ('A' for Active; 'I' for Inactive)
REMARK    1  A    between atoms: N1_2  and  C2_3 
REMARK    2  A    between atoms: N1_2  and  C4_9 
REMARK    3  A    between atoms: C2_3  and  C3_4 
REMARK    4  A    between atoms: C3_4  and  N2_5 
ROOT
HETATM    1  C1  UNL     1       5.692  40.035  -2.745  1.00  0.00     0.310 C 
HETATM    2  N1  UNL     1       5.758  38.658  -2.088  1.00  0.00     0.093 N 
ENDROOT
BRANCH   2   3
HETATM    3  C2  UNL     1       4.626  38.612  -1.251  1.00  0.00     0.299 C 
BRANCH   3   4
HETATM    4  C3  UNL     1       3.871  39.868  -0.965  1.00  0.00     0.259 C 
BRANCH   4   5
HETATM    5  N2  UNL     1       4.284  40.444   0.321  1.00  0.00    -0.078 N 
ATOM      6  H23 UNL     1       3.614  40.232   1.061  1.00  0.00     0.274 HD
ATOM      7  H22 UNL     1       5.097  39.962   0.706  1.00  0.00     0.274 HD
ATOM      8  H21 UNL     1       4.446  41.447   0.234  1.00  0.00     0.274 HD
ENDBRANCH   4   5
ENDBRANCH   3   4
ENDBRANCH   2   3
BRANCH   2   9
HETATM    9  C4  UNL     1       7.061  38.642  -1.561  1.00  0.00     0.273 C 
HETATM   10  C5  UNL     1       7.859  37.361  -1.768  1.00  0.00     0.269 C 
HETATM   11  N3  UNL     1       8.942  38.079  -2.364  1.00  0.00    -0.071 N 
HETATM   12  C6  UNL     1       8.243  39.324  -2.044  1.00  0.00     0.269 C 
ATOM     13  H32 UNL     1       9.902  37.926  -2.053  1.00  0.00     0.277 HD
ATOM     14  H31 UNL     1       9.235  37.878  -3.320  1.00  0.00     0.277 HD
ENDBRANCH   2   9
TORSDOF 4
ENDMDL
MODEL 3
REMARK VINA RESULT: -2.982795654      1.170      3.868
REMARK  4 active torsions:
REMARK  status: ('A' for Active; 'I' for Inactive)
REMARK    1  A    between atoms: N1_2  and  C2_3 
REMARK    2  A    between atoms: N1_2  and  C4_9 
REMARK    3  A    between atoms: C2_3  and  C3_4 
REMARK    4  A    between atoms: C3_4  and  N2_5 
ROOT
HETATM    1  C1  UNL     1       7.576  40.444  -2.055  1.00  0.00     0.310 C 
HETATM    2  N1  UNL     1       6.355  39.605  -2.429  1.00  0.00     0.093 N 
ENDROOT
BRANCH   2   3
HETATM    3  C2  UNL     1       5.352  40.024  -1.533  1.00  0.00     0.299 C 
BRANCH   3   4
HETATM    4  C3  UNL     1       4.128  39.187  -1.354  1.00  0.00     0.259 C 
BRANCH   4   5
HETATM    5  N2  UNL     1       4.125  38.543  -0.035  1.00  0.00    -0.078 N 
ATOM      6  H23 UNL     1       4.949  37.958   0.101  1.00  0.00     0.274 HD
ATOM      7  H22 UNL     1       4.287  39.216   0.714  1.00  0.00     0.274 HD
ATOM      8  H21 UNL     1       3.262  38.018   0.109  1.00  0.00     0.274 HD
ENDBRANCH   4   5
ENDBRANCH   3   4
ENDBRANCH   2   3
BRANCH   2   9
HETATM    9  C4  UNL     1       6.870  38.297  -2.395  1.00  0.00     0.273 C 
HETATM   10  C5  UNL     1       8.214  38.081  -3.078  1.00  0.00     0.269 C 
HETATM   11  N3  UNL     1       8.772  37.502  -1.895  1.00  0.00    -0.071 N 
HETATM   12  C6  UNL     1       7.447  37.579  -1.278  1.00  0.00     0.269 C 
ATOM     13  H32 UNL     1       9.276  36.616  -1.938  1.00  0.00     0.277 HD
ATOM     14  H31 UNL     1       9.583  37.925  -1.442  1.00  0.00     0.277 HD
ENDBRANCH   2   9
TORSDOF 4
ENDMDL
MODEL 4
REMARK VINA RESULT: -2.801230410      1.156      1.498
REMARK  4 active torsions:
REMARK  status: ('A' for Active; 'I' for Inactive)
REMARK    1  A    between atoms: N1_2  and  C2_3 
REMARK    2  A    between atoms: N1_2  and  C4_9 
REMARK    3  A    between atoms: C2_3  and  C3_4 
REMARK    4  A    between atoms: C3_4  and  N2_5 
ROOT
HETATM    1  C1  UNL     1       5.168  38.157  -1.243  1.00  0.00     0.310 C 
HETATM    2  N1  UNL     1       5.570  39.085  -2.388  1.00  0.00     0.093 N 
ENDROOT
BRANCH   2   3
HETATM    3  C2  UNL     1       6.973  39.173  -2.293  1.00  0.00     0.299 C 
BRANCH   3   4
HETATM    4  C3  UNL     1       7.765  37.957  -1.942  1.00  0.00     0.259 C 
BRANCH   4   5
HETATM    5  N2  UNL     1       9.200  38.191  -2.146  1.00  0.00    -0.078 N 
ATOM      6  H23 UNL     1       9.414  39.187  -2.203  1.00  0.00     0.274 HD
ATOM      7  H22 UNL     1       9.742  37.963  -1.313  1.00  0.00     0.274 HD
ATOM      8  H21 UNL     1       9.536  37.686  -2.965  1.00  0.00     0.274 HD
ENDBRANCH   4   5
ENDBRANCH   3   4
ENDBRANCH   2   3
BRANCH   2   9
HETATM    9  C4  UNL     1       4.747  40.204  -2.167  1.00  0.00     0.273 C 
HETATM   10  C5  UNL     1       3.542  40.350  -3.087  1.00  0.00     0.269 C 
HETATM   11  N3  UNL     1       2.649  40.444  -1.975  1.00  0.00    -0.071 N 
HETATM   12  C6  UNL     1       3.813  40.444  -1.088  1.00  0.00     0.269 C 
ATOM     13  H32 UNL     1       1.957  41.192  -1.925  1.00  0.00     0.277 HD
ATOM     14  H31 UNL     1       1.900  39.762  -1.851  1.00  0.00     0.277 HD
ENDBRANCH   2   9
TORSDOF 4
ENDMDL
MODEL 5
REMARK VINA RESULT: -2.755261398      1.170      3.974
REMARK  4 active torsions:
REMARK  status: ('A' for Active; 'I' for Inactive)
REMARK    1  A    between atoms: N1_2  and  C2_3 
REMARK    2  A    between atoms: N1_2  and  C4_9 
REMARK    3  A    between atoms: C2_3  and  C3_4 
REMARK    4  A    between atoms: C3_4  and  N2_5 
ROOT
HETATM    1  C1  UNL     1       5.708  40.444  -0.881  1.00  0.00     0.310 C 
HETATM    2  N1  UNL     1       5.150  39.394  -1.840  1.00  0.00     0.093 N 
ENDROOT
BRANCH   2   3
HETATM    3  C2  UNL     1       4.332  38.579  -1.033  1.00  0.00     0.299 C 
BRANCH   3   4
HETATM    4  C3  UNL     1       2.854  38.575  -1.249  1.00  0.00     0.259 C 
BRANCH   4   5
HETATM    5  N2  UNL     1       2.490  39.434  -2.382  1.00  0.00    -0.078 N 
ATOM      6  H23 UNL     1       2.463  40.418  -2.115  1.00  0.00     0.274 HD
ATOM      7  H22 UNL     1       3.237  39.482  -3.075  1.00  0.00     0.274 HD
ATOM      8  H21 UNL     1       1.609  39.132  -2.797  1.00  0.00     0.274 HD
ENDBRANCH   4   5
ENDBRANCH   3   4
ENDBRANCH   2   3
BRANCH   2   9
HETATM    9  C4  UNL     1       6.316  38.894  -2.445  1.00  0.00     0.273 C 
HETATM   10  C5  UNL     1       7.556  39.773  -2.355  1.00  0.00     0.269 C 
HETATM   11  N3  UNL     1       8.324  38.709  -1.788  1.00  0.00    -0.071 N 
HETATM   12  C6  UNL     1       7.180  37.821  -1.999  1.00  0.00     0.269 C 
ATOM     13  H32 UNL     1       9.243  38.473  -2.164  1.00  0.00     0.277 HD
ATOM     14  H31 UNL     1       8.744  38.806  -0.863  1.00  0.00     0.277 HD
ENDBRANCH   2   9
TORSDOF 4
ENDMDL
