MODEL 1
REMARK VINA RESULT: -5.322996991      0.000      0.000
REMARK  12 active torsions:
REMARK  status: ('A' for Active; 'I' for Inactive)
REMARK    1  A    between atoms: C3_3  and  O1_4 
REMARK    2  A    between atoms: C4_6  and  O2_7 
REMARK    3  A    between atoms: C5_9  and  O3_10 
REMARK    4  A    between atoms: C6_12  and  C7_13 
REMARK    5  A    between atoms: C7_13  and  N1_14 
REMARK    6  A    between atoms: N1_14  and  C8_17 
REMARK    7  A    between atoms: C8_17  and  C9_18 
REMARK    8  A    between atoms: C9_18  and  N2_19 
REMARK    9  A    between atoms: N2_19  and  C11_21 
REMARK   10  A    between atoms: C11_21  and  C12_22 
REMARK   11  A    between atoms: C12_22  and  N3_23 
REMARK   12  A    between atoms: N4_27  and  N5_28 
ROOT
HETATM    1  C1  UNL     1      88.487 -28.677  -3.384  1.00  0.00     0.031 C 
HETATM    2  C2  UNL     1      87.816 -28.925  -2.068  1.00  0.00     0.107 C 
HETATM    3  C3  UNL     1      86.855 -27.836  -1.656  1.00  0.00     0.168 C 
HETATM    4  C4  UNL     1      85.404 -28.221  -1.961  1.00  0.00     0.178 C 
HETATM    5  C5  UNL     1      84.993 -29.457  -1.184  1.00  0.00     0.170 C 
HETATM    6  C6  UNL     1      86.255 -30.251  -0.966  1.00  0.00     0.136 C 
HETATM    7  N4  UNL     1      87.034 -30.148  -2.165  1.00  0.00    -0.222 NA
ENDROOT
BRANCH   6   8
HETATM    8  C7  UNL     1      86.042 -31.639  -0.452  1.00  0.00     0.256 C 
BRANCH   8   9
HETATM    9  N1  UNL     1      85.144 -31.780   0.639  1.00  0.00    -0.072 N 
ATOM     10  H12 UNL     1      84.323 -31.182   0.539  1.00  0.00     0.277 HD
ATOM     11  H11 UNL     1      84.671 -32.683   0.632  1.00  0.00     0.277 HD
BRANCH   9  12
HETATM   12  C8  UNL     1      85.843 -31.539   1.887  1.00  0.00     0.262 C 
BRANCH  12  13
HETATM   13  C9  UNL     1      85.015 -30.735   2.808  1.00  0.00     0.299 C 
BRANCH  13  14
HETATM   14  N2  UNL     1      85.663 -29.597   3.430  1.00  0.00     0.087 N 
HETATM   15  C10 UNL     1      85.941 -29.888   4.833  1.00  0.00     0.310 C 
BRANCH  14  16
HETATM   16  C11 UNL     1      84.909 -28.370   3.304  1.00  0.00     0.299 C 
BRANCH  16  17
HETATM   17  C12 UNL     1      85.936 -27.252   3.086  1.00  0.00     0.259 C 
BRANCH  17  18
HETATM   18  N3  UNL     1      86.655 -27.560   1.834  1.00  0.00    -0.078 N 
ATOM     19  H33 UNL     1      87.668 -27.465   1.920  1.00  0.00     0.274 HD
ATOM     20  H32 UNL     1      86.637 -28.552   1.595  1.00  0.00     0.274 HD
ATOM     21  H31 UNL     1      86.259 -26.967   1.105  1.00  0.00     0.274 HD
ENDBRANCH  17  18
ENDBRANCH  16  17
ENDBRANCH  14  16
ENDBRANCH  13  14
ENDBRANCH  12  13
ENDBRANCH   9  12
ENDBRANCH   8   9
ENDBRANCH   6   8
BRANCH   5  22
HETATM   22  O3  UNL     1      84.385 -29.122   0.019  1.00  0.00    -0.391 OA
ATOM     23  H3  UNL     1      84.719 -29.650   0.736  1.00  0.00     0.210 HD
ENDBRANCH   5  22
BRANCH   7  24
HETATM   24  N5  UNL     1      87.791 -31.272  -2.471  1.00  0.00    -0.362 NA
ATOM     25  H52 UNL     1      87.793 -31.535  -3.457  1.00  0.00     0.171 HD
ATOM     26  H51 UNL     1      87.528 -32.100  -1.937  1.00  0.00     0.171 HD
ENDBRANCH   7  24
BRANCH   4  27
HETATM   27  O2  UNL     1      85.293 -28.381  -3.327  1.00  0.00    -0.390 OA
ATOM     28  H2  UNL     1      85.370 -27.522  -3.724  1.00  0.00     0.210 HD
ENDBRANCH   4  27
BRANCH   3  29
HETATM   29  O1  UNL     1      87.110 -26.660  -2.352  1.00  0.00    -0.391 OA
ATOM     30  H1  UNL     1      87.839 -26.189  -1.966  1.00  0.00     0.210 HD
ENDBRANCH   3  29
TORSDOF 12
ENDMDL
MODEL 2
REMARK VINA RESULT: -5.202151583      2.679      5.412
REMARK  12 active torsions:
REMARK  status: ('A' for Active; 'I' for Inactive)
REMARK    1  A    between atoms: C3_3  and  O1_4 
REMARK    2  A    between atoms: C4_6  and  O2_7 
REMARK    3  A    between atoms: C5_9  and  O3_10 
REMARK    4  A    between atoms: C6_12  and  C7_13 
REMARK    5  A    between atoms: C7_13  and  N1_14 
REMARK    6  A    between atoms: N1_14  and  C8_17 
REMARK    7  A    between atoms: C8_17  and  C9_18 
REMARK    8  A    between atoms: C9_18  and  N2_19 
REMARK    9  A    between atoms: N2_19  and  C11_21 
REMARK   10  A    between atoms: C11_21  and  C12_22 
REMARK   11  A    between atoms: C12_22  and  N3_23 
REMARK   12  A    between atoms: N4_27  and  N5_28 
ROOT
HETATM    1  C1  UNL     1      86.811 -26.840   2.427  1.00  0.00     0.031 C 
HETATM    2  C2  UNL     1      86.739 -28.313   2.683  1.00  0.00     0.107 C 
HETATM    3  C3  UNL     1      86.164 -28.672   4.033  1.00  0.00     0.168 C 
HETATM    4  C4  UNL     1      84.689 -29.072   3.927  1.00  0.00     0.178 C 
HETATM    5  C5  UNL     1      84.518 -30.303   3.060  1.00  0.00     0.170 C 
HETATM    6  C6  UNL     1      85.661 -30.284   2.078  1.00  0.00     0.136 C 
HETATM    7  N4  UNL     1      85.864 -28.919   1.691  1.00  0.00    -0.222 NA
ENDROOT
BRANCH   6   8
HETATM    8  C7  UNL     1      85.540 -31.264   0.955  1.00  0.00     0.256 C 
BRANCH   8   9
HETATM    9  N1  UNL     1      84.521 -31.009  -0.000  1.00  0.00    -0.072 N 
ATOM     10  H12 UNL     1      83.726 -31.639   0.111  1.00  0.00     0.277 HD
ATOM     11  H11 UNL     1      84.039 -30.128   0.179  1.00  0.00     0.277 HD
BRANCH   9  12
HETATM   12  C8  UNL     1      85.075 -31.065  -1.339  1.00  0.00     0.262 C 
BRANCH  12  13
HETATM   13  C9  UNL     1      86.492 -31.483  -1.307  1.00  0.00     0.299 C 
BRANCH  13  14
HETATM   14  N2  UNL     1      87.260 -31.250  -2.514  1.00  0.00     0.087 N 
HETATM   15  C10 UNL     1      87.731 -32.520  -3.057  1.00  0.00     0.310 C 
BRANCH  14  16
HETATM   16  C11 UNL     1      88.365 -30.339  -2.321  1.00  0.00     0.299 C 
BRANCH  16  17
HETATM   17  C12 UNL     1      88.150 -29.184  -3.308  1.00  0.00     0.259 C 
BRANCH  17  18
HETATM   18  N3  UNL     1      86.987 -28.412  -2.827  1.00  0.00    -0.078 N 
ATOM     19  H33 UNL     1      86.115 -28.676  -3.286  1.00  0.00     0.274 HD
ATOM     20  H32 UNL     1      86.712 -28.653  -1.875  1.00  0.00     0.274 HD
ATOM     21  H31 UNL     1      87.214 -27.424  -2.939  1.00  0.00     0.274 HD
ENDBRANCH  17  18
ENDBRANCH  16  17
ENDBRANCH  14  16
ENDBRANCH  13  14
ENDBRANCH  12  13
ENDBRANCH   9  12
ENDBRANCH   8   9
ENDBRANCH   6   8
BRANCH   5  22
HETATM   22  O3  UNL     1      84.516 -31.465   3.821  1.00  0.00    -0.391 OA
ATOM     23  H3  UNL     1      85.130 -32.106   3.480  1.00  0.00     0.210 HD
ENDBRANCH   5  22
BRANCH   7  24
HETATM   24  N5  UNL     1      86.297 -28.739   0.383  1.00  0.00    -0.362 NA
ATOM     25  H52 UNL     1      87.183 -29.193   0.156  1.00  0.00     0.171 HD
ATOM     26  H51 UNL     1      86.380 -27.759   0.111  1.00  0.00     0.171 HD
ENDBRANCH   7  24
BRANCH   4  27
HETATM   27  O2  UNL     1      83.993 -27.978   3.455  1.00  0.00    -0.390 OA
ATOM     28  H2  UNL     1      83.107 -28.262   3.263  1.00  0.00     0.210 HD
ENDBRANCH   4  27
BRANCH   3  29
HETATM   29  O1  UNL     1      86.223 -27.589   4.902  1.00  0.00    -0.391 OA
ATOM     30  H1  UNL     1      85.784 -27.786   5.720  1.00  0.00     0.210 HD
ENDBRANCH   3  29
TORSDOF 12
ENDMDL
MODEL 3
REMARK VINA RESULT: -5.182648891      2.341      5.315
REMARK  12 active torsions:
REMARK  status: ('A' for Active; 'I' for Inactive)
REMARK    1  A    between atoms: C3_3  and  O1_4 
REMARK    2  A    between atoms: C4_6  and  O2_7 
REMARK    3  A    between atoms: C5_9  and  O3_10 
REMARK    4  A    between atoms: C6_12  and  C7_13 
REMARK    5  A    between atoms: C7_13  and  N1_14 
REMARK    6  A    between atoms: N1_14  and  C8_17 
REMARK    7  A    between atoms: C8_17  and  C9_18 
REMARK    8  A    between atoms: C9_18  and  N2_19 
REMARK    9  A    between atoms: N2_19  and  C11_21 
REMARK   10  A    between atoms: C11_21  and  C12_22 
REMARK   11  A    between atoms: C12_22  and  N3_23 
REMARK   12  A    between atoms: N4_27  and  N5_28 
ROOT
HETATM    1  C1  UNL     1      84.728 -28.332   3.041  1.00  0.00     0.031 C 
HETATM    2  C2  UNL     1      84.923 -29.705   2.477  1.00  0.00     0.107 C 
HETATM    3  C3  UNL     1      83.664 -30.539   2.449  1.00  0.00     0.168 C 
HETATM    4  C4  UNL     1      83.024 -30.545   1.058  1.00  0.00     0.178 C 
HETATM    5  C5  UNL     1      83.955 -31.159   0.031  1.00  0.00     0.170 C 
HETATM    6  C6  UNL     1      85.353 -30.902   0.529  1.00  0.00     0.136 C 
HETATM    7  N4  UNL     1      85.366 -29.585   1.096  1.00  0.00    -0.222 NA
ENDROOT
BRANCH   6   8
HETATM    8  C7  UNL     1      86.436 -31.188  -0.462  1.00  0.00     0.256 C 
BRANCH   8   9
HETATM    9  N1  UNL     1      86.021 -31.440  -1.797  1.00  0.00    -0.072 N 
ATOM     10  H12 UNL     1      85.489 -32.306  -1.876  1.00  0.00     0.277 HD
ATOM     11  H11 UNL     1      85.295 -30.791  -2.101  1.00  0.00     0.277 HD
BRANCH   9  12
HETATM   12  C8  UNL     1      87.171 -31.424  -2.681  1.00  0.00     0.262 C 
BRANCH  12  13
HETATM   13  C9  UNL     1      88.153 -30.407  -2.252  1.00  0.00     0.299 C 
BRANCH  13  14
HETATM   14  N2  UNL     1      88.392 -29.314  -3.174  1.00  0.00     0.087 N 
HETATM   15  C10 UNL     1      89.385 -28.402  -2.615  1.00  0.00     0.310 C 
BRANCH  14  16
HETATM   16  C11 UNL     1      87.191 -28.598  -3.537  1.00  0.00     0.299 C 
BRANCH  16  17
HETATM   17  C12 UNL     1      86.786 -27.780  -2.305  1.00  0.00     0.259 C 
BRANCH  17  18
HETATM   18  N3  UNL     1      85.395 -28.149  -1.974  1.00  0.00    -0.078 N 
ATOM     19  H33 UNL     1      84.705 -27.530  -2.400  1.00  0.00     0.274 HD
ATOM     20  H32 UNL     1      85.093 -29.013  -2.425  1.00  0.00     0.274 HD
ATOM     21  H31 UNL     1      85.327 -28.185  -0.957  1.00  0.00     0.274 HD
ENDBRANCH  17  18
ENDBRANCH  16  17
ENDBRANCH  14  16
ENDBRANCH  13  14
ENDBRANCH  12  13
ENDBRANCH   9  12
ENDBRANCH   8   9
ENDBRANCH   6   8
BRANCH   5  22
HETATM   22  O3  UNL     1      83.710 -32.517  -0.129  1.00  0.00    -0.391 OA
ATOM     23  H3  UNL     1      84.473 -33.037   0.098  1.00  0.00     0.210 HD
ENDBRANCH   5  22
BRANCH   7  24
HETATM   24  N5  UNL     1      86.564 -28.896   0.954  1.00  0.00    -0.362 NA
ATOM     25  H52 UNL     1      86.467 -27.897   0.769  1.00  0.00     0.171 HD
ATOM     26  H51 UNL     1      87.173 -29.281   0.230  1.00  0.00     0.171 HD
ENDBRANCH   7  24
BRANCH   4  27
HETATM   27  O2  UNL     1      82.669 -29.246   0.756  1.00  0.00    -0.390 OA
ATOM     28  H2  UNL     1      81.784 -29.109   1.072  1.00  0.00     0.210 HD
ENDBRANCH   4  27
BRANCH   3  29
HETATM   29  O1  UNL     1      82.712 -30.031   3.325  1.00  0.00    -0.391 OA
ATOM     30  H1  UNL     1      82.184 -30.729   3.694  1.00  0.00     0.210 HD
ENDBRANCH   3  29
TORSDOF 12
ENDMDL
MODEL 4
REMARK VINA RESULT: -5.020759584      2.479      5.972
REMARK  12 active torsions:
REMARK  status: ('A' for Active; 'I' for Inactive)
REMARK    1  A    between atoms: C3_3  and  O1_4 
REMARK    2  A    between atoms: C4_6  and  O2_7 
REMARK    3  A    between atoms: C5_9  and  O3_10 
REMARK    4  A    between atoms: C6_12  and  C7_13 
REMARK    5  A    between atoms: C7_13  and  N1_14 
REMARK    6  A    between atoms: N1_14  and  C8_17 
REMARK    7  A    between atoms: C8_17  and  C9_18 
REMARK    8  A    between atoms: C9_18  and  N2_19 
REMARK    9  A    between atoms: N2_19  and  C11_21 
REMARK   10  A    between atoms: C11_21  and  C12_22 
REMARK   11  A    between atoms: C12_22  and  N3_23 
REMARK   12  A    between atoms: N4_27  and  N5_28 
ROOT
HETATM    1  C1  UNL     1      85.364 -29.011   4.248  1.00  0.00     0.031 C 
HETATM    2  C2  UNL     1      85.420 -30.045   3.168  1.00  0.00     0.107 C 
HETATM    3  C3  UNL     1      84.317 -31.074   3.247  1.00  0.00     0.168 C 
HETATM    4  C4  UNL     1      83.181 -30.758   2.269  1.00  0.00     0.178 C 
HETATM    5  C5  UNL     1      83.674 -30.784   0.835  1.00  0.00     0.170 C 
HETATM    6  C6  UNL     1      85.132 -30.411   0.888  1.00  0.00     0.136 C 
HETATM    7  N4  UNL     1      85.272 -29.385   1.879  1.00  0.00    -0.222 NA
ENDROOT
BRANCH   6   8
HETATM    8  C7  UNL     1      85.753 -30.114  -0.440  1.00  0.00     0.256 C 
BRANCH   8   9
HETATM    9  N1  UNL     1      85.128 -29.106  -1.220  1.00  0.00    -0.072 N 
ATOM     10  H12 UNL     1      84.324 -29.464  -1.736  1.00  0.00     0.277 HD
ATOM     11  H11 UNL     1      84.641 -28.421  -0.642  1.00  0.00     0.277 HD
BRANCH   9  12
HETATM   12  C8  UNL     1      86.104 -28.484  -2.095  1.00  0.00     0.262 C 
BRANCH  12  13
HETATM   13  C9  UNL     1      87.461 -28.571  -1.517  1.00  0.00     0.299 C 
BRANCH  13  14
HETATM   14  N2  UNL     1      88.475 -29.193  -2.346  1.00  0.00     0.087 N 
HETATM   15  C10 UNL     1      89.204 -28.172  -3.090  1.00  0.00     0.310 C 
BRANCH  14  16
HETATM   16  C11 UNL     1      87.946 -30.196  -3.242  1.00  0.00     0.299 C 
BRANCH  16  17
HETATM   17  C12 UNL     1      88.137 -31.547  -2.540  1.00  0.00     0.259 C 
BRANCH  17  18
HETATM   18  N3  UNL     1      87.608 -32.587  -3.446  1.00  0.00    -0.078 N 
ATOM     19  H33 UNL     1      86.679 -32.914  -3.179  1.00  0.00     0.274 HD
ATOM     20  H32 UNL     1      87.361 -32.226  -4.367  1.00  0.00     0.274 HD
ATOM     21  H31 UNL     1      88.301 -33.334  -3.482  1.00  0.00     0.274 HD
ENDBRANCH  17  18
ENDBRANCH  16  17
ENDBRANCH  14  16
ENDBRANCH  13  14
ENDBRANCH  12  13
ENDBRANCH   9  12
ENDBRANCH   8   9
ENDBRANCH   6   8
BRANCH   5  22
HETATM   22  O3  UNL     1      83.485 -32.033   0.256  1.00  0.00    -0.391 OA
ATOM     23  H3  UNL     1      84.272 -32.563   0.309  1.00  0.00     0.210 HD
ENDBRANCH   5  22
BRANCH   7  24
HETATM   24  N5  UNL     1      86.262 -28.446   1.617  1.00  0.00    -0.362 NA
ATOM     25  H52 UNL     1      87.184 -28.677   1.990  1.00  0.00     0.171 HD
ATOM     26  H51 UNL     1      86.031 -27.506   1.940  1.00  0.00     0.171 HD
ENDBRANCH   7  24
BRANCH   4  27
HETATM   27  O2  UNL     1      82.643 -29.541   2.633  1.00  0.00    -0.390 OA
ATOM     28  H2  UNL     1      81.763 -29.499   2.277  1.00  0.00     0.210 HD
ENDBRANCH   4  27
BRANCH   3  29
HETATM   29  O1  UNL     1      83.754 -31.100   4.518  1.00  0.00    -0.391 OA
ATOM     30  H1  UNL     1      84.250 -31.666   5.097  1.00  0.00     0.210 HD
ENDBRANCH   3  29
TORSDOF 12
ENDMDL
MODEL 5
REMARK VINA RESULT: -4.970495030      1.025      1.716
REMARK  12 active torsions:
REMARK  status: ('A' for Active; 'I' for Inactive)
REMARK    1  A    between atoms: C3_3  and  O1_4 
REMARK    2  A    between atoms: C4_6  and  O2_7 
REMARK    3  A    between atoms: C5_9  and  O3_10 
REMARK    4  A    between atoms: C6_12  and  C7_13 
REMARK    5  A    between atoms: C7_13  and  N1_14 
REMARK    6  A    between atoms: N1_14  and  C8_17 
REMARK    7  A    between atoms: C8_17  and  C9_18 
REMARK    8  A    between atoms: C9_18  and  N2_19 
REMARK    9  A    between atoms: N2_19  and  C11_21 
REMARK   10  A    between atoms: C11_21  and  C12_22 
REMARK   11  A    between atoms: C12_22  and  N3_23 
REMARK   12  A    between atoms: N4_27  and  N5_28 
ROOT
HETATM    1  C1  UNL     1      88.507 -28.709  -3.332  1.00  0.00     0.031 C 
HETATM    2  C2  UNL     1      87.791 -28.923  -2.034  1.00  0.00     0.107 C 
HETATM    3  C3  UNL     1      86.819 -27.822  -1.684  1.00  0.00     0.168 C 
HETATM    4  C4  UNL     1      85.378 -28.212  -2.028  1.00  0.00     0.178 C 
HETATM    5  C5  UNL     1      84.938 -29.427  -1.234  1.00  0.00     0.170 C 
HETATM    6  C6  UNL     1      86.190 -30.217  -0.953  1.00  0.00     0.136 C 
HETATM    7  N4  UNL     1      87.009 -30.146  -2.127  1.00  0.00    -0.222 NA
ENDROOT
BRANCH   6   8
HETATM    8  C7  UNL     1      85.955 -31.592  -0.412  1.00  0.00     0.256 C 
BRANCH   8   9
HETATM    9  N1  UNL     1      85.072 -31.694   0.696  1.00  0.00    -0.072 N 
ATOM     10  H12 UNL     1      84.358 -30.965   0.685  1.00  0.00     0.277 HD
ATOM     11  H11 UNL     1      84.458 -32.505   0.623  1.00  0.00     0.277 HD
BRANCH   9  12
HETATM   12  C8  UNL     1      85.831 -31.694   1.932  1.00  0.00     0.262 C 
BRANCH  12  13
HETATM   13  C9  UNL     1      86.024 -30.318   2.433  1.00  0.00     0.299 C 
BRANCH  13  14
HETATM   14  N2  UNL     1      84.853 -29.658   2.973  1.00  0.00     0.087 N 
HETATM   15  C10 UNL     1      85.161 -28.263   3.270  1.00  0.00     0.310 C 
BRANCH  14  16
HETATM   16  C11 UNL     1      84.310 -30.318   4.138  1.00  0.00     0.299 C 
BRANCH  16  17
HETATM   17  C12 UNL     1      82.906 -30.798   3.748  1.00  0.00     0.259 C 
BRANCH  17  18
HETATM   18  N3  UNL     1      82.558 -30.136   2.475  1.00  0.00    -0.078 N 
ATOM     19  H33 UNL     1      83.363 -29.996   1.864  1.00  0.00     0.274 HD
ATOM     20  H32 UNL     1      82.019 -30.733   1.848  1.00  0.00     0.274 HD
ATOM     21  H31 UNL     1      82.078 -29.267   2.709  1.00  0.00     0.274 HD
ENDBRANCH  17  18
ENDBRANCH  16  17
ENDBRANCH  14  16
ENDBRANCH  13  14
ENDBRANCH  12  13
ENDBRANCH   9  12
ENDBRANCH   8   9
ENDBRANCH   6   8
BRANCH   5  22
HETATM   22  O3  UNL     1      84.290 -29.060  -0.062  1.00  0.00    -0.391 OA
ATOM     23  H3  UNL     1      83.444 -29.487   0.016  1.00  0.00     0.210 HD
ENDBRANCH   5  22
BRANCH   7  24
HETATM   24  N5  UNL     1      87.774 -31.279  -2.378  1.00  0.00    -0.362 NA
ATOM     25  H52 UNL     1      87.815 -31.950  -1.611  1.00  0.00     0.171 HD
ATOM     26  H51 UNL     1      88.735 -31.071  -2.651  1.00  0.00     0.171 HD
ENDBRANCH   7  24
BRANCH   4  27
HETATM   27  O2  UNL     1      85.314 -28.406  -3.392  1.00  0.00    -0.390 OA
ATOM     28  H2  UNL     1      85.881 -29.138  -3.605  1.00  0.00     0.210 HD
ENDBRANCH   4  27
BRANCH   3  29
HETATM   29  O1  UNL     1      87.101 -26.664  -2.399  1.00  0.00    -0.391 OA
ATOM     30  H1  UNL     1      88.031 -26.473  -2.383  1.00  0.00     0.210 HD
ENDBRANCH   3  29
TORSDOF 12
ENDMDL
