MODEL 1
REMARK VINA RESULT: -8.583895056      0.000      0.000
REMARK  10 active torsions:
REMARK  status: ('A' for Active; 'I' for Inactive)
REMARK    1  A    between atoms: N1_1  and  N2_4 
REMARK    2  A    between atoms: N2_4  and  C1_6 
REMARK    3  A    between atoms: C3_12  and  N4_13 
REMARK    4  A    between atoms: N4_13  and  C4_15 
REMARK    5  A    between atoms: C4_15  and  C5_16 
REMARK    6  A    between atoms: C5_16  and  C6_17 
REMARK    7  A    between atoms: C6_17  and  C7_18 
REMARK    8  A    between atoms: C7_18  and  N5_19 
REMARK    9  A    between atoms: N5_19  and  C8_21 
REMARK   10  A    between atoms: N6_22  and  N7_24 
ROOT
HETATM    1  N4  UNL     1      88.353 -33.823  -3.281  1.00  0.00    -0.355 N 
ATOM      2  H4  UNL     1      88.184 -33.692  -4.278  1.00  0.00     0.163 HD
ENDROOT
BRANCH   1   3
HETATM    3  C3  UNL     1      89.037 -34.826  -2.853  1.00  0.00     0.242 A 
HETATM    4  O2  UNL     1      88.528 -35.732  -2.076  1.00  0.00    -0.227 OA
HETATM    5  C2  UNL     1      89.186 -36.765  -1.619  1.00  0.00     0.386 A 
HETATM    6  N3  UNL     1      90.480 -36.876  -1.996  1.00  0.00    -0.133 N 
HETATM    7  O1  UNL     1      88.617 -37.599  -0.869  1.00  0.00    -0.237 OA
HETATM    8  C1  UNL     1      91.044 -35.954  -2.804  1.00  0.00     0.704 A 
ATOM      9  H3  UNL     1      91.036 -37.665  -1.665  1.00  0.00     0.189 HD
HETATM   10  N10 UNL     1      90.334 -34.903  -3.253  1.00  0.00    -0.153 N 
ATOM     11  H10 UNL     1      90.748 -34.198  -3.864  1.00  0.00     0.188 HD
BRANCH   8  12
HETATM   12  N2  UNL     1      92.280 -36.053  -3.167  1.00  0.00    -0.138 N 
ATOM     13  H2  UNL     1      92.514 -35.893  -4.146  1.00  0.00     0.205 HD
BRANCH  12  14
HETATM   14  N1  UNL     1      93.302 -36.367  -2.287  1.00  0.00    -0.331 N 
ATOM     15  H12 UNL     1      93.661 -35.617  -1.696  1.00  0.00     0.177 HD
ATOM     16  H11 UNL     1      93.701 -37.303  -2.210  1.00  0.00     0.177 HD
ENDBRANCH  12  14
ENDBRANCH   8  12
ENDBRANCH   1   3
BRANCH   1  17
HETATM   17  C4  UNL     1      87.829 -32.885  -2.311  1.00  0.00     0.123 C 
BRANCH  17  18
HETATM   18  C5  UNL     1      88.149 -31.453  -2.696  1.00  0.00     0.021 C 
BRANCH  18  19
HETATM   19  C6  UNL     1      87.309 -30.472  -1.928  1.00  0.00     0.021 C 
BRANCH  19  20
HETATM   20  C7  UNL     1      86.198 -31.139  -1.156  1.00  0.00     0.120 C 
BRANCH  20  21
HETATM   21  N5  UNL     1      85.361 -30.112  -0.568  1.00  0.00    -0.385 N 
ATOM     22  H5  UNL     1      85.092 -29.317  -1.148  1.00  0.00     0.160 HD
BRANCH  21  23
HETATM   23  C8  UNL     1      84.898 -30.152   0.762  1.00  0.00     0.192 C 
HETATM   24  N6  UNL     1      85.345 -29.319   1.619  1.00  0.00    -0.294 N 
ATOM     25  H6  UNL     1      85.000 -29.361   2.577  1.00  0.00     0.187 HD
BRANCH  24  26
HETATM   26  N7  UNL     1      86.279 -28.363   1.286  1.00  0.00    -0.275 N 
HETATM   27  C9  UNL     1      86.782 -27.560   2.158  1.00  0.00     0.215 C 
HETATM   28  N8  UNL     1      86.362 -27.659   3.508  1.00  0.00    -0.065 NA
HETATM   29  N9  UNL     1      87.744 -26.583   1.790  1.00  0.00    -0.065 NA
ATOM     30  H7  UNL     1      86.583 -28.289   0.315  1.00  0.00     0.189 HD
ENDBRANCH  24  26
ENDBRANCH  21  23
ENDBRANCH  20  21
ENDBRANCH  19  20
ENDBRANCH  18  19
ENDBRANCH  17  18
ENDBRANCH   1  17
TORSDOF 10
ENDMDL
MODEL 2
REMARK VINA RESULT: -8.555598294      1.672      2.537
REMARK  10 active torsions:
REMARK  status: ('A' for Active; 'I' for Inactive)
REMARK    1  A    between atoms: N1_1  and  N2_4 
REMARK    2  A    between atoms: N2_4  and  C1_6 
REMARK    3  A    between atoms: C3_12  and  N4_13 
REMARK    4  A    between atoms: N4_13  and  C4_15 
REMARK    5  A    between atoms: C4_15  and  C5_16 
REMARK    6  A    between atoms: C5_16  and  C6_17 
REMARK    7  A    between atoms: C6_17  and  C7_18 
REMARK    8  A    between atoms: C7_18  and  N5_19 
REMARK    9  A    between atoms: N5_19  and  C8_21 
REMARK   10  A    between atoms: N6_22  and  N7_24 
ROOT
HETATM    1  N4  UNL     1      88.373 -33.973  -3.224  1.00  0.00    -0.355 N 
ATOM      2  H4  UNL     1      88.048 -33.941  -4.191  1.00  0.00     0.163 HD
ENDROOT
BRANCH   1   3
HETATM    3  C3  UNL     1      89.081 -34.961  -2.798  1.00  0.00     0.242 A 
HETATM    4  O2  UNL     1      88.593 -35.880  -2.022  1.00  0.00    -0.227 OA
HETATM    5  C2  UNL     1      89.275 -36.898  -1.567  1.00  0.00     0.386 A 
HETATM    6  N3  UNL     1      90.571 -36.978  -1.943  1.00  0.00    -0.133 N 
HETATM    7  O1  UNL     1      88.726 -37.745  -0.817  1.00  0.00    -0.237 OA
HETATM    8  C1  UNL     1      91.114 -36.042  -2.751  1.00  0.00     0.704 A 
ATOM      9  H3  UNL     1      91.145 -37.755  -1.614  1.00  0.00     0.189 HD
HETATM   10  N10 UNL     1      90.379 -35.008  -3.198  1.00  0.00    -0.153 N 
ATOM     11  H10 UNL     1      90.777 -34.293  -3.808  1.00  0.00     0.188 HD
BRANCH   8  12
HETATM   12  N2  UNL     1      92.351 -36.112  -3.114  1.00  0.00    -0.138 N 
ATOM     13  H2  UNL     1      92.583 -35.929  -4.090  1.00  0.00     0.205 HD
BRANCH  12  14
HETATM   14  N1  UNL     1      93.378 -36.424  -2.239  1.00  0.00    -0.331 N 
ATOM     15  H12 UNL     1      93.168 -36.404  -1.241  1.00  0.00     0.177 HD
ATOM     16  H11 UNL     1      94.318 -36.669  -2.550  1.00  0.00     0.177 HD
ENDBRANCH  12  14
ENDBRANCH   8  12
ENDBRANCH   1   3
BRANCH   1  17
HETATM   17  C4  UNL     1      88.050 -32.909  -2.299  1.00  0.00     0.123 C 
BRANCH  17  18
HETATM   18  C5  UNL     1      87.684 -31.631  -3.029  1.00  0.00     0.021 C 
BRANCH  18  19
HETATM   19  C6  UNL     1      88.516 -30.469  -2.566  1.00  0.00     0.021 C 
BRANCH  19  20
HETATM   20  C7  UNL     1      87.914 -29.138  -2.942  1.00  0.00     0.120 C 
BRANCH  20  21
HETATM   21  N5  UNL     1      86.646 -28.992  -2.254  1.00  0.00    -0.385 N 
ATOM     22  H5  UNL     1      85.788 -29.121  -2.790  1.00  0.00     0.160 HD
BRANCH  21  23
HETATM   23  C8  UNL     1      86.535 -28.683  -0.885  1.00  0.00     0.192 C 
HETATM   24  N6  UNL     1      85.806 -29.403  -0.124  1.00  0.00    -0.294 N 
ATOM     25  H6  UNL     1      85.737 -29.165   0.865  1.00  0.00     0.187 HD
BRANCH  24  26
HETATM   26  N7  UNL     1      85.112 -30.492  -0.601  1.00  0.00    -0.275 N 
HETATM   27  C9  UNL     1      84.323 -31.184   0.145  1.00  0.00     0.215 C 
HETATM   28  N8  UNL     1      84.161 -30.816   1.505  1.00  0.00    -0.065 NA
HETATM   29  N9  UNL     1      83.617 -32.303  -0.369  1.00  0.00    -0.065 NA
ATOM     30  H7  UNL     1      85.226 -30.759  -1.578  1.00  0.00     0.189 HD
ENDBRANCH  24  26
ENDBRANCH  21  23
ENDBRANCH  20  21
ENDBRANCH  19  20
ENDBRANCH  18  19
ENDBRANCH  17  18
ENDBRANCH   1  17
TORSDOF 10
ENDMDL
MODEL 3
REMARK VINA RESULT: -8.448518414      0.940      1.143
REMARK  10 active torsions:
REMARK  status: ('A' for Active; 'I' for Inactive)
REMARK    1  A    between atoms: N1_1  and  N2_4 
REMARK    2  A    between atoms: N2_4  and  C1_6 
REMARK    3  A    between atoms: C3_12  and  N4_13 
REMARK    4  A    between atoms: N4_13  and  C4_15 
REMARK    5  A    between atoms: C4_15  and  C5_16 
REMARK    6  A    between atoms: C5_16  and  C6_17 
REMARK    7  A    between atoms: C6_17  and  C7_18 
REMARK    8  A    between atoms: C7_18  and  N5_19 
REMARK    9  A    between atoms: N5_19  and  C8_21 
REMARK   10  A    between atoms: N6_22  and  N7_24 
ROOT
HETATM    1  N4  UNL     1      88.359 -33.821  -3.275  1.00  0.00    -0.355 N 
ATOM      2  H4  UNL     1      88.218 -33.675  -4.275  1.00  0.00     0.163 HD
ENDROOT
BRANCH   1   3
HETATM    3  C3  UNL     1      89.038 -34.827  -2.844  1.00  0.00     0.242 A 
HETATM    4  O2  UNL     1      88.521 -35.734  -2.074  1.00  0.00    -0.227 OA
HETATM    5  C2  UNL     1      89.174 -36.769  -1.614  1.00  0.00     0.386 A 
HETATM    6  N3  UNL     1      90.471 -36.881  -1.980  1.00  0.00    -0.133 N 
HETATM    7  O1  UNL     1      88.597 -37.604  -0.871  1.00  0.00    -0.237 OA
HETATM    8  C1  UNL     1      91.043 -35.957  -2.781  1.00  0.00     0.704 A 
ATOM      9  H3  UNL     1      91.023 -37.672  -1.646  1.00  0.00     0.189 HD
HETATM   10  N10 UNL     1      90.338 -34.905  -3.233  1.00  0.00    -0.153 N 
ATOM     11  H10 UNL     1      90.759 -34.199  -3.839  1.00  0.00     0.188 HD
BRANCH   8  12
HETATM   12  N2  UNL     1      92.281 -36.058  -3.134  1.00  0.00    -0.138 N 
ATOM     13  H2  UNL     1      92.526 -35.882  -4.108  1.00  0.00     0.205 HD
BRANCH  12  14
HETATM   14  N1  UNL     1      93.293 -36.393  -2.250  1.00  0.00    -0.331 N 
ATOM     15  H12 UNL     1      93.529 -35.714  -1.525  1.00  0.00     0.177 HD
ATOM     16  H11 UNL     1      93.801 -37.276  -2.295  1.00  0.00     0.177 HD
ENDBRANCH  12  14
ENDBRANCH   8  12
ENDBRANCH   1   3
BRANCH   1  17
HETATM   17  C4  UNL     1      87.800 -32.903  -2.307  1.00  0.00     0.123 C 
BRANCH  17  18
HETATM   18  C5  UNL     1      88.116 -31.463  -2.661  1.00  0.00     0.021 C 
BRANCH  18  19
HETATM   19  C6  UNL     1      87.251 -30.501  -1.897  1.00  0.00     0.021 C 
BRANCH  19  20
HETATM   20  C7  UNL     1      86.188 -31.198  -1.084  1.00  0.00     0.120 C 
BRANCH  20  21
HETATM   21  N5  UNL     1      85.750 -30.302  -0.031  1.00  0.00    -0.385 N 
ATOM     22  H5  UNL     1      86.458 -29.768   0.474  1.00  0.00     0.160 HD
BRANCH  21  23
HETATM   23  C8  UNL     1      84.401 -30.130   0.333  1.00  0.00     0.192 C 
HETATM   24  N6  UNL     1      84.093 -29.343   1.288  1.00  0.00    -0.294 N 
ATOM     25  H6  UNL     1      83.110 -29.230   1.539  1.00  0.00     0.187 HD
BRANCH  24  26
HETATM   26  N7  UNL     1      85.047 -28.642   1.990  1.00  0.00    -0.275 N 
HETATM   27  C9  UNL     1      85.164 -28.730   3.269  1.00  0.00     0.215 C 
HETATM   28  N8  UNL     1      84.281 -29.578   3.984  1.00  0.00    -0.065 NA
HETATM   29  N9  UNL     1      86.156 -27.996   3.970  1.00  0.00    -0.065 NA
ATOM     30  H7  UNL     1      85.683 -28.030   1.478  1.00  0.00     0.189 HD
ENDBRANCH  24  26
ENDBRANCH  21  23
ENDBRANCH  20  21
ENDBRANCH  19  20
ENDBRANCH  18  19
ENDBRANCH  17  18
ENDBRANCH   1  17
TORSDOF 10
ENDMDL
MODEL 4
REMARK VINA RESULT: -8.196365307      3.727      8.498
REMARK  10 active torsions:
REMARK  status: ('A' for Active; 'I' for Inactive)
REMARK    1  A    between atoms: N1_1  and  N2_4 
REMARK    2  A    between atoms: N2_4  and  C1_6 
REMARK    3  A    between atoms: C3_12  and  N4_13 
REMARK    4  A    between atoms: N4_13  and  C4_15 
REMARK    5  A    between atoms: C4_15  and  C5_16 
REMARK    6  A    between atoms: C5_16  and  C6_17 
REMARK    7  A    between atoms: C6_17  and  C7_18 
REMARK    8  A    between atoms: C7_18  and  N5_19 
REMARK    9  A    between atoms: N5_19  and  C8_21 
REMARK   10  A    between atoms: N6_22  and  N7_24 
ROOT
HETATM    1  N4  UNL     1      84.206 -29.756   0.368  1.00  0.00    -0.355 N 
ATOM      2  H4  UNL     1      83.329 -29.610  -0.133  1.00  0.00     0.163 HD
ENDROOT
BRANCH   1   3
HETATM    3  C3  UNL     1      84.243 -29.731   1.655  1.00  0.00     0.242 A 
HETATM    4  O2  UNL     1      83.573 -30.569   2.385  1.00  0.00    -0.227 OA
HETATM    5  C2  UNL     1      83.581 -30.579   3.692  1.00  0.00     0.386 A 
HETATM    6  N3  UNL     1      84.347 -29.646   4.302  1.00  0.00    -0.133 N 
HETATM    7  O1  UNL     1      82.901 -31.427   4.324  1.00  0.00    -0.237 OA
HETATM    8  C1  UNL     1      85.060 -28.758   3.576  1.00  0.00     0.704 A 
ATOM      9  H3  UNL     1      84.387 -29.613   5.320  1.00  0.00     0.189 HD
HETATM   10  N10 UNL     1      85.024 -28.779   2.232  1.00  0.00    -0.153 N 
ATOM     11  H10 UNL     1      85.557 -28.113   1.671  1.00  0.00     0.188 HD
BRANCH   8  12
HETATM   12  N2  UNL     1      85.793 -27.864   4.152  1.00  0.00    -0.138 N 
ATOM     13  H2  UNL     1      86.391 -28.151   4.926  1.00  0.00     0.205 HD
BRANCH  12  14
HETATM   14  N1  UNL     1      85.804 -26.535   3.766  1.00  0.00    -0.331 N 
ATOM     15  H12 UNL     1      86.439 -26.269   3.013  1.00  0.00     0.177 HD
ATOM     16  H11 UNL     1      85.212 -25.825   4.197  1.00  0.00     0.177 HD
ENDBRANCH  12  14
ENDBRANCH   8  12
ENDBRANCH   1   3
BRANCH   1  17
HETATM   17  C4  UNL     1      85.439 -29.995  -0.350  1.00  0.00     0.123 C 
BRANCH  17  18
HETATM   18  C5  UNL     1      85.514 -29.161  -1.615  1.00  0.00     0.021 C 
BRANCH  18  19
HETATM   19  C6  UNL     1      86.798 -28.385  -1.693  1.00  0.00     0.021 C 
BRANCH  19  20
HETATM   20  C7  UNL     1      87.359 -28.330  -3.092  1.00  0.00     0.120 C 
BRANCH  20  21
HETATM   21  N5  UNL     1      88.112 -29.545  -3.336  1.00  0.00    -0.385 N 
ATOM     22  H5  UNL     1      88.399 -29.751  -4.293  1.00  0.00     0.160 HD
BRANCH  21  23
HETATM   23  C8  UNL     1      88.469 -30.457  -2.324  1.00  0.00     0.192 C 
HETATM   24  N6  UNL     1      88.300 -31.708  -2.503  1.00  0.00    -0.294 N 
ATOM     25  H6  UNL     1      88.564 -32.355  -1.759  1.00  0.00     0.187 HD
BRANCH  24  26
HETATM   26  N7  UNL     1      87.773 -32.212  -3.671  1.00  0.00    -0.275 N 
HETATM   27  C9  UNL     1      87.778 -33.471  -3.942  1.00  0.00     0.215 C 
HETATM   28  N8  UNL     1      88.346 -34.373  -3.007  1.00  0.00    -0.065 NA
HETATM   29  N9  UNL     1      87.228 -33.965  -5.153  1.00  0.00    -0.065 NA
ATOM     30  H7  UNL     1      87.364 -31.565  -4.345  1.00  0.00     0.189 HD
ENDBRANCH  24  26
ENDBRANCH  21  23
ENDBRANCH  20  21
ENDBRANCH  19  20
ENDBRANCH  18  19
ENDBRANCH  17  18
ENDBRANCH   1  17
TORSDOF 10
ENDMDL
MODEL 5
REMARK VINA RESULT: -8.185155200      3.764      8.335
REMARK  10 active torsions:
REMARK  status: ('A' for Active; 'I' for Inactive)
REMARK    1  A    between atoms: N1_1  and  N2_4 
REMARK    2  A    between atoms: N2_4  and  C1_6 
REMARK    3  A    between atoms: C3_12  and  N4_13 
REMARK    4  A    between atoms: N4_13  and  C4_15 
REMARK    5  A    between atoms: C4_15  and  C5_16 
REMARK    6  A    between atoms: C5_16  and  C6_17 
REMARK    7  A    between atoms: C6_17  and  C7_18 
REMARK    8  A    between atoms: C7_18  and  N5_19 
REMARK    9  A    between atoms: N5_19  and  C8_21 
REMARK   10  A    between atoms: N6_22  and  N7_24 
ROOT
HETATM    1  N4  UNL     1      85.964 -29.330   0.124  1.00  0.00    -0.355 N 
ATOM      2  H4  UNL     1      86.929 -29.005   0.069  1.00  0.00     0.163 HD
ENDROOT
BRANCH   1   3
HETATM    3  C3  UNL     1      85.412 -29.571   1.262  1.00  0.00     0.242 A 
HETATM    4  O2  UNL     1      86.082 -29.568   2.373  1.00  0.00    -0.227 OA
HETATM    5  C2  UNL     1      85.562 -29.807   3.548  1.00  0.00     0.386 A 
HETATM    6  N3  UNL     1      84.237 -30.072   3.584  1.00  0.00    -0.133 N 
HETATM    7  O1  UNL     1      86.284 -29.784   4.577  1.00  0.00    -0.237 OA
HETATM    8  C1  UNL     1      83.505 -30.083   2.448  1.00  0.00     0.704 A 
ATOM      9  H3  UNL     1      83.785 -30.265   4.477  1.00  0.00     0.189 HD
HETATM   10  N10 UNL     1      84.077 -29.833   1.257  1.00  0.00    -0.153 N 
ATOM     11  H10 UNL     1      83.537 -29.839   0.392  1.00  0.00     0.188 HD
BRANCH   8  12
HETATM   12  N2  UNL     1      82.239 -30.336   2.475  1.00  0.00    -0.138 N 
ATOM     13  H2  UNL     1      81.842 -30.743   3.321  1.00  0.00     0.205 HD
BRANCH  12  14
HETATM   14  N1  UNL     1      81.396 -30.079   1.407  1.00  0.00    -0.331 N 
ATOM     15  H12 UNL     1      80.600 -30.704   1.275  1.00  0.00     0.177 HD
ATOM     16  H11 UNL     1      81.538 -29.303   0.760  1.00  0.00     0.177 HD
ENDBRANCH  12  14
ENDBRANCH   8  12
ENDBRANCH   1   3
BRANCH   1  17
HETATM   17  C4  UNL     1      85.180 -29.531  -1.076  1.00  0.00     0.123 C 
BRANCH  17  18
HETATM   18  C5  UNL     1      85.571 -28.549  -2.164  1.00  0.00     0.021 C 
BRANCH  18  19
HETATM   19  C6  UNL     1      86.984 -28.069  -1.997  1.00  0.00     0.021 C 
BRANCH  19  20
HETATM   20  C7  UNL     1      87.790 -28.185  -3.267  1.00  0.00     0.120 C 
BRANCH  20  21
HETATM   21  N5  UNL     1      88.196 -29.567  -3.433  1.00  0.00    -0.385 N 
ATOM     22  H5  UNL     1      88.329 -29.921  -4.381  1.00  0.00     0.160 HD
BRANCH  21  23
HETATM   23  C8  UNL     1      88.416 -30.449  -2.357  1.00  0.00     0.192 C 
HETATM   24  N6  UNL     1      88.173 -31.693  -2.491  1.00  0.00    -0.294 N 
ATOM     25  H6  UNL     1      88.338 -32.318  -1.702  1.00  0.00     0.187 HD
BRANCH  24  26
HETATM   26  N7  UNL     1      87.694 -32.218  -3.670  1.00  0.00    -0.275 N 
HETATM   27  C9  UNL     1      87.750 -33.477  -3.936  1.00  0.00     0.215 C 
HETATM   28  N8  UNL     1      88.323 -34.357  -2.983  1.00  0.00    -0.065 NA
HETATM   29  N9  UNL     1      87.250 -33.994  -5.159  1.00  0.00    -0.065 NA
ATOM     30  H7  UNL     1      87.281 -31.588  -4.358  1.00  0.00     0.189 HD
ENDBRANCH  24  26
ENDBRANCH  21  23
ENDBRANCH  20  21
ENDBRANCH  19  20
ENDBRANCH  18  19
ENDBRANCH  17  18
ENDBRANCH   1  17
TORSDOF 10
ENDMDL
