MODEL 1
REMARK VINA RESULT: -6.698940834      0.000      0.000
REMARK  12 active torsions:
REMARK  status: ('A' for Active; 'I' for Inactive)
REMARK    1  A    between atoms: N1_1  and  C1_4 
REMARK    2  A    between atoms: C2_7  and  C3_8 
REMARK    3  A    between atoms: C3_8  and  N3_9 
REMARK    4  A    between atoms: N3_9  and  C4_10 
REMARK    5  A    between atoms: N3_9  and  S1_14 
REMARK    6  A    between atoms: C4_10  and  C5_11 
REMARK    7  A    between atoms: C5_11  and  O1_12 
REMARK    8  A    between atoms: S1_14  and  N4_15 
REMARK    9  A    between atoms: C6_22  and  N6_23 
REMARK   10  A    between atoms: N6_23  and  C7_25 
REMARK   11  A    between atoms: C7_25  and  C8_26 
REMARK   12  A    between atoms: C8_26  and  N7_27 
ROOT
HETATM    1  C1  UNL     1      86.557 -28.801  -2.009  1.00  0.00     0.691 A 
HETATM    2  N2  UNL     1      85.565 -29.258  -1.204  1.00  0.00    -0.178 N 
ATOM      3  H2  UNL     1      84.893 -28.604  -0.801  1.00  0.00     0.185 HD
HETATM    4  C2  UNL     1      85.468 -30.573  -0.938  1.00  0.00     0.127 A 
HETATM    5  N5  UNL     1      86.383 -31.387  -1.494  1.00  0.00    -0.178 N 
ATOM      6  H5  UNL     1      86.326 -32.388  -1.302  1.00  0.00     0.185 HD
HETATM    7  C6  UNL     1      87.370 -30.939  -2.293  1.00  0.00     0.694 A 
HETATM    8  N8  UNL     1      87.470 -29.625  -2.563  1.00  0.00    -0.023 N 
ATOM      9  H8  UNL     1      88.210 -29.265  -3.166  1.00  0.00     0.203 HD
ENDROOT
BRANCH   4  10
HETATM   10  C3  UNL     1      84.416 -31.159  -0.069  1.00  0.00     0.186 C 
BRANCH  10  11
HETATM   11  N3  UNL     1      83.993 -30.286   0.971  1.00  0.00    -0.185 NA
BRANCH  11  12
HETATM   12  C4  UNL     1      84.921 -30.400   2.081  1.00  0.00     0.135 C 
BRANCH  12  13
HETATM   13  C5  UNL     1      85.444 -29.034   2.497  1.00  0.00     0.179 C 
BRANCH  13  14
HETATM   14  O1  UNL     1      84.437 -28.340   3.183  1.00  0.00    -0.400 OA
ATOM     15  H1  UNL     1      84.240 -28.791   3.996  1.00  0.00     0.209 HD
ENDBRANCH  13  14
ENDBRANCH  12  13
ENDBRANCH  11  12
BRANCH  11  16
HETATM   16  S1  UNL     1      82.410 -30.548   1.534  1.00  0.00     0.297 S 
HETATM   17  O2  UNL     1      81.813 -31.841   1.071  1.00  0.00    -0.189 OA
HETATM   18  O3  UNL     1      81.500 -29.445   1.024  1.00  0.00    -0.189 OA
BRANCH  16  19
HETATM   19  N4  UNL     1      82.328 -30.505   3.255  1.00  0.00    -0.316 N 
ATOM     20  H42 UNL     1      83.140 -30.337   3.850  1.00  0.00     0.170 HD
ATOM     21  H41 UNL     1      81.379 -30.667   3.593  1.00  0.00     0.170 HD
ENDBRANCH  16  19
ENDBRANCH  11  16
ENDBRANCH  10  11
ENDBRANCH   4  10
BRANCH   1  22
HETATM   22  N1  UNL     1      86.630 -27.533  -2.251  1.00  0.00    -0.234 N 
ATOM     23  H12 UNL     1      87.534 -27.067  -2.167  1.00  0.00     0.174 HD
ATOM     24  H11 UNL     1      85.784 -27.032  -2.521  1.00  0.00     0.174 HD
ENDBRANCH   1  22
BRANCH   7  25
HETATM   25  N6  UNL     1      88.225 -31.792  -2.801  1.00  0.00    -0.224 N 
ATOM     26  H6  UNL     1      89.222 -31.571  -2.792  1.00  0.00     0.177 HD
BRANCH  25  27
HETATM   27  C7  UNL     1      87.783 -33.025  -3.367  1.00  0.00     0.165 C 
BRANCH  27  28
HETATM   28  C8  UNL     1      88.328 -34.238  -2.659  1.00  0.00     0.249 C 
BRANCH  28  29
HETATM   29  N7  UNL     1      89.603 -34.663  -3.137  1.00  0.00    -0.078 N 
ATOM     30  H73 UNL     1      89.572 -35.643  -3.419  1.00  0.00     0.274 HD
ATOM     31  H72 UNL     1      89.810 -34.231  -4.038  1.00  0.00     0.274 HD
ATOM     32  H71 UNL     1      90.365 -34.503  -2.479  1.00  0.00     0.274 HD
ENDBRANCH  28  29
ENDBRANCH  27  28
ENDBRANCH  25  27
ENDBRANCH   7  25
TORSDOF 12
ENDMDL
MODEL 2
REMARK VINA RESULT: -6.658751348      2.043      2.834
REMARK  12 active torsions:
REMARK  status: ('A' for Active; 'I' for Inactive)
REMARK    1  A    between atoms: N1_1  and  C1_4 
REMARK    2  A    between atoms: C2_7  and  C3_8 
REMARK    3  A    between atoms: C3_8  and  N3_9 
REMARK    4  A    between atoms: N3_9  and  C4_10 
REMARK    5  A    between atoms: N3_9  and  S1_14 
REMARK    6  A    between atoms: C4_10  and  C5_11 
REMARK    7  A    between atoms: C5_11  and  O1_12 
REMARK    8  A    between atoms: S1_14  and  N4_15 
REMARK    9  A    between atoms: C6_22  and  N6_23 
REMARK   10  A    between atoms: N6_23  and  C7_25 
REMARK   11  A    between atoms: C7_25  and  C8_26 
REMARK   12  A    between atoms: C8_26  and  N7_27 
ROOT
HETATM    1  C1  UNL     1      86.955 -28.834  -1.728  1.00  0.00     0.691 A 
HETATM    2  N2  UNL     1      86.200 -28.695  -0.610  1.00  0.00    -0.178 N 
ATOM      3  H2  UNL     1      86.051 -27.769  -0.208  1.00  0.00     0.185 HD
HETATM    4  C2  UNL     1      85.649 -29.777  -0.033  1.00  0.00     0.127 A 
HETATM    5  N5  UNL     1      85.881 -30.972  -0.606  1.00  0.00    -0.178 N 
ATOM      6  H5  UNL     1      85.472 -31.804  -0.181  1.00  0.00     0.185 HD
HETATM    7  C6  UNL     1      86.631 -31.116  -1.716  1.00  0.00     0.694 A 
HETATM    8  N8  UNL     1      87.184 -30.036  -2.297  1.00  0.00    -0.023 N 
ATOM      9  H8  UNL     1      87.755 -30.123  -3.137  1.00  0.00     0.203 HD
ENDROOT
BRANCH   4  10
HETATM   10  C3  UNL     1      84.809 -29.717   1.191  1.00  0.00     0.186 C 
BRANCH  10  11
HETATM   11  N3  UNL     1      85.564 -29.771   2.395  1.00  0.00    -0.185 NA
BRANCH  11  12
HETATM   12  C4  UNL     1      84.797 -30.496   3.392  1.00  0.00     0.135 C 
BRANCH  12  13
HETATM   13  C5  UNL     1      83.314 -30.481   3.055  1.00  0.00     0.179 C 
BRANCH  13  14
HETATM   14  O1  UNL     1      82.578 -30.899   4.171  1.00  0.00    -0.400 OA
ATOM     15  H1  UNL     1      81.673 -30.628   4.073  1.00  0.00     0.209 HD
ENDBRANCH  13  14
ENDBRANCH  12  13
ENDBRANCH  11  12
BRANCH  11  16
HETATM   16  S1  UNL     1      86.023 -28.261   3.028  1.00  0.00     0.297 S 
HETATM   17  O2  UNL     1      87.202 -27.652   2.336  1.00  0.00    -0.189 OA
HETATM   18  O3  UNL     1      86.411 -28.418   4.487  1.00  0.00    -0.189 OA
BRANCH  16  19
HETATM   19  N4  UNL     1      84.726 -27.127   2.978  1.00  0.00    -0.316 N 
ATOM     20  H42 UNL     1      84.124 -26.929   3.777  1.00  0.00     0.170 HD
ATOM     21  H41 UNL     1      84.642 -26.689   2.060  1.00  0.00     0.170 HD
ENDBRANCH  16  19
ENDBRANCH  11  16
ENDBRANCH  10  11
ENDBRANCH   4  10
BRANCH   1  22
HETATM   22  N1  UNL     1      87.476 -27.780  -2.266  1.00  0.00    -0.234 N 
ATOM     23  H12 UNL     1      88.144 -27.229  -1.726  1.00  0.00     0.174 HD
ATOM     24  H11 UNL     1      87.204 -27.525  -3.216  1.00  0.00     0.174 HD
ENDBRANCH   1  22
BRANCH   7  25
HETATM   25  N6  UNL     1      86.814 -32.312  -2.219  1.00  0.00    -0.224 N 
ATOM     26  H6  UNL     1      86.027 -32.960  -2.275  1.00  0.00     0.177 HD
BRANCH  25  27
HETATM   27  C7  UNL     1      88.097 -32.721  -2.689  1.00  0.00     0.165 C 
BRANCH  27  28
HETATM   28  C8  UNL     1      88.278 -34.217  -2.713  1.00  0.00     0.249 C 
BRANCH  28  29
HETATM   29  N7  UNL     1      89.577 -34.635  -3.127  1.00  0.00    -0.078 N 
ATOM     30  H73 UNL     1      90.298 -34.142  -2.600  1.00  0.00     0.274 HD
ATOM     31  H72 UNL     1      89.761 -35.590  -2.819  1.00  0.00     0.274 HD
ATOM     32  H71 UNL     1      89.741 -34.544  -4.129  1.00  0.00     0.274 HD
ENDBRANCH  28  29
ENDBRANCH  27  28
ENDBRANCH  25  27
ENDBRANCH   7  25
TORSDOF 12
ENDMDL
MODEL 3
REMARK VINA RESULT: -6.617576225      1.456      1.837
REMARK  12 active torsions:
REMARK  status: ('A' for Active; 'I' for Inactive)
REMARK    1  A    between atoms: N1_1  and  C1_4 
REMARK    2  A    between atoms: C2_7  and  C3_8 
REMARK    3  A    between atoms: C3_8  and  N3_9 
REMARK    4  A    between atoms: N3_9  and  C4_10 
REMARK    5  A    between atoms: N3_9  and  S1_14 
REMARK    6  A    between atoms: C4_10  and  C5_11 
REMARK    7  A    between atoms: C5_11  and  O1_12 
REMARK    8  A    between atoms: S1_14  and  N4_15 
REMARK    9  A    between atoms: C6_22  and  N6_23 
REMARK   10  A    between atoms: N6_23  and  C7_25 
REMARK   11  A    between atoms: C7_25  and  C8_26 
REMARK   12  A    between atoms: C8_26  and  N7_27 
ROOT
HETATM    1  C1  UNL     1      86.819 -28.660  -2.261  1.00  0.00     0.691 A 
HETATM    2  N2  UNL     1      85.950 -28.904  -1.248  1.00  0.00    -0.178 N 
ATOM      3  H2  UNL     1      85.357 -28.154  -0.894  1.00  0.00     0.185 HD
HETATM    4  C2  UNL     1      85.872 -30.135  -0.712  1.00  0.00     0.127 A 
HETATM    5  N5  UNL     1      86.679 -31.084  -1.218  1.00  0.00    -0.178 N 
ATOM      6  H5  UNL     1      86.635 -32.024  -0.823  1.00  0.00     0.185 HD
HETATM    7  C6  UNL     1      87.544 -30.848  -2.223  1.00  0.00     0.694 A 
HETATM    8  N8  UNL     1      87.625 -29.619  -2.763  1.00  0.00    -0.023 N 
ATOM      9  H8  UNL     1      88.273 -29.418  -3.525  1.00  0.00     0.203 HD
ENDROOT
BRANCH   4  10
HETATM   10  C3  UNL     1      84.951 -30.490   0.398  1.00  0.00     0.186 C 
BRANCH  10  11
HETATM   11  N3  UNL     1      84.941 -29.533   1.450  1.00  0.00    -0.185 NA
BRANCH  11  12
HETATM   12  C4  UNL     1      86.307 -29.307   1.885  1.00  0.00     0.135 C 
BRANCH  12  13
HETATM   13  C5  UNL     1      86.552 -27.833   2.168  1.00  0.00     0.179 C 
BRANCH  13  14
HETATM   14  O1  UNL     1      87.041 -27.212   1.010  1.00  0.00    -0.400 OA
ATOM     15  H1  UNL     1      87.909 -26.864   1.181  1.00  0.00     0.209 HD
ENDBRANCH  13  14
ENDBRANCH  12  13
ENDBRANCH  11  12
BRANCH  11  16
HETATM   16  S1  UNL     1      83.985 -29.949   2.794  1.00  0.00     0.297 S 
HETATM   17  O2  UNL     1      83.969 -28.905   3.866  1.00  0.00    -0.189 OA
HETATM   18  O3  UNL     1      84.528 -31.215   3.432  1.00  0.00    -0.189 OA
BRANCH  16  19
HETATM   19  N4  UNL     1      82.356 -30.279   2.341  1.00  0.00    -0.316 N 
ATOM     20  H42 UNL     1      81.559 -30.117   2.957  1.00  0.00     0.170 HD
ATOM     21  H41 UNL     1      82.295 -30.652   1.393  1.00  0.00     0.170 HD
ENDBRANCH  16  19
ENDBRANCH  11  16
ENDBRANCH  10  11
ENDBRANCH   4  10
BRANCH   1  22
HETATM   22  N1  UNL     1      86.877 -27.469  -2.761  1.00  0.00    -0.234 N 
ATOM     23  H12 UNL     1      87.652 -26.861  -2.495  1.00  0.00     0.174 HD
ATOM     24  H11 UNL     1      86.147 -27.169  -3.408  1.00  0.00     0.174 HD
ENDBRANCH   1  22
BRANCH   7  25
HETATM   25  N6  UNL     1      88.300 -31.823  -2.666  1.00  0.00    -0.224 N 
ATOM     26  H6  UNL     1      89.314 -31.716  -2.658  1.00  0.00     0.177 HD
BRANCH  25  27
HETATM   27  C7  UNL     1      87.723 -33.032  -3.158  1.00  0.00     0.165 C 
BRANCH  27  28
HETATM   28  C8  UNL     1      88.359 -34.274  -2.588  1.00  0.00     0.249 C 
BRANCH  28  29
HETATM   29  N7  UNL     1      89.573 -34.650  -3.234  1.00  0.00    -0.078 N 
ATOM     30  H73 UNL     1      90.273 -33.914  -3.140  1.00  0.00     0.274 HD
ATOM     31  H72 UNL     1      90.038 -35.397  -2.717  1.00  0.00     0.274 HD
ATOM     32  H71 UNL     1      89.456 -34.911  -4.213  1.00  0.00     0.274 HD
ENDBRANCH  28  29
ENDBRANCH  27  28
ENDBRANCH  25  27
ENDBRANCH   7  25
TORSDOF 12
ENDMDL
MODEL 4
REMARK VINA RESULT: -6.573994770      3.340      6.524
REMARK  12 active torsions:
REMARK  status: ('A' for Active; 'I' for Inactive)
REMARK    1  A    between atoms: N1_1  and  C1_4 
REMARK    2  A    between atoms: C2_7  and  C3_8 
REMARK    3  A    between atoms: C3_8  and  N3_9 
REMARK    4  A    between atoms: N3_9  and  C4_10 
REMARK    5  A    between atoms: N3_9  and  S1_14 
REMARK    6  A    between atoms: C4_10  and  C5_11 
REMARK    7  A    between atoms: C5_11  and  O1_12 
REMARK    8  A    between atoms: S1_14  and  N4_15 
REMARK    9  A    between atoms: C6_22  and  N6_23 
REMARK   10  A    between atoms: N6_23  and  C7_25 
REMARK   11  A    between atoms: C7_25  and  C8_26 
REMARK   12  A    between atoms: C8_26  and  N7_27 
ROOT
HETATM    1  C1  UNL     1      83.499 -31.647   0.027  1.00  0.00     0.691 A 
HETATM    2  N2  UNL     1      84.697 -31.685  -0.607  1.00  0.00    -0.178 N 
ATOM      3  H2  UNL     1      84.875 -32.394  -1.318  1.00  0.00     0.185 HD
HETATM    4  C2  UNL     1      85.650 -30.788  -0.297  1.00  0.00     0.127 A 
HETATM    5  N5  UNL     1      85.360 -29.878   0.650  1.00  0.00    -0.178 N 
ATOM      6  H5  UNL     1      86.071 -29.190   0.899  1.00  0.00     0.185 HD
HETATM    7  C6  UNL     1      84.172 -29.835   1.283  1.00  0.00     0.694 A 
HETATM    8  N8  UNL     1      83.216 -30.730   0.976  1.00  0.00    -0.023 N 
ATOM      9  H8  UNL     1      82.310 -30.715   1.444  1.00  0.00     0.203 HD
ENDROOT
BRANCH   4  10
HETATM   10  C3  UNL     1      86.988 -30.757  -0.940  1.00  0.00     0.186 C 
BRANCH  10  11
HETATM   11  N3  UNL     1      86.971 -30.202  -2.250  1.00  0.00    -0.185 NA
BRANCH  11  12
HETATM   12  C4  UNL     1      87.967 -30.884  -3.057  1.00  0.00     0.135 C 
BRANCH  12  13
HETATM   13  C5  UNL     1      87.987 -32.373  -2.752  1.00  0.00     0.179 C 
BRANCH  13  14
HETATM   14  O1  UNL     1      87.398 -33.074  -3.813  1.00  0.00    -0.400 OA
ATOM     15  H1  UNL     1      87.590 -32.630  -4.630  1.00  0.00     0.209 HD
ENDBRANCH  13  14
ENDBRANCH  12  13
ENDBRANCH  11  12
BRANCH  11  16
HETATM   16  S1  UNL     1      87.240 -28.524  -2.326  1.00  0.00     0.297 S 
HETATM   17  O2  UNL     1      87.252 -27.855  -0.988  1.00  0.00    -0.189 OA
HETATM   18  O3  UNL     1      86.129 -27.868  -3.127  1.00  0.00    -0.189 OA
BRANCH  16  19
HETATM   19  N4  UNL     1      88.719 -28.150  -3.127  1.00  0.00    -0.316 N 
ATOM     20  H42 UNL     1      89.066 -28.670  -3.933  1.00  0.00     0.170 HD
ATOM     21  H41 UNL     1      89.192 -27.355  -2.696  1.00  0.00     0.170 HD
ENDBRANCH  16  19
ENDBRANCH  11  16
ENDBRANCH  10  11
ENDBRANCH   4  10
BRANCH   1  22
HETATM   22  N1  UNL     1      82.597 -32.519  -0.287  1.00  0.00    -0.234 N 
ATOM     23  H12 UNL     1      82.886 -33.382  -0.749  1.00  0.00     0.174 HD
ATOM     24  H11 UNL     1      81.621 -32.322  -0.066  1.00  0.00     0.174 HD
ENDBRANCH   1  22
BRANCH   7  25
HETATM   25  N6  UNL     1      83.961 -28.919   2.195  1.00  0.00    -0.224 N 
ATOM     26  H6  UNL     1      83.111 -28.355   2.154  1.00  0.00     0.177 HD
BRANCH  25  27
HETATM   27  C7  UNL     1      84.902 -28.698   3.245  1.00  0.00     0.165 C 
BRANCH  27  28
HETATM   28  C8  UNL     1      85.547 -27.337   3.196  1.00  0.00     0.249 C 
BRANCH  28  29
HETATM   29  N7  UNL     1      86.617 -27.239   2.259  1.00  0.00    -0.078 N 
ATOM     30  H73 UNL     1      86.753 -28.127   1.775  1.00  0.00     0.274 HD
ATOM     31  H72 UNL     1      86.350 -26.651   1.469  1.00  0.00     0.274 HD
ATOM     32  H71 UNL     1      87.494 -26.916   2.666  1.00  0.00     0.274 HD
ENDBRANCH  28  29
ENDBRANCH  27  28
ENDBRANCH  25  27
ENDBRANCH   7  25
TORSDOF 12
ENDMDL
MODEL 5
REMARK VINA RESULT: -6.554691329      2.161      3.204
REMARK  12 active torsions:
REMARK  status: ('A' for Active; 'I' for Inactive)
REMARK    1  A    between atoms: N1_1  and  C1_4 
REMARK    2  A    between atoms: C2_7  and  C3_8 
REMARK    3  A    between atoms: C3_8  and  N3_9 
REMARK    4  A    between atoms: N3_9  and  C4_10 
REMARK    5  A    between atoms: N3_9  and  S1_14 
REMARK    6  A    between atoms: C4_10  and  C5_11 
REMARK    7  A    between atoms: C5_11  and  O1_12 
REMARK    8  A    between atoms: S1_14  and  N4_15 
REMARK    9  A    between atoms: C6_22  and  N6_23 
REMARK   10  A    between atoms: N6_23  and  C7_25 
REMARK   11  A    between atoms: C7_25  and  C8_26 
REMARK   12  A    between atoms: C8_26  and  N7_27 
ROOT
HETATM    1  C1  UNL     1      84.501 -31.225  -0.502  1.00  0.00     0.691 A 
HETATM    2  N2  UNL     1      84.626 -30.557   0.672  1.00  0.00    -0.178 N 
ATOM      3  H2  UNL     1      84.028 -30.799   1.462  1.00  0.00     0.185 HD
HETATM    4  C2  UNL     1      85.537 -29.575   0.792  1.00  0.00     0.127 A 
HETATM    5  N5  UNL     1      86.296 -29.298  -0.283  1.00  0.00    -0.178 N 
ATOM      6  H5  UNL     1      86.992 -28.555  -0.211  1.00  0.00     0.185 HD
HETATM    7  C6  UNL     1      86.176 -29.957  -1.452  1.00  0.00     0.694 A 
HETATM    8  N8  UNL     1      85.266 -30.940  -1.576  1.00  0.00    -0.023 N 
ATOM      9  H8  UNL     1      85.159 -31.452  -2.452  1.00  0.00     0.203 HD
ENDROOT
BRANCH   4  10
HETATM   10  C3  UNL     1      85.742 -28.793   2.038  1.00  0.00     0.186 C 
BRANCH  10  11
HETATM   11  N3  UNL     1      84.652 -28.887   2.948  1.00  0.00    -0.185 NA
BRANCH  11  12
HETATM   12  C4  UNL     1      84.601 -27.671   3.739  1.00  0.00     0.135 C 
BRANCH  12  13
HETATM   13  C5  UNL     1      85.980 -27.041   3.859  1.00  0.00     0.179 C 
BRANCH  13  14
HETATM   14  O1  UNL     1      86.452 -27.199   5.169  1.00  0.00    -0.400 OA
ATOM     15  H1  UNL     1      85.737 -27.472   5.732  1.00  0.00     0.209 HD
ENDBRANCH  13  14
ENDBRANCH  12  13
ENDBRANCH  11  12
BRANCH  11  16
HETATM   16  S1  UNL     1      84.695 -30.232   3.988  1.00  0.00     0.297 S 
HETATM   17  O2  UNL     1      84.877 -31.537   3.277  1.00  0.00    -0.189 OA
HETATM   18  O3  UNL     1      83.381 -30.332   4.743  1.00  0.00    -0.189 OA
BRANCH  16  19
HETATM   19  N4  UNL     1      85.939 -30.086   5.171  1.00  0.00    -0.316 N 
ATOM     20  H42 UNL     1      86.648 -29.353   5.149  1.00  0.00     0.170 HD
ATOM     21  H41 UNL     1      85.874 -30.816   5.881  1.00  0.00     0.170 HD
ENDBRANCH  16  19
ENDBRANCH  11  16
ENDBRANCH  10  11
ENDBRANCH   4  10
BRANCH   1  22
HETATM   22  N1  UNL     1      83.618 -32.165  -0.595  1.00  0.00    -0.234 N 
ATOM     23  H12 UNL     1      83.369 -32.691   0.243  1.00  0.00     0.174 HD
ATOM     24  H11 UNL     1      83.194 -32.356  -1.503  1.00  0.00     0.174 HD
ENDBRANCH   1  22
BRANCH   7  25
HETATM   25  N6  UNL     1      86.950 -29.632  -2.458  1.00  0.00    -0.224 N 
ATOM     26  H6  UNL     1      86.687 -28.855  -3.064  1.00  0.00     0.177 HD
BRANCH  25  27
HETATM   27  C7  UNL     1      88.156 -30.350  -2.716  1.00  0.00     0.165 C 
BRANCH  27  28
HETATM   28  C8  UNL     1      88.038 -31.831  -2.463  1.00  0.00     0.249 C 
BRANCH  28  29
HETATM   29  N7  UNL     1      87.627 -32.581  -3.604  1.00  0.00    -0.078 N 
ATOM     30  H73 UNL     1      86.635 -32.812  -3.543  1.00  0.00     0.274 HD
ATOM     31  H72 UNL     1      87.616 -31.992  -4.436  1.00  0.00     0.274 HD
ATOM     32  H71 UNL     1      88.181 -33.422  -3.767  1.00  0.00     0.274 HD
ENDBRANCH  28  29
ENDBRANCH  27  28
ENDBRANCH  25  27
ENDBRANCH   7  25
TORSDOF 12
ENDMDL
