MODEL 1
REMARK VINA RESULT: -6.326008366      0.000      0.000
REMARK  11 active torsions:
REMARK  status: ('A' for Active; 'I' for Inactive)
REMARK    1  A    between atoms: C3_3  and  O1_4 
REMARK    2  A    between atoms: C4_6  and  C5_7 
REMARK    3  A    between atoms: C5_7  and  N1_8 
REMARK    4  A    between atoms: N1_8  and  C6_10 
REMARK    5  A    between atoms: C6_10  and  C7_11 
REMARK    6  A    between atoms: C7_11  and  N2_12 
REMARK    7  A    between atoms: N2_12  and  C8_14 
REMARK    8  A    between atoms: C8_14  and  C9_15 
REMARK    9  A    between atoms: C9_15  and  N3_16 
REMARK   10  A    between atoms: C10_20  and  O2_21 
REMARK   11  A    between atoms: C13_26  and  O4_27 
ROOT
HETATM    1  C1  UNL     1      84.946 -30.850   3.933  1.00  0.00     0.015 C 
HETATM    2  C2  UNL     1      84.364 -30.010   2.775  1.00  0.00     0.042 C 
HETATM    3  C3  UNL     1      85.449 -30.002   1.763  1.00  0.00     0.132 C 
HETATM    4  C4  UNL     1      85.113 -29.715   0.349  1.00  0.00     0.064 C 
HETATM    5  C10 UNL     1      84.700 -30.971  -0.434  1.00  0.00     0.158 C 
HETATM    6  C11 UNL     1      83.837 -31.767   0.463  1.00  0.00     0.182 A 
HETATM    7  O3  UNL     1      82.497 -31.986   0.353  1.00  0.00    -0.370 OA
HETATM    8  C12 UNL     1      82.785 -30.773   0.962  1.00  0.00     0.182 A 
HETATM    9  C13 UNL     1      83.058 -30.605   2.409  1.00  0.00     0.156 C 
ENDROOT
BRANCH   4  10
HETATM   10  C5  UNL     1      86.227 -28.968  -0.380  1.00  0.00     0.124 C 
BRANCH  10  11
HETATM   11  N1  UNL     1      86.002 -28.840  -1.780  1.00  0.00    -0.416 N 
ATOM     12  H1  UNL     1      85.084 -28.984  -2.202  1.00  0.00     0.153 HD
BRANCH  11  13
HETATM   13  C6  UNL     1      87.173 -28.488  -2.566  1.00  0.00     0.158 C 
BRANCH  13  14
HETATM   14  C7  UNL     1      88.196 -29.545  -2.624  1.00  0.00     0.079 C 
BRANCH  14  15
HETATM   15  N2  UNL     1      87.768 -30.792  -3.046  1.00  0.00    -0.379 N 
ATOM     16  H2  UNL     1      87.025 -30.796  -3.745  1.00  0.00     0.164 HD
BRANCH  15  17
HETATM   17  C8  UNL     1      88.218 -32.023  -2.643  1.00  0.00     0.087 C 
BRANCH  17  18
HETATM   18  C9  UNL     1      87.743 -33.289  -3.268  1.00  0.00     0.274 C 
BRANCH  18  19
HETATM   19  N3  UNL     1      88.814 -34.309  -3.066  1.00  0.00    -0.075 N 
ATOM     20  H33 UNL     1      89.636 -34.145  -3.648  1.00  0.00     0.274 HD
ATOM     21  H32 UNL     1      89.276 -34.229  -2.160  1.00  0.00     0.274 HD
ATOM     22  H31 UNL     1      88.390 -35.224  -3.220  1.00  0.00     0.274 HD
ENDBRANCH  18  19
ENDBRANCH  17  18
ENDBRANCH  15  17
ENDBRANCH  14  15
ENDBRANCH  13  14
ENDBRANCH  11  13
ENDBRANCH  10  11
ENDBRANCH   4  10
BRANCH   3  23
HETATM   23  O1  UNL     1      86.258 -31.171   1.862  1.00  0.00    -0.395 OA
ATOM     24  H1  UNL     1      87.167 -30.948   2.024  1.00  0.00     0.210 HD
ENDBRANCH   3  23
BRANCH   5  25
HETATM   25  O2  UNL     1      85.850 -31.717  -0.678  1.00  0.00    -0.392 OA
ATOM     26  H2  UNL     1      85.636 -32.633  -0.540  1.00  0.00     0.210 HD
ENDBRANCH   5  25
BRANCH   9  27
HETATM   27  O4  UNL     1      81.987 -29.831   2.926  1.00  0.00    -0.392 OA
ATOM     28  H4  UNL     1      81.739 -30.129   3.793  1.00  0.00     0.210 HD
ENDBRANCH   9  27
TORSDOF 11
ENDMDL
MODEL 2
REMARK VINA RESULT: -6.261710631      1.892      3.464
REMARK  11 active torsions:
REMARK  status: ('A' for Active; 'I' for Inactive)
REMARK    1  A    between atoms: C3_3  and  O1_4 
REMARK    2  A    between atoms: C4_6  and  C5_7 
REMARK    3  A    between atoms: C5_7  and  N1_8 
REMARK    4  A    between atoms: N1_8  and  C6_10 
REMARK    5  A    between atoms: C6_10  and  C7_11 
REMARK    6  A    between atoms: C7_11  and  N2_12 
REMARK    7  A    between atoms: N2_12  and  C8_14 
REMARK    8  A    between atoms: C8_14  and  C9_15 
REMARK    9  A    between atoms: C9_15  and  N3_16 
REMARK   10  A    between atoms: C10_20  and  O2_21 
REMARK   11  A    between atoms: C13_26  and  O4_27 
ROOT
HETATM    1  C1  UNL     1      81.656 -30.111   1.062  1.00  0.00     0.015 C 
HETATM    2  C2  UNL     1      82.806 -30.824   1.808  1.00  0.00     0.042 C 
HETATM    3  C3  UNL     1      83.945 -30.745   0.861  1.00  0.00     0.132 C 
HETATM    4  C4  UNL     1      85.325 -30.886   1.380  1.00  0.00     0.064 C 
HETATM    5  C10 UNL     1      85.922 -29.552   1.857  1.00  0.00     0.158 C 
HETATM    6  C11 UNL     1      84.849 -28.838   2.579  1.00  0.00     0.182 A 
HETATM    7  O3  UNL     1      84.764 -28.592   3.916  1.00  0.00    -0.370 OA
HETATM    8  C12 UNL     1      84.318 -29.863   3.584  1.00  0.00     0.182 A 
HETATM    9  C13 UNL     1      82.941 -30.178   3.134  1.00  0.00     0.156 C 
ENDROOT
BRANCH   4  10
HETATM   10  C5  UNL     1      86.260 -31.571   0.388  1.00  0.00     0.124 C 
BRANCH  10  11
HETATM   11  N1  UNL     1      86.023 -31.198  -0.966  1.00  0.00    -0.416 N 
ATOM     12  H1  UNL     1      85.295 -30.534  -1.231  1.00  0.00     0.153 HD
BRANCH  11  13
HETATM   13  C6  UNL     1      86.892 -31.831  -1.944  1.00  0.00     0.158 C 
BRANCH  13  14
HETATM   14  C7  UNL     1      88.059 -31.019  -2.325  1.00  0.00     0.079 C 
BRANCH  14  15
HETATM   15  N2  UNL     1      87.794 -29.846  -3.011  1.00  0.00    -0.379 N 
ATOM     16  H2  UNL     1      87.484 -29.955  -3.977  1.00  0.00     0.164 HD
BRANCH  15  17
HETATM   17  C8  UNL     1      87.896 -28.557  -2.557  1.00  0.00     0.087 C 
BRANCH  17  18
HETATM   18  C9  UNL     1      86.770 -27.587  -2.651  1.00  0.00     0.274 C 
BRANCH  18  19
HETATM   19  N3  UNL     1      85.536 -28.301  -2.212  1.00  0.00    -0.075 N 
ATOM     20  H33 UNL     1      84.943 -28.591  -2.990  1.00  0.00     0.274 HD
ATOM     21  H32 UNL     1      85.724 -29.230  -1.837  1.00  0.00     0.274 HD
ATOM     22  H31 UNL     1      85.055 -27.692  -1.549  1.00  0.00     0.274 HD
ENDBRANCH  18  19
ENDBRANCH  17  18
ENDBRANCH  15  17
ENDBRANCH  14  15
ENDBRANCH  13  14
ENDBRANCH  11  13
ENDBRANCH  10  11
ENDBRANCH   4  10
BRANCH   3  23
HETATM   23  O1  UNL     1      83.837 -29.603   0.016  1.00  0.00    -0.395 OA
ATOM     24  H1  UNL     1      83.741 -29.856  -0.895  1.00  0.00     0.210 HD
ENDBRANCH   3  23
BRANCH   5  25
HETATM   25  O2  UNL     1      86.239 -28.801   0.729  1.00  0.00    -0.392 OA
ATOM     26  H2  UNL     1      85.468 -28.769   0.175  1.00  0.00     0.210 HD
ENDBRANCH   5  25
BRANCH   9  27
HETATM   27  O4  UNL     1      82.368 -30.986   4.151  1.00  0.00    -0.392 OA
ATOM     28  H4  UNL     1      82.783 -31.840   4.181  1.00  0.00     0.210 HD
ENDBRANCH   9  27
TORSDOF 11
ENDMDL
MODEL 3
REMARK VINA RESULT: -6.107233995      2.941      6.179
REMARK  11 active torsions:
REMARK  status: ('A' for Active; 'I' for Inactive)
REMARK    1  A    between atoms: C3_3  and  O1_4 
REMARK    2  A    between atoms: C4_6  and  C5_7 
REMARK    3  A    between atoms: C5_7  and  N1_8 
REMARK    4  A    between atoms: N1_8  and  C6_10 
REMARK    5  A    between atoms: C6_10  and  C7_11 
REMARK    6  A    between atoms: C7_11  and  N2_12 
REMARK    7  A    between atoms: N2_12  and  C8_14 
REMARK    8  A    between atoms: C8_14  and  C9_15 
REMARK    9  A    between atoms: C9_15  and  N3_16 
REMARK   10  A    between atoms: C10_20  and  O2_21 
REMARK   11  A    between atoms: C13_26  and  O4_27 
ROOT
HETATM    1  C1  UNL     1      86.449 -27.502  -2.775  1.00  0.00     0.015 C 
HETATM    2  C2  UNL     1      87.240 -28.403  -1.802  1.00  0.00     0.042 C 
HETATM    3  C3  UNL     1      86.188 -29.036  -0.970  1.00  0.00     0.132 C 
HETATM    4  C4  UNL     1      86.495 -30.298  -0.257  1.00  0.00     0.064 C 
HETATM    5  C10 UNL     1      86.247 -31.546  -1.119  1.00  0.00     0.158 C 
HETATM    6  C11 UNL     1      86.745 -31.235  -2.474  1.00  0.00     0.182 A 
HETATM    7  O3  UNL     1      87.839 -31.752  -3.100  1.00  0.00    -0.370 OA
HETATM    8  C12 UNL     1      88.165 -30.708  -2.247  1.00  0.00     0.182 A 
HETATM    9  C13 UNL     1      88.117 -29.274  -2.620  1.00  0.00     0.156 C 
ENDROOT
BRANCH   4  10
HETATM   10  C5  UNL     1      85.765 -30.412   1.078  1.00  0.00     0.124 C 
BRANCH  10  11
HETATM   11  N1  UNL     1      84.513 -29.734   1.101  1.00  0.00    -0.416 N 
ATOM     12  H1  UNL     1      84.191 -29.156   0.324  1.00  0.00     0.153 HD
BRANCH  11  13
HETATM   13  C6  UNL     1      83.728 -29.922   2.309  1.00  0.00     0.158 C 
BRANCH  13  14
HETATM   14  C7  UNL     1      84.533 -30.177   3.514  1.00  0.00     0.079 C 
BRANCH  14  15
HETATM   15  N2  UNL     1      84.881 -29.068   4.267  1.00  0.00    -0.379 N 
ATOM     16  H2  UNL     1      84.281 -28.866   5.067  1.00  0.00     0.164 HD
BRANCH  15  17
HETATM   17  C8  UNL     1      85.931 -28.208   4.074  1.00  0.00     0.087 C 
BRANCH  17  18
HETATM   18  C9  UNL     1      85.824 -27.000   3.210  1.00  0.00     0.274 C 
BRANCH  18  19
HETATM   19  N3  UNL     1      86.823 -27.153   2.113  1.00  0.00    -0.075 N 
ATOM     20  H33 UNL     1      87.609 -26.509   2.195  1.00  0.00     0.274 HD
ATOM     21  H32 UNL     1      87.356 -28.020   2.176  1.00  0.00     0.274 HD
ATOM     22  H31 UNL     1      86.318 -27.058   1.231  1.00  0.00     0.274 HD
ENDBRANCH  18  19
ENDBRANCH  17  18
ENDBRANCH  15  17
ENDBRANCH  14  15
ENDBRANCH  13  14
ENDBRANCH  11  13
ENDBRANCH  10  11
ENDBRANCH   4  10
BRANCH   3  23
HETATM   23  O1  UNL     1      84.960 -29.146  -1.683  1.00  0.00    -0.395 OA
ATOM     24  H1  UNL     1      84.746 -30.053  -1.865  1.00  0.00     0.210 HD
ENDBRANCH   3  23
BRANCH   5  25
HETATM   25  O2  UNL     1      84.870 -31.732  -1.212  1.00  0.00    -0.392 OA
ATOM     26  H2  UNL     1      84.619 -32.372  -0.557  1.00  0.00     0.210 HD
ENDBRANCH   5  25
BRANCH   9  27
HETATM   27  O4  UNL     1      89.459 -28.813  -2.590  1.00  0.00    -0.392 OA
ATOM     28  H4  UNL     1      89.759 -28.701  -1.696  1.00  0.00     0.210 HD
ENDBRANCH   9  27
TORSDOF 11
ENDMDL
MODEL 4
REMARK VINA RESULT: -5.957471709      1.556      2.828
REMARK  11 active torsions:
REMARK  status: ('A' for Active; 'I' for Inactive)
REMARK    1  A    between atoms: C3_3  and  O1_4 
REMARK    2  A    between atoms: C4_6  and  C5_7 
REMARK    3  A    between atoms: C5_7  and  N1_8 
REMARK    4  A    between atoms: N1_8  and  C6_10 
REMARK    5  A    between atoms: C6_10  and  C7_11 
REMARK    6  A    between atoms: C7_11  and  N2_12 
REMARK    7  A    between atoms: N2_12  and  C8_14 
REMARK    8  A    between atoms: C8_14  and  C9_15 
REMARK    9  A    between atoms: C9_15  and  N3_16 
REMARK   10  A    between atoms: C10_20  and  O2_21 
REMARK   11  A    between atoms: C13_26  and  O4_27 
ROOT
HETATM    1  C1  UNL     1      85.321 -30.654   4.188  1.00  0.00     0.015 C 
HETATM    2  C2  UNL     1      85.468 -29.945   2.824  1.00  0.00     0.042 C 
HETATM    3  C3  UNL     1      85.767 -31.050   1.880  1.00  0.00     0.132 C 
HETATM    4  C4  UNL     1      85.509 -30.853   0.434  1.00  0.00     0.064 C 
HETATM    5  C10 UNL     1      84.068 -31.202   0.032  1.00  0.00     0.158 C 
HETATM    6  C11 UNL     1      83.188 -30.673   1.095  1.00  0.00     0.182 A 
HETATM    7  O3  UNL     1      82.323 -29.624   1.018  1.00  0.00    -0.370 OA
HETATM    8  C12 UNL     1      83.625 -29.215   1.263  1.00  0.00     0.182 A 
HETATM    9  C13 UNL     1      84.242 -29.142   2.609  1.00  0.00     0.156 C 
ENDROOT
BRANCH   4  10
HETATM   10  C5  UNL     1      86.509 -31.595  -0.448  1.00  0.00     0.124 C 
BRANCH  10  11
HETATM   11  N1  UNL     1      86.156 -31.598  -1.827  1.00  0.00    -0.416 N 
ATOM     12  H1  UNL     1      85.210 -31.396  -2.150  1.00  0.00     0.153 HD
BRANCH  11  13
HETATM   13  C6  UNL     1      87.240 -31.912  -2.744  1.00  0.00     0.158 C 
BRANCH  13  14
HETATM   14  C7  UNL     1      88.364 -30.964  -2.689  1.00  0.00     0.079 C 
BRANCH  14  15
HETATM   15  N2  UNL     1      88.110 -29.681  -3.144  1.00  0.00    -0.379 N 
ATOM     16  H2  UNL     1      88.081 -29.566  -4.158  1.00  0.00     0.164 HD
BRANCH  15  17
HETATM   17  C8  UNL     1      87.892 -28.548  -2.405  1.00  0.00     0.087 C 
BRANCH  17  18
HETATM   18  C9  UNL     1      86.740 -27.639  -2.661  1.00  0.00     0.274 C 
BRANCH  18  19
HETATM   19  N3  UNL     1      85.505 -28.362  -2.240  1.00  0.00    -0.075 N 
ATOM     20  H33 UNL     1      85.589 -29.376  -2.320  1.00  0.00     0.274 HD
ATOM     21  H32 UNL     1      85.344 -28.324  -1.233  1.00  0.00     0.274 HD
ATOM     22  H31 UNL     1      84.731 -27.981  -2.784  1.00  0.00     0.274 HD
ENDBRANCH  18  19
ENDBRANCH  17  18
ENDBRANCH  15  17
ENDBRANCH  14  15
ENDBRANCH  13  14
ENDBRANCH  11  13
ENDBRANCH  10  11
ENDBRANCH   4  10
BRANCH   3  23
HETATM   23  O1  UNL     1      85.206 -32.280   2.329  1.00  0.00    -0.395 OA
ATOM     24  H1  UNL     1      84.375 -32.456   1.904  1.00  0.00     0.210 HD
ENDBRANCH   3  23
BRANCH   5  25
HETATM   25  O2  UNL     1      83.947 -32.588   0.040  1.00  0.00    -0.392 OA
ATOM     26  H2  UNL     1      83.054 -32.800   0.285  1.00  0.00     0.210 HD
ENDBRANCH   5  25
BRANCH   9  27
HETATM   27  O4  UNL     1      84.488 -27.766   2.855  1.00  0.00    -0.392 OA
ATOM     28  H4  UNL     1      84.963 -27.371   2.133  1.00  0.00     0.210 HD
ENDBRANCH   9  27
TORSDOF 11
ENDMDL
MODEL 5
REMARK VINA RESULT: -5.925068710      1.639      2.641
REMARK  11 active torsions:
REMARK  status: ('A' for Active; 'I' for Inactive)
REMARK    1  A    between atoms: C3_3  and  O1_4 
REMARK    2  A    between atoms: C4_6  and  C5_7 
REMARK    3  A    between atoms: C5_7  and  N1_8 
REMARK    4  A    between atoms: N1_8  and  C6_10 
REMARK    5  A    between atoms: C6_10  and  C7_11 
REMARK    6  A    between atoms: C7_11  and  N2_12 
REMARK    7  A    between atoms: N2_12  and  C8_14 
REMARK    8  A    between atoms: C8_14  and  C9_15 
REMARK    9  A    between atoms: C9_15  and  N3_16 
REMARK   10  A    between atoms: C10_20  and  O2_21 
REMARK   11  A    between atoms: C13_26  and  O4_27 
ROOT
HETATM    1  C1  UNL     1      81.390 -29.824   1.524  1.00  0.00     0.015 C 
HETATM    2  C2  UNL     1      82.564 -30.743   1.925  1.00  0.00     0.042 C 
HETATM    3  C3  UNL     1      83.620 -30.422   0.933  1.00  0.00     0.132 C 
HETATM    4  C4  UNL     1      85.032 -30.733   1.257  1.00  0.00     0.064 C 
HETATM    5  C10 UNL     1      85.730 -29.604   2.030  1.00  0.00     0.158 C 
HETATM    6  C11 UNL     1      84.759 -29.102   3.023  1.00  0.00     0.182 A 
HETATM    7  O3  UNL     1      84.800 -29.245   4.377  1.00  0.00    -0.370 OA
HETATM    8  C12 UNL     1      84.268 -30.360   3.746  1.00  0.00     0.182 A 
HETATM    9  C13 UNL     1      82.844 -30.505   3.360  1.00  0.00     0.156 C 
ENDROOT
BRANCH   4  10
HETATM   10  C5  UNL     1      85.845 -31.127   0.027  1.00  0.00     0.124 C 
BRANCH  10  11
HETATM   11  N1  UNL     1      85.257 -30.705  -1.200  1.00  0.00    -0.416 N 
ATOM     12  H1  UNL     1      84.441 -31.167  -1.603  1.00  0.00     0.153 HD
BRANCH  11  13
HETATM   13  C6  UNL     1      85.904 -29.571  -1.839  1.00  0.00     0.158 C 
BRANCH  13  14
HETATM   14  C7  UNL     1      87.365 -29.700  -1.953  1.00  0.00     0.079 C 
BRANCH  14  15
HETATM   15  N2  UNL     1      87.832 -30.644  -2.852  1.00  0.00    -0.379 N 
ATOM     16  H2  UNL     1      87.884 -30.344  -3.826  1.00  0.00     0.164 HD
BRANCH  15  17
HETATM   17  C8  UNL     1      88.233 -31.930  -2.599  1.00  0.00     0.087 C 
BRANCH  17  18
HETATM   18  C9  UNL     1      87.675 -33.099  -3.335  1.00  0.00     0.274 C 
BRANCH  18  19
HETATM   19  N3  UNL     1      88.578 -34.257  -3.071  1.00  0.00    -0.075 N 
ATOM     20  H33 UNL     1      88.107 -35.031  -2.601  1.00  0.00     0.274 HD
ATOM     21  H32 UNL     1      88.843 -34.759  -3.918  1.00  0.00     0.274 HD
ATOM     22  H31 UNL     1      89.379 -33.901  -2.549  1.00  0.00     0.274 HD
ENDBRANCH  18  19
ENDBRANCH  17  18
ENDBRANCH  15  17
ENDBRANCH  14  15
ENDBRANCH  13  14
ENDBRANCH  11  13
ENDBRANCH  10  11
ENDBRANCH   4  10
BRANCH   3  23
HETATM   23  O1  UNL     1      83.495 -29.085   0.458  1.00  0.00    -0.395 OA
ATOM     24  H1  UNL     1      84.339 -28.652   0.421  1.00  0.00     0.210 HD
ENDBRANCH   3  23
BRANCH   5  25
HETATM   25  O2  UNL     1      85.984 -28.569   1.134  1.00  0.00    -0.392 OA
ATOM     26  H2  UNL     1      85.927 -28.925   0.255  1.00  0.00     0.210 HD
ENDBRANCH   5  25
BRANCH   9  27
HETATM   27  O4  UNL     1      82.324 -31.556   4.159  1.00  0.00    -0.392 OA
ATOM     28  H4  UNL     1      81.599 -31.251   4.692  1.00  0.00     0.210 HD
ENDBRANCH   9  27
TORSDOF 11
ENDMDL
