MODEL 1
REMARK VINA RESULT: -7.861617305      0.000      0.000
REMARK  9 active torsions:
REMARK  status: ('A' for Active; 'I' for Inactive)
REMARK    1  A    between atoms: N1_1  and  C1_5 
REMARK    2  A    between atoms: C1_5  and  C2_6 
REMARK    3  A    between atoms: C2_6  and  N2_7 
REMARK       I    between atoms: N2_7  and  C3_9 
REMARK    4  A    between atoms: C3_9  and  C4_11 
REMARK    5  A    between atoms: C4_11  and  C5_12 
REMARK    6  A    between atoms: C5_12  and  N3_13 
REMARK       I    between atoms: N3_13  and  C6_15 
REMARK    7  A    between atoms: C6_15  and  C7_17 
REMARK    8  A    between atoms: C9_19  and  C10_20 
REMARK       I    between atoms: C10_20  and  N4_22 
REMARK    9  A    between atoms: N4_22  and  N5_24 
ROOT
HETATM    1  N3  UNL     1      52.384  14.288  81.539  1.00  0.00    -0.355 N 
ATOM      2  H3  UNL     1      53.195  13.696  81.361  1.00  0.00     0.162 HD
HETATM    3  C6  UNL     1      52.502  15.397  82.410  1.00  0.00     0.269 C 
HETATM    4  O2  UNL     1      51.511  16.132  82.635  1.00  0.00    -0.266 OA
ENDROOT
BRANCH   3   5
HETATM    5  C7  UNL     1      53.794  15.679  83.047  1.00  0.00     0.118 A 
HETATM    6  C8  UNL     1      55.055  15.485  82.513  1.00  0.00     0.073 A 
HETATM    7  C9  UNL     1      56.014  15.874  83.425  1.00  0.00     0.119 A 
HETATM    8  N6  UNL     1      55.325  16.298  84.499  1.00  0.00    -0.295 N 
HETATM    9  N7  UNL     1      54.014  16.183  84.275  1.00  0.00    -0.295 N 
ATOM     10  H6  UNL     1      55.742  16.656  85.358  1.00  0.00     0.187 HD
ATOM     11  H7  UNL     1      53.284  16.441  84.939  1.00  0.00     0.187 HD
BRANCH   7  12
HETATM   12  C10 UNL     1      57.461  15.839  83.276  1.00  0.00     0.287 C 
HETATM   13  O3  UNL     1      58.205  16.587  83.959  1.00  0.00    -0.264 OA
HETATM   14  N4  UNL     1      58.080  14.963  82.357  1.00  0.00    -0.271 N 
ATOM     15  H4  UNL     1      57.481  14.354  81.800  1.00  0.00     0.189 HD
BRANCH  14  16
HETATM   16  N5  UNL     1      59.450  14.878  82.165  1.00  0.00    -0.342 N 
ATOM     17  H52 UNL     1      59.843  15.427  81.401  1.00  0.00     0.176 HD
ATOM     18  H51 UNL     1      60.074  14.308  82.737  1.00  0.00     0.176 HD
ENDBRANCH  14  16
ENDBRANCH   7  12
ENDBRANCH   3   5
BRANCH   1  19
HETATM   19  C5  UNL     1      51.131  13.990  80.904  1.00  0.00     0.132 C 
BRANCH  19  20
HETATM   20  C4  UNL     1      50.327  13.022  81.749  1.00  0.00     0.122 C 
BRANCH  20  21
HETATM   21  C3  UNL     1      50.528  11.618  81.281  1.00  0.00     0.219 C 
HETATM   22  N2  UNL     1      50.904  11.329  79.947  1.00  0.00    -0.359 N 
ATOM     23  H2  UNL     1      51.036  12.110  79.304  1.00  0.00     0.162 HD
HETATM   24  O1  UNL     1      50.367  10.647  82.063  1.00  0.00    -0.274 OA
BRANCH  22  25
HETATM   25  C2  UNL     1      51.111   9.998  79.446  1.00  0.00     0.150 C 
BRANCH  25  26
HETATM   26  C1  UNL     1      52.417   9.771  78.762  1.00  0.00     0.249 C 
BRANCH  26  27
HETATM   27  N1  UNL     1      53.445  10.387  79.614  1.00  0.00    -0.078 N 
ATOM     28  H13 UNL     1      53.833  11.246  79.223  1.00  0.00     0.274 HD
ATOM     29  H12 UNL     1      53.071  10.796  80.470  1.00  0.00     0.274 HD
ATOM     30  H11 UNL     1      54.148   9.668  79.784  1.00  0.00     0.274 HD
ENDBRANCH  26  27
ENDBRANCH  25  26
ENDBRANCH  22  25
ENDBRANCH  20  21
ENDBRANCH  19  20
ENDBRANCH   1  19
TORSDOF 9
ENDMDL
MODEL 2
REMARK VINA RESULT: -7.539732978      1.291      1.487
REMARK  9 active torsions:
REMARK  status: ('A' for Active; 'I' for Inactive)
REMARK    1  A    between atoms: N1_1  and  C1_5 
REMARK    2  A    between atoms: C1_5  and  C2_6 
REMARK    3  A    between atoms: C2_6  and  N2_7 
REMARK       I    between atoms: N2_7  and  C3_9 
REMARK    4  A    between atoms: C3_9  and  C4_11 
REMARK    5  A    between atoms: C4_11  and  C5_12 
REMARK    6  A    between atoms: C5_12  and  N3_13 
REMARK       I    between atoms: N3_13  and  C6_15 
REMARK    7  A    between atoms: C6_15  and  C7_17 
REMARK    8  A    between atoms: C9_19  and  C10_20 
REMARK       I    between atoms: C10_20  and  N4_22 
REMARK    9  A    between atoms: N4_22  and  N5_24 
ROOT
HETATM    1  N3  UNL     1      53.405  14.718  81.422  1.00  0.00    -0.355 N 
ATOM      2  H3  UNL     1      53.843  13.808  81.567  1.00  0.00     0.162 HD
HETATM    3  C6  UNL     1      53.992  15.877  81.983  1.00  0.00     0.269 C 
HETATM    4  O2  UNL     1      53.462  17.000  81.810  1.00  0.00    -0.266 OA
ENDROOT
BRANCH   3   5
HETATM    5  C7  UNL     1      55.227  15.753  82.766  1.00  0.00     0.118 A 
HETATM    6  C8  UNL     1      56.415  15.161  82.376  1.00  0.00     0.073 A 
HETATM    7  C9  UNL     1      57.338  15.248  83.397  1.00  0.00     0.119 A 
HETATM    8  N6  UNL     1      56.701  15.890  84.392  1.00  0.00    -0.295 N 
HETATM    9  N7  UNL     1      55.455  16.187  84.019  1.00  0.00    -0.295 N 
ATOM     10  H6  UNL     1      57.110  16.116  85.299  1.00  0.00     0.187 HD
ATOM     11  H7  UNL     1      54.772  16.675  84.600  1.00  0.00     0.187 HD
BRANCH   7  12
HETATM   12  C10 UNL     1      58.708  14.757  83.412  1.00  0.00     0.287 C 
HETATM   13  O3  UNL     1      59.239  14.338  84.472  1.00  0.00    -0.264 OA
HETATM   14  N4  UNL     1      59.489  14.734  82.236  1.00  0.00    -0.271 N 
ATOM     15  H4  UNL     1      59.064  15.073  81.373  1.00  0.00     0.189 HD
BRANCH  14  16
HETATM   16  N5  UNL     1      60.798  14.280  82.180  1.00  0.00    -0.342 N 
ATOM     17  H52 UNL     1      61.526  14.985  82.064  1.00  0.00     0.176 HD
ATOM     18  H51 UNL     1      61.066  13.298  82.246  1.00  0.00     0.176 HD
ENDBRANCH  14  16
ENDBRANCH   7  12
ENDBRANCH   3   5
BRANCH   1  19
HETATM   19  C5  UNL     1      52.196  14.813  80.651  1.00  0.00     0.132 C 
BRANCH  19  20
HETATM   20  C4  UNL     1      51.120  13.925  81.244  1.00  0.00     0.122 C 
BRANCH  20  21
HETATM   21  C3  UNL     1      51.468  12.484  81.068  1.00  0.00     0.219 C 
HETATM   22  N2  UNL     1      50.876  11.697  80.051  1.00  0.00    -0.359 N 
ATOM     23  H2  UNL     1      50.197  12.142  79.433  1.00  0.00     0.162 HD
HETATM   24  O1  UNL     1      52.303  11.924  81.824  1.00  0.00    -0.274 OA
BRANCH  22  25
HETATM   25  C2  UNL     1      51.176  10.308  79.838  1.00  0.00     0.150 C 
BRANCH  25  26
HETATM   26  C1  UNL     1      52.221  10.033  78.811  1.00  0.00     0.249 C 
BRANCH  26  27
HETATM   27  N1  UNL     1      53.519  10.229  79.474  1.00  0.00    -0.078 N 
ATOM     28  H13 UNL     1      53.505   9.995  80.467  1.00  0.00     0.274 HD
ATOM     29  H12 UNL     1      54.224   9.548  79.194  1.00  0.00     0.274 HD
ATOM     30  H11 UNL     1      53.793  11.194  79.291  1.00  0.00     0.274 HD
ENDBRANCH  26  27
ENDBRANCH  25  26
ENDBRANCH  22  25
ENDBRANCH  20  21
ENDBRANCH  19  20
ENDBRANCH   1  19
TORSDOF 9
ENDMDL
MODEL 3
REMARK VINA RESULT: -7.336485846      3.162      7.660
REMARK  9 active torsions:
REMARK  status: ('A' for Active; 'I' for Inactive)
REMARK    1  A    between atoms: N1_1  and  C1_5 
REMARK    2  A    between atoms: C1_5  and  C2_6 
REMARK    3  A    between atoms: C2_6  and  N2_7 
REMARK       I    between atoms: N2_7  and  C3_9 
REMARK    4  A    between atoms: C3_9  and  C4_11 
REMARK    5  A    between atoms: C4_11  and  C5_12 
REMARK    6  A    between atoms: C5_12  and  N3_13 
REMARK       I    between atoms: N3_13  and  C6_15 
REMARK    7  A    between atoms: C6_15  and  C7_17 
REMARK    8  A    between atoms: C9_19  and  C10_20 
REMARK       I    between atoms: C10_20  and  N4_22 
REMARK    9  A    between atoms: N4_22  and  N5_24 
ROOT
HETATM    1  N3  UNL     1      57.869  14.328  83.341  1.00  0.00    -0.355 N 
ATOM      2  H3  UNL     1      57.378  13.486  83.041  1.00  0.00     0.162 HD
HETATM    3  C6  UNL     1      57.145  15.525  83.553  1.00  0.00     0.269 C 
HETATM    4  O2  UNL     1      57.738  16.565  83.923  1.00  0.00    -0.266 OA
ENDROOT
BRANCH   3   5
HETATM    5  C7  UNL     1      55.693  15.538  83.336  1.00  0.00     0.118 A 
HETATM    6  C8  UNL     1      55.010  15.154  82.196  1.00  0.00     0.073 A 
HETATM    7  C9  UNL     1      53.654  15.313  82.387  1.00  0.00     0.119 A 
HETATM    8  N6  UNL     1      53.530  15.791  83.638  1.00  0.00    -0.295 N 
HETATM    9  N7  UNL     1      54.735  15.923  84.197  1.00  0.00    -0.295 N 
ATOM     10  H6  UNL     1      52.646  16.018  84.092  1.00  0.00     0.187 HD
ATOM     11  H7  UNL     1      54.904  16.267  85.143  1.00  0.00     0.187 HD
BRANCH   7  12
HETATM   12  C10 UNL     1      52.576  15.032  81.450  1.00  0.00     0.287 C 
HETATM   13  O3  UNL     1      52.140  15.918  80.674  1.00  0.00    -0.264 OA
HETATM   14  N4  UNL     1      51.984  13.752  81.381  1.00  0.00    -0.271 N 
ATOM     15  H4  UNL     1      52.335  13.028  82.009  1.00  0.00     0.189 HD
BRANCH  14  16
HETATM   16  N5  UNL     1      50.956  13.416  80.513  1.00  0.00    -0.342 N 
ATOM     17  H52 UNL     1      50.183  14.077  80.437  1.00  0.00     0.176 HD
ATOM     18  H51 UNL     1      50.932  12.560  79.958  1.00  0.00     0.176 HD
ENDBRANCH  14  16
ENDBRANCH   7  12
ENDBRANCH   3   5
BRANCH   1  19
HETATM   19  C5  UNL     1      59.290  14.290  83.547  1.00  0.00     0.132 C 
BRANCH  19  20
HETATM   20  C4  UNL     1      59.697  12.979  84.188  1.00  0.00     0.122 C 
BRANCH  20  21
HETATM   21  C3  UNL     1      60.874  12.388  83.485  1.00  0.00     0.219 C 
HETATM   22  N2  UNL     1      61.516  13.064  82.418  1.00  0.00    -0.359 N 
ATOM     23  H2  UNL     1      61.151  13.974  82.137  1.00  0.00     0.162 HD
HETATM   24  O1  UNL     1      61.333  11.267  83.822  1.00  0.00    -0.274 OA
BRANCH  22  25
HETATM   25  C2  UNL     1      62.650  12.541  81.709  1.00  0.00     0.150 C 
BRANCH  25  26
HETATM   26  C1  UNL     1      62.857  13.096  80.340  1.00  0.00     0.249 C 
BRANCH  26  27
HETATM   27  N1  UNL     1      61.545  13.581  79.886  1.00  0.00    -0.078 N 
ATOM     28  H13 UNL     1      60.771  12.980  80.169  1.00  0.00     0.274 HD
ATOM     29  H12 UNL     1      61.235  14.423  80.371  1.00  0.00     0.274 HD
ATOM     30  H11 UNL     1      61.616  13.699  78.876  1.00  0.00     0.274 HD
ENDBRANCH  26  27
ENDBRANCH  25  26
ENDBRANCH  22  25
ENDBRANCH  20  21
ENDBRANCH  19  20
ENDBRANCH   1  19
TORSDOF 9
ENDMDL
MODEL 4
REMARK VINA RESULT: -7.327431220      2.845      4.741
REMARK  9 active torsions:
REMARK  status: ('A' for Active; 'I' for Inactive)
REMARK    1  A    between atoms: N1_1  and  C1_5 
REMARK    2  A    between atoms: C1_5  and  C2_6 
REMARK    3  A    between atoms: C2_6  and  N2_7 
REMARK       I    between atoms: N2_7  and  C3_9 
REMARK    4  A    between atoms: C3_9  and  C4_11 
REMARK    5  A    between atoms: C4_11  and  C5_12 
REMARK    6  A    between atoms: C5_12  and  N3_13 
REMARK       I    between atoms: N3_13  and  C6_15 
REMARK    7  A    between atoms: C6_15  and  C7_17 
REMARK    8  A    between atoms: C9_19  and  C10_20 
REMARK       I    between atoms: C10_20  and  N4_22 
REMARK    9  A    between atoms: N4_22  and  N5_24 
ROOT
HETATM    1  N3  UNL     1      54.699  12.979  82.001  1.00  0.00    -0.355 N 
ATOM      2  H3  UNL     1      55.306  12.757  81.212  1.00  0.00     0.162 HD
HETATM    3  C6  UNL     1      55.248  13.577  83.160  1.00  0.00     0.269 C 
HETATM    4  O2  UNL     1      54.511  13.855  84.136  1.00  0.00    -0.266 OA
ENDROOT
BRANCH   3   5
HETATM    5  C7  UNL     1      56.685  13.870  83.210  1.00  0.00     0.118 A 
HETATM    6  C8  UNL     1      57.603  13.420  84.141  1.00  0.00     0.073 A 
HETATM    7  C9  UNL     1      58.854  13.917  83.843  1.00  0.00     0.119 A 
HETATM    8  N6  UNL     1      58.681  14.661  82.736  1.00  0.00    -0.295 N 
HETATM    9  N7  UNL     1      57.400  14.633  82.363  1.00  0.00    -0.295 N 
ATOM     10  H6  UNL     1      59.420  15.171  82.252  1.00  0.00     0.187 HD
ATOM     11  H7  UNL     1      57.017  15.120  81.552  1.00  0.00     0.187 HD
BRANCH   7  12
HETATM   12  C10 UNL     1      60.102  13.696  84.558  1.00  0.00     0.287 C 
HETATM   13  O3  UNL     1      60.201  13.939  85.787  1.00  0.00    -0.264 OA
HETATM   14  N4  UNL     1      61.246  13.199  83.896  1.00  0.00    -0.271 N 
ATOM     15  H4  UNL     1      61.172  12.999  82.898  1.00  0.00     0.189 HD
BRANCH  14  16
HETATM   16  N5  UNL     1      62.464  12.964  84.516  1.00  0.00    -0.342 N 
ATOM     17  H52 UNL     1      62.536  13.221  85.500  1.00  0.00     0.176 HD
ATOM     18  H51 UNL     1      63.275  12.558  84.049  1.00  0.00     0.176 HD
ENDBRANCH  14  16
ENDBRANCH   7  12
ENDBRANCH   3   5
BRANCH   1  19
HETATM   19  C5  UNL     1      53.296  12.682  81.928  1.00  0.00     0.132 C 
BRANCH  19  20
HETATM   20  C4  UNL     1      52.659  13.417  80.766  1.00  0.00     0.122 C 
BRANCH  20  21
HETATM   21  C3  UNL     1      52.324  14.820  81.147  1.00  0.00     0.219 C 
HETATM   22  N2  UNL     1      52.293  15.233  82.502  1.00  0.00    -0.359 N 
ATOM     23  H2  UNL     1      52.508  14.542  83.220  1.00  0.00     0.162 HD
HETATM   24  O1  UNL     1      52.056  15.682  80.271  1.00  0.00    -0.274 OA
BRANCH  22  25
HETATM   25  C2  UNL     1      51.977  16.570  82.922  1.00  0.00     0.150 C 
BRANCH  25  26
HETATM   26  C1  UNL     1      53.153  17.442  83.209  1.00  0.00     0.249 C 
BRANCH  26  27
HETATM   27  N1  UNL     1      53.881  16.805  84.318  1.00  0.00    -0.078 N 
ATOM     28  H13 UNL     1      54.340  15.934  84.053  1.00  0.00     0.274 HD
ATOM     29  H12 UNL     1      54.722  17.312  84.594  1.00  0.00     0.274 HD
ATOM     30  H11 UNL     1      53.209  16.693  85.077  1.00  0.00     0.274 HD
ENDBRANCH  26  27
ENDBRANCH  25  26
ENDBRANCH  22  25
ENDBRANCH  20  21
ENDBRANCH  19  20
ENDBRANCH   1  19
TORSDOF 9
ENDMDL
MODEL 5
REMARK VINA RESULT: -7.276223090      3.822      8.122
REMARK  9 active torsions:
REMARK  status: ('A' for Active; 'I' for Inactive)
REMARK    1  A    between atoms: N1_1  and  C1_5 
REMARK    2  A    between atoms: C1_5  and  C2_6 
REMARK    3  A    between atoms: C2_6  and  N2_7 
REMARK       I    between atoms: N2_7  and  C3_9 
REMARK    4  A    between atoms: C3_9  and  C4_11 
REMARK    5  A    between atoms: C4_11  and  C5_12 
REMARK    6  A    between atoms: C5_12  and  N3_13 
REMARK       I    between atoms: N3_13  and  C6_15 
REMARK    7  A    between atoms: C6_15  and  C7_17 
REMARK    8  A    between atoms: C9_19  and  C10_20 
REMARK       I    between atoms: C10_20  and  N4_22 
REMARK    9  A    between atoms: N4_22  and  N5_24 
ROOT
HETATM    1  N3  UNL     1      59.170  13.432  83.791  1.00  0.00    -0.355 N 
ATOM      2  H3  UNL     1      58.939  12.500  83.448  1.00  0.00     0.162 HD
HETATM    3  C6  UNL     1      58.273  14.504  83.570  1.00  0.00     0.269 C 
HETATM    4  O2  UNL     1      58.547  15.654  83.988  1.00  0.00    -0.266 OA
ENDROOT
BRANCH   3   5
HETATM    5  C7  UNL     1      57.019  14.257  82.847  1.00  0.00     0.118 A 
HETATM    6  C8  UNL     1      56.266  15.172  82.133  1.00  0.00     0.073 A 
HETATM    7  C9  UNL     1      55.157  14.550  81.600  1.00  0.00     0.119 A 
HETATM    8  N6  UNL     1      55.250  13.268  81.996  1.00  0.00    -0.295 N 
HETATM    9  N7  UNL     1      56.350  13.096  82.732  1.00  0.00    -0.295 N 
ATOM     10  H6  UNL     1      54.579  12.535  81.766  1.00  0.00     0.187 HD
ATOM     11  H7  UNL     1      56.641  12.211  83.147  1.00  0.00     0.187 HD
BRANCH   7  12
HETATM   12  C10 UNL     1      54.104  15.137  80.785  1.00  0.00     0.287 C 
HETATM   13  O3  UNL     1      54.219  16.293  80.306  1.00  0.00    -0.264 OA
HETATM   14  N4  UNL     1      52.916  14.427  80.502  1.00  0.00    -0.271 N 
ATOM     15  H4  UNL     1      52.818  13.487  80.889  1.00  0.00     0.189 HD
BRANCH  14  16
HETATM   16  N5  UNL     1      51.876  14.925  79.734  1.00  0.00    -0.342 N 
ATOM     17  H52 UNL     1      52.097  15.188  78.774  1.00  0.00     0.176 HD
ATOM     18  H51 UNL     1      50.920  15.041  80.071  1.00  0.00     0.176 HD
ENDBRANCH  14  16
ENDBRANCH   7  12
ENDBRANCH   3   5
BRANCH   1  19
HETATM   19  C5  UNL     1      60.404  13.648  84.495  1.00  0.00     0.132 C 
BRANCH  19  20
HETATM   20  C4  UNL     1      61.229  12.377  84.517  1.00  0.00     0.122 C 
BRANCH  20  21
HETATM   21  C3  UNL     1      61.719  12.041  83.147  1.00  0.00     0.219 C 
HETATM   22  N2  UNL     1      62.834  12.702  82.576  1.00  0.00    -0.359 N 
ATOM     23  H2  UNL     1      63.301  13.422  83.127  1.00  0.00     0.162 HD
HETATM   24  O1  UNL     1      61.152  11.156  82.457  1.00  0.00    -0.274 OA
BRANCH  22  25
HETATM   25  C2  UNL     1      63.345  12.415  81.264  1.00  0.00     0.150 C 
BRANCH  25  26
HETATM   26  C1  UNL     1      63.054  13.448  80.228  1.00  0.00     0.249 C 
BRANCH  26  27
HETATM   27  N1  UNL     1      61.590  13.521  80.114  1.00  0.00    -0.078 N 
ATOM     28  H13 UNL     1      61.138  13.899  80.946  1.00  0.00     0.274 HD
ATOM     29  H12 UNL     1      61.270  14.235  79.460  1.00  0.00     0.274 HD
ATOM     30  H11 UNL     1      61.272  12.582  79.873  1.00  0.00     0.274 HD
ENDBRANCH  26  27
ENDBRANCH  25  26
ENDBRANCH  22  25
ENDBRANCH  20  21
ENDBRANCH  19  20
ENDBRANCH   1  19
TORSDOF 9
ENDMDL
