MODEL 1
REMARK VINA RESULT: -7.424191809      0.000      0.000
REMARK  10 active torsions:
REMARK  status: ('A' for Active; 'I' for Inactive)
REMARK       I    between atoms: C2_2  and  N1_4 
REMARK    1  A    between atoms: N1_4  and  C3_6 
REMARK    2  A    between atoms: C3_6  and  C4_7 
REMARK    3  A    between atoms: C3_6  and  N4_17 
REMARK    4  A    between atoms: C4_7  and  C5_8 
REMARK    5  A    between atoms: C5_8  and  C6_10 
REMARK       I    between atoms: C6_10  and  N2_12 
REMARK    6  A    between atoms: N2_12  and  N3_14 
REMARK    7  A    between atoms: N4_17  and  N5_18 
REMARK       I    between atoms: N5_18  and  C7_20 
REMARK    8  A    between atoms: C7_20  and  C8_22 
REMARK    9  A    between atoms: C8_22  and  C9_24 
REMARK   10  A    between atoms: C9_24  and  N6_26 
ROOT
HETATM    1  C3  UNL     1      52.825  12.940  81.158  1.00  0.00     0.206 C 
ENDROOT
BRANCH   1   2
HETATM    2  N1  UNL     1      53.019  11.768  80.315  1.00  0.00    -0.341 N 
HETATM    3  C2  UNL     1      51.918  11.043  79.809  1.00  0.00     0.214 C 
HETATM    4  C1  UNL     1      52.116   9.856  78.955  1.00  0.00     0.117 C 
HETATM    5  O1  UNL     1      50.752  11.402  80.083  1.00  0.00    -0.274 OA
ATOM      6  H1  UNL     1      53.966  11.465  80.087  1.00  0.00     0.164 HD
ENDBRANCH   1   2
BRANCH   1   7
HETATM    7  C4  UNL     1      53.643  14.088  80.604  1.00  0.00     0.133 C 
BRANCH   7   8
HETATM    8  C5  UNL     1      52.984  15.386  80.959  1.00  0.00     0.221 C 
HETATM    9  O2  UNL     1      51.993  15.805  80.340  1.00  0.00    -0.287 OA
BRANCH   8  10
HETATM   10  C6  UNL     1      53.524  16.166  82.059  1.00  0.00     0.305 C 
HETATM   11  O3  UNL     1      54.206  17.181  81.818  1.00  0.00    -0.263 OA
HETATM   12  N2  UNL     1      53.278  15.776  83.393  1.00  0.00    -0.270 N 
ATOM     13  H2  UNL     1      52.720  14.948  83.596  1.00  0.00     0.189 HD
BRANCH  12  14
HETATM   14  N3  UNL     1      53.813  16.544  84.430  1.00  0.00    -0.342 N 
ATOM     15  H32 UNL     1      54.731  16.309  84.809  1.00  0.00     0.176 HD
ATOM     16  H31 UNL     1      53.271  17.330  84.790  1.00  0.00     0.176 HD
ENDBRANCH  12  14
ENDBRANCH   8  10
ENDBRANCH   7   8
ENDBRANCH   1   7
BRANCH   1  17
HETATM   17  N4  UNL     1      53.423  12.621  82.440  1.00  0.00    -0.112 NA
BRANCH  17  18
HETATM   18  N5  UNL     1      54.799  12.565  82.403  1.00  0.00    -0.265 N 
HETATM   19  C7  UNL     1      55.480  13.072  83.578  1.00  0.00     0.305 C 
HETATM   20  O4  UNL     1      54.795  13.521  84.549  1.00  0.00    -0.263 OA
ATOM     21  H5  UNL     1      55.306  12.191  81.600  1.00  0.00     0.185 HD
BRANCH  19  22
HETATM   22  C8  UNL     1      56.928  13.081  83.683  1.00  0.00     0.247 C 
HETATM   23  O5  UNL     1      57.469  11.925  83.804  1.00  0.00    -0.285 OA
BRANCH  22  24
HETATM   24  C9  UNL     1      57.724  14.307  83.655  1.00  0.00     0.258 C 
HETATM   25  C10 UNL     1      57.161  15.232  82.584  1.00  0.00     0.048 C 
BRANCH  24  26
HETATM   26  N6  UNL     1      59.080  14.037  83.321  1.00  0.00    -0.068 N 
ATOM     27  H63 UNL     1      59.444  13.245  83.850  1.00  0.00     0.275 HD
ATOM     28  H62 UNL     1      59.164  13.651  82.381  1.00  0.00     0.275 HD
ATOM     29  H61 UNL     1      59.663  14.865  83.438  1.00  0.00     0.275 HD
ENDBRANCH  24  26
ENDBRANCH  22  24
ENDBRANCH  19  22
ENDBRANCH  17  18
ENDBRANCH   1  17
TORSDOF 10
ENDMDL
MODEL 2
REMARK VINA RESULT: -7.357793145      1.384      1.611
REMARK  10 active torsions:
REMARK  status: ('A' for Active; 'I' for Inactive)
REMARK       I    between atoms: C2_2  and  N1_4 
REMARK    1  A    between atoms: N1_4  and  C3_6 
REMARK    2  A    between atoms: C3_6  and  C4_7 
REMARK    3  A    between atoms: C3_6  and  N4_17 
REMARK    4  A    between atoms: C4_7  and  C5_8 
REMARK    5  A    between atoms: C5_8  and  C6_10 
REMARK       I    between atoms: C6_10  and  N2_12 
REMARK    6  A    between atoms: N2_12  and  N3_14 
REMARK    7  A    between atoms: N4_17  and  N5_18 
REMARK       I    between atoms: N5_18  and  C7_20 
REMARK    8  A    between atoms: C7_20  and  C8_22 
REMARK    9  A    between atoms: C8_22  and  C9_24 
REMARK   10  A    between atoms: C9_24  and  N6_26 
ROOT
HETATM    1  C3  UNL     1      53.194  12.926  81.541  1.00  0.00     0.206 C 
ENDROOT
BRANCH   1   2
HETATM    2  N1  UNL     1      52.983  11.858  80.574  1.00  0.00    -0.341 N 
HETATM    3  C2  UNL     1      51.690  11.555  80.094  1.00  0.00     0.214 C 
HETATM    4  C1  UNL     1      51.478  10.473  79.113  1.00  0.00     0.117 C 
HETATM    5  O1  UNL     1      50.703  12.206  80.498  1.00  0.00    -0.274 OA
ATOM      6  H1  UNL     1      53.782  11.319  80.239  1.00  0.00     0.164 HD
ENDBRANCH   1   2
BRANCH   1   7
HETATM    7  C4  UNL     1      53.659  14.169  80.811  1.00  0.00     0.133 C 
BRANCH   7   8
HETATM    8  C5  UNL     1      52.633  15.251  80.965  1.00  0.00     0.221 C 
HETATM    9  O2  UNL     1      51.915  15.608  80.018  1.00  0.00    -0.287 OA
BRANCH   8  10
HETATM   10  C6  UNL     1      52.481  15.889  82.262  1.00  0.00     0.305 C 
HETATM   11  O3  UNL     1      51.346  16.000  82.763  1.00  0.00    -0.263 OA
HETATM   12  N2  UNL     1      53.612  16.380  82.948  1.00  0.00    -0.270 N 
ATOM     13  H2  UNL     1      54.543  16.290  82.542  1.00  0.00     0.189 HD
BRANCH  12  14
HETATM   14  N3  UNL     1      53.434  16.990  84.191  1.00  0.00    -0.342 N 
ATOM     15  H32 UNL     1      53.450  16.422  85.038  1.00  0.00     0.176 HD
ATOM     16  H31 UNL     1      53.291  18.000  84.228  1.00  0.00     0.176 HD
ENDBRANCH  12  14
ENDBRANCH   8  10
ENDBRANCH   7   8
ENDBRANCH   1   7
BRANCH   1  17
HETATM   17  N4  UNL     1      54.319  12.516  82.360  1.00  0.00    -0.112 NA
BRANCH  17  18
HETATM   18  N5  UNL     1      55.382  13.391  82.309  1.00  0.00    -0.265 N 
HETATM   19  C7  UNL     1      55.622  14.158  83.516  1.00  0.00     0.305 C 
HETATM   20  O4  UNL     1      54.869  13.984  84.524  1.00  0.00    -0.263 OA
ATOM     21  H5  UNL     1      55.962  13.494  81.476  1.00  0.00     0.185 HD
BRANCH  19  22
HETATM   22  C8  UNL     1      56.703  15.122  83.611  1.00  0.00     0.247 C 
HETATM   23  O5  UNL     1      56.476  16.114  84.391  1.00  0.00    -0.285 OA
BRANCH  22  24
HETATM   24  C9  UNL     1      57.962  14.987  82.880  1.00  0.00     0.258 C 
HETATM   25  C10 UNL     1      58.980  14.302  83.780  1.00  0.00     0.048 C 
BRANCH  24  26
HETATM   26  N6  UNL     1      58.491  16.257  82.520  1.00  0.00    -0.068 N 
ATOM     27  H63 UNL     1      58.150  16.559  81.607  1.00  0.00     0.275 HD
ATOM     28  H62 UNL     1      58.094  17.003  83.091  1.00  0.00     0.275 HD
ATOM     29  H61 UNL     1      59.510  16.260  82.558  1.00  0.00     0.275 HD
ENDBRANCH  24  26
ENDBRANCH  22  24
ENDBRANCH  19  22
ENDBRANCH  17  18
ENDBRANCH   1  17
TORSDOF 10
ENDMDL
MODEL 3
REMARK VINA RESULT: -7.308522814      2.099      5.375
REMARK  10 active torsions:
REMARK  status: ('A' for Active; 'I' for Inactive)
REMARK       I    between atoms: C2_2  and  N1_4 
REMARK    1  A    between atoms: N1_4  and  C3_6 
REMARK    2  A    between atoms: C3_6  and  C4_7 
REMARK    3  A    between atoms: C3_6  and  N4_17 
REMARK    4  A    between atoms: C4_7  and  C5_8 
REMARK    5  A    between atoms: C5_8  and  C6_10 
REMARK       I    between atoms: C6_10  and  N2_12 
REMARK    6  A    between atoms: N2_12  and  N3_14 
REMARK    7  A    between atoms: N4_17  and  N5_18 
REMARK       I    between atoms: N5_18  and  C7_20 
REMARK    8  A    between atoms: C7_20  and  C8_22 
REMARK    9  A    between atoms: C8_22  and  C9_24 
REMARK   10  A    between atoms: C9_24  and  N6_26 
ROOT
HETATM    1  C3  UNL     1      54.553  13.816  83.403  1.00  0.00     0.206 C 
ENDROOT
BRANCH   1   2
HETATM    2  N1  UNL     1      54.779  14.338  82.062  1.00  0.00    -0.341 N 
HETATM    3  C2  UNL     1      53.713  14.853  81.292  1.00  0.00     0.214 C 
HETATM    4  C1  UNL     1      53.943  15.382  79.933  1.00  0.00     0.117 C 
HETATM    5  O1  UNL     1      52.553  14.866  81.757  1.00  0.00    -0.274 OA
ATOM      6  H1  UNL     1      55.721  14.330  81.672  1.00  0.00     0.164 HD
ENDBRANCH   1   2
BRANCH   1   7
HETATM    7  C4  UNL     1      55.796  14.046  84.238  1.00  0.00     0.133 C 
BRANCH   7   8
HETATM    8  C5  UNL     1      56.269  15.455  84.048  1.00  0.00     0.221 C 
HETATM    9  O2  UNL     1      55.576  16.428  84.384  1.00  0.00    -0.287 OA
BRANCH   8  10
HETATM   10  C6  UNL     1      57.578  15.678  83.457  1.00  0.00     0.305 C 
HETATM   11  O3  UNL     1      58.176  16.750  83.672  1.00  0.00    -0.263 OA
HETATM   12  N2  UNL     1      58.168  14.687  82.644  1.00  0.00    -0.270 N 
ATOM     13  H2  UNL     1      57.683  13.807  82.466  1.00  0.00     0.189 HD
BRANCH  12  14
HETATM   14  N3  UNL     1      59.425  14.930  82.087  1.00  0.00    -0.342 N 
ATOM     15  H32 UNL     1      59.954  15.753  82.378  1.00  0.00     0.176 HD
ATOM     16  H31 UNL     1      59.793  14.276  81.396  1.00  0.00     0.176 HD
ENDBRANCH  12  14
ENDBRANCH   8  10
ENDBRANCH   7   8
ENDBRANCH   1   7
BRANCH   1  17
HETATM   17  N4  UNL     1      54.441  12.377  83.265  1.00  0.00    -0.112 NA
BRANCH  17  18
HETATM   18  N5  UNL     1      53.145  11.942  83.097  1.00  0.00    -0.265 N 
HETATM   19  C7  UNL     1      52.830  11.397  81.791  1.00  0.00     0.305 C 
HETATM   20  O4  UNL     1      53.736  11.347  80.902  1.00  0.00    -0.263 OA
ATOM     21  H5  UNL     1      52.452  11.999  83.843  1.00  0.00     0.185 HD
BRANCH  19  22
HETATM   22  C8  UNL     1      51.504  10.903  81.464  1.00  0.00     0.247 C 
HETATM   23  O5  UNL     1      51.022  10.057  82.298  1.00  0.00    -0.285 OA
BRANCH  22  24
HETATM   24  C9  UNL     1      50.763  11.327  80.278  1.00  0.00     0.258 C 
HETATM   25  C10 UNL     1      51.152  10.430  79.110  1.00  0.00     0.048 C 
BRANCH  24  26
HETATM   26  N6  UNL     1      51.084  12.665  79.918  1.00  0.00    -0.068 N 
ATOM     27  H63 UNL     1      50.280  13.284  80.024  1.00  0.00     0.275 HD
ATOM     28  H62 UNL     1      51.707  13.097  80.600  1.00  0.00     0.275 HD
ATOM     29  H61 UNL     1      51.471  12.714  78.975  1.00  0.00     0.275 HD
ENDBRANCH  24  26
ENDBRANCH  22  24
ENDBRANCH  19  22
ENDBRANCH  17  18
ENDBRANCH   1  17
TORSDOF 10
ENDMDL
MODEL 4
REMARK VINA RESULT: -7.259797652      1.314      1.489
REMARK  10 active torsions:
REMARK  status: ('A' for Active; 'I' for Inactive)
REMARK       I    between atoms: C2_2  and  N1_4 
REMARK    1  A    between atoms: N1_4  and  C3_6 
REMARK    2  A    between atoms: C3_6  and  C4_7 
REMARK    3  A    between atoms: C3_6  and  N4_17 
REMARK    4  A    between atoms: C4_7  and  C5_8 
REMARK    5  A    between atoms: C5_8  and  C6_10 
REMARK       I    between atoms: C6_10  and  N2_12 
REMARK    6  A    between atoms: N2_12  and  N3_14 
REMARK    7  A    between atoms: N4_17  and  N5_18 
REMARK       I    between atoms: N5_18  and  C7_20 
REMARK    8  A    between atoms: C7_20  and  C8_22 
REMARK    9  A    between atoms: C8_22  and  C9_24 
REMARK   10  A    between atoms: C9_24  and  N6_26 
ROOT
HETATM    1  C3  UNL     1      52.704  12.798  81.421  1.00  0.00     0.206 C 
ENDROOT
BRANCH   1   2
HETATM    2  N1  UNL     1      52.453  11.885  80.315  1.00  0.00    -0.341 N 
HETATM    3  C2  UNL     1      51.230  11.186  80.211  1.00  0.00     0.214 C 
HETATM    4  C1  UNL     1      50.976  10.261  79.088  1.00  0.00     0.117 C 
HETATM    5  O1  UNL     1      50.343  11.343  81.077  1.00  0.00    -0.274 OA
ATOM      6  H1  UNL     1      53.171  11.748  79.603  1.00  0.00     0.164 HD
ENDBRANCH   1   2
BRANCH   1   7
HETATM    7  C4  UNL     1      53.440  14.016  80.900  1.00  0.00     0.133 C 
BRANCH   7   8
HETATM    8  C5  UNL     1      52.585  15.232  81.088  1.00  0.00     0.221 C 
HETATM    9  O2  UNL     1      51.944  15.730  80.150  1.00  0.00    -0.287 OA
BRANCH   8  10
HETATM   10  C6  UNL     1      52.508  15.835  82.408  1.00  0.00     0.305 C 
HETATM   11  O3  UNL     1      51.397  16.139  82.883  1.00  0.00    -0.263 OA
HETATM   12  N2  UNL     1      53.686  16.074  83.148  1.00  0.00    -0.270 N 
ATOM     13  H2  UNL     1      54.598  15.825  82.765  1.00  0.00     0.189 HD
BRANCH  12  14
HETATM   14  N3  UNL     1      53.582  16.656  84.413  1.00  0.00    -0.342 N 
ATOM     15  H32 UNL     1      52.663  16.771  84.841  1.00  0.00     0.176 HD
ATOM     16  H31 UNL     1      54.433  16.957  84.888  1.00  0.00     0.176 HD
ENDBRANCH  12  14
ENDBRANCH   8  10
ENDBRANCH   7   8
ENDBRANCH   1   7
BRANCH   1  17
HETATM   17  N4  UNL     1      53.644  12.125  82.297  1.00  0.00    -0.112 NA
BRANCH  17  18
HETATM   18  N5  UNL     1      54.824  12.815  82.469  1.00  0.00    -0.265 N 
HETATM   19  C7  UNL     1      55.170  13.136  83.840  1.00  0.00     0.305 C 
HETATM   20  O4  UNL     1      54.396  12.772  84.779  1.00  0.00    -0.263 OA
ATOM     21  H5  UNL     1      55.416  13.084  81.682  1.00  0.00     0.185 HD
BRANCH  19  22
HETATM   22  C8  UNL     1      56.381  13.864  84.176  1.00  0.00     0.247 C 
HETATM   23  O5  UNL     1      56.193  14.954  84.823  1.00  0.00    -0.285 OA
BRANCH  22  24
HETATM   24  C9  UNL     1      57.718  13.401  83.812  1.00  0.00     0.258 C 
HETATM   25  C10 UNL     1      57.870  11.950  84.248  1.00  0.00     0.048 C 
BRANCH  24  26
HETATM   26  N6  UNL     1      58.726  14.157  84.473  1.00  0.00    -0.068 N 
ATOM     27  H63 UNL     1      58.421  14.455  85.400  1.00  0.00     0.275 HD
ATOM     28  H62 UNL     1      59.514  13.571  84.748  1.00  0.00     0.275 HD
ATOM     29  H61 UNL     1      59.029  14.949  83.906  1.00  0.00     0.275 HD
ENDBRANCH  24  26
ENDBRANCH  22  24
ENDBRANCH  19  22
ENDBRANCH  17  18
ENDBRANCH   1  17
TORSDOF 10
ENDMDL
MODEL 5
REMARK VINA RESULT: -7.251602113      1.092      1.346
REMARK  10 active torsions:
REMARK  status: ('A' for Active; 'I' for Inactive)
REMARK       I    between atoms: C2_2  and  N1_4 
REMARK    1  A    between atoms: N1_4  and  C3_6 
REMARK    2  A    between atoms: C3_6  and  C4_7 
REMARK    3  A    between atoms: C3_6  and  N4_17 
REMARK    4  A    between atoms: C4_7  and  C5_8 
REMARK    5  A    between atoms: C5_8  and  C6_10 
REMARK       I    between atoms: C6_10  and  N2_12 
REMARK    6  A    between atoms: N2_12  and  N3_14 
REMARK    7  A    between atoms: N4_17  and  N5_18 
REMARK       I    between atoms: N5_18  and  C7_20 
REMARK    8  A    between atoms: C7_20  and  C8_22 
REMARK    9  A    between atoms: C8_22  and  C9_24 
REMARK   10  A    between atoms: C9_24  and  N6_26 
ROOT
HETATM    1  C3  UNL     1      52.928  12.879  81.327  1.00  0.00     0.206 C 
ENDROOT
BRANCH   1   2
HETATM    2  N1  UNL     1      53.075  11.669  80.529  1.00  0.00    -0.341 N 
HETATM    3  C2  UNL     1      51.993  11.153  79.783  1.00  0.00     0.214 C 
HETATM    4  C1  UNL     1      52.143   9.927  78.974  1.00  0.00     0.117 C 
HETATM    5  O1  UNL     1      50.887  11.734  79.800  1.00  0.00    -0.274 OA
ATOM      6  H1  UNL     1      53.974  11.187  80.510  1.00  0.00     0.164 HD
ENDBRANCH   1   2
BRANCH   1   7
HETATM    7  C4  UNL     1      53.663  14.014  80.643  1.00  0.00     0.133 C 
BRANCH   7   8
HETATM    8  C5  UNL     1      52.964  15.307  80.936  1.00  0.00     0.221 C 
HETATM    9  O2  UNL     1      51.983  15.682  80.275  1.00  0.00    -0.287 OA
BRANCH   8  10
HETATM   10  C6  UNL     1      53.454  16.135  82.025  1.00  0.00     0.305 C 
HETATM   11  O3  UNL     1      54.176  17.118  81.774  1.00  0.00    -0.263 OA
HETATM   12  N2  UNL     1      53.115  15.825  83.360  1.00  0.00    -0.270 N 
ATOM     13  H2  UNL     1      52.523  15.021  83.570  1.00  0.00     0.189 HD
BRANCH  12  14
HETATM   14  N3  UNL     1      53.602  16.636  84.386  1.00  0.00    -0.342 N 
ATOM     15  H32 UNL     1      54.050  17.524  84.156  1.00  0.00     0.176 HD
ATOM     16  H31 UNL     1      53.501  16.324  85.352  1.00  0.00     0.176 HD
ENDBRANCH  12  14
ENDBRANCH   8  10
ENDBRANCH   7   8
ENDBRANCH   1   7
BRANCH   1  17
HETATM   17  N4  UNL     1      53.650  12.641  82.562  1.00  0.00    -0.112 NA
BRANCH  17  18
HETATM   18  N5  UNL     1      55.008  12.836  82.449  1.00  0.00    -0.265 N 
HETATM   19  C7  UNL     1      55.647  13.481  83.579  1.00  0.00     0.305 C 
HETATM   20  O4  UNL     1      54.944  13.817  84.583  1.00  0.00    -0.263 OA
ATOM     21  H5  UNL     1      55.532  12.545  81.623  1.00  0.00     0.185 HD
BRANCH  19  22
HETATM   22  C8  UNL     1      57.072  13.757  83.603  1.00  0.00     0.247 C 
HETATM   23  O5  UNL     1      57.464  14.648  82.769  1.00  0.00    -0.285 OA
BRANCH  22  24
HETATM   24  C9  UNL     1      58.003  13.078  84.503  1.00  0.00     0.258 C 
HETATM   25  C10 UNL     1      58.096  11.614  84.097  1.00  0.00     0.048 C 
BRANCH  24  26
HETATM   26  N6  UNL     1      57.548  13.124  85.849  1.00  0.00    -0.068 N 
ATOM     27  H63 UNL     1      58.271  13.478  86.476  1.00  0.00     0.275 HD
ATOM     28  H62 UNL     1      56.851  13.857  85.984  1.00  0.00     0.275 HD
ATOM     29  H61 UNL     1      57.199  12.216  86.155  1.00  0.00     0.275 HD
ENDBRANCH  24  26
ENDBRANCH  22  24
ENDBRANCH  19  22
ENDBRANCH  17  18
ENDBRANCH   1  17
TORSDOF 10
ENDMDL
