MODEL 1
REMARK VINA RESULT: -7.237190152      0.000      0.000
REMARK  9 active torsions:
REMARK  status: ('A' for Active; 'I' for Inactive)
REMARK       I    between atoms: C2_2  and  N1_4 
REMARK    1  A    between atoms: N1_4  and  C3_6 
REMARK    2  A    between atoms: C4_7  and  O2_8 
REMARK    3  A    between atoms: C5_12  and  C6_13 
REMARK    4  A    between atoms: C6_13  and  N3_14 
REMARK    5  A    between atoms: C8_20  and  O4_21 
REMARK    6  A    between atoms: O4_21  and  C9_22 
REMARK    7  A    between atoms: C9_22  and  C10_23 
REMARK    8  A    between atoms: C10_23  and  C11_24 
REMARK    9  A    between atoms: C11_24  and  N6_25 
ROOT
HETATM    1  C3  UNL     1      53.272  14.260  81.907  1.00  0.00     0.187 C 
HETATM    2  C4  UNL     1      53.588  13.876  80.459  1.00  0.00     0.243 C 
HETATM    3  N2  UNL     1      54.456  12.749  80.470  1.00  0.00    -0.368 N 
ATOM      4  H2  UNL     1      55.327  12.731  79.938  1.00  0.00     0.158 HD
HETATM    5  C5  UNL     1      54.033  11.648  81.268  1.00  0.00     0.239 C 
HETATM    6  O3  UNL     1      53.602  12.036  82.515  1.00  0.00    -0.333 OA
HETATM    7  C8  UNL     1      54.107  13.331  82.763  1.00  0.00     0.289 C 
ENDROOT
BRANCH   7   8
HETATM    8  O4  UNL     1      54.092  13.649  84.092  1.00  0.00    -0.359 OA
BRANCH   8   9
HETATM    9  C9  UNL     1      55.386  13.558  84.594  1.00  0.00     0.172 C 
BRANCH   9  10
HETATM   10  C10 UNL     1      56.430  13.938  83.571  1.00  0.00     0.053 C 
BRANCH  10  11
HETATM   11  C11 UNL     1      56.729  15.418  83.783  1.00  0.00     0.231 C 
BRANCH  11  12
HETATM   12  N6  UNL     1      55.879  15.970  84.802  1.00  0.00    -0.079 N 
ATOM     13  H63 UNL     1      55.704  15.300  85.550  1.00  0.00     0.274 HD
ATOM     14  H62 UNL     1      56.360  16.687  85.345  1.00  0.00     0.274 HD
ATOM     15  H61 UNL     1      55.010  16.321  84.399  1.00  0.00     0.274 HD
ENDBRANCH  11  12
ENDBRANCH  10  11
ENDBRANCH   9  10
ENDBRANCH   8   9
ENDBRANCH   7   8
BRANCH   1  16
HETATM   16  N1  UNL     1      53.532  15.639  82.170  1.00  0.00    -0.348 N 
HETATM   17  C2  UNL     1      52.519  16.485  82.632  1.00  0.00     0.214 C 
HETATM   18  C1  UNL     1      52.743  17.934  82.920  1.00  0.00     0.117 C 
HETATM   19  O1  UNL     1      51.350  16.057  82.831  1.00  0.00    -0.274 OA
ATOM     20  H1  UNL     1      54.470  16.011  82.019  1.00  0.00     0.163 HD
ENDBRANCH   1  16
BRANCH   2  21
HETATM   21  O2  UNL     1      54.298  14.961  79.928  1.00  0.00    -0.375 OA
ATOM     22  H2  UNL     1      53.683  15.418  79.366  1.00  0.00     0.212 HD
ENDBRANCH   2  21
BRANCH   5  23
HETATM   23  C6  UNL     1      53.043  10.748  80.563  1.00  0.00     0.175 C 
BRANCH  23  24
HETATM   24  N3  UNL     1      51.859  10.509  81.332  1.00  0.00    -0.363 N 
HETATM   25  C7  UNL     1      50.771  11.108  80.968  1.00  0.00     0.197 C 
HETATM   26  N4  UNL     1      50.723  11.987  79.837  1.00  0.00    -0.067 NA
HETATM   27  N5  UNL     1      49.544  10.928  81.677  1.00  0.00    -0.067 NA
ATOM     28  H3  UNL     1      51.873   9.887  82.141  1.00  0.00     0.161 HD
ENDBRANCH  23  24
ENDBRANCH   5  23
TORSDOF 9
ENDMDL
MODEL 2
REMARK VINA RESULT: -6.929076767      1.284      1.566
REMARK  9 active torsions:
REMARK  status: ('A' for Active; 'I' for Inactive)
REMARK       I    between atoms: C2_2  and  N1_4 
REMARK    1  A    between atoms: N1_4  and  C3_6 
REMARK    2  A    between atoms: C4_7  and  O2_8 
REMARK    3  A    between atoms: C5_12  and  C6_13 
REMARK    4  A    between atoms: C6_13  and  N3_14 
REMARK    5  A    between atoms: C8_20  and  O4_21 
REMARK    6  A    between atoms: O4_21  and  C9_22 
REMARK    7  A    between atoms: C9_22  and  C10_23 
REMARK    8  A    between atoms: C10_23  and  C11_24 
REMARK    9  A    between atoms: C11_24  and  N6_25 
ROOT
HETATM    1  C3  UNL     1      53.314  14.216  82.048  1.00  0.00     0.187 C 
HETATM    2  C4  UNL     1      53.597  13.904  80.577  1.00  0.00     0.243 C 
HETATM    3  N2  UNL     1      54.468  12.781  80.512  1.00  0.00    -0.368 N 
ATOM      4  H2  UNL     1      55.326  12.792  79.961  1.00  0.00     0.158 HD
HETATM    5  C5  UNL     1      54.067  11.641  81.266  1.00  0.00     0.239 C 
HETATM    6  O3  UNL     1      53.664  11.967  82.539  1.00  0.00    -0.333 OA
HETATM    7  C8  UNL     1      54.171  13.250  82.838  1.00  0.00     0.289 C 
ENDROOT
BRANCH   7   8
HETATM    8  O4  UNL     1      54.186  13.503  84.181  1.00  0.00    -0.359 OA
BRANCH   8   9
HETATM    9  C9  UNL     1      55.506  13.615  84.606  1.00  0.00     0.172 C 
BRANCH   9  10
HETATM   10  C10 UNL     1      56.114  12.278  84.961  1.00  0.00     0.053 C 
BRANCH  10  11
HETATM   11  C11 UNL     1      55.574  11.907  86.338  1.00  0.00     0.231 C 
BRANCH  11  12
HETATM   12  N6  UNL     1      54.267  11.319  86.234  1.00  0.00    -0.079 N 
ATOM     13  H63 UNL     1      54.065  10.708  87.025  1.00  0.00     0.274 HD
ATOM     14  H62 UNL     1      53.530  12.009  86.380  1.00  0.00     0.274 HD
ATOM     15  H61 UNL     1      54.157  10.832  85.344  1.00  0.00     0.274 HD
ENDBRANCH  11  12
ENDBRANCH  10  11
ENDBRANCH   9  10
ENDBRANCH   8   9
ENDBRANCH   7   8
BRANCH   1  16
HETATM   16  N1  UNL     1      53.577  15.582  82.372  1.00  0.00    -0.348 N 
HETATM   17  C2  UNL     1      52.536  16.452  82.715  1.00  0.00     0.214 C 
HETATM   18  C1  UNL     1      52.761  17.888  83.060  1.00  0.00     0.117 C 
HETATM   19  O1  UNL     1      51.339  16.056  82.749  1.00  0.00    -0.274 OA
ATOM     20  H1  UNL     1      54.536  15.927  82.352  1.00  0.00     0.163 HD
ENDBRANCH   1  16
BRANCH   2  21
HETATM   21  O2  UNL     1      54.291  15.017  80.082  1.00  0.00    -0.375 OA
ATOM     22  H2  UNL     1      54.266  14.934  79.136  1.00  0.00     0.212 HD
ENDBRANCH   2  21
BRANCH   5  23
HETATM   23  C6  UNL     1      53.063  10.773  80.541  1.00  0.00     0.175 C 
BRANCH  23  24
HETATM   24  N3  UNL     1      51.887  10.512  81.316  1.00  0.00    -0.363 N 
HETATM   25  C7  UNL     1      50.796  11.122  80.981  1.00  0.00     0.197 C 
HETATM   26  N4  UNL     1      50.736  12.034  79.877  1.00  0.00    -0.067 NA
HETATM   27  N5  UNL     1      49.577  10.923  81.698  1.00  0.00    -0.067 NA
ATOM     28  H3  UNL     1      51.909   9.868  82.106  1.00  0.00     0.161 HD
ENDBRANCH  23  24
ENDBRANCH   5  23
TORSDOF 9
ENDMDL
MODEL 3
REMARK VINA RESULT: -6.640599575      1.919      5.201
REMARK  9 active torsions:
REMARK  status: ('A' for Active; 'I' for Inactive)
REMARK       I    between atoms: C2_2  and  N1_4 
REMARK    1  A    between atoms: N1_4  and  C3_6 
REMARK    2  A    between atoms: C4_7  and  O2_8 
REMARK    3  A    between atoms: C5_12  and  C6_13 
REMARK    4  A    between atoms: C6_13  and  N3_14 
REMARK    5  A    between atoms: C8_20  and  O4_21 
REMARK    6  A    between atoms: O4_21  and  C9_22 
REMARK    7  A    between atoms: C9_22  and  C10_23 
REMARK    8  A    between atoms: C10_23  and  C11_24 
REMARK    9  A    between atoms: C11_24  and  N6_25 
ROOT
HETATM    1  C3  UNL     1      54.695  13.313  82.575  1.00  0.00     0.187 C 
HETATM    2  C4  UNL     1      55.226  14.529  81.811  1.00  0.00     0.243 C 
HETATM    3  N2  UNL     1      54.706  14.493  80.487  1.00  0.00    -0.368 N 
ATOM      4  H2  UNL     1      55.306  14.581  79.667  1.00  0.00     0.158 HD
HETATM    5  C5  UNL     1      53.296  14.328  80.379  1.00  0.00     0.239 C 
HETATM    6  O3  UNL     1      52.818  13.331  81.196  1.00  0.00    -0.333 OA
HETATM    7  C8  UNL     1      53.908  12.511  81.560  1.00  0.00     0.289 C 
ENDROOT
BRANCH   7   8
HETATM    8  O4  UNL     1      53.507  11.287  82.020  1.00  0.00    -0.359 OA
BRANCH   8   9
HETATM    9  C9  UNL     1      52.353  10.906  81.344  1.00  0.00     0.172 C 
BRANCH   9  10
HETATM   10  C10 UNL     1      52.653  10.174  80.057  1.00  0.00     0.053 C 
BRANCH  10  11
HETATM   11  C11 UNL     1      51.542  10.541  79.079  1.00  0.00     0.231 C 
BRANCH  11  12
HETATM   12  N6  UNL     1      50.842  11.717  79.518  1.00  0.00    -0.079 N 
ATOM     13  H63 UNL     1      49.957  11.483  79.967  1.00  0.00     0.274 HD
ATOM     14  H62 UNL     1      51.307  12.158  80.312  1.00  0.00     0.274 HD
ATOM     15  H61 UNL     1      50.712  12.371  78.746  1.00  0.00     0.274 HD
ENDBRANCH  11  12
ENDBRANCH  10  11
ENDBRANCH   9  10
ENDBRANCH   8   9
ENDBRANCH   7   8
BRANCH   1  16
HETATM   16  N1  UNL     1      55.742  12.558  83.185  1.00  0.00    -0.348 N 
HETATM   17  C2  UNL     1      55.807  12.413  84.575  1.00  0.00     0.214 C 
HETATM   18  C1  UNL     1      56.884  11.634  85.259  1.00  0.00     0.117 C 
HETATM   19  O1  UNL     1      54.945  12.942  85.327  1.00  0.00    -0.274 OA
ATOM     20  H1  UNL     1      56.453  12.119  82.599  1.00  0.00     0.163 HD
ENDBRANCH   1  16
BRANCH   2  21
HETATM   21  O2  UNL     1      56.614  14.349  81.734  1.00  0.00    -0.375 OA
ATOM     22  H2  UNL     1      56.905  14.221  82.629  1.00  0.00     0.212 HD
ENDBRANCH   2  21
BRANCH   5  23
HETATM   23  C6  UNL     1      52.532  15.624  80.533  1.00  0.00     0.175 C 
BRANCH  23  24
HETATM   24  N3  UNL     1      51.825  15.712  81.775  1.00  0.00    -0.363 N 
HETATM   25  C7  UNL     1      52.188  16.631  82.612  1.00  0.00     0.197 C 
HETATM   26  N4  UNL     1      53.257  17.543  82.333  1.00  0.00    -0.067 NA
HETATM   27  N5  UNL     1      51.540  16.791  83.875  1.00  0.00    -0.067 NA
ATOM     28  H3  UNL     1      51.062  15.073  81.994  1.00  0.00     0.161 HD
ENDBRANCH  23  24
ENDBRANCH   5  23
TORSDOF 9
ENDMDL
MODEL 4
REMARK VINA RESULT: -6.492580165      1.790      5.390
REMARK  9 active torsions:
REMARK  status: ('A' for Active; 'I' for Inactive)
REMARK       I    between atoms: C2_2  and  N1_4 
REMARK    1  A    between atoms: N1_4  and  C3_6 
REMARK    2  A    between atoms: C4_7  and  O2_8 
REMARK    3  A    between atoms: C5_12  and  C6_13 
REMARK    4  A    between atoms: C6_13  and  N3_14 
REMARK    5  A    between atoms: C8_20  and  O4_21 
REMARK    6  A    between atoms: O4_21  and  C9_22 
REMARK    7  A    between atoms: C9_22  and  C10_23 
REMARK    8  A    between atoms: C10_23  and  C11_24 
REMARK    9  A    between atoms: C11_24  and  N6_25 
ROOT
HETATM    1  C3  UNL     1      52.708  12.894  81.655  1.00  0.00     0.187 C 
HETATM    2  C4  UNL     1      53.984  12.289  81.064  1.00  0.00     0.243 C 
HETATM    3  N2  UNL     1      54.800  13.345  80.571  1.00  0.00    -0.368 N 
ATOM      4  H2  UNL     1      55.182  13.339  79.626  1.00  0.00     0.158 HD
HETATM    5  C5  UNL     1      55.048  14.413  81.481  1.00  0.00     0.239 C 
HETATM    6  O3  UNL     1      53.907  14.836  82.121  1.00  0.00    -0.333 OA
HETATM    7  C8  UNL     1      52.799  14.380  81.375  1.00  0.00     0.289 C 
ENDROOT
BRANCH   7   8
HETATM    8  O4  UNL     1      51.654  15.064  81.673  1.00  0.00    -0.359 OA
BRANCH   8   9
HETATM    9  C9  UNL     1      51.884  15.867  82.785  1.00  0.00     0.172 C 
BRANCH   9  10
HETATM   10  C10 UNL     1      52.370  17.247  82.410  1.00  0.00     0.053 C 
BRANCH  10  11
HETATM   11  C11 UNL     1      53.287  17.706  83.538  1.00  0.00     0.231 C 
BRANCH  11  12
HETATM   12  N6  UNL     1      53.661  16.600  84.376  1.00  0.00    -0.079 N 
ATOM     13  H63 UNL     1      54.295  16.890  85.121  1.00  0.00     0.274 HD
ATOM     14  H62 UNL     1      52.881  16.283  84.951  1.00  0.00     0.274 HD
ATOM     15  H61 UNL     1      54.054  15.841  83.821  1.00  0.00     0.274 HD
ENDBRANCH  11  12
ENDBRANCH  10  11
ENDBRANCH   9  10
ENDBRANCH   8   9
ENDBRANCH   7   8
BRANCH   1  16
HETATM   16  N1  UNL     1      51.528  12.300  81.115  1.00  0.00    -0.348 N 
HETATM   17  C2  UNL     1      50.945  11.182  81.723  1.00  0.00     0.214 C 
HETATM   18  C1  UNL     1      49.711  10.525  81.195  1.00  0.00     0.117 C 
HETATM   19  O1  UNL     1      51.443  10.669  82.761  1.00  0.00    -0.274 OA
ATOM     20  H1  UNL     1      51.104  12.696  80.276  1.00  0.00     0.163 HD
ENDBRANCH   1  16
BRANCH   2  21
HETATM   21  O2  UNL     1      53.565  11.522  79.968  1.00  0.00    -0.375 OA
ATOM     22  H2  UNL     1      53.070  10.799  80.337  1.00  0.00     0.212 HD
ENDBRANCH   2  21
BRANCH   5  23
HETATM   23  C6  UNL     1      56.181  14.124  82.440  1.00  0.00     0.175 C 
BRANCH  23  24
HETATM   24  N3  UNL     1      57.348  14.914  82.179  1.00  0.00    -0.363 N 
HETATM   25  C7  UNL     1      57.597  15.904  82.975  1.00  0.00     0.197 C 
HETATM   26  N4  UNL     1      56.753  16.224  84.087  1.00  0.00    -0.067 NA
HETATM   27  N5  UNL     1      58.737  16.744  82.790  1.00  0.00    -0.067 NA
ATOM     28  H3  UNL     1      57.961  14.703  81.392  1.00  0.00     0.161 HD
ENDBRANCH  23  24
ENDBRANCH   5  23
TORSDOF 9
ENDMDL
MODEL 5
REMARK VINA RESULT: -6.444906679      2.284      5.345
REMARK  9 active torsions:
REMARK  status: ('A' for Active; 'I' for Inactive)
REMARK       I    between atoms: C2_2  and  N1_4 
REMARK    1  A    between atoms: N1_4  and  C3_6 
REMARK    2  A    between atoms: C4_7  and  O2_8 
REMARK    3  A    between atoms: C5_12  and  C6_13 
REMARK    4  A    between atoms: C6_13  and  N3_14 
REMARK    5  A    between atoms: C8_20  and  O4_21 
REMARK    6  A    between atoms: O4_21  and  C9_22 
REMARK    7  A    between atoms: C9_22  and  C10_23 
REMARK    8  A    between atoms: C10_23  and  C11_24 
REMARK    9  A    between atoms: C11_24  and  N6_25 
ROOT
HETATM    1  C3  UNL     1      55.324  13.875  83.839  1.00  0.00     0.187 C 
HETATM    2  C4  UNL     1      56.076  15.207  83.770  1.00  0.00     0.243 C 
HETATM    3  N2  UNL     1      56.164  15.606  82.407  1.00  0.00    -0.368 N 
ATOM      4  H2  UNL     1      57.049  15.874  81.976  1.00  0.00     0.158 HD
HETATM    5  C5  UNL     1      54.938  15.610  81.682  1.00  0.00     0.239 C 
HETATM    6  O3  UNL     1      54.202  14.466  81.886  1.00  0.00    -0.333 OA
HETATM    7  C8  UNL     1      55.071  13.480  82.400  1.00  0.00     0.289 C 
ENDROOT
BRANCH   7   8
HETATM    8  O4  UNL     1      54.565  12.217  82.260  1.00  0.00    -0.359 OA
BRANCH   8   9
HETATM    9  C9  UNL     1      53.326  12.294  81.632  1.00  0.00     0.172 C 
BRANCH   9  10
HETATM   10  C10 UNL     1      52.760  10.933  81.304  1.00  0.00     0.053 C 
BRANCH  10  11
HETATM   11  C11 UNL     1      53.083  10.669  79.838  1.00  0.00     0.231 C 
BRANCH  11  12
HETATM   12  N6  UNL     1      54.504  10.585  79.634  1.00  0.00    -0.079 N 
ATOM     13  H63 UNL     1      54.789  11.057  78.776  1.00  0.00     0.274 HD
ATOM     14  H62 UNL     1      55.015  11.160  80.304  1.00  0.00     0.274 HD
ATOM     15  H61 UNL     1      54.816   9.615  79.653  1.00  0.00     0.274 HD
ENDBRANCH  11  12
ENDBRANCH  10  11
ENDBRANCH   9  10
ENDBRANCH   8   9
ENDBRANCH   7   8
BRANCH   1  16
HETATM   16  N1  UNL     1      56.048  12.883  84.567  1.00  0.00    -0.348 N 
HETATM   17  C2  UNL     1      55.407  12.078  85.515  1.00  0.00     0.214 C 
HETATM   18  C1  UNL     1      56.122  11.028  86.302  1.00  0.00     0.117 C 
HETATM   19  O1  UNL     1      54.176  12.205  85.754  1.00  0.00    -0.274 OA
ATOM     20  H1  UNL     1      57.046  12.760  84.393  1.00  0.00     0.163 HD
ENDBRANCH   1  16
BRANCH   2  21
HETATM   21  O2  UNL     1      57.374  14.931  84.222  1.00  0.00    -0.375 OA
ATOM     22  H2  UNL     1      57.921  14.930  83.445  1.00  0.00     0.212 HD
ENDBRANCH   2  21
BRANCH   5  23
HETATM   23  C6  UNL     1      54.127  16.870  81.891  1.00  0.00     0.175 C 
BRANCH  23  24
HETATM   24  N3  UNL     1      52.717  16.626  81.934  1.00  0.00    -0.363 N 
HETATM   25  C7  UNL     1      52.167  16.463  83.094  1.00  0.00     0.197 C 
HETATM   26  N4  UNL     1      52.918  16.520  84.313  1.00  0.00    -0.067 NA
HETATM   27  N5  UNL     1      50.767  16.215  83.231  1.00  0.00    -0.067 NA
ATOM     28  H3  UNL     1      52.164  16.581  81.078  1.00  0.00     0.161 HD
ENDBRANCH  23  24
ENDBRANCH   5  23
TORSDOF 9
ENDMDL
