MODEL 1
REMARK VINA RESULT: -10.300099735      0.000      0.000
REMARK  13 active torsions:
REMARK  status: ('A' for Active; 'I' for Inactive)
REMARK       I    between atoms: C1_2  and  N2_4 
REMARK    1  A    between atoms: N2_4  and  N3_6 
REMARK    2  A    between atoms: C2_8  and  C3_9 
REMARK    3  A    between atoms: C2_8  and  C5_19 
REMARK    4  A    between atoms: N4_11  and  N5_12 
REMARK    5  A    between atoms: C5_19  and  N8_20 
REMARK    6  A    between atoms: N8_20  and  N9_22 
REMARK    7  A    between atoms: N9_22  and  C6_24 
REMARK    8  A    between atoms: N11_32  and  C10_33 
REMARK    9  A    between atoms: C13_36  and  S1_37 
REMARK   10  A    between atoms: S1_37  and  N12_38 
REMARK   11  A    between atoms: C17_47  and  O7_48 
REMARK   12  A    between atoms: C17_47  and  C18_50 
REMARK   13  A    between atoms: C19_51  and  O8_52 
ROOT
HETATM    1  C5  UNL     1      16.324  -7.804 -12.202  1.00  0.00     0.113 C 
HETATM    2  C17 UNL     1      16.095  -6.496 -11.677  1.00  0.00     0.116 C 
ENDROOT
BRANCH   1   3
HETATM    3  C2  UNL     1      17.039  -8.769 -11.360  1.00  0.00     0.108 C 
HETATM    4  N3  UNL     1      16.460  -9.177 -10.312  1.00  0.00    -0.292 N 
ATOM      5  H3  UNL     1      15.497  -8.841 -10.261  1.00  0.00     0.187 HD
BRANCH   4   6
HETATM    6  N2  UNL     1      16.774  -9.934  -9.248  1.00  0.00    -0.254 N 
HETATM    7  C1  UNL     1      15.923 -10.064  -8.085  1.00  0.00     0.347 C 
HETATM    8  N1  UNL     1      16.334 -10.881  -7.004  1.00  0.00    -0.038 NA
HETATM    9  O1  UNL     1      14.829  -9.435  -8.079  1.00  0.00    -0.249 OA
ATOM     10  H2  UNL     1      17.658 -10.443  -9.260  1.00  0.00     0.191 HD
ENDBRANCH   4   6
BRANCH   3  11
HETATM   11  C3  UNL     1      18.430  -9.134 -11.632  1.00  0.00     0.099 A 
HETATM   12  C4  UNL     1      19.382  -8.450 -12.293  1.00  0.00     0.170 A 
HETATM   13  N4  UNL     1      20.533  -9.185 -12.268  1.00  0.00    -0.198 N 
HETATM   14  N6  UNL     1      20.234 -10.284 -11.596  1.00  0.00    -0.222 N 
HETATM   15  N7  UNL     1      19.004 -10.295 -11.203  1.00  0.00    -0.281 N 
ATOM     16  H6  UNL     1      20.898 -11.036 -11.409  1.00  0.00     0.210 HD
ATOM     17  H7  UNL     1      18.547 -11.035 -10.670  1.00  0.00     0.188 HD
BRANCH  13  18
HETATM   18  N5  UNL     1      21.751  -8.820 -12.842  1.00  0.00    -0.323 N 
ATOM     19  H52 UNL     1      22.167  -7.891 -12.916  1.00  0.00     0.179 HD
ATOM     20  H51 UNL     1      22.418  -9.452 -13.284  1.00  0.00     0.179 HD
ENDBRANCH  13  18
ENDBRANCH   3  11
ENDBRANCH   1   3
BRANCH   1  21
HETATM   21  N8  UNL     1      15.644  -8.317 -13.316  1.00  0.00    -0.296 N 
ATOM     22  H8  UNL     1      14.702  -8.693 -13.214  1.00  0.00     0.187 HD
BRANCH  21  23
HETATM   23  N9  UNL     1      16.249  -8.309 -14.536  1.00  0.00    -0.309 N 
ATOM     24  H9  UNL     1      16.770  -9.156 -14.765  1.00  0.00     0.186 HD
BRANCH  23  25
HETATM   25  C6  UNL     1      16.267  -7.319 -15.524  1.00  0.00     0.142 C 
HETATM   26  C7  UNL     1      17.131  -6.314 -15.586  1.00  0.00     0.121 A 
HETATM   27  N10 UNL     1      18.166  -6.122 -14.635  1.00  0.00    -0.313 N 
HETATM   28  C16 UNL     1      17.005  -5.331 -16.665  1.00  0.00     0.283 A 
HETATM   29  C8  UNL     1      19.045  -5.010 -14.734  1.00  0.00     0.315 A 
ATOM     30  H10 UNL     1      18.282  -6.790 -13.872  1.00  0.00     0.169 HD
HETATM   31  O2  UNL     1      19.973  -4.848 -13.872  1.00  0.00    -0.262 OA
HETATM   32  C9  UNL     1      18.875  -4.069 -15.822  1.00  0.00     0.323 A 
HETATM   33  O3  UNL     1      19.641  -3.067 -15.940  1.00  0.00    -0.261 OA
HETATM   34  N11 UNL     1      17.857  -4.205 -16.809  1.00  0.00    -0.239 N 
HETATM   35  O6  UNL     1      16.077  -5.488 -17.534  1.00  0.00    -0.265 OA
BRANCH  34  36
HETATM   36  C10 UNL     1      17.725  -3.238 -17.865  1.00  0.00     0.046 A 
HETATM   37  C11 UNL     1      18.442  -3.296 -19.027  1.00  0.00     0.032 A 
HETATM   38  C12 UNL     1      18.251  -2.325 -19.987  1.00  0.00     0.027 A 
HETATM   39  C13 UNL     1      17.368  -1.302 -19.820  1.00  0.00     0.079 A 
HETATM   40  C14 UNL     1      16.637  -1.239 -18.642  1.00  0.00     0.027 A 
HETATM   41  C15 UNL     1      16.837  -2.203 -17.707  1.00  0.00     0.032 A 
BRANCH  39  42
HETATM   42  S1  UNL     1      17.096  -0.047 -20.997  1.00  0.00     0.256 S 
HETATM   43  O4  UNL     1      17.279   1.330 -20.417  1.00  0.00    -0.201 OA
HETATM   44  O5  UNL     1      18.014  -0.288 -22.156  1.00  0.00    -0.201 OA
BRANCH  42  45
HETATM   45  N12 UNL     1      15.469  -0.235 -21.580  1.00  0.00    -0.324 N 
ATOM     46 2H12 UNL     1      14.940  -1.107 -21.597  1.00  0.00     0.169 HD
ATOM     47 1H12 UNL     1      15.155   0.682 -21.897  1.00  0.00     0.169 HD
ENDBRANCH  42  45
ENDBRANCH  39  42
ENDBRANCH  34  36
ENDBRANCH  23  25
ENDBRANCH  21  23
ENDBRANCH   1  21
BRANCH   2  48
HETATM   48  O7  UNL     1      16.206  -5.527 -12.565  1.00  0.00    -0.357 OA
ATOM     49  H7  UNL     1      16.816  -4.841 -12.321  1.00  0.00     0.217 HD
ENDBRANCH   2  48
BRANCH   2  50
HETATM   50  C18 UNL     1      15.760  -5.995 -10.378  1.00  0.00     0.121 A 
HETATM   51  C19 UNL     1      16.508  -5.085  -9.610  1.00  0.00     0.173 A 
HETATM   52  N13 UNL     1      15.837  -4.751  -8.498  1.00  0.00    -0.276 N 
HETATM   53  N14 UNL     1      14.698  -5.396  -8.509  1.00  0.00    -0.264 N 
ATOM     54  H13 UNL     1      16.157  -4.109  -7.772  1.00  0.00     0.189 HD
HETATM   55  C20 UNL     1      14.623  -6.165  -9.650  1.00  0.00     0.277 A 
ATOM     56  H14 UNL     1      13.980  -5.339  -7.788  1.00  0.00     0.190 HD
HETATM   57  O9  UNL     1      13.583  -6.858  -9.838  1.00  0.00    -0.266 OA
BRANCH  51  58
HETATM   58  O8  UNL     1      17.775  -4.580  -9.933  1.00  0.00    -0.344 OA
ATOM     59  H8  UNL     1      18.603  -5.034  -9.821  1.00  0.00     0.219 HD
ENDBRANCH  51  58
ENDBRANCH   2  50
TORSDOF 13
ENDMDL
MODEL 2
REMARK VINA RESULT: -10.148532212      0.398      1.216
REMARK  13 active torsions:
REMARK  status: ('A' for Active; 'I' for Inactive)
REMARK       I    between atoms: C1_2  and  N2_4 
REMARK    1  A    between atoms: N2_4  and  N3_6 
REMARK    2  A    between atoms: C2_8  and  C3_9 
REMARK    3  A    between atoms: C2_8  and  C5_19 
REMARK    4  A    between atoms: N4_11  and  N5_12 
REMARK    5  A    between atoms: C5_19  and  N8_20 
REMARK    6  A    between atoms: N8_20  and  N9_22 
REMARK    7  A    between atoms: N9_22  and  C6_24 
REMARK    8  A    between atoms: N11_32  and  C10_33 
REMARK    9  A    between atoms: C13_36  and  S1_37 
REMARK   10  A    between atoms: S1_37  and  N12_38 
REMARK   11  A    between atoms: C17_47  and  O7_48 
REMARK   12  A    between atoms: C17_47  and  C18_50 
REMARK   13  A    between atoms: C19_51  and  O8_52 
ROOT
HETATM    1  C5  UNL     1      16.288  -7.684 -12.204  1.00  0.00     0.113 C 
HETATM    2  C17 UNL     1      16.190  -6.338 -11.734  1.00  0.00     0.116 C 
ENDROOT
BRANCH   1   3
HETATM    3  C2  UNL     1      16.789  -8.703 -11.276  1.00  0.00     0.108 C 
HETATM    4  N3  UNL     1      16.081  -8.974 -10.263  1.00  0.00    -0.292 N 
ATOM      5  H3  UNL     1      15.178  -8.499 -10.299  1.00  0.00     0.187 HD
BRANCH   4   6
HETATM    6  N2  UNL     1      16.201  -9.719  -9.152  1.00  0.00    -0.254 N 
HETATM    7  C1  UNL     1      15.153  -9.848  -8.163  1.00  0.00     0.347 C 
HETATM    8  N1  UNL     1      15.366 -10.651  -7.017  1.00  0.00    -0.038 NA
HETATM    9  O1  UNL     1      14.072  -9.229  -8.363  1.00  0.00    -0.249 OA
ATOM     10  H2  UNL     1      17.076 -10.219  -8.997  1.00  0.00     0.191 HD
ENDBRANCH   4   6
BRANCH   3  11
HETATM   11  C3  UNL     1      18.126  -9.279 -11.426  1.00  0.00     0.099 A 
HETATM   12  C4  UNL     1      19.165  -8.851 -12.166  1.00  0.00     0.170 A 
HETATM   13  N4  UNL     1      20.214  -9.703 -11.964  1.00  0.00    -0.198 N 
HETATM   14  N6  UNL     1      19.769 -10.613 -11.112  1.00  0.00    -0.222 N 
HETATM   15  N7  UNL     1      18.543 -10.401 -10.769  1.00  0.00    -0.281 N 
ATOM     16  H6  UNL     1      20.331 -11.392 -10.767  1.00  0.00     0.210 HD
ATOM     17  H7  UNL     1      17.989 -10.967 -10.126  1.00  0.00     0.188 HD
BRANCH  13  18
HETATM   18  N5  UNL     1      21.475  -9.602 -12.551  1.00  0.00    -0.323 N 
ATOM     19  H52 UNL     1      21.779  -9.931 -13.467  1.00  0.00     0.179 HD
ATOM     20  H51 UNL     1      22.298  -9.171 -12.130  1.00  0.00     0.179 HD
ENDBRANCH  13  18
ENDBRANCH   3  11
ENDBRANCH   1   3
BRANCH   1  21
HETATM   21  N8  UNL     1      15.649  -8.142 -13.365  1.00  0.00    -0.296 N 
ATOM     22  H8  UNL     1      14.695  -8.499 -13.318  1.00  0.00     0.187 HD
BRANCH  21  23
HETATM   23  N9  UNL     1      16.309  -8.108 -14.555  1.00  0.00    -0.309 N 
ATOM     24  H9  UNL     1      16.887  -8.926 -14.752  1.00  0.00     0.186 HD
BRANCH  23  25
HETATM   25  C6  UNL     1      16.317  -7.125 -15.551  1.00  0.00     0.142 C 
HETATM   26  C7  UNL     1      17.201  -6.141 -15.648  1.00  0.00     0.121 A 
HETATM   27  N10 UNL     1      18.271  -5.966 -14.733  1.00  0.00    -0.313 N 
HETATM   28  C16 UNL     1      17.061  -5.163 -16.730  1.00  0.00     0.283 A 
HETATM   29  C8  UNL     1      19.170  -4.875 -14.869  1.00  0.00     0.315 A 
ATOM     30  H10 UNL     1      18.396  -6.631 -13.969  1.00  0.00     0.169 HD
HETATM   31  O2  UNL     1      20.130  -4.727 -14.038  1.00  0.00    -0.262 OA
HETATM   32  C9  UNL     1      18.986  -3.938 -15.958  1.00  0.00     0.323 A 
HETATM   33  O3  UNL     1      19.770  -2.953 -16.108  1.00  0.00    -0.261 OA
HETATM   34  N11 UNL     1      17.933  -4.058 -16.910  1.00  0.00    -0.239 N 
HETATM   35  O6  UNL     1      16.103  -5.305 -17.567  1.00  0.00    -0.265 OA
BRANCH  34  36
HETATM   36  C10 UNL     1      17.788  -3.094 -17.969  1.00  0.00     0.046 A 
HETATM   37  C11 UNL     1      18.492  -3.158 -19.139  1.00  0.00     0.032 A 
HETATM   38  C12 UNL     1      18.289  -2.190 -20.100  1.00  0.00     0.027 A 
HETATM   39  C13 UNL     1      17.408  -1.167 -19.927  1.00  0.00     0.079 A 
HETATM   40  C14 UNL     1      16.691  -1.099 -18.741  1.00  0.00     0.027 A 
HETATM   41  C15 UNL     1      16.902  -2.059 -17.804  1.00  0.00     0.032 A 
BRANCH  39  42
HETATM   42  S1  UNL     1      17.122   0.083 -21.106  1.00  0.00     0.256 S 
HETATM   43  O4  UNL     1      17.405   1.458 -20.562  1.00  0.00    -0.201 OA
HETATM   44  O5  UNL     1      17.953  -0.218 -22.315  1.00  0.00    -0.201 OA
BRANCH  42  45
HETATM   45  N12 UNL     1      15.454  -0.036 -21.584  1.00  0.00    -0.324 N 
ATOM     46 2H12 UNL     1      14.932  -0.902 -21.709  1.00  0.00     0.169 HD
ATOM     47 1H12 UNL     1      15.110   0.916 -21.713  1.00  0.00     0.169 HD
ENDBRANCH  42  45
ENDBRANCH  39  42
ENDBRANCH  34  36
ENDBRANCH  23  25
ENDBRANCH  21  23
ENDBRANCH   1  21
BRANCH   2  48
HETATM   48  O7  UNL     1      16.509  -5.425 -12.630  1.00  0.00    -0.357 OA
ATOM     49  H7  UNL     1      16.205  -5.616 -13.509  1.00  0.00     0.217 HD
ENDBRANCH   2  48
BRANCH   2  50
HETATM   50  C18 UNL     1      15.810  -5.751 -10.484  1.00  0.00     0.121 A 
HETATM   51  C19 UNL     1      14.632  -6.008  -9.760  1.00  0.00     0.173 A 
HETATM   52  N13 UNL     1      14.661  -5.369  -8.581  1.00  0.00    -0.276 N 
HETATM   53  N14 UNL     1      15.794  -4.717  -8.508  1.00  0.00    -0.264 N 
ATOM     54  H13 UNL     1      13.932  -5.388  -7.868  1.00  0.00     0.189 HD
HETATM   55  C20 UNL     1      16.519  -4.934  -9.659  1.00  0.00     0.277 A 
ATOM     56  H14 UNL     1      16.093  -4.140  -7.722  1.00  0.00     0.190 HD
HETATM   57  O9  UNL     1      17.652  -4.385  -9.767  1.00  0.00    -0.266 OA
BRANCH  51  58
HETATM   58  O8  UNL     1      13.563  -6.810 -10.182  1.00  0.00    -0.344 OA
ATOM     59  H8  UNL     1      13.107  -7.456  -9.655  1.00  0.00     0.219 HD
ENDBRANCH  51  58
ENDBRANCH   2  50
TORSDOF 13
ENDMDL
MODEL 3
REMARK VINA RESULT: -9.904698928      1.247      2.795
REMARK  13 active torsions:
REMARK  status: ('A' for Active; 'I' for Inactive)
REMARK       I    between atoms: C1_2  and  N2_4 
REMARK    1  A    between atoms: N2_4  and  N3_6 
REMARK    2  A    between atoms: C2_8  and  C3_9 
REMARK    3  A    between atoms: C2_8  and  C5_19 
REMARK    4  A    between atoms: N4_11  and  N5_12 
REMARK    5  A    between atoms: C5_19  and  N8_20 
REMARK    6  A    between atoms: N8_20  and  N9_22 
REMARK    7  A    between atoms: N9_22  and  C6_24 
REMARK    8  A    between atoms: N11_32  and  C10_33 
REMARK    9  A    between atoms: C13_36  and  S1_37 
REMARK   10  A    between atoms: S1_37  and  N12_38 
REMARK   11  A    between atoms: C17_47  and  O7_48 
REMARK   12  A    between atoms: C17_47  and  C18_50 
REMARK   13  A    between atoms: C19_51  and  O8_52 
ROOT
HETATM    1  C5  UNL     1      16.356  -7.867 -11.989  1.00  0.00     0.113 C 
HETATM    2  C17 UNL     1      16.052  -6.533 -11.579  1.00  0.00     0.116 C 
ENDROOT
BRANCH   1   3
HETATM    3  C2  UNL     1      17.181  -8.690 -11.098  1.00  0.00     0.108 C 
HETATM    4  N3  UNL     1      18.362  -8.953 -11.468  1.00  0.00    -0.292 N 
ATOM      5  H3  UNL     1      18.611  -8.444 -12.317  1.00  0.00     0.187 HD
BRANCH   4   6
HETATM    6  N2  UNL     1      19.376  -9.723 -11.041  1.00  0.00    -0.254 N 
HETATM    7  C1  UNL     1      20.172 -10.551 -11.921  1.00  0.00     0.347 C 
HETATM    8  N1  UNL     1      21.220 -11.337 -11.385  1.00  0.00    -0.038 NA
HETATM    9  O1  UNL     1      19.896 -10.539 -13.152  1.00  0.00    -0.249 OA
ATOM     10  H2  UNL     1      19.596  -9.726 -10.045  1.00  0.00     0.191 HD
ENDBRANCH   4   6
BRANCH   3  11
HETATM   11  C3  UNL     1      16.619  -9.314  -9.900  1.00  0.00     0.099 A 
HETATM   12  C4  UNL     1      17.178 -10.194  -9.049  1.00  0.00     0.170 A 
HETATM   13  N4  UNL     1      16.274 -10.471  -8.064  1.00  0.00    -0.198 N 
HETATM   14  N6  UNL     1      15.204  -9.751  -8.356  1.00  0.00    -0.222 N 
HETATM   15  N7  UNL     1      15.364  -9.054  -9.430  1.00  0.00    -0.281 N 
ATOM     16  H6  UNL     1      14.350  -9.746  -7.796  1.00  0.00     0.210 HD
ATOM     17  H7  UNL     1      14.679  -8.425  -9.851  1.00  0.00     0.188 HD
BRANCH  13  18
HETATM   18  N5  UNL     1      16.474 -11.338  -6.989  1.00  0.00    -0.323 N 
ATOM     19  H52 UNL     1      16.517 -12.357  -6.993  1.00  0.00     0.179 HD
ATOM     20  H51 UNL     1      16.608 -11.064  -6.017  1.00  0.00     0.179 HD
ENDBRANCH  13  18
ENDBRANCH   3  11
ENDBRANCH   1   3
BRANCH   1  21
HETATM   21  N8  UNL     1      15.668  -8.534 -13.013  1.00  0.00    -0.296 N 
ATOM     22  H8  UNL     1      14.788  -9.009 -12.814  1.00  0.00     0.187 HD
BRANCH  21  23
HETATM   23  N9  UNL     1      16.181  -8.543 -14.274  1.00  0.00    -0.309 N 
ATOM     24  H9  UNL     1      16.631  -9.415 -14.551  1.00  0.00     0.186 HD
BRANCH  23  25
HETATM   25  C6  UNL     1      16.185  -7.539 -15.249  1.00  0.00     0.142 C 
HETATM   26  C7  UNL     1      17.081  -6.566 -15.342  1.00  0.00     0.121 A 
HETATM   27  N10 UNL     1      18.169  -6.425 -14.443  1.00  0.00    -0.313 N 
HETATM   28  C16 UNL     1      16.937  -5.564 -16.402  1.00  0.00     0.283 A 
HETATM   29  C8  UNL     1      19.082  -5.344 -14.573  1.00  0.00     0.315 A 
ATOM     30  H10 UNL     1      18.298  -7.107 -13.695  1.00  0.00     0.169 HD
HETATM   31  O2  UNL     1      20.058  -5.227 -13.757  1.00  0.00    -0.262 OA
HETATM   32  C9  UNL     1      18.892  -4.382 -15.639  1.00  0.00     0.323 A 
HETATM   33  O3  UNL     1      19.688  -3.406 -15.783  1.00  0.00    -0.261 OA
HETATM   34  N11 UNL     1      17.821  -4.467 -16.575  1.00  0.00    -0.239 N 
HETATM   35  O6  UNL     1      15.961  -5.675 -17.224  1.00  0.00    -0.265 OA
BRANCH  34  36
HETATM   36  C10 UNL     1      17.671  -3.481 -17.611  1.00  0.00     0.046 A 
HETATM   37  C11 UNL     1      18.319  -3.554 -18.812  1.00  0.00     0.032 A 
HETATM   38  C12 UNL     1      18.116  -2.562 -19.749  1.00  0.00     0.027 A 
HETATM   39  C13 UNL     1      17.289  -1.505 -19.520  1.00  0.00     0.079 A 
HETATM   40  C14 UNL     1      16.629  -1.427 -18.302  1.00  0.00     0.027 A 
HETATM   41  C15 UNL     1      16.840  -2.411 -17.390  1.00  0.00     0.032 A 
BRANCH  39  42
HETATM   42  S1  UNL     1      17.006  -0.224 -20.666  1.00  0.00     0.256 S 
HETATM   43  O4  UNL     1      18.285   0.316 -21.247  1.00  0.00    -0.201 OA
HETATM   44  O5  UNL     1      16.088  -0.744 -21.729  1.00  0.00    -0.201 OA
BRANCH  42  45
HETATM   45  N12 UNL     1      16.156   1.038 -19.823  1.00  0.00    -0.324 N 
ATOM     46 2H12 UNL     1      15.281   1.468 -20.123  1.00  0.00     0.169 HD
ATOM     47 1H12 UNL     1      16.697   1.259 -18.988  1.00  0.00     0.169 HD
ENDBRANCH  42  45
ENDBRANCH  39  42
ENDBRANCH  34  36
ENDBRANCH  23  25
ENDBRANCH  21  23
ENDBRANCH   1  21
BRANCH   2  48
HETATM   48  O7  UNL     1      16.047  -5.650 -12.559  1.00  0.00    -0.357 OA
ATOM     49  H7  UNL     1      16.352  -4.786 -12.309  1.00  0.00     0.217 HD
ENDBRANCH   2  48
BRANCH   2  50
HETATM   50  C18 UNL     1      15.738  -5.931 -10.317  1.00  0.00     0.121 A 
HETATM   51  C19 UNL     1      16.533  -5.019  -9.601  1.00  0.00     0.173 A 
HETATM   52  N13 UNL     1      15.876  -4.577  -8.518  1.00  0.00    -0.276 N 
HETATM   53  N14 UNL     1      14.702  -5.156  -8.501  1.00  0.00    -0.264 N 
ATOM     54  H13 UNL     1      16.228  -3.910  -7.832  1.00  0.00     0.189 HD
HETATM   55  C20 UNL     1      14.589  -5.990  -9.591  1.00  0.00     0.277 A 
ATOM     56  H14 UNL     1      13.984  -5.012  -7.791  1.00  0.00     0.190 HD
HETATM   57  O9  UNL     1      13.512  -6.632  -9.746  1.00  0.00    -0.266 OA
BRANCH  51  58
HETATM   58  O8  UNL     1      17.829  -4.610  -9.943  1.00  0.00    -0.344 OA
ATOM     59  H8  UNL     1      18.113  -3.715 -10.088  1.00  0.00     0.219 HD
ENDBRANCH  51  58
ENDBRANCH   2  50
TORSDOF 13
ENDMDL
MODEL 4
REMARK VINA RESULT: -9.874856603      6.244      9.953
REMARK  13 active torsions:
REMARK  status: ('A' for Active; 'I' for Inactive)
REMARK       I    between atoms: C1_2  and  N2_4 
REMARK    1  A    between atoms: N2_4  and  N3_6 
REMARK    2  A    between atoms: C2_8  and  C3_9 
REMARK    3  A    between atoms: C2_8  and  C5_19 
REMARK    4  A    between atoms: N4_11  and  N5_12 
REMARK    5  A    between atoms: C5_19  and  N8_20 
REMARK    6  A    between atoms: N8_20  and  N9_22 
REMARK    7  A    between atoms: N9_22  and  C6_24 
REMARK    8  A    between atoms: N11_32  and  C10_33 
REMARK    9  A    between atoms: C13_36  and  S1_37 
REMARK   10  A    between atoms: S1_37  and  N12_38 
REMARK   11  A    between atoms: C17_47  and  O7_48 
REMARK   12  A    between atoms: C17_47  and  C18_50 
REMARK   13  A    between atoms: C19_51  and  O8_52 
ROOT
HETATM    1  C5  UNL     1      18.953  -7.796 -12.789  1.00  0.00     0.113 C 
HETATM    2  C17 UNL     1      19.559  -8.973 -12.253  1.00  0.00     0.116 C 
ENDROOT
BRANCH   1   3
HETATM    3  C2  UNL     1      17.606  -7.913 -13.360  1.00  0.00     0.108 C 
HETATM    4  N3  UNL     1      17.504  -7.939 -14.621  1.00  0.00    -0.292 N 
ATOM      5  H3  UNL     1      18.419  -7.983 -15.070  1.00  0.00     0.187 HD
BRANCH   4   6
HETATM    6  N2  UNL     1      16.511  -7.924 -15.525  1.00  0.00    -0.254 N 
HETATM    7  C1  UNL     1      16.052  -6.719 -16.182  1.00  0.00     0.347 C 
HETATM    8  N1  UNL     1      14.995  -6.792 -17.121  1.00  0.00    -0.038 NA
HETATM    9  O1  UNL     1      16.621  -5.632 -15.888  1.00  0.00    -0.249 OA
ATOM     10  H2  UNL     1      16.057  -8.806 -15.761  1.00  0.00     0.191 HD
ENDBRANCH   4   6
BRANCH   3  11
HETATM   11  C3  UNL     1      16.412  -7.849 -12.516  1.00  0.00     0.099 A 
HETATM   12  C4  UNL     1      15.850  -6.790 -11.906  1.00  0.00     0.170 A 
HETATM   13  N4  UNL     1      14.731  -7.218 -11.249  1.00  0.00    -0.198 N 
HETATM   14  N6  UNL     1      14.661  -8.518 -11.486  1.00  0.00    -0.222 N 
HETATM   15  N7  UNL     1      15.632  -8.932 -12.228  1.00  0.00    -0.281 N 
ATOM     16  H6  UNL     1      13.924  -9.124 -11.123  1.00  0.00     0.210 HD
ATOM     17  H7  UNL     1      15.788  -9.890 -12.541  1.00  0.00     0.188 HD
BRANCH  13  18
HETATM   18  N5  UNL     1      13.868  -6.422 -10.497  1.00  0.00    -0.323 N 
ATOM     19  H52 UNL     1      14.099  -5.674  -9.843  1.00  0.00     0.179 HD
ATOM     20  H51 UNL     1      12.850  -6.478 -10.497  1.00  0.00     0.179 HD
ENDBRANCH  13  18
ENDBRANCH   3  11
ENDBRANCH   1   3
BRANCH   1  21
HETATM   21  N8  UNL     1      19.418  -6.501 -12.521  1.00  0.00    -0.296 N 
ATOM     22  H8  UNL     1      18.807  -5.820 -12.070  1.00  0.00     0.187 HD
BRANCH  21  23
HETATM   23  N9  UNL     1      20.689  -6.157 -12.867  1.00  0.00    -0.309 N 
ATOM     24  H9  UNL     1      20.908  -6.257 -13.858  1.00  0.00     0.186 HD
BRANCH  23  25
HETATM   25  C6  UNL     1      21.741  -5.688 -12.072  1.00  0.00     0.142 C 
HETATM   26  C7  UNL     1      22.916  -6.285 -11.928  1.00  0.00     0.121 A 
HETATM   27  N10 UNL     1      23.255  -7.498 -12.580  1.00  0.00    -0.313 N 
HETATM   28  C16 UNL     1      23.912  -5.690 -11.032  1.00  0.00     0.283 A 
HETATM   29  C8  UNL     1      24.520  -8.109 -12.363  1.00  0.00     0.315 A 
ATOM     30  H10 UNL     1      22.584  -7.937 -13.211  1.00  0.00     0.169 HD
HETATM   31  O2  UNL     1      24.814  -9.202 -12.956  1.00  0.00    -0.262 OA
HETATM   32  C9  UNL     1      25.466  -7.477 -11.468  1.00  0.00     0.323 A 
HETATM   33  O3  UNL     1      26.603  -7.995 -11.253  1.00  0.00    -0.261 OA
HETATM   34  N11 UNL     1      25.188  -6.258 -10.784  1.00  0.00    -0.239 N 
HETATM   35  O6  UNL     1      23.625  -4.593 -10.436  1.00  0.00    -0.265 OA
BRANCH  34  36
HETATM   36  C10 UNL     1      26.160  -5.676  -9.898  1.00  0.00     0.046 A 
HETATM   37  C11 UNL     1      27.062  -4.729 -10.295  1.00  0.00     0.032 A 
HETATM   38  C12 UNL     1      27.959  -4.225  -9.377  1.00  0.00     0.027 A 
HETATM   39  C13 UNL     1      27.979  -4.637  -8.079  1.00  0.00     0.079 A 
HETATM   40  C14 UNL     1      27.065  -5.597  -7.671  1.00  0.00     0.027 A 
HETATM   41  C15 UNL     1      26.188  -6.084  -8.588  1.00  0.00     0.032 A 
BRANCH  39  42
HETATM   42  S1  UNL     1      29.095  -4.038  -6.884  1.00  0.00     0.256 S 
HETATM   43  O4  UNL     1      28.697  -4.425  -5.485  1.00  0.00    -0.201 OA
HETATM   44  O5  UNL     1      30.464  -4.540  -7.231  1.00  0.00    -0.201 OA
BRANCH  42  45
HETATM   45  N12 UNL     1      29.128  -2.306  -7.036  1.00  0.00    -0.324 N 
ATOM     46 2H12 UNL     1      28.346  -1.678  -6.849  1.00  0.00     0.169 HD
ATOM     47 1H12 UNL     1      30.066  -2.049  -7.343  1.00  0.00     0.169 HD
ENDBRANCH  42  45
ENDBRANCH  39  42
ENDBRANCH  34  36
ENDBRANCH  23  25
ENDBRANCH  21  23
ENDBRANCH   1  21
BRANCH   2  48
HETATM   48  O7  UNL     1      20.854  -9.070 -12.480  1.00  0.00    -0.357 OA
ATOM     49  H7  UNL     1      21.080  -9.582 -13.247  1.00  0.00     0.217 HD
ENDBRANCH   2  48
BRANCH   2  50
HETATM   50  C18 UNL     1      19.063 -10.090 -11.505  1.00  0.00     0.121 A 
HETATM   51  C19 UNL     1      19.440 -11.436 -11.657  1.00  0.00     0.173 A 
HETATM   52  N13 UNL     1      18.860 -12.192 -10.712  1.00  0.00    -0.276 N 
HETATM   53  N14 UNL     1      18.131 -11.404  -9.962  1.00  0.00    -0.264 N 
ATOM     54  H13 UNL     1      18.967 -13.200 -10.599  1.00  0.00     0.189 HD
HETATM   55  C20 UNL     1      18.237 -10.111 -10.424  1.00  0.00     0.277 A 
ATOM     56  H14 UNL     1      17.572 -11.702  -9.163  1.00  0.00     0.190 HD
HETATM   57  O9  UNL     1      17.603  -9.203  -9.815  1.00  0.00    -0.266 OA
BRANCH  51  58
HETATM   58  O8  UNL     1      20.296 -11.947 -12.641  1.00  0.00    -0.344 OA
ATOM     59  H8  UNL     1      20.444 -12.866 -12.832  1.00  0.00     0.219 HD
ENDBRANCH  51  58
ENDBRANCH   2  50
TORSDOF 13
ENDMDL
MODEL 5
REMARK VINA RESULT: -9.848214975      1.566      2.503
REMARK  13 active torsions:
REMARK  status: ('A' for Active; 'I' for Inactive)
REMARK       I    between atoms: C1_2  and  N2_4 
REMARK    1  A    between atoms: N2_4  and  N3_6 
REMARK    2  A    between atoms: C2_8  and  C3_9 
REMARK    3  A    between atoms: C2_8  and  C5_19 
REMARK    4  A    between atoms: N4_11  and  N5_12 
REMARK    5  A    between atoms: C5_19  and  N8_20 
REMARK    6  A    between atoms: N8_20  and  N9_22 
REMARK    7  A    between atoms: N9_22  and  C6_24 
REMARK    8  A    between atoms: N11_32  and  C10_33 
REMARK    9  A    between atoms: C13_36  and  S1_37 
REMARK   10  A    between atoms: S1_37  and  N12_38 
REMARK   11  A    between atoms: C17_47  and  O7_48 
REMARK   12  A    between atoms: C17_47  and  C18_50 
REMARK   13  A    between atoms: C19_51  and  O8_52 
ROOT
HETATM    1  C5  UNL     1      17.544  -7.715 -11.132  1.00  0.00     0.113 C 
HETATM    2  C17 UNL     1      16.746  -6.577 -10.802  1.00  0.00     0.116 C 
ENDROOT
BRANCH   1   3
HETATM    3  C2  UNL     1      17.302  -8.962 -10.397  1.00  0.00     0.108 C 
HETATM    4  N3  UNL     1      16.440  -8.940  -9.471  1.00  0.00    -0.292 N 
ATOM      5  H3  UNL     1      15.944  -8.049  -9.442  1.00  0.00     0.187 HD
BRANCH   4   6
HETATM    6  N2  UNL     1      16.004  -9.779  -8.517  1.00  0.00    -0.254 N 
HETATM    7  C1  UNL     1      14.626  -9.837  -8.078  1.00  0.00     0.347 C 
HETATM    8  N1  UNL     1      14.253 -10.749  -7.061  1.00  0.00    -0.038 NA
HETATM    9  O1  UNL     1      13.797  -9.061  -8.628  1.00  0.00    -0.249 OA
ATOM     10  H2  UNL     1      16.678 -10.406  -8.079  1.00  0.00     0.191 HD
ENDBRANCH   4   6
BRANCH   3  11
HETATM   11  C3  UNL     1      18.130 -10.149 -10.618  1.00  0.00     0.099 A 
HETATM   12  C4  UNL     1      19.395 -10.240 -11.068  1.00  0.00     0.170 A 
HETATM   13  N4  UNL     1      19.750 -11.559 -11.081  1.00  0.00    -0.198 N 
HETATM   14  N6  UNL     1      18.689 -12.214 -10.641  1.00  0.00    -0.222 N 
HETATM   15  N7  UNL     1      17.711 -11.421 -10.356  1.00  0.00    -0.281 N 
ATOM     16  H6  UNL     1      18.648 -13.228 -10.538  1.00  0.00     0.210 HD
ATOM     17  H7  UNL     1      16.794 -11.695 -10.002  1.00  0.00     0.188 HD
BRANCH  13  18
HETATM   18  N5  UNL     1      20.985 -12.070 -11.481  1.00  0.00    -0.323 N 
ATOM     19  H52 UNL     1      21.740 -11.595 -11.977  1.00  0.00     0.179 HD
ATOM     20  H51 UNL     1      21.316 -13.022 -11.328  1.00  0.00     0.179 HD
ENDBRANCH  13  18
ENDBRANCH   3  11
ENDBRANCH   1   3
BRANCH   1  21
HETATM   21  N8  UNL     1      18.305  -7.807 -12.305  1.00  0.00    -0.296 N 
ATOM     22  H8  UNL     1      18.209  -8.617 -12.917  1.00  0.00     0.187 HD
BRANCH  21  23
HETATM   23  N9  UNL     1      19.176  -6.809 -12.623  1.00  0.00    -0.309 N 
ATOM     24  H9  UNL     1      20.019  -6.772 -12.050  1.00  0.00     0.186 HD
BRANCH  23  25
HETATM   25  C6  UNL     1      19.091  -5.826 -13.615  1.00  0.00     0.142 C 
HETATM   26  C7  UNL     1      18.222  -5.822 -14.617  1.00  0.00     0.121 A 
HETATM   27  N10 UNL     1      17.249  -6.837 -14.804  1.00  0.00    -0.313 N 
HETATM   28  C16 UNL     1      18.276  -4.738 -15.602  1.00  0.00     0.283 A 
HETATM   29  C8  UNL     1      16.362  -6.797 -15.913  1.00  0.00     0.315 A 
ATOM     30  H10 UNL     1      17.185  -7.605 -14.134  1.00  0.00     0.169 HD
HETATM   31  O2  UNL     1      15.490  -7.717 -16.071  1.00  0.00    -0.262 OA
HETATM   32  C9  UNL     1      16.459  -5.702 -16.856  1.00  0.00     0.323 A 
HETATM   33  O3  UNL     1      15.683  -5.635 -17.856  1.00  0.00    -0.261 OA
HETATM   34  N11 UNL     1      17.412  -4.651 -16.725  1.00  0.00    -0.239 N 
HETATM   35  O6  UNL     1      19.146  -3.812 -15.450  1.00  0.00    -0.265 OA
BRANCH  34  36
HETATM   36  C10 UNL     1      17.473  -3.591 -17.695  1.00  0.00     0.046 A 
HETATM   37  C11 UNL     1      16.743  -2.440 -17.591  1.00  0.00     0.032 A 
HETATM   38  C12 UNL     1      16.864  -1.475 -18.569  1.00  0.00     0.027 A 
HETATM   39  C13 UNL     1      17.690  -1.626 -19.641  1.00  0.00     0.079 A 
HETATM   40  C14 UNL     1      18.434  -2.792 -19.750  1.00  0.00     0.027 A 
HETATM   41  C15 UNL     1      18.303  -3.733 -18.779  1.00  0.00     0.032 A 
BRANCH  39  42
HETATM   42  S1  UNL     1      17.873  -0.442 -20.905  1.00  0.00     0.256 S 
HETATM   43  O4  UNL     1      19.098  -0.686 -21.745  1.00  0.00    -0.201 OA
HETATM   44  O5  UNL     1      16.623  -0.445 -21.731  1.00  0.00    -0.201 OA
BRANCH  42  45
HETATM   45  N12 UNL     1      17.978   1.115 -20.138  1.00  0.00    -0.324 N 
ATOM     46 2H12 UNL     1      18.829   1.538 -19.767  1.00  0.00     0.169 HD
ATOM     47 1H12 UNL     1      17.039   1.512 -20.133  1.00  0.00     0.169 HD
ENDBRANCH  42  45
ENDBRANCH  39  42
ENDBRANCH  34  36
ENDBRANCH  23  25
ENDBRANCH  21  23
ENDBRANCH   1  21
BRANCH   2  48
HETATM   48  O7  UNL     1      17.397  -5.431 -10.824  1.00  0.00    -0.357 OA
ATOM     49  H7  UNL     1      17.504  -5.025  -9.972  1.00  0.00     0.217 HD
ENDBRANCH   2  48
BRANCH   2  50
HETATM   50  C18 UNL     1      15.368  -6.401 -10.451  1.00  0.00     0.121 A 
HETATM   51  C19 UNL     1      14.853  -5.521  -9.483  1.00  0.00     0.173 A 
HETATM   52  N13 UNL     1      13.512  -5.538  -9.504  1.00  0.00    -0.276 N 
HETATM   53  N14 UNL     1      13.137  -6.380 -10.433  1.00  0.00    -0.264 N 
ATOM     54  H13 UNL     1      12.894  -4.992  -8.903  1.00  0.00     0.189 HD
HETATM   55  C20 UNL     1      14.253  -6.923 -11.031  1.00  0.00     0.277 A 
ATOM     56  H14 UNL     1      12.171  -6.600 -10.676  1.00  0.00     0.190 HD
HETATM   57  O9  UNL     1      14.086  -7.759 -11.964  1.00  0.00    -0.266 OA
BRANCH  51  58
HETATM   58  O8  UNL     1      15.606  -4.727  -8.607  1.00  0.00    -0.344 OA
ATOM     59  H8  UNL     1      15.258  -4.152  -7.936  1.00  0.00     0.219 HD
ENDBRANCH  51  58
ENDBRANCH   2  50
TORSDOF 13
ENDMDL
