MODEL 1
REMARK VINA RESULT: -7.310363619      0.000      0.000
REMARK  15 active torsions:
REMARK  status: ('A' for Active; 'I' for Inactive)
REMARK    1  A    between atoms: N1_1  and  C1_4 
REMARK    2  A    between atoms: C4_9  and  N3_10 
REMARK    3  A    between atoms: C7_20  and  C8_21 
REMARK    4  A    between atoms: C8_21  and  S1_22 
REMARK    5  A    between atoms: S1_22  and  C9_25 
REMARK    6  A    between atoms: C9_25  and  S2_26 
REMARK    7  A    between atoms: S2_26  and  C10_27 
REMARK    8  A    between atoms: C10_27  and  C11_28 
REMARK       I    between atoms: C11_28  and  N6_30 
REMARK    9  A    between atoms: N6_30  and  S3_32 
REMARK   10  A    between atoms: C13_39  and  O9_40 
REMARK   11  A    between atoms: C14_42  and  O10_43 
REMARK   12  A    between atoms: O10_43  and  C15_44 
REMARK   13  A    between atoms: C15_44  and  C16_46 
REMARK   14  A    between atoms: C16_46  and  N8_47 
REMARK   15  A    between atoms: C16_46  and  C17_51 
ROOT
HETATM    1  C1  UNL     1      15.258  -5.628  -9.383  1.00  0.00     0.677 A 
HETATM    2  N2  UNL     1      16.081  -4.948 -10.214  1.00  0.00    -0.191 N 
ATOM      3  H2  UNL     1      15.995  -3.939 -10.342  1.00  0.00     0.184 HD
HETATM    4  C2  UNL     1      17.005  -5.654 -10.855  1.00  0.00     0.089 A 
HETATM    5  C3  UNL     1      17.138  -7.021 -10.698  1.00  0.00     0.099 A 
HETATM    6  C4  UNL     1      16.286  -7.679  -9.846  1.00  0.00     0.143 A 
HETATM    7  N4  UNL     1      15.351  -6.964  -9.196  1.00  0.00    -0.175 N 
ATOM      8  H4  UNL     1      14.707  -7.433  -8.559  1.00  0.00     0.186 HD
HETATM    9  N5  UNL     1      18.148  -7.690 -11.460  1.00  0.00    -0.373 N 
ATOM     10  H5  UNL     1      18.680  -8.457 -11.049  1.00  0.00     0.160 HD
HETATM   11  C5  UNL     1      18.400  -7.272 -12.794  1.00  0.00     0.178 C 
HETATM   12  C6  UNL     1      19.651  -7.549 -13.451  1.00  0.00     0.257 C 
HETATM   13  O1  UNL     1      20.894  -7.539 -12.811  1.00  0.00    -0.339 OA
HETATM   14  C7  UNL     1      21.345  -7.078 -14.084  1.00  0.00     0.245 C 
HETATM   15  N7  UNL     1      20.157  -6.276 -14.058  1.00  0.00    -0.292 N 
HETATM   16  C12 UNL     1      19.011  -5.432 -14.059  1.00  0.00     0.264 C 
HETATM   17  O8  UNL     1      18.922  -4.478 -14.911  1.00  0.00    -0.270 OA
HETATM   18  C13 UNL     1      18.054  -5.814 -13.020  1.00  0.00     0.195 C 
HETATM   19  C14 UNL     1      18.042  -5.015 -11.775  1.00  0.00     0.230 C 
ENDROOT
BRANCH  14  20
HETATM   20  C8  UNL     1      22.677  -6.587 -14.269  1.00  0.00     0.195 C 
BRANCH  20  21
HETATM   21  S1  UNL     1      23.829  -7.307 -15.327  1.00  0.00     0.157 S 
HETATM   22  O2  UNL     1      24.864  -6.219 -15.661  1.00  0.00    -0.227 OA
HETATM   23  O3  UNL     1      23.287  -7.690 -16.673  1.00  0.00    -0.227 OA
BRANCH  21  24
HETATM   24  C9  UNL     1      24.770  -8.622 -14.599  1.00  0.00     0.214 C 
BRANCH  24  25
HETATM   25  S2  UNL     1      24.245  -9.007 -12.915  1.00  0.00    -0.145 SA
BRANCH  25  26
HETATM   26  C10 UNL     1      24.479 -10.743 -12.475  1.00  0.00     0.178 C 
BRANCH  26  27
HETATM   27  C11 UNL     1      23.182 -11.400 -12.175  1.00  0.00     0.242 C 
HETATM   28  O4  UNL     1      23.165 -12.645 -11.953  1.00  0.00    -0.272 OA
HETATM   29  N6  UNL     1      21.964 -10.678 -12.129  1.00  0.00    -0.235 N 
ATOM     30  H6  UNL     1      21.977  -9.674 -12.308  1.00  0.00     0.184 HD
BRANCH  29  31
HETATM   31  S3  UNL     1      20.454 -11.451 -11.777  1.00  0.00     0.211 S 
HETATM   32  O5  UNL     1      19.352 -10.430 -11.569  1.00  0.00    -0.578 OA
HETATM   33  O6  UNL     1      20.131 -12.362 -12.922  1.00  0.00    -0.578 OA
HETATM   34  O7  UNL     1      20.549 -12.327 -10.340  1.00  0.00    -0.578 OA
ENDBRANCH  29  31
ENDBRANCH  26  27
ENDBRANCH  25  26
ENDBRANCH  24  25
ENDBRANCH  21  24
ENDBRANCH  20  21
ENDBRANCH  14  20
BRANCH  18  35
HETATM   35  O9  UNL     1      16.765  -5.667 -13.597  1.00  0.00    -0.375 OA
ATOM     36  H9  UNL     1      16.816  -5.329 -14.484  1.00  0.00     0.211 HD
ENDBRANCH  18  35
BRANCH  19  37
HETATM   37  O10 UNL     1      19.234  -5.145 -10.979  1.00  0.00    -0.304 OA
BRANCH  37  38
HETATM   38  C15 UNL     1      20.077  -4.084 -10.732  1.00  0.00     0.297 C 
HETATM   39  O11 UNL     1      19.790  -3.288  -9.819  1.00  0.00    -0.262 OA
BRANCH  38  40
HETATM   40  C16 UNL     1      21.322  -3.844 -11.507  1.00  0.00     0.342 C 
BRANCH  40  41
HETATM   41  N8  UNL     1      22.332  -4.788 -11.056  1.00  0.00    -0.060 N 
ATOM     42  H83 UNL     1      22.622  -4.623 -10.093  1.00  0.00     0.275 HD
ATOM     43  H82 UNL     1      21.960  -5.730 -10.929  1.00  0.00     0.275 HD
ATOM     44  H81 UNL     1      23.113  -4.761 -11.712  1.00  0.00     0.275 HD
ENDBRANCH  40  41
BRANCH  40  45
HETATM   45  C17 UNL     1      21.827  -2.461 -11.197  1.00  0.00     0.274 C 
HETATM   46  O12 UNL     1      21.659  -1.549 -11.987  1.00  0.00    -0.304 OA
ENDBRANCH  40  45
ENDBRANCH  38  40
ENDBRANCH  37  38
ENDBRANCH  19  37
BRANCH   6  47
HETATM   47  N3  UNL     1      16.450  -8.954  -9.719  1.00  0.00    -0.383 N 
ATOM     48  H32 UNL     1      16.630  -9.592 -10.494  1.00  0.00     0.157 HD
ATOM     49  H31 UNL     1      16.385  -9.340  -8.777  1.00  0.00     0.157 HD
ENDBRANCH   6  47
BRANCH   1  50
HETATM   50  N1  UNL     1      14.335  -4.957  -8.734  1.00  0.00    -0.234 N 
ATOM     51  H12 UNL     1      14.040  -4.049  -9.091  1.00  0.00     0.174 HD
ATOM     52  H11 UNL     1      13.941  -5.369  -7.889  1.00  0.00     0.174 HD
ENDBRANCH   1  50
TORSDOF 15
ENDMDL
MODEL 2
REMARK VINA RESULT: -7.228668289      3.819      7.185
REMARK  15 active torsions:
REMARK  status: ('A' for Active; 'I' for Inactive)
REMARK    1  A    between atoms: N1_1  and  C1_4 
REMARK    2  A    between atoms: C4_9  and  N3_10 
REMARK    3  A    between atoms: C7_20  and  C8_21 
REMARK    4  A    between atoms: C8_21  and  S1_22 
REMARK    5  A    between atoms: S1_22  and  C9_25 
REMARK    6  A    between atoms: C9_25  and  S2_26 
REMARK    7  A    between atoms: S2_26  and  C10_27 
REMARK    8  A    between atoms: C10_27  and  C11_28 
REMARK       I    between atoms: C11_28  and  N6_30 
REMARK    9  A    between atoms: N6_30  and  S3_32 
REMARK   10  A    between atoms: C13_39  and  O9_40 
REMARK   11  A    between atoms: C14_42  and  O10_43 
REMARK   12  A    between atoms: O10_43  and  C15_44 
REMARK   13  A    between atoms: C15_44  and  C16_46 
REMARK   14  A    between atoms: C16_46  and  N8_47 
REMARK   15  A    between atoms: C16_46  and  C17_51 
ROOT
HETATM    1  C1  UNL     1      15.382  -7.797  -9.947  1.00  0.00     0.677 A 
HETATM    2  N2  UNL     1      16.101  -7.968 -11.080  1.00  0.00    -0.191 N 
ATOM      3  H2  UNL     1      16.091  -8.852 -11.590  1.00  0.00     0.184 HD
HETATM    4  C2  UNL     1      16.820  -6.933 -11.498  1.00  0.00     0.089 A 
HETATM    5  C3  UNL     1      16.850  -5.727 -10.823  1.00  0.00     0.099 A 
HETATM    6  C4  UNL     1      16.108  -5.588  -9.677  1.00  0.00     0.143 A 
HETATM    7  N4  UNL     1      15.379  -6.636  -9.254  1.00  0.00    -0.175 N 
ATOM      8  H4  UNL     1      14.821  -6.554  -8.403  1.00  0.00     0.186 HD
HETATM    9  N5  UNL     1      17.681  -4.686 -11.343  1.00  0.00    -0.373 N 
ATOM     10  H5  UNL     1      17.372  -3.714 -11.312  1.00  0.00     0.160 HD
HETATM   11  C5  UNL     1      18.942  -5.022 -11.905  1.00  0.00     0.178 C 
HETATM   12  C6  UNL     1      19.613  -4.151 -12.835  1.00  0.00     0.257 C 
HETATM   13  O1  UNL     1      18.961  -3.383 -13.805  1.00  0.00    -0.339 OA
HETATM   14  C7  UNL     1      20.152  -3.633 -14.548  1.00  0.00     0.245 C 
HETATM   15  N7  UNL     1      20.034  -4.962 -14.023  1.00  0.00    -0.292 N 
HETATM   16  C12 UNL     1      19.935  -6.304 -13.558  1.00  0.00     0.264 C 
HETATM   17  O8  UNL     1      20.650  -7.220 -14.098  1.00  0.00    -0.270 OA
HETATM   18  C13 UNL     1      18.971  -6.430 -12.464  1.00  0.00     0.195 C 
HETATM   19  C14 UNL     1      17.629  -6.958 -12.792  1.00  0.00     0.230 C 
ENDROOT
BRANCH  14  20
HETATM   20  C8  UNL     1      20.250  -3.293 -15.936  1.00  0.00     0.195 C 
BRANCH  20  21
HETATM   21  S1  UNL     1      21.723  -3.303 -16.827  1.00  0.00     0.157 S 
HETATM   22  O2  UNL     1      21.343  -3.485 -18.306  1.00  0.00    -0.227 OA
HETATM   23  O3  UNL     1      22.610  -4.482 -16.552  1.00  0.00    -0.227 OA
BRANCH  21  24
HETATM   24  C9  UNL     1      22.622  -1.776 -16.772  1.00  0.00     0.214 C 
BRANCH  24  25
HETATM   25  S2  UNL     1      21.560  -0.351 -16.454  1.00  0.00    -0.145 SA
BRANCH  25  26
HETATM   26  C10 UNL     1      20.782   0.305 -17.946  1.00  0.00     0.178 C 
BRANCH  26  27
HETATM   27  C11 UNL     1      19.405  -0.227 -18.112  1.00  0.00     0.242 C 
HETATM   28  O4  UNL     1      18.424   0.523 -17.840  1.00  0.00    -0.272 OA
HETATM   29  N6  UNL     1      19.156  -1.546 -18.566  1.00  0.00    -0.235 N 
ATOM     30  H6  UNL     1      19.947  -2.151 -18.785  1.00  0.00     0.184 HD
BRANCH  29  31
HETATM   31  S3  UNL     1      17.547  -2.160 -18.758  1.00  0.00     0.211 S 
HETATM   32  O5  UNL     1      16.731  -1.961 -17.496  1.00  0.00    -0.578 OA
HETATM   33  O6  UNL     1      16.923  -1.447 -19.919  1.00  0.00    -0.578 OA
HETATM   34  O7  UNL     1      17.570  -3.823 -19.035  1.00  0.00    -0.578 OA
ENDBRANCH  29  31
ENDBRANCH  26  27
ENDBRANCH  25  26
ENDBRANCH  24  25
ENDBRANCH  21  24
ENDBRANCH  20  21
ENDBRANCH  14  20
BRANCH  18  35
HETATM   35  O9  UNL     1      19.541  -7.346 -11.539  1.00  0.00    -0.375 OA
ATOM     36  H9  UNL     1      19.119  -8.196 -11.585  1.00  0.00     0.211 HD
ENDBRANCH  18  35
BRANCH  19  37
HETATM   37  O10 UNL     1      16.842  -6.088 -13.627  1.00  0.00    -0.304 OA
BRANCH  37  38
HETATM   38  C15 UNL     1      16.395  -6.467 -14.874  1.00  0.00     0.297 C 
HETATM   39  O11 UNL     1      15.626  -7.441 -14.966  1.00  0.00    -0.262 OA
BRANCH  38  40
HETATM   40  C16 UNL     1      16.788  -5.760 -16.121  1.00  0.00     0.342 C 
BRANCH  40  41
HETATM   41  N8  UNL     1      16.927  -4.344 -15.821  1.00  0.00    -0.060 N 
ATOM     42  H83 UNL     1      16.427  -4.071 -14.975  1.00  0.00     0.275 HD
ATOM     43  H82 UNL     1      17.867  -4.099 -15.511  1.00  0.00     0.275 HD
ATOM     44  H81 UNL     1      16.633  -3.812 -16.640  1.00  0.00     0.275 HD
ENDBRANCH  40  41
BRANCH  40  45
HETATM   45  C17 UNL     1      15.679  -5.902 -17.128  1.00  0.00     0.274 C 
HETATM   46  O12 UNL     1      14.814  -5.049 -17.222  1.00  0.00    -0.304 OA
ENDBRANCH  40  45
ENDBRANCH  38  40
ENDBRANCH  37  38
ENDBRANCH  19  37
BRANCH   6  47
HETATM   47  N3  UNL     1      16.154  -4.442  -9.081  1.00  0.00    -0.383 N 
ATOM     48  H32 UNL     1      16.009  -3.546  -9.544  1.00  0.00     0.157 HD
ATOM     49  H31 UNL     1      16.357  -4.446  -8.081  1.00  0.00     0.157 HD
ENDBRANCH   6  47
BRANCH   1  50
HETATM   50  N1  UNL     1      14.661  -8.802  -9.509  1.00  0.00    -0.234 N 
ATOM     51  H12 UNL     1      14.439  -9.567 -10.146  1.00  0.00     0.174 HD
ATOM     52  H11 UNL     1      14.345  -8.785  -8.540  1.00  0.00     0.174 HD
ENDBRANCH   1  50
TORSDOF 15
ENDMDL
MODEL 3
REMARK VINA RESULT: -7.222497302      3.150      5.201
REMARK  15 active torsions:
REMARK  status: ('A' for Active; 'I' for Inactive)
REMARK    1  A    between atoms: N1_1  and  C1_4 
REMARK    2  A    between atoms: C4_9  and  N3_10 
REMARK    3  A    between atoms: C7_20  and  C8_21 
REMARK    4  A    between atoms: C8_21  and  S1_22 
REMARK    5  A    between atoms: S1_22  and  C9_25 
REMARK    6  A    between atoms: C9_25  and  S2_26 
REMARK    7  A    between atoms: S2_26  and  C10_27 
REMARK    8  A    between atoms: C10_27  and  C11_28 
REMARK       I    between atoms: C11_28  and  N6_30 
REMARK    9  A    between atoms: N6_30  and  S3_32 
REMARK   10  A    between atoms: C13_39  and  O9_40 
REMARK   11  A    between atoms: C14_42  and  O10_43 
REMARK   12  A    between atoms: O10_43  and  C15_44 
REMARK   13  A    between atoms: C15_44  and  C16_46 
REMARK   14  A    between atoms: C16_46  and  N8_47 
REMARK   15  A    between atoms: C16_46  and  C17_51 
ROOT
HETATM    1  C1  UNL     1      15.440  -6.267  -9.664  1.00  0.00     0.677 A 
HETATM    2  N2  UNL     1      16.172  -5.344 -10.328  1.00  0.00    -0.191 N 
ATOM      3  H2  UNL     1      15.965  -4.347 -10.257  1.00  0.00     0.184 HD
HETATM    4  C2  UNL     1      17.173  -5.793 -11.076  1.00  0.00     0.089 A 
HETATM    5  C3  UNL     1      17.471  -7.139 -11.188  1.00  0.00     0.099 A 
HETATM    6  C4  UNL     1      16.708  -8.049 -10.500  1.00  0.00     0.143 A 
HETATM    7  N4  UNL     1      15.695  -7.593  -9.742  1.00  0.00    -0.175 N 
ATOM      8  H4  UNL     1      15.114  -8.253  -9.223  1.00  0.00     0.186 HD
HETATM    9  N5  UNL     1      18.552  -7.518 -12.045  1.00  0.00    -0.373 N 
ATOM     10  H5  UNL     1      19.174  -8.283 -11.783  1.00  0.00     0.160 HD
HETATM   11  C5  UNL     1      18.747  -6.818 -13.266  1.00  0.00     0.178 C 
HETATM   12  C6  UNL     1      20.021  -6.809 -13.937  1.00  0.00     0.257 C 
HETATM   13  O1  UNL     1      21.256  -6.777 -13.283  1.00  0.00    -0.339 OA
HETATM   14  C7  UNL     1      21.644  -6.024 -14.430  1.00  0.00     0.245 C 
HETATM   15  N7  UNL     1      20.368  -5.389 -14.272  1.00  0.00    -0.292 N 
HETATM   16  C12 UNL     1      19.128  -4.704 -14.131  1.00  0.00     0.264 C 
HETATM   17  O8  UNL     1      18.922  -3.619 -14.780  1.00  0.00    -0.270 OA
HETATM   18  C13 UNL     1      18.227  -5.396 -13.207  1.00  0.00     0.195 C 
HETATM   19  C14 UNL     1      18.122  -4.866 -11.830  1.00  0.00     0.230 C 
ENDROOT
BRANCH  14  20
HETATM   20  C8  UNL     1      22.906  -5.351 -14.487  1.00  0.00     0.195 C 
BRANCH  20  21
HETATM   21  S1  UNL     1      23.153  -3.833 -15.264  1.00  0.00     0.157 S 
HETATM   22  O2  UNL     1      24.671  -3.676 -15.454  1.00  0.00    -0.227 OA
HETATM   23  O3  UNL     1      22.786  -2.640 -14.432  1.00  0.00    -0.227 OA
BRANCH  21  24
HETATM   24  C9  UNL     1      22.476  -3.729 -16.899  1.00  0.00     0.214 C 
BRANCH  24  25
HETATM   25  S2  UNL     1      21.204  -2.457 -17.048  1.00  0.00    -0.145 SA
BRANCH  25  26
HETATM   26  C10 UNL     1      20.093  -2.720 -18.447  1.00  0.00     0.178 C 
BRANCH  26  27
HETATM   27  C11 UNL     1      18.683  -2.849 -17.998  1.00  0.00     0.242 C 
HETATM   28  O4  UNL     1      17.980  -1.804 -17.885  1.00  0.00    -0.272 OA
HETATM   29  N6  UNL     1      18.102  -4.105 -17.693  1.00  0.00    -0.235 N 
ATOM     30  H6  UNL     1      18.668  -4.948 -17.783  1.00  0.00     0.184 HD
BRANCH  29  31
HETATM   31  S3  UNL     1      16.456  -4.249 -17.170  1.00  0.00     0.211 S 
HETATM   32  O5  UNL     1      16.140  -3.247 -16.077  1.00  0.00    -0.578 OA
HETATM   33  O6  UNL     1      15.578  -4.035 -18.365  1.00  0.00    -0.578 OA
HETATM   34  O7  UNL     1      16.172  -5.770 -16.498  1.00  0.00    -0.578 OA
ENDBRANCH  29  31
ENDBRANCH  26  27
ENDBRANCH  25  26
ENDBRANCH  24  25
ENDBRANCH  21  24
ENDBRANCH  20  21
ENDBRANCH  14  20
BRANCH  18  35
HETATM   35  O9  UNL     1      16.928  -5.292 -13.771  1.00  0.00    -0.375 OA
ATOM     36  H9  UNL     1      16.817  -5.887 -14.504  1.00  0.00     0.211 HD
ENDBRANCH  18  35
BRANCH  19  37
HETATM   37  O10 UNL     1      19.324  -5.008 -11.051  1.00  0.00    -0.304 OA
BRANCH  37  38
HETATM   38  C15 UNL     1      20.088  -3.928 -10.666  1.00  0.00     0.297 C 
HETATM   39  O11 UNL     1      19.718  -3.248  -9.692  1.00  0.00    -0.262 OA
BRANCH  38  40
HETATM   40  C16 UNL     1      21.341  -3.536 -11.363  1.00  0.00     0.342 C 
BRANCH  40  41
HETATM   41  N8  UNL     1      22.353  -4.543 -11.086  1.00  0.00    -0.060 N 
ATOM     42  H83 UNL     1      22.126  -5.114 -10.272  1.00  0.00     0.275 HD
ATOM     43  H82 UNL     1      22.364  -5.290 -11.780  1.00  0.00     0.275 HD
ATOM     44  H81 UNL     1      23.255  -4.075 -10.998  1.00  0.00     0.275 HD
ENDBRANCH  40  41
BRANCH  40  45
HETATM   45  C17 UNL     1      21.829  -2.234 -10.787  1.00  0.00     0.274 C 
HETATM   46  O12 UNL     1      21.879  -1.232 -11.478  1.00  0.00    -0.304 OA
ENDBRANCH  40  45
ENDBRANCH  38  40
ENDBRANCH  37  38
ENDBRANCH  19  37
BRANCH   6  47
HETATM   47  N3  UNL     1      17.024  -9.296 -10.623  1.00  0.00    -0.383 N 
ATOM     48  H32 UNL     1      16.838  -9.858 -11.453  1.00  0.00     0.157 HD
ATOM     49  H31 UNL     1      17.485  -9.739  -9.829  1.00  0.00     0.157 HD
ENDBRANCH   6  47
BRANCH   1  50
HETATM   50  N1  UNL     1      14.445  -5.853  -8.916  1.00  0.00    -0.234 N 
ATOM     51  H12 UNL     1      14.444  -4.889  -8.582  1.00  0.00     0.174 HD
ATOM     52  H11 UNL     1      13.700  -6.512  -8.691  1.00  0.00     0.174 HD
ENDBRANCH   1  50
TORSDOF 15
ENDMDL
MODEL 4
REMARK VINA RESULT: -7.184754883      1.519      1.914
REMARK  15 active torsions:
REMARK  status: ('A' for Active; 'I' for Inactive)
REMARK    1  A    between atoms: N1_1  and  C1_4 
REMARK    2  A    between atoms: C4_9  and  N3_10 
REMARK    3  A    between atoms: C7_20  and  C8_21 
REMARK    4  A    between atoms: C8_21  and  S1_22 
REMARK    5  A    between atoms: S1_22  and  C9_25 
REMARK    6  A    between atoms: C9_25  and  S2_26 
REMARK    7  A    between atoms: S2_26  and  C10_27 
REMARK    8  A    between atoms: C10_27  and  C11_28 
REMARK       I    between atoms: C11_28  and  N6_30 
REMARK    9  A    between atoms: N6_30  and  S3_32 
REMARK   10  A    between atoms: C13_39  and  O9_40 
REMARK   11  A    between atoms: C14_42  and  O10_43 
REMARK   12  A    between atoms: O10_43  and  C15_44 
REMARK   13  A    between atoms: C15_44  and  C16_46 
REMARK   14  A    between atoms: C16_46  and  N8_47 
REMARK   15  A    between atoms: C16_46  and  C17_51 
ROOT
HETATM    1  C1  UNL     1      14.802  -5.798  -9.876  1.00  0.00     0.677 A 
HETATM    2  N2  UNL     1      15.709  -5.236 -10.707  1.00  0.00    -0.191 N 
ATOM      3  H2  UNL     1      15.636  -4.259 -10.995  1.00  0.00     0.184 HD
HETATM    4  C2  UNL     1      16.699  -6.012 -11.131  1.00  0.00     0.089 A 
HETATM    5  C3  UNL     1      16.818  -7.337 -10.755  1.00  0.00     0.099 A 
HETATM    6  C4  UNL     1      15.880  -7.875  -9.910  1.00  0.00     0.143 A 
HETATM    7  N4  UNL     1      14.877  -7.089  -9.480  1.00  0.00    -0.175 N 
ATOM      8  H4  UNL     1      14.169  -7.469  -8.852  1.00  0.00     0.186 HD
HETATM    9  N5  UNL     1      17.906  -8.094 -11.293  1.00  0.00    -0.373 N 
ATOM     10  H5  UNL     1      18.393  -8.780 -10.717  1.00  0.00     0.160 HD
HETATM   11  C5  UNL     1      18.301  -7.877 -12.641  1.00  0.00     0.178 C 
HETATM   12  C6  UNL     1      19.617  -8.226 -13.109  1.00  0.00     0.257 C 
HETATM   13  O1  UNL     1      20.783  -8.096 -12.349  1.00  0.00    -0.339 OA
HETATM   14  C7  UNL     1      21.370  -7.824 -13.621  1.00  0.00     0.245 C 
HETATM   15  N7  UNL     1      20.184  -7.049 -13.845  1.00  0.00    -0.292 N 
HETATM   16  C12 UNL     1      19.043  -6.237 -14.097  1.00  0.00     0.264 C 
HETATM   17  O8  UNL     1      19.045  -5.424 -15.088  1.00  0.00    -0.270 OA
HETATM   18  C13 UNL     1      17.979  -6.476 -13.121  1.00  0.00     0.195 C 
HETATM   19  C14 UNL     1      17.829  -5.499 -12.020  1.00  0.00     0.230 C 
ENDROOT
BRANCH  14  20
HETATM   20  C8  UNL     1      22.713  -7.341 -13.734  1.00  0.00     0.195 C 
BRANCH  20  21
HETATM   21  S1  UNL     1      24.090  -8.178 -13.125  1.00  0.00     0.157 S 
HETATM   22  O2  UNL     1      24.126  -7.926 -11.608  1.00  0.00    -0.227 OA
HETATM   23  O3  UNL     1      25.407  -7.636 -13.595  1.00  0.00    -0.227 OA
BRANCH  21  24
HETATM   24  C9  UNL     1      24.007  -9.941 -13.292  1.00  0.00     0.214 C 
BRANCH  24  25
HETATM   25  S2  UNL     1      23.341 -10.751 -11.822  1.00  0.00    -0.145 SA
BRANCH  25  26
HETATM   26  C10 UNL     1      22.317 -12.189 -12.202  1.00  0.00     0.178 C 
BRANCH  26  27
HETATM   27  C11 UNL     1      20.902 -11.960 -11.814  1.00  0.00     0.242 C 
HETATM   28  O4  UNL     1      20.104 -11.482 -12.669  1.00  0.00    -0.272 OA
HETATM   29  N6  UNL     1      20.420 -12.261 -10.516  1.00  0.00    -0.235 N 
ATOM     30  H6  UNL     1      21.063 -12.646  -9.825  1.00  0.00     0.184 HD
BRANCH  29  31
HETATM   31  S3  UNL     1      18.768 -11.991 -10.068  1.00  0.00     0.211 S 
HETATM   32  O5  UNL     1      18.443 -12.659  -8.746  1.00  0.00    -0.578 OA
HETATM   33  O6  UNL     1      18.553 -10.510  -9.988  1.00  0.00    -0.578 OA
HETATM   34  O7  UNL     1      17.721 -12.675 -11.200  1.00  0.00    -0.578 OA
ENDBRANCH  29  31
ENDBRANCH  26  27
ENDBRANCH  25  26
ENDBRANCH  24  25
ENDBRANCH  21  24
ENDBRANCH  20  21
ENDBRANCH  14  20
BRANCH  18  35
HETATM   35  O9  UNL     1      16.760  -6.442 -13.849  1.00  0.00    -0.375 OA
ATOM     36  H9  UNL     1      16.081  -6.946 -13.416  1.00  0.00     0.211 HD
ENDBRANCH  18  35
BRANCH  19  37
HETATM   37  O10 UNL     1      18.928  -5.486 -11.090  1.00  0.00    -0.304 OA
BRANCH  37  38
HETATM   38  C15 UNL     1      19.758  -4.396 -10.943  1.00  0.00     0.297 C 
HETATM   39  O11 UNL     1      19.508  -3.568 -10.048  1.00  0.00    -0.262 OA
BRANCH  38  40
HETATM   40  C16 UNL     1      20.946  -4.164 -11.805  1.00  0.00     0.342 C 
BRANCH  40  41
HETATM   41  N8  UNL     1      22.071  -3.820 -10.951  1.00  0.00    -0.060 N 
ATOM     42  H83 UNL     1      22.000  -4.233 -10.022  1.00  0.00     0.275 HD
ATOM     43  H82 UNL     1      22.937  -4.278 -11.239  1.00  0.00     0.275 HD
ATOM     44  H81 UNL     1      22.155  -2.804 -10.924  1.00  0.00     0.275 HD
ENDBRANCH  40  41
BRANCH  40  45
HETATM   45  C17 UNL     1      20.675  -2.980 -12.694  1.00  0.00     0.274 C 
HETATM   46  O12 UNL     1      19.600  -2.860 -13.254  1.00  0.00    -0.304 OA
ENDBRANCH  40  45
ENDBRANCH  38  40
ENDBRANCH  37  38
ENDBRANCH  19  37
BRANCH   6  47
HETATM   47  N3  UNL     1      16.031  -9.114  -9.574  1.00  0.00    -0.383 N 
ATOM     48  H32 UNL     1      15.278  -9.802  -9.556  1.00  0.00     0.157 HD
ATOM     49  H31 UNL     1      16.968  -9.412  -9.304  1.00  0.00     0.157 HD
ENDBRANCH   6  47
BRANCH   1  50
HETATM   50  N1  UNL     1      13.813  -5.055  -9.440  1.00  0.00    -0.234 N 
ATOM     51  H12 UNL     1      13.613  -4.171  -9.907  1.00  0.00     0.174 HD
ATOM     52  H11 UNL     1      13.271  -5.388  -8.642  1.00  0.00     0.174 HD
ENDBRANCH   1  50
TORSDOF 15
ENDMDL
MODEL 5
REMARK VINA RESULT: -7.150254438      4.909      8.421
REMARK  15 active torsions:
REMARK  status: ('A' for Active; 'I' for Inactive)
REMARK    1  A    between atoms: N1_1  and  C1_4 
REMARK    2  A    between atoms: C4_9  and  N3_10 
REMARK    3  A    between atoms: C7_20  and  C8_21 
REMARK    4  A    between atoms: C8_21  and  S1_22 
REMARK    5  A    between atoms: S1_22  and  C9_25 
REMARK    6  A    between atoms: C9_25  and  S2_26 
REMARK    7  A    between atoms: S2_26  and  C10_27 
REMARK    8  A    between atoms: C10_27  and  C11_28 
REMARK       I    between atoms: C11_28  and  N6_30 
REMARK    9  A    between atoms: N6_30  and  S3_32 
REMARK   10  A    between atoms: C13_39  and  O9_40 
REMARK   11  A    between atoms: C14_42  and  O10_43 
REMARK   12  A    between atoms: O10_43  and  C15_44 
REMARK   13  A    between atoms: C15_44  and  C16_46 
REMARK   14  A    between atoms: C16_46  and  N8_47 
REMARK   15  A    between atoms: C16_46  and  C17_51 
ROOT
HETATM    1  C1  UNL     1      15.131  -7.680 -10.402  1.00  0.00     0.677 A 
HETATM    2  N2  UNL     1      15.943  -7.877 -11.466  1.00  0.00    -0.191 N 
ATOM      3  H2  UNL     1      15.977  -8.773 -11.952  1.00  0.00     0.184 HD
HETATM    4  C2  UNL     1      16.693  -6.850 -11.848  1.00  0.00     0.089 A 
HETATM    5  C3  UNL     1      16.665  -5.628 -11.202  1.00  0.00     0.099 A 
HETATM    6  C4  UNL     1      15.829  -5.463 -10.127  1.00  0.00     0.143 A 
HETATM    7  N4  UNL     1      15.068  -6.502  -9.740  1.00  0.00    -0.175 N 
ATOM      8  H4  UNL     1      14.440  -6.401  -8.943  1.00  0.00     0.186 HD
HETATM    9  N5  UNL     1      17.537  -4.597 -11.676  1.00  0.00    -0.373 N 
ATOM     10  H5  UNL     1      17.226  -3.626 -11.695  1.00  0.00     0.160 HD
HETATM   11  C5  UNL     1      18.841  -4.944 -12.121  1.00  0.00     0.178 C 
HETATM   12  C6  UNL     1      19.588  -4.094 -13.013  1.00  0.00     0.257 C 
HETATM   13  O1  UNL     1      19.019  -3.352 -14.053  1.00  0.00    -0.339 OA
HETATM   14  C7  UNL     1      20.269  -3.618 -14.687  1.00  0.00     0.245 C 
HETATM   15  N7  UNL     1      20.108  -4.934 -14.140  1.00  0.00    -0.292 N 
HETATM   16  C12 UNL     1      19.971  -6.263 -13.652  1.00  0.00     0.264 C 
HETATM   17  O8  UNL     1      20.729  -7.191 -14.107  1.00  0.00    -0.270 OA
HETATM   18  C13 UNL     1      18.918  -6.365 -12.640  1.00  0.00     0.195 C 
HETATM   19  C14 UNL     1      17.609  -6.905 -13.067  1.00  0.00     0.230 C 
ENDROOT
BRANCH  14  20
HETATM   20  C8  UNL     1      20.483  -3.311 -16.069  1.00  0.00     0.195 C 
BRANCH  20  21
HETATM   21  S1  UNL     1      20.784  -1.725 -16.666  1.00  0.00     0.157 S 
HETATM   22  O2  UNL     1      22.288  -1.649 -16.981  1.00  0.00    -0.227 OA
HETATM   23  O3  UNL     1      20.589  -0.631 -15.658  1.00  0.00    -0.227 OA
BRANCH  21  24
HETATM   24  C9  UNL     1      19.979  -1.355 -18.201  1.00  0.00     0.214 C 
BRANCH  24  25
HETATM   25  S2  UNL     1      18.924  -2.702 -18.778  1.00  0.00    -0.145 SA
BRANCH  25  26
HETATM   26  C10 UNL     1      17.181  -2.244 -18.895  1.00  0.00     0.178 C 
BRANCH  26  27
HETATM   27  C11 UNL     1      16.978  -1.149 -19.878  1.00  0.00     0.242 C 
HETATM   28  O4  UNL     1      17.612  -1.185 -20.971  1.00  0.00    -0.272 OA
HETATM   29  N6  UNL     1      16.096  -0.068 -19.630  1.00  0.00    -0.235 N 
ATOM     30  H6  UNL     1      15.584  -0.039 -18.749  1.00  0.00     0.184 HD
BRANCH  29  31
HETATM   31  S3  UNL     1      15.863   1.205 -20.782  1.00  0.00     0.211 S 
HETATM   32  O5  UNL     1      15.345   0.664 -22.100  1.00  0.00    -0.578 OA
HETATM   33  O6  UNL     1      14.896   2.185 -20.188  1.00  0.00    -0.578 OA
HETATM   34  O7  UNL     1      17.325   1.967 -21.137  1.00  0.00    -0.578 OA
ENDBRANCH  29  31
ENDBRANCH  26  27
ENDBRANCH  25  26
ENDBRANCH  24  25
ENDBRANCH  21  24
ENDBRANCH  20  21
ENDBRANCH  14  20
BRANCH  18  35
HETATM   35  O9  UNL     1      19.409  -7.256 -11.648  1.00  0.00    -0.375 OA
ATOM     36  H9  UNL     1      19.833  -8.012 -12.037  1.00  0.00     0.211 HD
ENDBRANCH  18  35
BRANCH  19  37
HETATM   37  O10 UNL     1      16.895  -6.059 -13.987  1.00  0.00    -0.304 OA
BRANCH  37  38
HETATM   38  C15 UNL     1      16.784  -6.352 -15.328  1.00  0.00     0.297 C 
HETATM   39  O11 UNL     1      16.500  -7.516 -15.667  1.00  0.00    -0.262 OA
BRANCH  38  40
HETATM   40  C16 UNL     1      16.987  -5.338 -16.396  1.00  0.00     0.342 C 
BRANCH  40  41
HETATM   41  N8  UNL     1      16.868  -4.017 -15.802  1.00  0.00    -0.060 N 
ATOM     42  H83 UNL     1      16.238  -3.407 -16.323  1.00  0.00     0.275 HD
ATOM     43  H82 UNL     1      16.352  -4.027 -14.922  1.00  0.00     0.275 HD
ATOM     44  H81 UNL     1      17.803  -3.623 -15.704  1.00  0.00     0.275 HD
ENDBRANCH  40  41
BRANCH  40  45
HETATM   45  C17 UNL     1      15.885  -5.478 -17.412  1.00  0.00     0.274 C 
HETATM   46  O12 UNL     1      14.781  -5.012 -17.196  1.00  0.00    -0.304 OA
ENDBRANCH  40  45
ENDBRANCH  38  40
ENDBRANCH  37  38
ENDBRANCH  19  37
BRANCH   6  47
HETATM   47  N3  UNL     1      15.824  -4.302  -9.557  1.00  0.00    -0.383 N 
ATOM     48  H32 UNL     1      16.661  -3.756  -9.356  1.00  0.00     0.157 HD
ATOM     49  H31 UNL     1      14.918  -3.920  -9.289  1.00  0.00     0.157 HD
ENDBRANCH   6  47
BRANCH   1  50
HETATM   50  N1  UNL     1      14.376  -8.675 -10.002  1.00  0.00    -0.234 N 
ATOM     51  H12 UNL     1      13.362  -8.567 -10.022  1.00  0.00     0.174 HD
ATOM     52  H11 UNL     1      14.830  -9.531  -9.683  1.00  0.00     0.174 HD
ENDBRANCH   1  50
TORSDOF 15
ENDMDL
