MODEL 1
REMARK VINA RESULT: -7.667267299      0.000      0.000
REMARK  7 active torsions:
REMARK  status: ('A' for Active; 'I' for Inactive)
REMARK    1  A    between atoms: N1_1  and  C1_5 
REMARK    2  A    between atoms: C1_5  and  C2_6 
REMARK       I    between atoms: C2_6  and  N2_8 
REMARK    3  A    between atoms: N2_8  and  N3_9 
REMARK    4  A    between atoms: N3_9  and  C3_11 
REMARK    5  A    between atoms: C4_14  and  C5_15 
REMARK    6  A    between atoms: C5_15  and  N5_16 
REMARK       I    between atoms: N5_16  and  C6_18 
REMARK       I    between atoms: C6_18  and  N6_20 
REMARK    7  A    between atoms: N6_20  and  C7_22 
ROOT
HETATM    1  C3  UNL     1       5.490  21.357   1.640  1.00  0.00     0.712 A 
HETATM    2  N4  UNL     1       4.803  20.322   2.144  1.00  0.00    -0.176 N 
ATOM      3  H4  UNL     1       3.873  20.474   2.534  1.00  0.00     0.185 HD
HETATM    4  C4  UNL     1       5.330  19.087   2.140  1.00  0.00     0.119 A 
HETATM    5  N11 UNL     1       6.575  18.974   1.601  1.00  0.00    -0.296 N 
ATOM      6  H11 UNL     1       7.004  18.049   1.580  1.00  0.00     0.172 HD
HETATM    7  C8  UNL     1       7.270  20.000   1.098  1.00  0.00     0.340 A 
HETATM    8  O3  UNL     1       8.413  19.818   0.621  1.00  0.00    -0.246 OA
HETATM    9  N12 UNL     1       6.730  21.221   1.110  1.00  0.00    -0.139 N 
ATOM     10  H12 UNL     1       7.233  22.024   0.733  1.00  0.00     0.189 HD
ENDROOT
BRANCH   4  11
HETATM   11  C5  UNL     1       4.618  17.868   2.670  1.00  0.00     0.201 C 
BRANCH  11  12
HETATM   12  N5  UNL     1       4.086  17.174   1.500  1.00  0.00    -0.335 N 
HETATM   13  C6  UNL     1       2.963  17.647   0.792  1.00  0.00     0.334 C 
HETATM   14  O2  UNL     1       2.407  18.747   1.144  1.00  0.00    -0.246 OA
HETATM   15  N6  UNL     1       2.411  16.963  -0.286  1.00  0.00    -0.139 N 
ATOM     16  H6  UNL     1       2.258  15.968  -0.124  1.00  0.00     0.189 HD
ATOM     17  H5  UNL     1       4.542  16.318   1.185  1.00  0.00     0.164 HD
BRANCH  15  18
HETATM   18  C7  UNL     1       2.068  17.369  -1.430  1.00  0.00     0.717 A 
HETATM   19  N7  UNL     1       2.074  16.794  -2.652  1.00  0.00    -0.115 N 
HETATM   20  N8  UNL     1       1.673  17.719  -3.530  1.00  0.00    -0.213 N 
ATOM     21  H7  UNL     1       2.337  15.833  -2.865  1.00  0.00     0.207 HD
HETATM   22  N9  UNL     1       1.407  18.857  -2.921  1.00  0.00    -0.213 N 
ATOM     23  H8  UNL     1       1.583  17.564  -4.534  1.00  0.00     0.210 HD
HETATM   24  N10 UNL     1       1.647  18.637  -1.653  1.00  0.00    -0.115 N 
ATOM     25  H9  UNL     1       1.084  19.725  -3.347  1.00  0.00     0.210 HD
ATOM     26  H10 UNL     1       1.531  19.337  -0.920  1.00  0.00     0.207 HD
ENDBRANCH  15  18
ENDBRANCH  11  12
ENDBRANCH   4  11
BRANCH   1  27
HETATM   27  N3  UNL     1       4.976  22.563   1.636  1.00  0.00    -0.061 N 
ATOM     28  H3  UNL     1       4.502  22.908   0.802  1.00  0.00     0.221 HD
BRANCH  27  29
HETATM   29  N2  UNL     1       5.067  23.346   2.717  1.00  0.00    -0.270 NA
HETATM   30  C2  UNL     1       5.157  24.120   3.788  1.00  0.00     0.338 C 
HETATM   31  O1  UNL     1       5.610  25.319   3.899  1.00  0.00    -0.253 OA
BRANCH  30  32
HETATM   32  C1  UNL     1       4.666  23.576   5.141  1.00  0.00     0.350 C 
BRANCH  32  33
HETATM   33  N1  UNL     1       5.547  22.515   5.559  1.00  0.00    -0.070 N 
ATOM     34  H13 UNL     1       6.181  22.804   6.304  1.00  0.00     0.274 HD
ATOM     35  H12 UNL     1       5.058  21.780   6.068  1.00  0.00     0.274 HD
ATOM     36  H11 UNL     1       6.042  22.160   4.741  1.00  0.00     0.274 HD
ENDBRANCH  32  33
ENDBRANCH  30  32
ENDBRANCH  27  29
ENDBRANCH   1  27
TORSDOF 7
ENDMDL
MODEL 2
REMARK VINA RESULT: -7.266123227      3.601      5.587
REMARK  7 active torsions:
REMARK  status: ('A' for Active; 'I' for Inactive)
REMARK    1  A    between atoms: N1_1  and  C1_5 
REMARK    2  A    between atoms: C1_5  and  C2_6 
REMARK       I    between atoms: C2_6  and  N2_8 
REMARK    3  A    between atoms: N2_8  and  N3_9 
REMARK    4  A    between atoms: N3_9  and  C3_11 
REMARK    5  A    between atoms: C4_14  and  C5_15 
REMARK    6  A    between atoms: C5_15  and  N5_16 
REMARK       I    between atoms: N5_16  and  C6_18 
REMARK       I    between atoms: C6_18  and  N6_20 
REMARK    7  A    between atoms: N6_20  and  C7_22 
ROOT
HETATM    1  C3  UNL     1       2.930  22.747   6.227  1.00  0.00     0.712 A 
HETATM    2  N4  UNL     1       2.642  21.742   5.387  1.00  0.00    -0.176 N 
ATOM      3  H4  UNL     1       2.343  21.949   4.434  1.00  0.00     0.185 HD
HETATM    4  C4  UNL     1       2.744  20.466   5.792  1.00  0.00     0.119 A 
HETATM    5  N11 UNL     1       3.149  20.280   7.078  1.00  0.00    -0.296 N 
ATOM      6  H11 UNL     1       3.239  19.323   7.417  1.00  0.00     0.172 HD
HETATM    7  C8  UNL     1       3.436  21.276   7.924  1.00  0.00     0.340 A 
HETATM    8  O3  UNL     1       3.800  21.026   9.095  1.00  0.00    -0.246 OA
HETATM    9  N12 UNL     1       3.330  22.539   7.504  1.00  0.00    -0.139 N 
ATOM     10  H12 UNL     1       3.542  23.320   8.124  1.00  0.00     0.189 HD
ENDROOT
BRANCH   4  11
HETATM   11  C5  UNL     1       2.457  19.279   4.906  1.00  0.00     0.201 C 
BRANCH  11  12
HETATM   12  N5  UNL     1       3.711  18.975   4.223  1.00  0.00    -0.335 N 
HETATM   13  C6  UNL     1       4.077  19.598   3.014  1.00  0.00     0.334 C 
HETATM   14  O2  UNL     1       3.317  20.498   2.506  1.00  0.00    -0.246 OA
HETATM   15  N6  UNL     1       5.240  19.274   2.322  1.00  0.00    -0.139 N 
ATOM     16  H6  UNL     1       5.394  18.273   2.196  1.00  0.00     0.189 HD
ATOM     17  H5  UNL     1       4.344  18.290   4.635  1.00  0.00     0.164 HD
BRANCH  15  18
HETATM   18  C7  UNL     1       6.135  20.010   1.826  1.00  0.00     0.717 A 
HETATM   19  N7  UNL     1       6.153  21.302   1.434  1.00  0.00    -0.115 N 
HETATM   20  N8  UNL     1       7.356  21.542   0.902  1.00  0.00    -0.213 N 
ATOM     21  H7  UNL     1       5.391  21.972   1.528  1.00  0.00     0.207 HD
HETATM   22  N9  UNL     1       8.106  20.459   0.939  1.00  0.00    -0.213 N 
ATOM     23  H8  UNL     1       7.652  22.440   0.520  1.00  0.00     0.210 HD
HETATM   24  N10 UNL     1       7.362  19.539   1.499  1.00  0.00    -0.115 N 
ATOM     25  H9  UNL     1       9.064  20.359   0.603  1.00  0.00     0.210 HD
ATOM     26  H10 UNL     1       7.670  18.581   1.670  1.00  0.00     0.207 HD
ENDBRANCH  15  18
ENDBRANCH  11  12
ENDBRANCH   4  11
BRANCH   1  27
HETATM   27  N3  UNL     1       2.838  23.995   5.834  1.00  0.00    -0.061 N 
ATOM     28  H3  UNL     1       2.227  24.639   6.335  1.00  0.00     0.221 HD
BRANCH  27  29
HETATM   29  N2  UNL     1       3.539  24.430   4.781  1.00  0.00    -0.270 NA
HETATM   30  C2  UNL     1       4.232  24.861   3.738  1.00  0.00     0.338 C 
HETATM   31  O1  UNL     1       5.446  25.283   3.675  1.00  0.00    -0.253 OA
BRANCH  30  32
HETATM   32  C1  UNL     1       3.555  24.890   2.356  1.00  0.00     0.350 C 
BRANCH  32  33
HETATM   33  N1  UNL     1       2.759  26.088   2.258  1.00  0.00    -0.070 N 
ATOM     34  H13 UNL     1       3.214  26.895   2.685  1.00  0.00     0.274 HD
ATOM     35  H12 UNL     1       2.707  26.445   1.304  1.00  0.00     0.274 HD
ATOM     36  H11 UNL     1       1.839  25.903   2.657  1.00  0.00     0.274 HD
ENDBRANCH  32  33
ENDBRANCH  30  32
ENDBRANCH  27  29
ENDBRANCH   1  27
TORSDOF 7
ENDMDL
MODEL 3
REMARK VINA RESULT: -7.235550804      3.489      5.241
REMARK  7 active torsions:
REMARK  status: ('A' for Active; 'I' for Inactive)
REMARK    1  A    between atoms: N1_1  and  C1_5 
REMARK    2  A    between atoms: C1_5  and  C2_6 
REMARK       I    between atoms: C2_6  and  N2_8 
REMARK    3  A    between atoms: N2_8  and  N3_9 
REMARK    4  A    between atoms: N3_9  and  C3_11 
REMARK    5  A    between atoms: C4_14  and  C5_15 
REMARK    6  A    between atoms: C5_15  and  N5_16 
REMARK       I    between atoms: N5_16  and  C6_18 
REMARK       I    between atoms: C6_18  and  N6_20 
REMARK    7  A    between atoms: N6_20  and  C7_22 
ROOT
HETATM    1  C3  UNL     1       1.847  22.293   4.777  1.00  0.00     0.712 A 
HETATM    2  N4  UNL     1       1.908  21.093   4.183  1.00  0.00    -0.176 N 
ATOM      3  H4  UNL     1       1.767  21.020   3.176  1.00  0.00     0.185 HD
HETATM    4  C4  UNL     1       2.153  19.987   4.905  1.00  0.00     0.119 A 
HETATM    5  N11 UNL     1       2.329  20.176   6.240  1.00  0.00    -0.296 N 
ATOM      6  H11 UNL     1       2.519  19.357   6.818  1.00  0.00     0.172 HD
HETATM    7  C8  UNL     1       2.268  21.369   6.844  1.00  0.00     0.340 A 
HETATM    8  O3  UNL     1       2.438  21.462   8.080  1.00  0.00    -0.246 OA
HETATM    9  N12 UNL     1       2.024  22.458   6.111  1.00  0.00    -0.139 N 
ATOM     10  H12 UNL     1       1.972  23.381   6.539  1.00  0.00     0.189 HD
ENDROOT
BRANCH   4  11
HETATM   11  C5  UNL     1       2.256  18.604   4.312  1.00  0.00     0.201 C 
BRANCH  11  12
HETATM   12  N5  UNL     1       3.654  18.434   3.929  1.00  0.00    -0.335 N 
HETATM   13  C6  UNL     1       4.150  18.867   2.684  1.00  0.00     0.334 C 
HETATM   14  O2  UNL     1       3.372  19.474   1.865  1.00  0.00    -0.246 OA
HETATM   15  N6  UNL     1       5.466  18.656   2.283  1.00  0.00    -0.139 N 
ATOM     16  H6  UNL     1       5.804  17.704   2.419  1.00  0.00     0.189 HD
ATOM     17  H5  UNL     1       4.294  17.987   4.586  1.00  0.00     0.164 HD
BRANCH  15  18
HETATM   18  C7  UNL     1       6.310  19.447   1.781  1.00  0.00     0.717 A 
HETATM   19  N7  UNL     1       7.626  19.334   1.499  1.00  0.00    -0.115 N 
HETATM   20  N8  UNL     1       8.041  20.520   1.044  1.00  0.00    -0.213 N 
ATOM     21  H7  UNL     1       8.197  18.497   1.611  1.00  0.00     0.207 HD
HETATM   22  N9  UNL     1       7.047  21.385   1.022  1.00  0.00    -0.213 N 
ATOM     23  H8  UNL     1       8.996  20.728   0.755  1.00  0.00     0.210 HD
HETATM   24  N10 UNL     1       6.004  20.729   1.467  1.00  0.00    -0.115 N 
ATOM     25  H9  UNL     1       7.081  22.359   0.721  1.00  0.00     0.210 HD
ATOM     26  H10 UNL     1       5.074  21.135   1.565  1.00  0.00     0.207 HD
ENDBRANCH  15  18
ENDBRANCH  11  12
ENDBRANCH   4  11
BRANCH   1  27
HETATM   27  N3  UNL     1       1.615  23.377   4.075  1.00  0.00    -0.061 N 
ATOM     28  H3  UNL     1       0.666  23.582   3.762  1.00  0.00     0.221 HD
BRANCH  27  29
HETATM   29  N2  UNL     1       2.610  24.215   3.768  1.00  0.00    -0.270 NA
HETATM   30  C2  UNL     1       3.597  25.045   3.464  1.00  0.00     0.338 C 
HETATM   31  O1  UNL     1       3.638  25.987   2.589  1.00  0.00    -0.253 OA
BRANCH  30  32
HETATM   32  C1  UNL     1       4.927  24.930   4.229  1.00  0.00     0.350 C 
BRANCH  32  33
HETATM   33  N1  UNL     1       5.866  24.199   3.415  1.00  0.00    -0.070 N 
ATOM     34  H13 UNL     1       5.584  24.157   2.436  1.00  0.00     0.274 HD
ATOM     35  H12 UNL     1       6.744  24.700   3.288  1.00  0.00     0.274 HD
ATOM     36  H11 UNL     1       5.999  23.274   3.823  1.00  0.00     0.274 HD
ENDBRANCH  32  33
ENDBRANCH  30  32
ENDBRANCH  27  29
ENDBRANCH   1  27
TORSDOF 7
ENDMDL
MODEL 4
REMARK VINA RESULT: -7.158190893      3.856      7.706
REMARK  7 active torsions:
REMARK  status: ('A' for Active; 'I' for Inactive)
REMARK    1  A    between atoms: N1_1  and  C1_5 
REMARK    2  A    between atoms: C1_5  and  C2_6 
REMARK       I    between atoms: C2_6  and  N2_8 
REMARK    3  A    between atoms: N2_8  and  N3_9 
REMARK    4  A    between atoms: N3_9  and  C3_11 
REMARK    5  A    between atoms: C4_14  and  C5_15 
REMARK    6  A    between atoms: C5_15  and  N5_16 
REMARK       I    between atoms: N5_16  and  C6_18 
REMARK       I    between atoms: C6_18  and  N6_20 
REMARK    7  A    between atoms: N6_20  and  C7_22 
ROOT
HETATM    1  C3  UNL     1       4.474  23.152   2.469  1.00  0.00     0.712 A 
HETATM    2  N4  UNL     1       3.573  22.516   3.231  1.00  0.00    -0.176 N 
ATOM      3  H4  UNL     1       3.748  21.555   3.525  1.00  0.00     0.185 HD
HETATM    4  C4  UNL     1       2.442  23.134   3.609  1.00  0.00     0.119 A 
HETATM    5  N11 UNL     1       2.289  24.413   3.172  1.00  0.00    -0.296 N 
ATOM      6  H11 UNL     1       1.443  24.913   3.443  1.00  0.00     0.172 HD
HETATM    7  C8  UNL     1       3.181  25.057   2.410  1.00  0.00     0.340 A 
HETATM    8  O3  UNL     1       2.969  26.235   2.044  1.00  0.00    -0.246 OA
HETATM    9  N12 UNL     1       4.300  24.427   2.044  1.00  0.00    -0.139 N 
ATOM     10  H12 UNL     1       5.000  24.889   1.464  1.00  0.00     0.189 HD
ENDROOT
BRANCH   4  11
HETATM   11  C5  UNL     1       1.387  22.496   4.479  1.00  0.00     0.201 C 
BRANCH  11  12
HETATM   12  N5  UNL     1       1.911  22.539   5.841  1.00  0.00    -0.335 N 
HETATM   13  C6  UNL     1       2.909  21.652   6.290  1.00  0.00     0.334 C 
HETATM   14  O2  UNL     1       3.419  20.803   5.476  1.00  0.00    -0.246 OA
HETATM   15  N6  UNL     1       3.373  21.643   7.602  1.00  0.00    -0.139 N 
ATOM     16  H6  UNL     1       2.640  21.645   8.312  1.00  0.00     0.189 HD
ATOM     17  H5  UNL     1       1.543  23.235   6.489  1.00  0.00     0.164 HD
BRANCH  15  18
HETATM   18  C7  UNL     1       4.547  21.633   8.060  1.00  0.00     0.717 A 
HETATM   19  N7  UNL     1       5.102  21.090   9.165  1.00  0.00    -0.115 N 
HETATM   20  N8  UNL     1       6.385  21.463   9.193  1.00  0.00    -0.213 N 
ATOM     21  H7  UNL     1       4.629  20.502   9.851  1.00  0.00     0.207 HD
HETATM   22  N9  UNL     1       6.674  22.218   8.152  1.00  0.00    -0.213 N 
ATOM     23  H8  UNL     1       7.050  21.198   9.920  1.00  0.00     0.210 HD
HETATM   24  N10 UNL     1       5.559  22.316   7.472  1.00  0.00    -0.115 N 
ATOM     25  H9  UNL     1       7.575  22.638   7.925  1.00  0.00     0.210 HD
ATOM     26  H10 UNL     1       5.465  22.842   6.604  1.00  0.00     0.207 HD
ENDBRANCH  15  18
ENDBRANCH  11  12
ENDBRANCH   4  11
BRANCH   1  27
HETATM   27  N3  UNL     1       5.583  22.555   2.104  1.00  0.00    -0.061 N 
ATOM     28  H3  UNL     1       6.464  23.068   2.123  1.00  0.00     0.221 HD
BRANCH  27  29
HETATM   29  N2  UNL     1       5.569  21.278   1.706  1.00  0.00    -0.270 NA
HETATM   30  C2  UNL     1       5.556  20.013   1.312  1.00  0.00     0.338 C 
HETATM   31  O1  UNL     1       4.558  19.244   1.051  1.00  0.00    -0.253 OA
BRANCH  30  32
HETATM   32  C1  UNL     1       6.896  19.284   1.112  1.00  0.00     0.350 C 
BRANCH  32  33
HETATM   33  N1  UNL     1       7.954  20.262   1.079  1.00  0.00    -0.070 N 
ATOM     34  H13 UNL     1       8.255  20.481   0.130  1.00  0.00     0.274 HD
ATOM     35  H12 UNL     1       7.633  21.193   1.343  1.00  0.00     0.274 HD
ATOM     36  H11 UNL     1       8.721  19.933   1.665  1.00  0.00     0.274 HD
ENDBRANCH  32  33
ENDBRANCH  30  32
ENDBRANCH  27  29
ENDBRANCH   1  27
TORSDOF 7
ENDMDL
MODEL 5
REMARK VINA RESULT: -7.133223873      3.242      5.411
REMARK  7 active torsions:
REMARK  status: ('A' for Active; 'I' for Inactive)
REMARK    1  A    between atoms: N1_1  and  C1_5 
REMARK    2  A    between atoms: C1_5  and  C2_6 
REMARK       I    between atoms: C2_6  and  N2_8 
REMARK    3  A    between atoms: N2_8  and  N3_9 
REMARK    4  A    between atoms: N3_9  and  C3_11 
REMARK    5  A    between atoms: C4_14  and  C5_15 
REMARK    6  A    between atoms: C5_15  and  N5_16 
REMARK       I    between atoms: N5_16  and  C6_18 
REMARK       I    between atoms: C6_18  and  N6_20 
REMARK    7  A    between atoms: N6_20  and  C7_22 
ROOT
HETATM    1  C3  UNL     1       4.818  22.580   6.260  1.00  0.00     0.712 A 
HETATM    2  N4  UNL     1       3.534  22.251   6.057  1.00  0.00    -0.176 N 
ATOM      3  H4  UNL     1       3.150  22.273   5.113  1.00  0.00     0.185 HD
HETATM    4  C4  UNL     1       2.752  21.892   7.088  1.00  0.00     0.119 A 
HETATM    5  N11 UNL     1       3.346  21.890   8.312  1.00  0.00    -0.296 N 
ATOM      6  H11 UNL     1       2.780  21.620   9.117  1.00  0.00     0.172 HD
HETATM    7  C8  UNL     1       4.625  22.219   8.526  1.00  0.00     0.340 A 
HETATM    8  O3  UNL     1       5.099  22.196   9.684  1.00  0.00    -0.246 OA
HETATM    9  N12 UNL     1       5.388  22.573   7.489  1.00  0.00    -0.139 N 
ATOM     10  H12 UNL     1       6.366  22.829   7.618  1.00  0.00     0.189 HD
ENDROOT
BRANCH   4  11
HETATM   11  C5  UNL     1       1.305  21.489   6.943  1.00  0.00     0.201 C 
BRANCH  11  12
HETATM   12  N5  UNL     1       1.286  20.403   5.967  1.00  0.00    -0.335 N 
HETATM   13  C6  UNL     1       1.300  20.641   4.579  1.00  0.00     0.334 C 
HETATM   14  O2  UNL     1       1.379  21.843   4.140  1.00  0.00    -0.246 OA
HETATM   15  N6  UNL     1       1.222  19.618   3.640  1.00  0.00    -0.139 N 
ATOM     16  H6  UNL     1       0.482  18.937   3.814  1.00  0.00     0.189 HD
ATOM     17  H5  UNL     1       1.263  19.440   6.302  1.00  0.00     0.164 HD
BRANCH  15  18
HETATM   18  C7  UNL     1       1.912  19.392   2.609  1.00  0.00     0.717 A 
HETATM   19  N7  UNL     1       1.653  18.753   1.448  1.00  0.00    -0.115 N 
HETATM   20  N8  UNL     1       2.784  18.743   0.736  1.00  0.00    -0.213 N 
ATOM     21  H7  UNL     1       0.759  18.353   1.165  1.00  0.00     0.207 HD
HETATM   22  N9  UNL     1       3.753  19.350   1.391  1.00  0.00    -0.213 N 
ATOM     23  H8  UNL     1       2.884  18.324  -0.188  1.00  0.00     0.210 HD
HETATM   24  N10 UNL     1       3.218  19.740   2.521  1.00  0.00    -0.115 N 
ATOM     25  H9  UNL     1       4.716  19.488   1.084  1.00  0.00     0.210 HD
ATOM     26  H10 UNL     1       3.725  20.245   3.248  1.00  0.00     0.207 HD
ENDBRANCH  15  18
ENDBRANCH  11  12
ENDBRANCH   4  11
BRANCH   1  27
HETATM   27  N3  UNL     1       5.587  22.925   5.255  1.00  0.00    -0.061 N 
ATOM     28  H3  UNL     1       6.574  23.124   5.419  1.00  0.00     0.221 HD
BRANCH  27  29
HETATM   29  N2  UNL     1       5.090  23.017   4.018  1.00  0.00    -0.270 NA
HETATM   30  C2  UNL     1       4.596  23.110   2.791  1.00  0.00     0.338 C 
HETATM   31  O1  UNL     1       4.693  22.291   1.803  1.00  0.00    -0.253 OA
BRANCH  30  32
HETATM   32  C1  UNL     1       3.771  24.352   2.414  1.00  0.00     0.350 C 
BRANCH  32  33
HETATM   33  N1  UNL     1       2.538  24.331   3.160  1.00  0.00    -0.070 N 
ATOM     34  H13 UNL     1       1.744  24.030   2.596  1.00  0.00     0.274 HD
ATOM     35  H12 UNL     1       2.512  23.581   3.850  1.00  0.00     0.274 HD
ATOM     36  H11 UNL     1       2.393  25.251   3.577  1.00  0.00     0.274 HD
ENDBRANCH  32  33
ENDBRANCH  30  32
ENDBRANCH  27  29
ENDBRANCH   1  27
TORSDOF 7
ENDMDL
