MODEL 1
REMARK VINA RESULT: -7.150196422      0.000      0.000
REMARK  6 active torsions:
REMARK  status: ('A' for Active; 'I' for Inactive)
REMARK    1  A    between atoms: C2_3  and  C3_4 
REMARK    2  A    between atoms: C3_4  and  C5_12 
REMARK    3  A    between atoms: N2_5  and  N3_7 
REMARK       I    between atoms: C5_12  and  N6_14 
REMARK    4  A    between atoms: N6_14  and  C6_16 
REMARK    5  A    between atoms: C6_16  and  C7_17 
REMARK    6  A    between atoms: C8_20  and  O3_21 
ROOT
HETATM    1  C3  UNL     1       3.495  22.082   4.737  1.00  0.00     0.146 C 
HETATM    2  N2  UNL     1       3.168  23.233   4.421  1.00  0.00    -0.291 N 
ATOM      3  H2  UNL     1       3.113  23.760   5.293  1.00  0.00     0.187 HD
ENDROOT
BRANCH   1   4
HETATM    4  C2  UNL     1       3.701  21.794   6.159  1.00  0.00     0.111 A 
HETATM    5  N1  UNL     1       2.548  21.583   6.891  1.00  0.00    -0.299 N 
HETATM    6  C1  UNL     1       1.254  21.356   6.301  1.00  0.00     0.161 C 
HETATM    7  C10 UNL     1       2.647  21.602   8.246  1.00  0.00     0.329 A 
HETATM    8  N8  UNL     1       3.799  21.814   8.892  1.00  0.00    -0.273 N 
HETATM    9  O5  UNL     1       1.570  21.404   8.917  1.00  0.00    -0.246 OA
HETATM   10  C9  UNL     1       4.926  22.016   8.231  1.00  0.00     0.285 A 
ATOM     11  H8  UNL     1       3.808  21.821   9.912  1.00  0.00     0.173 HD
HETATM   12  C8  UNL     1       4.878  22.001   6.830  1.00  0.00     0.164 A 
HETATM   13  O4  UNL     1       6.030  22.220   8.843  1.00  0.00    -0.265 OA
BRANCH  12  14
HETATM   14  O3  UNL     1       6.102  22.175   6.215  1.00  0.00    -0.354 OA
ATOM     15  H3  UNL     1       6.468  23.021   5.983  1.00  0.00     0.218 HD
ENDBRANCH  12  14
ENDBRANCH   1   4
BRANCH   1  16
HETATM   16  C5  UNL     1       3.834  21.131   3.715  1.00  0.00     0.272 C 
HETATM   17  O1  UNL     1       3.113  20.951   2.696  1.00  0.00    -0.266 OA
HETATM   18  N6  UNL     1       5.016  20.290   3.738  1.00  0.00    -0.347 N 
ATOM     19  H6  UNL     1       5.662  20.374   4.523  1.00  0.00     0.163 HD
BRANCH  18  20
HETATM   20  C6  UNL     1       5.312  19.347   2.700  1.00  0.00     0.222 C 
BRANCH  20  21
HETATM   21  C7  UNL     1       6.219  18.262   3.054  1.00  0.00     0.248 C 
HETATM   22  N7  UNL     1       7.533  18.057   2.592  1.00  0.00    -0.061 NA
HETATM   23  O2  UNL     1       5.777  17.396   3.877  1.00  0.00    -0.275 OA
ENDBRANCH  20  21
ENDBRANCH  18  20
ENDBRANCH   1  16
BRANCH   2  24
HETATM   24  N3  UNL     1       2.860  24.075   3.469  1.00  0.00    -0.275 N 
HETATM   25  C4  UNL     1       3.668  24.967   3.014  1.00  0.00     0.215 C 
HETATM   26  N4  UNL     1       4.995  25.167   3.471  1.00  0.00    -0.065 NA
HETATM   27  N5  UNL     1       3.193  25.808   1.980  1.00  0.00    -0.065 NA
ATOM     28  H3  UNL     1       1.926  24.022   3.065  1.00  0.00     0.189 HD
ENDBRANCH   2  24
TORSDOF 6
ENDMDL
MODEL 2
REMARK VINA RESULT: -6.990566751      1.090      1.134
REMARK  6 active torsions:
REMARK  status: ('A' for Active; 'I' for Inactive)
REMARK    1  A    between atoms: C2_3  and  C3_4 
REMARK    2  A    between atoms: C3_4  and  C5_12 
REMARK    3  A    between atoms: N2_5  and  N3_7 
REMARK       I    between atoms: C5_12  and  N6_14 
REMARK    4  A    between atoms: N6_14  and  C6_16 
REMARK    5  A    between atoms: C6_16  and  C7_17 
REMARK    6  A    between atoms: C8_20  and  O3_21 
ROOT
HETATM    1  C3  UNL     1       3.484  22.127   4.743  1.00  0.00     0.146 C 
HETATM    2  N2  UNL     1       3.125  23.278   4.467  1.00  0.00    -0.291 N 
ATOM      3  H2  UNL     1       3.071  23.778   5.355  1.00  0.00     0.187 HD
ENDROOT
BRANCH   1   4
HETATM    4  C2  UNL     1       3.719  21.802   6.152  1.00  0.00     0.111 A 
HETATM    5  N1  UNL     1       2.583  21.547   6.896  1.00  0.00    -0.299 N 
HETATM    6  C1  UNL     1       1.284  21.312   6.321  1.00  0.00     0.161 C 
HETATM    7  C10 UNL     1       2.704  21.528   8.250  1.00  0.00     0.329 A 
HETATM    8  N8  UNL     1       3.863  21.744   8.883  1.00  0.00    -0.273 N 
HETATM    9  O5  UNL     1       1.643  21.289   8.932  1.00  0.00    -0.246 OA
HETATM   10  C9  UNL     1       4.975  21.988   8.210  1.00  0.00     0.285 A 
ATOM     11  H8  UNL     1       3.889  21.721   9.902  1.00  0.00     0.173 HD
HETATM   12  C8  UNL     1       4.904  22.012   6.810  1.00  0.00     0.164 A 
HETATM   13  O4  UNL     1       6.085  22.195   8.809  1.00  0.00    -0.265 OA
BRANCH  12  14
HETATM   14  O3  UNL     1       6.113  22.228   6.180  1.00  0.00    -0.354 OA
ATOM     15  H3  UNL     1       6.927  21.802   6.425  1.00  0.00     0.218 HD
ENDBRANCH  12  14
ENDBRANCH   1   4
BRANCH   1  16
HETATM   16  C5  UNL     1       3.829  21.215   3.687  1.00  0.00     0.272 C 
HETATM   17  O1  UNL     1       3.085  21.030   2.686  1.00  0.00    -0.266 OA
HETATM   18  N6  UNL     1       5.045  20.424   3.654  1.00  0.00    -0.347 N 
ATOM     19  H6  UNL     1       5.711  20.516   4.421  1.00  0.00     0.163 HD
BRANCH  18  20
HETATM   20  C6  UNL     1       5.346  19.519   2.584  1.00  0.00     0.222 C 
BRANCH  20  21
HETATM   21  C7  UNL     1       6.386  19.943   1.654  1.00  0.00     0.248 C 
HETATM   22  N7  UNL     1       7.569  19.257   1.319  1.00  0.00    -0.061 NA
HETATM   23  O2  UNL     1       6.209  21.063   1.074  1.00  0.00    -0.275 OA
ENDBRANCH  20  21
ENDBRANCH  18  20
ENDBRANCH   1  16
BRANCH   2  24
HETATM   24  N3  UNL     1       2.782  24.141   3.546  1.00  0.00    -0.275 N 
HETATM   25  C4  UNL     1       3.582  25.023   3.058  1.00  0.00     0.215 C 
HETATM   26  N4  UNL     1       4.936  25.189   3.443  1.00  0.00    -0.065 NA
HETATM   27  N5  UNL     1       3.067  25.889   2.065  1.00  0.00    -0.065 NA
ATOM     28  H3  UNL     1       1.825  24.113   3.194  1.00  0.00     0.189 HD
ENDBRANCH   2  24
TORSDOF 6
ENDMDL
MODEL 3
REMARK VINA RESULT: -6.813375138      1.622      1.687
REMARK  6 active torsions:
REMARK  status: ('A' for Active; 'I' for Inactive)
REMARK    1  A    between atoms: C2_3  and  C3_4 
REMARK    2  A    between atoms: C3_4  and  C5_12 
REMARK    3  A    between atoms: N2_5  and  N3_7 
REMARK       I    between atoms: C5_12  and  N6_14 
REMARK    4  A    between atoms: N6_14  and  C6_16 
REMARK    5  A    between atoms: C6_16  and  C7_17 
REMARK    6  A    between atoms: C8_20  and  O3_21 
ROOT
HETATM    1  C3  UNL     1       3.738  21.826   3.777  1.00  0.00     0.146 C 
HETATM    2  N2  UNL     1       3.221  22.944   3.667  1.00  0.00    -0.291 N 
ATOM      3  H2  UNL     1       2.864  23.183   4.592  1.00  0.00     0.187 HD
ENDROOT
BRANCH   1   4
HETATM    4  C2  UNL     1       3.708  21.184   5.093  1.00  0.00     0.111 A 
HETATM    5  N1  UNL     1       2.565  20.457   5.369  1.00  0.00    -0.299 N 
HETATM    6  C1  UNL     1       1.594  20.081   4.374  1.00  0.00     0.161 C 
HETATM    7  C10 UNL     1       2.347  20.087   6.659  1.00  0.00     0.329 A 
HETATM    8  N8  UNL     1       3.181  20.394   7.659  1.00  0.00    -0.273 N 
HETATM    9  O5  UNL     1       1.283  19.411   6.904  1.00  0.00    -0.246 OA
HETATM   10  C9  UNL     1       4.287  21.084   7.439  1.00  0.00     0.285 A 
ATOM     11  H8  UNL     1       2.960  20.090   8.607  1.00  0.00     0.173 HD
HETATM   12  C8  UNL     1       4.561  21.485   6.124  1.00  0.00     0.164 A 
HETATM   13  O4  UNL     1       5.088  21.381   8.390  1.00  0.00    -0.265 OA
BRANCH  12  14
HETATM   14  O3  UNL     1       5.755  22.161   5.970  1.00  0.00    -0.354 OA
ATOM     15  H3  UNL     1       6.464  22.143   6.602  1.00  0.00     0.218 HD
ENDBRANCH  12  14
ENDBRANCH   1   4
BRANCH   1  16
HETATM   16  C5  UNL     1       4.497  21.280   2.685  1.00  0.00     0.272 C 
HETATM   17  O1  UNL     1       4.868  21.981   1.705  1.00  0.00    -0.266 OA
HETATM   18  N6  UNL     1       4.911  19.893   2.589  1.00  0.00    -0.347 N 
ATOM     19  H6  UNL     1       4.660  19.253   3.343  1.00  0.00     0.163 HD
BRANCH  18  20
HETATM   20  C6  UNL     1       5.660  19.387   1.476  1.00  0.00     0.222 C 
BRANCH  20  21
HETATM   21  C7  UNL     1       7.065  19.089   1.727  1.00  0.00     0.248 C 
HETATM   22  N7  UNL     1       7.593  18.112   2.592  1.00  0.00    -0.061 NA
HETATM   23  O2  UNL     1       7.918  19.790   1.091  1.00  0.00    -0.275 OA
ENDBRANCH  20  21
ENDBRANCH  18  20
ENDBRANCH   1  16
BRANCH   2  24
HETATM   24  N3  UNL     1       2.926  23.957   2.893  1.00  0.00    -0.275 N 
HETATM   25  C4  UNL     1       3.641  25.023   2.807  1.00  0.00     0.215 C 
HETATM   26  N4  UNL     1       4.839  25.256   3.529  1.00  0.00    -0.065 NA
HETATM   27  N5  UNL     1       3.195  26.036   1.925  1.00  0.00    -0.065 NA
ATOM     28  H3  UNL     1       2.081  23.898   2.326  1.00  0.00     0.189 HD
ENDBRANCH   2  24
TORSDOF 6
ENDMDL
MODEL 4
REMARK VINA RESULT: -6.610943796      2.863      5.093
REMARK  6 active torsions:
REMARK  status: ('A' for Active; 'I' for Inactive)
REMARK    1  A    between atoms: C2_3  and  C3_4 
REMARK    2  A    between atoms: C3_4  and  C5_12 
REMARK    3  A    between atoms: N2_5  and  N3_7 
REMARK       I    between atoms: C5_12  and  N6_14 
REMARK    4  A    between atoms: N6_14  and  C6_16 
REMARK    5  A    between atoms: C6_16  and  C7_17 
REMARK    6  A    between atoms: C8_20  and  O3_21 
ROOT
HETATM    1  C3  UNL     1       4.651  20.079   3.306  1.00  0.00     0.146 C 
HETATM    2  N2  UNL     1       5.769  19.569   3.158  1.00  0.00    -0.291 N 
ATOM      3  H2  UNL     1       6.428  20.195   3.622  1.00  0.00     0.187 HD
ENDROOT
BRANCH   1   4
HETATM    4  C2  UNL     1       4.567  21.341   4.044  1.00  0.00     0.111 A 
HETATM    5  N1  UNL     1       4.983  22.460   3.348  1.00  0.00    -0.299 N 
HETATM    6  C1  UNL     1       5.205  22.483   1.925  1.00  0.00     0.161 C 
HETATM    7  C10 UNL     1       5.204  23.599   4.056  1.00  0.00     0.329 A 
HETATM    8  N8  UNL     1       5.038  23.681   5.380  1.00  0.00    -0.273 N 
HETATM    9  O5  UNL     1       5.590  24.634   3.400  1.00  0.00    -0.246 OA
HETATM   10  C9  UNL     1       4.637  22.636   6.084  1.00  0.00     0.285 A 
ATOM     11  H8  UNL     1       5.224  24.564   5.856  1.00  0.00     0.173 HD
HETATM   12  C8  UNL     1       4.389  21.437   5.400  1.00  0.00     0.164 A 
HETATM   13  O4  UNL     1       4.476  22.707   7.351  1.00  0.00    -0.265 OA
BRANCH  12  14
HETATM   14  O3  UNL     1       3.931  20.408   6.198  1.00  0.00    -0.354 OA
ATOM     15  H3  UNL     1       4.398  19.592   6.337  1.00  0.00     0.218 HD
ENDBRANCH  12  14
ENDBRANCH   1   4
BRANCH   1  16
HETATM   16  C5  UNL     1       3.477  19.346   2.920  1.00  0.00     0.272 C 
HETATM   17  O1  UNL     1       2.620  18.955   3.759  1.00  0.00    -0.266 OA
HETATM   18  N6  UNL     1       3.151  18.982   1.554  1.00  0.00    -0.347 N 
ATOM     19  H6  UNL     1       3.786  19.265   0.806  1.00  0.00     0.163 HD
BRANCH  18  20
HETATM   20  C6  UNL     1       1.972  18.242   1.214  1.00  0.00     0.222 C 
BRANCH  20  21
HETATM   21  C7  UNL     1       1.826  17.871  -0.189  1.00  0.00     0.248 C 
HETATM   22  N7  UNL     1       1.325  16.662  -0.709  1.00  0.00    -0.061 NA
HETATM   23  O2  UNL     1       2.192  18.738  -1.048  1.00  0.00    -0.275 OA
ENDBRANCH  20  21
ENDBRANCH  18  20
ENDBRANCH   1  16
BRANCH   2  24
HETATM   24  N3  UNL     1       6.483  18.587   2.672  1.00  0.00    -0.275 N 
HETATM   25  C4  UNL     1       7.355  18.730   1.736  1.00  0.00     0.215 C 
HETATM   26  N4  UNL     1       7.666  19.958   1.100  1.00  0.00    -0.065 NA
HETATM   27  N5  UNL     1       8.051  17.573   1.314  1.00  0.00    -0.065 NA
ATOM     28  H3  UNL     1       6.341  17.654   3.057  1.00  0.00     0.189 HD
ENDBRANCH   2  24
TORSDOF 6
ENDMDL
MODEL 5
REMARK VINA RESULT: -6.561737115      2.486      2.636
REMARK  6 active torsions:
REMARK  status: ('A' for Active; 'I' for Inactive)
REMARK    1  A    between atoms: C2_3  and  C3_4 
REMARK    2  A    between atoms: C3_4  and  C5_12 
REMARK    3  A    between atoms: N2_5  and  N3_7 
REMARK       I    between atoms: C5_12  and  N6_14 
REMARK    4  A    between atoms: N6_14  and  C6_16 
REMARK    5  A    between atoms: C6_16  and  C7_17 
REMARK    6  A    between atoms: C8_20  and  O3_21 
ROOT
HETATM    1  C3  UNL     1       2.922  22.964   5.902  1.00  0.00     0.146 C 
HETATM    2  N2  UNL     1       3.199  24.081   5.449  1.00  0.00    -0.291 N 
ATOM      3  H2  UNL     1       3.961  24.439   6.027  1.00  0.00     0.187 HD
ENDROOT
BRANCH   1   4
HETATM    4  C2  UNL     1       3.689  22.482   7.053  1.00  0.00     0.111 A 
HETATM    5  N1  UNL     1       3.063  22.616   8.278  1.00  0.00    -0.299 N 
HETATM    6  C1  UNL     1       1.663  22.918   8.434  1.00  0.00     0.161 C 
HETATM    7  C10 UNL     1       3.821  22.464   9.396  1.00  0.00     0.329 A 
HETATM    8  N8  UNL     1       5.130  22.193   9.360  1.00  0.00    -0.273 N 
HETATM    9  O5  UNL     1       3.229  22.590  10.529  1.00  0.00    -0.246 OA
HETATM   10  C9  UNL     1       5.768  22.052   8.211  1.00  0.00     0.285 A 
ATOM     11  H8  UNL     1       5.646  22.094  10.235  1.00  0.00     0.173 HD
HETATM   12  C8  UNL     1       5.030  22.194   7.027  1.00  0.00     0.164 A 
HETATM   13  O4  UNL     1       7.019  21.794   8.170  1.00  0.00    -0.265 OA
BRANCH  12  14
HETATM   14  O3  UNL     1       5.757  21.988   5.872  1.00  0.00    -0.354 OA
ATOM     15  H3  UNL     1       6.660  22.259   5.754  1.00  0.00     0.218 HD
ENDBRANCH  12  14
ENDBRANCH   1   4
BRANCH   1  16
HETATM   16  C5  UNL     1       2.005  22.114   5.194  1.00  0.00     0.272 C 
HETATM   17  O1  UNL     1       1.031  22.574   4.536  1.00  0.00    -0.266 OA
HETATM   18  N6  UNL     1       2.093  20.667   5.154  1.00  0.00    -0.347 N 
ATOM     19  H6  UNL     1       2.856  20.208   5.653  1.00  0.00     0.163 HD
BRANCH  18  20
HETATM   20  C6  UNL     1       1.150  19.856   4.442  1.00  0.00     0.222 C 
BRANCH  20  21
HETATM   21  C7  UNL     1       1.572  19.379   3.130  1.00  0.00     0.248 C 
HETATM   22  N7  UNL     1       2.683  19.805   2.378  1.00  0.00    -0.061 NA
HETATM   23  O2  UNL     1       0.855  18.470   2.597  1.00  0.00    -0.275 OA
ENDBRANCH  20  21
ENDBRANCH  18  20
ENDBRANCH   1  16
BRANCH   2  24
HETATM   24  N3  UNL     1       2.953  25.009   4.561  1.00  0.00    -0.275 N 
HETATM   25  C4  UNL     1       3.536  25.078   3.416  1.00  0.00     0.215 C 
HETATM   26  N4  UNL     1       4.522  24.170   2.954  1.00  0.00    -0.065 NA
HETATM   27  N5  UNL     1       3.163  26.140   2.559  1.00  0.00    -0.065 NA
ATOM     28  H3  UNL     1       2.257  25.719   4.789  1.00  0.00     0.189 HD
ENDBRANCH   2  24
TORSDOF 6
ENDMDL
