MODEL 1
REMARK VINA RESULT: -6.489311994      0.000      0.000
REMARK  6 active torsions:
REMARK  status: ('A' for Active; 'I' for Inactive)
REMARK    1  A    between atoms: N1_1  and  N2_4 
REMARK       I    between atoms: N2_4  and  C1_6 
REMARK    2  A    between atoms: C1_6  and  C2_8 
REMARK    3  A    between atoms: C2_8  and  C3_9 
REMARK    4  A    between atoms: C2_8  and  N3_12 
REMARK    5  A    between atoms: C5_17  and  C6_18 
REMARK    6  A    between atoms: C8_22  and  N6_23 
ROOT
HETATM    1  N3  UNL     1       5.238  20.625   2.469  1.00  0.00    -0.227 N 
HETATM    2  C4  UNL     1       4.916  20.149   3.762  1.00  0.00     0.332 C 
HETATM    3  O4  UNL     1       4.847  18.900   3.827  1.00  0.00    -0.246 OA
HETATM    4  N4  UNL     1       4.654  20.795   5.000  1.00  0.00    -0.304 N 
ATOM      5  H4  UNL     1       4.422  20.119   5.728  1.00  0.00     0.171 HD
HETATM    6  C5  UNL     1       4.626  22.122   5.500  1.00  0.00     0.101 C 
HETATM    7  C7  UNL     1       4.998  23.267   4.940  1.00  0.00     0.061 C 
HETATM    8  C8  UNL     1       5.551  23.882   3.756  1.00  0.00     0.311 C 
HETATM    9  N7  UNL     1       5.481  23.215   2.521  1.00  0.00    -0.311 N 
ATOM     10  H7  UNL     1       5.587  23.908   1.780  1.00  0.00     0.166 HD
HETATM   11  C9  UNL     1       5.318  21.942   1.915  1.00  0.00     0.329 C 
HETATM   12  O6  UNL     1       5.224  21.950   0.649  1.00  0.00    -0.247 OA
ENDROOT
BRANCH   1  13
HETATM   13  C2  UNL     1       5.553  19.589   1.491  1.00  0.00     0.293 C 
BRANCH  13  14
HETATM   14  C1  UNL     1       6.853  18.967   1.737  1.00  0.00     0.269 C 
HETATM   15  N2  UNL     1       7.109  17.783   2.432  1.00  0.00    -0.274 N 
ATOM     16  H2  UNL     1       6.321  17.267   2.825  1.00  0.00     0.189 HD
HETATM   17  O1  UNL     1       7.886  19.566   1.266  1.00  0.00    -0.269 OA
BRANCH  15  18
HETATM   18  N1  UNL     1       8.408  17.271   2.613  1.00  0.00    -0.343 N 
ATOM     19  H12 UNL     1       9.171  17.942   2.711  1.00  0.00     0.176 HD
ATOM     20  H11 UNL     1       8.608  16.272   2.648  1.00  0.00     0.176 HD
ENDBRANCH  15  18
ENDBRANCH  13  14
BRANCH  13  21
HETATM   21  C3  UNL     1       4.424  18.697   1.233  1.00  0.00     0.207 C 
HETATM   22  O2  UNL     1       4.621  17.482   1.018  1.00  0.00    -0.646 OA
HETATM   23  O3  UNL     1       3.111  19.135   1.211  1.00  0.00    -0.646 OA
ENDBRANCH  13  21
ENDBRANCH   1  13
BRANCH   6  24
HETATM   24  C6  UNL     1       4.102  22.251   6.850  1.00  0.00     0.281 C 
HETATM   25  N5  UNL     1       4.727  21.539   7.907  1.00  0.00    -0.056 NA
HETATM   26  O5  UNL     1       3.112  22.971   7.122  1.00  0.00    -0.269 OA
ENDBRANCH   6  24
BRANCH   8  27
HETATM   27  N6  UNL     1       4.889  25.190   3.585  1.00  0.00    -0.055 N 
ATOM     28  H63 UNL     1       3.943  25.210   3.964  1.00  0.00     0.277 HD
ATOM     29  H62 UNL     1       5.286  25.918   4.180  1.00  0.00     0.277 HD
ATOM     30  H61 UNL     1       4.925  25.424   2.592  1.00  0.00     0.277 HD
ENDBRANCH   8  27
TORSDOF 6
ENDMDL
MODEL 2
REMARK VINA RESULT: -6.379201610      2.972      5.146
REMARK  6 active torsions:
REMARK  status: ('A' for Active; 'I' for Inactive)
REMARK    1  A    between atoms: N1_1  and  N2_4 
REMARK       I    between atoms: N2_4  and  C1_6 
REMARK    2  A    between atoms: C1_6  and  C2_8 
REMARK    3  A    between atoms: C2_8  and  C3_9 
REMARK    4  A    between atoms: C2_8  and  N3_12 
REMARK    5  A    between atoms: C5_17  and  C6_18 
REMARK    6  A    between atoms: C8_22  and  N6_23 
ROOT
HETATM    1  N3  UNL     1       3.626  21.849   4.635  1.00  0.00    -0.227 N 
HETATM    2  C4  UNL     1       4.654  22.525   5.332  1.00  0.00     0.332 C 
HETATM    3  O4  UNL     1       5.347  23.267   4.597  1.00  0.00    -0.246 OA
HETATM    4  N4  UNL     1       5.064  22.537   6.692  1.00  0.00    -0.304 N 
ATOM      5  H4  UNL     1       5.882  23.133   6.827  1.00  0.00     0.171 HD
HETATM    6  C5  UNL     1       4.648  21.947   7.914  1.00  0.00     0.101 C 
HETATM    7  C7  UNL     1       3.566  21.237   8.209  1.00  0.00     0.061 C 
HETATM    8  C8  UNL     1       2.339  20.677   7.691  1.00  0.00     0.311 C 
HETATM    9  N7  UNL     1       2.194  20.464   6.309  1.00  0.00    -0.311 N 
ATOM     10  H7  UNL     1       1.458  19.771   6.171  1.00  0.00     0.166 HD
HETATM   11  C9  UNL     1       2.683  20.848   5.034  1.00  0.00     0.329 C 
HETATM   12  O6  UNL     1       2.212  20.197   4.051  1.00  0.00    -0.247 OA
ENDROOT
BRANCH   1  13
HETATM   13  C2  UNL     1       3.477  22.228   3.234  1.00  0.00     0.293 C 
BRANCH  13  14
HETATM   14  C1  UNL     1       3.061  23.620   3.074  1.00  0.00     0.269 C 
HETATM   15  N2  UNL     1       3.775  24.655   2.468  1.00  0.00    -0.274 N 
ATOM     16  H2  UNL     1       4.697  24.450   2.081  1.00  0.00     0.189 HD
HETATM   17  O1  UNL     1       1.908  23.942   3.539  1.00  0.00    -0.269 OA
BRANCH  15  18
HETATM   18  N1  UNL     1       3.278  25.969   2.369  1.00  0.00    -0.343 N 
ATOM     19  H12 UNL     1       2.693  26.311   3.131  1.00  0.00     0.176 HD
ATOM     20  H11 UNL     1       3.478  26.577   1.575  1.00  0.00     0.176 HD
ENDBRANCH  15  18
ENDBRANCH  13  14
BRANCH  13  21
HETATM   21  C3  UNL     1       4.588  21.764   2.405  1.00  0.00     0.207 C 
HETATM   22  O2  UNL     1       4.988  22.458   1.446  1.00  0.00    -0.646 OA
HETATM   23  O3  UNL     1       5.241  20.564   2.628  1.00  0.00    -0.646 OA
ENDBRANCH  13  21
ENDBRANCH   1  13
BRANCH   6  24
HETATM   24  C6  UNL     1       5.559  22.154   9.029  1.00  0.00     0.281 C 
HETATM   25  N5  UNL     1       6.768  21.414   9.083  1.00  0.00    -0.056 NA
HETATM   26  O5  UNL     1       5.316  22.967   9.953  1.00  0.00    -0.269 OA
ENDBRANCH   6  24
BRANCH   8  27
HETATM   27  N6  UNL     1       2.129  19.377   8.358  1.00  0.00    -0.055 N 
ATOM     28  H63 UNL     1       2.274  19.419   9.367  1.00  0.00     0.277 HD
ATOM     29  H62 UNL     1       1.149  19.093   8.376  1.00  0.00     0.277 HD
ATOM     30  H61 UNL     1       2.733  18.695   7.898  1.00  0.00     0.277 HD
ENDBRANCH   8  27
TORSDOF 6
ENDMDL
MODEL 3
REMARK VINA RESULT: -6.335925418      2.405      4.188
REMARK  6 active torsions:
REMARK  status: ('A' for Active; 'I' for Inactive)
REMARK    1  A    between atoms: N1_1  and  N2_4 
REMARK       I    between atoms: N2_4  and  C1_6 
REMARK    2  A    between atoms: C1_6  and  C2_8 
REMARK    3  A    between atoms: C2_8  and  C3_9 
REMARK    4  A    between atoms: C2_8  and  N3_12 
REMARK    5  A    between atoms: C5_17  and  C6_18 
REMARK    6  A    between atoms: C8_22  and  N6_23 
ROOT
HETATM    1  N3  UNL     1       3.838  20.083   3.583  1.00  0.00    -0.227 N 
HETATM    2  C4  UNL     1       4.242  21.119   2.709  1.00  0.00     0.332 C 
HETATM    3  O4  UNL     1       4.614  20.704   1.586  1.00  0.00    -0.246 OA
HETATM    4  N4  UNL     1       4.314  22.532   2.840  1.00  0.00    -0.304 N 
ATOM      5  H4  UNL     1       4.690  22.964   1.996  1.00  0.00     0.171 HD
HETATM    6  C5  UNL     1       4.007  23.506   3.825  1.00  0.00     0.101 C 
HETATM    7  C7  UNL     1       3.376  23.393   4.988  1.00  0.00     0.061 C 
HETATM    8  C8  UNL     1       2.712  22.484   5.892  1.00  0.00     0.311 C 
HETATM    9  N7  UNL     1       2.967  21.104   5.812  1.00  0.00    -0.311 N 
ATOM     10  H7  UNL     1       2.709  20.682   6.704  1.00  0.00     0.166 HD
HETATM   11  C9  UNL     1       3.448  20.077   4.960  1.00  0.00     0.329 C 
HETATM   12  O6  UNL     1       3.562  18.932   5.498  1.00  0.00    -0.247 OA
ENDROOT
BRANCH   1  13
HETATM   13  C2  UNL     1       3.805  18.752   2.988  1.00  0.00     0.293 C 
BRANCH  13  14
HETATM   14  C1  UNL     1       2.742  18.611   1.994  1.00  0.00     0.269 C 
HETATM   15  N2  UNL     1       2.861  18.707   0.607  1.00  0.00    -0.274 N 
ATOM     16  H2  UNL     1       3.780  18.895   0.206  1.00  0.00     0.189 HD
HETATM   17  O1  UNL     1       1.560  18.371   2.433  1.00  0.00    -0.269 OA
BRANCH  15  18
HETATM   18  N1  UNL     1       1.764  18.556  -0.264  1.00  0.00    -0.343 N 
ATOM     19  H12 UNL     1       0.838  18.779   0.100  1.00  0.00     0.176 HD
ATOM     20  H11 UNL     1       1.864  18.237  -1.228  1.00  0.00     0.176 HD
ENDBRANCH  15  18
ENDBRANCH  13  14
BRANCH  13  21
HETATM   21  C3  UNL     1       5.134  18.268   2.617  1.00  0.00     0.207 C 
HETATM   22  O2  UNL     1       5.303  17.663   1.537  1.00  0.00    -0.646 OA
HETATM   23  O3  UNL     1       6.248  18.445   3.419  1.00  0.00    -0.646 OA
ENDBRANCH  13  21
ENDBRANCH   1  13
BRANCH   6  24
HETATM   24  C6  UNL     1       4.457  24.852   3.509  1.00  0.00     0.281 C 
HETATM   25  N5  UNL     1       3.580  25.734   2.826  1.00  0.00    -0.056 NA
HETATM   26  O5  UNL     1       5.599  25.269   3.817  1.00  0.00    -0.269 OA
ENDBRANCH   6  24
BRANCH   8  27
HETATM   27  N6  UNL     1       3.036  22.909   7.268  1.00  0.00    -0.055 N 
ATOM     28  H63 UNL     1       3.895  23.458   7.322  1.00  0.00     0.277 HD
ATOM     29  H62 UNL     1       2.400  23.623   7.624  1.00  0.00     0.277 HD
ATOM     30  H61 UNL     1       3.062  22.072   7.850  1.00  0.00     0.277 HD
ENDBRANCH   8  27
TORSDOF 6
ENDMDL
MODEL 4
REMARK VINA RESULT: -6.324764321      3.382      5.397
REMARK  6 active torsions:
REMARK  status: ('A' for Active; 'I' for Inactive)
REMARK    1  A    between atoms: N1_1  and  N2_4 
REMARK       I    between atoms: N2_4  and  C1_6 
REMARK    2  A    between atoms: C1_6  and  C2_8 
REMARK    3  A    between atoms: C2_8  and  C3_9 
REMARK    4  A    between atoms: C2_8  and  N3_12 
REMARK    5  A    between atoms: C5_17  and  C6_18 
REMARK    6  A    between atoms: C8_22  and  N6_23 
ROOT
HETATM    1  N3  UNL     1       3.175  22.426   4.918  1.00  0.00    -0.227 N 
HETATM    2  C4  UNL     1       4.427  22.738   5.497  1.00  0.00     0.332 C 
HETATM    3  O4  UNL     1       5.261  23.176   4.670  1.00  0.00    -0.246 OA
HETATM    4  N4  UNL     1       4.935  22.658   6.821  1.00  0.00    -0.304 N 
ATOM      5  H4  UNL     1       5.913  22.947   6.861  1.00  0.00     0.171 HD
HETATM    6  C5  UNL     1       4.454  22.287   8.103  1.00  0.00     0.101 C 
HETATM    7  C7  UNL     1       3.227  21.996   8.518  1.00  0.00     0.061 C 
HETATM    8  C8  UNL     1       1.843  21.865   8.124  1.00  0.00     0.311 C 
HETATM    9  N7  UNL     1       1.515  21.665   6.772  1.00  0.00    -0.311 N 
ATOM     10  H7  UNL     1       0.581  21.257   6.729  1.00  0.00     0.166 HD
HETATM   11  C9  UNL     1       1.991  21.817   5.444  1.00  0.00     0.329 C 
HETATM   12  O6  UNL     1       1.246  21.329   4.539  1.00  0.00    -0.247 OA
ENDROOT
BRANCH   1  13
HETATM   13  C2  UNL     1       3.041  22.783   3.510  1.00  0.00     0.293 C 
BRANCH  13  14
HETATM   14  C1  UNL     1       2.971  24.229   3.306  1.00  0.00     0.269 C 
HETATM   15  N2  UNL     1       3.188  24.929   2.118  1.00  0.00    -0.274 N 
ATOM     16  H2  UNL     1       3.423  24.402   1.276  1.00  0.00     0.189 HD
HETATM   17  O1  UNL     1       2.678  24.950   4.327  1.00  0.00    -0.269 OA
BRANCH  15  18
HETATM   18  N1  UNL     1       3.097  26.332   2.032  1.00  0.00    -0.343 N 
ATOM     19  H12 UNL     1       3.518  26.879   2.783  1.00  0.00     0.176 HD
ATOM     20  H11 UNL     1       2.633  26.809   1.259  1.00  0.00     0.176 HD
ENDBRANCH  15  18
ENDBRANCH  13  14
BRANCH  13  21
HETATM   21  C3  UNL     1       3.950  22.030   2.648  1.00  0.00     0.207 C 
HETATM   22  O2  UNL     1       3.971  20.782   2.695  1.00  0.00    -0.646 OA
HETATM   23  O3  UNL     1       4.819  22.640   1.759  1.00  0.00    -0.646 OA
ENDBRANCH  13  21
ENDBRANCH   1  13
BRANCH   6  24
HETATM   24  C6  UNL     1       5.475  22.213   9.137  1.00  0.00     0.281 C 
HETATM   25  N5  UNL     1       6.583  21.346   8.955  1.00  0.00    -0.056 NA
HETATM   26  O5  UNL     1       5.415  22.890  10.191  1.00  0.00    -0.269 OA
ENDBRANCH   6  24
BRANCH   8  27
HETATM   27  N6  UNL     1       1.270  20.737   8.883  1.00  0.00    -0.055 N 
ATOM     28  H63 UNL     1       0.251  20.711   8.848  1.00  0.00     0.277 HD
ATOM     29  H62 UNL     1       1.441  19.833   8.443  1.00  0.00     0.277 HD
ATOM     30  H61 UNL     1       1.634  20.791   9.835  1.00  0.00     0.277 HD
ENDBRANCH   8  27
TORSDOF 6
ENDMDL
MODEL 5
REMARK VINA RESULT: -6.297129954      2.040      3.278
REMARK  6 active torsions:
REMARK  status: ('A' for Active; 'I' for Inactive)
REMARK    1  A    between atoms: N1_1  and  N2_4 
REMARK       I    between atoms: N2_4  and  C1_6 
REMARK    2  A    between atoms: C1_6  and  C2_8 
REMARK    3  A    between atoms: C2_8  and  C3_9 
REMARK    4  A    between atoms: C2_8  and  N3_12 
REMARK    5  A    between atoms: C5_17  and  C6_18 
REMARK    6  A    between atoms: C8_22  and  N6_23 
ROOT
HETATM    1  N3  UNL     1       5.054  19.996   2.057  1.00  0.00    -0.227 N 
HETATM    2  C4  UNL     1       5.560  21.268   1.701  1.00  0.00     0.332 C 
HETATM    3  O4  UNL     1       6.510  21.214   0.887  1.00  0.00    -0.246 OA
HETATM    4  N4  UNL     1       5.213  22.594   2.076  1.00  0.00    -0.304 N 
ATOM      5  H4  UNL     1       5.828  23.277   1.633  1.00  0.00     0.171 HD
HETATM    6  C5  UNL     1       4.245  23.227   2.897  1.00  0.00     0.101 C 
HETATM    7  C7  UNL     1       3.185  22.734   3.525  1.00  0.00     0.061 C 
HETATM    8  C8  UNL     1       2.414  21.541   3.791  1.00  0.00     0.311 C 
HETATM    9  N7  UNL     1       3.004  20.275   3.636  1.00  0.00    -0.311 N 
ATOM     10  H7  UNL     1       2.464  19.604   4.181  1.00  0.00     0.166 HD
HETATM   11  C9  UNL     1       4.068  19.578   3.008  1.00  0.00     0.329 C 
HETATM   12  O6  UNL     1       4.187  18.357   3.334  1.00  0.00    -0.247 OA
ENDROOT
BRANCH   1  13
HETATM   13  C2  UNL     1       5.636  18.875   1.327  1.00  0.00     0.293 C 
BRANCH  13  14
HETATM   14  C1  UNL     1       6.477  18.033   2.176  1.00  0.00     0.269 C 
HETATM   15  N2  UNL     1       6.286  16.686   2.490  1.00  0.00    -0.274 N 
ATOM     16  H2  UNL     1       5.478  16.203   2.097  1.00  0.00     0.189 HD
HETATM   17  O1  UNL     1       7.513  18.581   2.699  1.00  0.00    -0.269 OA
BRANCH  15  18
HETATM   18  N1  UNL     1       7.163  15.966   3.325  1.00  0.00    -0.343 N 
ATOM     19  H12 UNL     1       7.172  16.204   4.317  1.00  0.00     0.176 HD
ATOM     20  H11 UNL     1       7.777  15.230   2.977  1.00  0.00     0.176 HD
ENDBRANCH  15  18
ENDBRANCH  13  14
BRANCH  13  21
HETATM   21  C3  UNL     1       4.666  18.198   0.468  1.00  0.00     0.207 C 
HETATM   22  O2  UNL     1       4.874  17.027   0.087  1.00  0.00    -0.646 OA
HETATM   23  O3  UNL     1       3.495  18.800   0.038  1.00  0.00    -0.646 OA
ENDBRANCH  13  21
ENDBRANCH   1  13
BRANCH   6  24
HETATM   24  C6  UNL     1       4.447  24.655   3.083  1.00  0.00     0.281 C 
HETATM   25  N5  UNL     1       3.485  25.565   2.572  1.00  0.00    -0.056 NA
HETATM   26  O5  UNL     1       5.447  25.121   3.680  1.00  0.00    -0.269 OA
ENDBRANCH   6  24
BRANCH   8  27
HETATM   27  N6  UNL     1       1.927  21.628   5.182  1.00  0.00    -0.055 N 
ATOM     28  H63 UNL     1       2.681  21.718   5.863  1.00  0.00     0.277 HD
ATOM     29  H62 UNL     1       1.459  22.512   5.385  1.00  0.00     0.277 HD
ATOM     30  H61 UNL     1       1.334  20.815   5.351  1.00  0.00     0.277 HD
ENDBRANCH   8  27
TORSDOF 6
ENDMDL
