MODEL 1
REMARK VINA RESULT: -6.701851132      0.000      0.000
REMARK  8 active torsions:
REMARK  status: ('A' for Active; 'I' for Inactive)
REMARK    1  A    between atoms: N1_2  and  N2_4 
REMARK    2  A    between atoms: C2_6  and  N3_7 
REMARK    3  A    between atoms: C2_6  and  C3_12 
REMARK    4  A    between atoms: N3_7  and  N4_9 
REMARK       I    between atoms: C3_12  and  N5_14 
REMARK    5  A    between atoms: N5_14  and  N6_16 
REMARK       I    between atoms: N6_16  and  C4_18 
REMARK    6  A    between atoms: C4_18  and  C5_20 
REMARK    7  A    between atoms: C5_20  and  C6_21 
REMARK    8  A    between atoms: C9_30  and  C10_31 
ROOT
HETATM    1  N6  UNL     1       1.662  20.418   3.604  1.00  0.00    -0.267 N 
ATOM      2  H6  UNL     1       2.635  20.193   3.815  1.00  0.00     0.190 HD
HETATM    3  C4  UNL     1       1.153  21.585   4.184  1.00  0.00     0.241 C 
HETATM    4  O2  UNL     1      -0.034  21.958   3.994  1.00  0.00    -0.271 OA
ENDROOT
BRANCH   1   5
HETATM    5  N5  UNL     1       0.988  19.531   2.771  1.00  0.00    -0.261 N 
HETATM    6  C3  UNL     1       1.637  18.801   1.741  1.00  0.00     0.306 C 
HETATM    7  O1  UNL     1       2.871  18.980   1.595  1.00  0.00    -0.262 OA
ATOM      8  H5  UNL     1      -0.014  19.400   2.906  1.00  0.00     0.190 HD
BRANCH   6   9
HETATM    9  C2  UNL     1       0.916  17.878   0.884  1.00  0.00     0.204 C 
HETATM   10  N2  UNL     1      -0.152  17.303   1.280  1.00  0.00    -0.285 N 
ATOM     11  H2  UNL     1      -0.453  17.531   2.227  1.00  0.00     0.188 HD
BRANCH  10  12
HETATM   12  N1  UNL     1      -0.946  16.419   0.596  1.00  0.00    -0.339 N 
HETATM   13  C1  UNL     1      -2.396  16.568   0.787  1.00  0.00     0.167 C 
ATOM     14  H1  UNL     1      -0.554  15.699  -0.010  1.00  0.00     0.179 HD
ENDBRANCH  10  12
BRANCH   9  15
HETATM   15  N3  UNL     1       1.389  17.604  -0.426  1.00  0.00    -0.286 N 
ATOM     16  H3  UNL     1       1.537  16.645  -0.740  1.00  0.00     0.188 HD
BRANCH  15  17
HETATM   17  N4  UNL     1       1.647  18.682  -1.273  1.00  0.00    -0.343 N 
ATOM     18  H42 UNL     1       1.350  19.621  -1.008  1.00  0.00     0.176 HD
ATOM     19  H41 UNL     1       2.134  18.500  -2.150  1.00  0.00     0.176 HD
ENDBRANCH  15  17
ENDBRANCH   9  15
ENDBRANCH   6   9
ENDBRANCH   1   5
BRANCH   3  20
HETATM   20  C5  UNL     1       2.024  22.424   5.054  1.00  0.00     0.163 C 
BRANCH  20  21
HETATM   21  C6  UNL     1       2.781  23.389   4.259  1.00  0.00     0.041 A 
HETATM   22  N7  UNL     1       2.227  24.226   3.350  1.00  0.00    -0.311 N 
HETATM   23  C7  UNL     1       2.998  25.087   2.674  1.00  0.00     0.327 A 
ATOM     24  H7  UNL     1       1.222  24.199   3.179  1.00  0.00     0.170 HD
HETATM   25  O3  UNL     1       2.415  25.848   1.832  1.00  0.00    -0.247 OA
HETATM   26  N8  UNL     1       4.327  25.199   2.826  1.00  0.00    -0.275 N 
HETATM   27  C8  UNL     1       4.912  24.385   3.720  1.00  0.00     0.264 A 
ATOM     28  H8  UNL     1       4.869  25.872   2.286  1.00  0.00     0.173 HD
HETATM   29  O4  UNL     1       6.157  24.482   3.869  1.00  0.00    -0.267 OA
HETATM   30  C9  UNL     1       4.160  23.474   4.446  1.00  0.00     0.093 A 
BRANCH  30  31
HETATM   31  C10 UNL     1       4.819  22.611   5.397  1.00  0.00     0.277 C 
HETATM   32  O5  UNL     1       5.036  21.405   5.102  1.00  0.00    -0.301 OA
ENDBRANCH  30  31
ENDBRANCH  20  21
ENDBRANCH   3  20
TORSDOF 8
ENDMDL
MODEL 2
REMARK VINA RESULT: -6.564213685      4.405      5.485
REMARK  8 active torsions:
REMARK  status: ('A' for Active; 'I' for Inactive)
REMARK    1  A    between atoms: N1_2  and  N2_4 
REMARK    2  A    between atoms: C2_6  and  N3_7 
REMARK    3  A    between atoms: C2_6  and  C3_12 
REMARK    4  A    between atoms: N3_7  and  N4_9 
REMARK       I    between atoms: C3_12  and  N5_14 
REMARK    5  A    between atoms: N5_14  and  N6_16 
REMARK       I    between atoms: N6_16  and  C4_18 
REMARK    6  A    between atoms: C4_18  and  C5_20 
REMARK    7  A    between atoms: C5_20  and  C6_21 
REMARK    8  A    between atoms: C9_30  and  C10_31 
ROOT
HETATM    1  N6  UNL     1       4.931  20.899   1.903  1.00  0.00    -0.267 N 
ATOM      2  H6  UNL     1       4.369  21.357   1.185  1.00  0.00     0.190 HD
HETATM    3  C4  UNL     1       4.354  20.794   3.174  1.00  0.00     0.241 C 
HETATM    4  O2  UNL     1       4.958  20.250   4.135  1.00  0.00    -0.271 OA
ENDROOT
BRANCH   1   5
HETATM    5  N5  UNL     1       6.186  20.448   1.512  1.00  0.00    -0.261 N 
HETATM    6  C3  UNL     1       6.417  19.127   1.046  1.00  0.00     0.306 C 
HETATM    7  O1  UNL     1       5.431  18.352   0.995  1.00  0.00    -0.262 OA
ATOM      8  H5  UNL     1       6.975  21.093   1.561  1.00  0.00     0.190 HD
BRANCH   6   9
HETATM    9  C2  UNL     1       7.735  18.676   0.640  1.00  0.00     0.204 C 
HETATM   10  N2  UNL     1       8.355  19.228  -0.329  1.00  0.00    -0.285 N 
ATOM     11  H2  UNL     1       7.862  19.991  -0.793  1.00  0.00     0.188 HD
BRANCH  10  12
HETATM   12  N1  UNL     1       9.596  18.926  -0.828  1.00  0.00    -0.339 N 
HETATM   13  C1  UNL     1      10.143  19.866  -1.816  1.00  0.00     0.167 C 
ATOM     14  H1  UNL     1      10.110  18.098  -0.531  1.00  0.00     0.179 HD
ENDBRANCH  10  12
BRANCH   9  15
HETATM   15  N3  UNL     1       8.366  17.606   1.328  1.00  0.00    -0.286 N 
ATOM     16  H3  UNL     1       9.114  17.069   0.889  1.00  0.00     0.188 HD
BRANCH  15  17
HETATM   17  N4  UNL     1       7.937  17.310   2.621  1.00  0.00    -0.343 N 
ATOM     18  H42 UNL     1       7.330  16.506   2.785  1.00  0.00     0.176 HD
ATOM     19  H41 UNL     1       8.246  17.914   3.382  1.00  0.00     0.176 HD
ENDBRANCH  15  17
ENDBRANCH   9  15
ENDBRANCH   6   9
ENDBRANCH   1   5
BRANCH   3  20
HETATM   20  C5  UNL     1       2.986  21.334   3.416  1.00  0.00     0.163 C 
BRANCH  20  21
HETATM   21  C6  UNL     1       3.011  22.793   3.513  1.00  0.00     0.041 A 
HETATM   22  N7  UNL     1       3.241  23.620   2.466  1.00  0.00    -0.311 N 
HETATM   23  C7  UNL     1       3.232  24.946   2.646  1.00  0.00     0.327 A 
ATOM     24  H7  UNL     1       3.421  23.232   1.540  1.00  0.00     0.170 HD
HETATM   25  O3  UNL     1       3.456  25.671   1.620  1.00  0.00    -0.247 OA
HETATM   26  N8  UNL     1       3.006  25.552   3.822  1.00  0.00    -0.275 N 
HETATM   27  C8  UNL     1       2.774  24.764   4.884  1.00  0.00     0.264 A 
ATOM     28  H8  UNL     1       3.011  26.569   3.906  1.00  0.00     0.173 HD
HETATM   29  O4  UNL     1       2.561  25.323   5.990  1.00  0.00    -0.267 OA
HETATM   30  C9  UNL     1       2.771  23.383   4.753  1.00  0.00     0.093 A 
BRANCH  30  31
HETATM   31  C10 UNL     1       2.520  22.563   5.914  1.00  0.00     0.277 C 
HETATM   32  O5  UNL     1       3.466  22.283   6.697  1.00  0.00    -0.301 OA
ENDBRANCH  30  31
ENDBRANCH  20  21
ENDBRANCH   3  20
TORSDOF 8
ENDMDL
MODEL 3
REMARK VINA RESULT: -6.462289953      4.762      7.656
REMARK  8 active torsions:
REMARK  status: ('A' for Active; 'I' for Inactive)
REMARK    1  A    between atoms: N1_2  and  N2_4 
REMARK    2  A    between atoms: C2_6  and  N3_7 
REMARK    3  A    between atoms: C2_6  and  C3_12 
REMARK    4  A    between atoms: N3_7  and  N4_9 
REMARK       I    between atoms: C3_12  and  N5_14 
REMARK    5  A    between atoms: N5_14  and  N6_16 
REMARK       I    between atoms: N6_16  and  C4_18 
REMARK    6  A    between atoms: C4_18  and  C5_20 
REMARK    7  A    between atoms: C5_20  and  C6_21 
REMARK    8  A    between atoms: C9_30  and  C10_31 
ROOT
HETATM    1  N6  UNL     1       4.316  19.989   1.953  1.00  0.00    -0.267 N 
ATOM      2  H6  UNL     1       4.079  19.846   0.971  1.00  0.00     0.190 HD
HETATM    3  C4  UNL     1       5.035  18.962   2.577  1.00  0.00     0.241 C 
HETATM    4  O2  UNL     1       5.378  19.031   3.785  1.00  0.00    -0.271 OA
ENDROOT
BRANCH   1   5
HETATM    5  N5  UNL     1       3.891  21.183   2.525  1.00  0.00    -0.261 N 
HETATM    6  C3  UNL     1       4.616  22.397   2.399  1.00  0.00     0.306 C 
HETATM    7  O1  UNL     1       5.683  22.366   1.739  1.00  0.00    -0.262 OA
ATOM      8  H5  UNL     1       3.021  21.186   3.058  1.00  0.00     0.190 HD
BRANCH   6   9
HETATM    9  C2  UNL     1       4.154  23.633   3.003  1.00  0.00     0.204 C 
HETATM   10  N2  UNL     1       2.969  23.742   3.463  1.00  0.00    -0.285 N 
ATOM     11  H2  UNL     1       2.379  22.915   3.373  1.00  0.00     0.188 HD
BRANCH  10  12
HETATM   12  N1  UNL     1       2.386  24.829   4.063  1.00  0.00    -0.339 N 
HETATM   13  C1  UNL     1       2.577  24.948   5.515  1.00  0.00     0.167 C 
ATOM     14  H1  UNL     1       1.850  25.515   3.532  1.00  0.00     0.179 HD
ENDBRANCH  10  12
BRANCH   9  15
HETATM   15  N3  UNL     1       5.025  24.749   3.097  1.00  0.00    -0.286 N 
ATOM     16  H3  UNL     1       4.774  25.646   2.681  1.00  0.00     0.188 HD
BRANCH  15  17
HETATM   17  N4  UNL     1       6.233  24.587   3.776  1.00  0.00    -0.343 N 
ATOM     18  H42 UNL     1       6.526  23.658   4.080  1.00  0.00     0.176 HD
ATOM     19  H41 UNL     1       6.801  25.415   3.952  1.00  0.00     0.176 HD
ENDBRANCH  15  17
ENDBRANCH   9  15
ENDBRANCH   6   9
ENDBRANCH   1   5
BRANCH   3  20
HETATM   20  C5  UNL     1       5.413  17.745   1.805  1.00  0.00     0.163 C 
BRANCH  20  21
HETATM   21  C6  UNL     1       6.721  17.913   1.173  1.00  0.00     0.041 A 
HETATM   22  N7  UNL     1       7.153  19.071   0.619  1.00  0.00    -0.311 N 
HETATM   23  C7  UNL     1       8.373  19.137   0.072  1.00  0.00     0.327 A 
ATOM     24  H7  UNL     1       6.549  19.892   0.618  1.00  0.00     0.170 HD
HETATM   25  O3  UNL     1       8.722  20.255  -0.433  1.00  0.00    -0.247 OA
HETATM   26  N8  UNL     1       9.241  18.114   0.023  1.00  0.00    -0.275 N 
HETATM   27  C8  UNL     1       8.847  16.949   0.563  1.00  0.00     0.264 A 
ATOM     28  H8  UNL     1      10.161  18.216  -0.406  1.00  0.00     0.173 HD
HETATM   29  O4  UNL     1       9.653  15.984   0.521  1.00  0.00    -0.267 OA
HETATM   30  C9  UNL     1       7.593  16.826   1.142  1.00  0.00     0.093 A 
BRANCH  30  31
HETATM   31  C10 UNL     1       7.198  15.560   1.712  1.00  0.00     0.277 C 
HETATM   32  O5  UNL     1       7.669  15.200   2.823  1.00  0.00    -0.301 OA
ENDBRANCH  30  31
ENDBRANCH  20  21
ENDBRANCH   3  20
TORSDOF 8
ENDMDL
MODEL 4
REMARK VINA RESULT: -6.441071085      4.594      5.991
REMARK  8 active torsions:
REMARK  status: ('A' for Active; 'I' for Inactive)
REMARK    1  A    between atoms: N1_2  and  N2_4 
REMARK    2  A    between atoms: C2_6  and  N3_7 
REMARK    3  A    between atoms: C2_6  and  C3_12 
REMARK    4  A    between atoms: N3_7  and  N4_9 
REMARK       I    between atoms: C3_12  and  N5_14 
REMARK    5  A    between atoms: N5_14  and  N6_16 
REMARK       I    between atoms: N6_16  and  C4_18 
REMARK    6  A    between atoms: C4_18  and  C5_20 
REMARK    7  A    between atoms: C5_20  and  C6_21 
REMARK    8  A    between atoms: C9_30  and  C10_31 
ROOT
HETATM    1  N6  UNL     1       4.898  20.661   1.900  1.00  0.00    -0.267 N 
ATOM      2  H6  UNL     1       4.378  21.231   1.233  1.00  0.00     0.190 HD
HETATM    3  C4  UNL     1       4.246  20.354   3.100  1.00  0.00     0.241 C 
HETATM    4  O2  UNL     1       4.795  19.660   3.995  1.00  0.00    -0.271 OA
ENDROOT
BRANCH   1   5
HETATM    5  N5  UNL     1       6.178  20.275   1.517  1.00  0.00    -0.261 N 
HETATM    6  C3  UNL     1       6.462  18.996   0.969  1.00  0.00     0.306 C 
HETATM    7  O1  UNL     1       5.502  18.200   0.832  1.00  0.00    -0.262 OA
ATOM      8  H5  UNL     1       6.944  20.936   1.636  1.00  0.00     0.190 HD
BRANCH   6   9
HETATM    9  C2  UNL     1       7.805  18.612   0.574  1.00  0.00     0.204 C 
HETATM   10  N2  UNL     1       8.400  19.189  -0.396  1.00  0.00    -0.285 N 
ATOM     11  H2  UNL     1       7.871  19.923  -0.869  1.00  0.00     0.188 HD
BRANCH  10  12
HETATM   12  N1  UNL     1       9.658  18.950  -0.886  1.00  0.00    -0.339 N 
HETATM   13  C1  UNL     1      10.163  19.912  -1.876  1.00  0.00     0.167 C 
ATOM     14  H1  UNL     1      10.213  18.151  -0.581  1.00  0.00     0.179 HD
ENDBRANCH  10  12
BRANCH   9  15
HETATM   15  N3  UNL     1       8.487  17.582   1.273  1.00  0.00    -0.286 N 
ATOM     16  H3  UNL     1       9.271  17.089   0.845  1.00  0.00     0.188 HD
BRANCH  15  17
HETATM   17  N4  UNL     1       8.056  17.263   2.560  1.00  0.00    -0.343 N 
ATOM     18  H42 UNL     1       7.704  17.996   3.177  1.00  0.00     0.176 HD
ATOM     19  H41 UNL     1       8.105  16.288   2.857  1.00  0.00     0.176 HD
ENDBRANCH  15  17
ENDBRANCH   9  15
ENDBRANCH   6   9
ENDBRANCH   1   5
BRANCH   3  20
HETATM   20  C5  UNL     1       2.863  20.853   3.343  1.00  0.00     0.163 C 
BRANCH  20  21
HETATM   21  C6  UNL     1       2.817  21.704   4.531  1.00  0.00     0.041 A 
HETATM   22  N7  UNL     1       2.751  21.235   5.799  1.00  0.00    -0.311 N 
HETATM   23  C7  UNL     1       2.725  22.089   6.829  1.00  0.00     0.327 A 
ATOM     24  H7  UNL     1       2.722  20.230   5.970  1.00  0.00     0.170 HD
HETATM   25  O3  UNL     1       2.662  21.584   7.999  1.00  0.00    -0.247 OA
HETATM   26  N8  UNL     1       2.760  23.426   6.709  1.00  0.00    -0.275 N 
HETATM   27  C8  UNL     1       2.825  23.929   5.466  1.00  0.00     0.264 A 
ATOM     28  H8  UNL     1       2.737  24.034   7.528  1.00  0.00     0.173 HD
HETATM   29  O4  UNL     1       2.857  25.180   5.343  1.00  0.00    -0.267 OA
HETATM   30  C9  UNL     1       2.855  23.088   4.363  1.00  0.00     0.093 A 
BRANCH  30  31
HETATM   31  C10 UNL     1       2.923  23.659   3.040  1.00  0.00     0.277 C 
HETATM   32  O5  UNL     1       4.040  23.798   2.475  1.00  0.00    -0.301 OA
ENDBRANCH  30  31
ENDBRANCH  20  21
ENDBRANCH   3  20
TORSDOF 8
ENDMDL
MODEL 5
REMARK VINA RESULT: -6.402307981      4.635      5.748
REMARK  8 active torsions:
REMARK  status: ('A' for Active; 'I' for Inactive)
REMARK    1  A    between atoms: N1_2  and  N2_4 
REMARK    2  A    between atoms: C2_6  and  N3_7 
REMARK    3  A    between atoms: C2_6  and  C3_12 
REMARK    4  A    between atoms: N3_7  and  N4_9 
REMARK       I    between atoms: C3_12  and  N5_14 
REMARK    5  A    between atoms: N5_14  and  N6_16 
REMARK       I    between atoms: N6_16  and  C4_18 
REMARK    6  A    between atoms: C4_18  and  C5_20 
REMARK    7  A    between atoms: C5_20  and  C6_21 
REMARK    8  A    between atoms: C9_30  and  C10_31 
ROOT
HETATM    1  N6  UNL     1       5.402  19.736   2.701  1.00  0.00    -0.267 N 
ATOM      2  H6  UNL     1       5.062  19.055   3.381  1.00  0.00     0.190 HD
HETATM    3  C4  UNL     1       4.567  20.831   2.446  1.00  0.00     0.241 C 
HETATM    4  O2  UNL     1       4.884  21.730   1.624  1.00  0.00    -0.271 OA
ENDROOT
BRANCH   1   5
HETATM    5  N5  UNL     1       6.642  19.475   2.130  1.00  0.00    -0.261 N 
HETATM    6  C3  UNL     1       6.804  18.637   0.996  1.00  0.00     0.306 C 
HETATM    7  O1  UNL     1       5.770  18.122   0.505  1.00  0.00    -0.262 OA
ATOM      8  H5  UNL     1       7.470  19.903   2.543  1.00  0.00     0.190 HD
BRANCH   6   9
HETATM    9  C2  UNL     1       8.108  18.379   0.413  1.00  0.00     0.204 C 
HETATM   10  N2  UNL     1       8.609  19.162  -0.461  1.00  0.00    -0.285 N 
ATOM     11  H2  UNL     1       8.035  19.965  -0.720  1.00  0.00     0.188 HD
BRANCH  10  12
HETATM   12  N1  UNL     1       9.820  19.063  -1.098  1.00  0.00    -0.339 N 
HETATM   13  C1  UNL     1      10.206  20.206  -1.937  1.00  0.00     0.167 C 
ATOM     14  H1  UNL     1      10.418  18.244  -0.996  1.00  0.00     0.179 HD
ENDBRANCH  10  12
BRANCH   9  15
HETATM   15  N3  UNL     1       8.857  17.243   0.816  1.00  0.00    -0.286 N 
ATOM     16  H3  UNL     1       9.877  17.266   0.830  1.00  0.00     0.188 HD
BRANCH  15  17
HETATM   17  N4  UNL     1       8.161  16.094   1.192  1.00  0.00    -0.343 N 
ATOM     18  H42 UNL     1       7.194  16.165   1.510  1.00  0.00     0.176 HD
ATOM     19  H41 UNL     1       8.645  15.198   1.138  1.00  0.00     0.176 HD
ENDBRANCH  15  17
ENDBRANCH   9  15
ENDBRANCH   6   9
ENDBRANCH   1   5
BRANCH   3  20
HETATM   20  C5  UNL     1       3.263  20.953   3.157  1.00  0.00     0.163 C 
BRANCH  20  21
HETATM   21  C6  UNL     1       3.181  22.220   3.883  1.00  0.00     0.041 A 
HETATM   22  N7  UNL     1       3.319  23.436   3.305  1.00  0.00    -0.311 N 
HETATM   23  C7  UNL     1       3.216  24.546   4.047  1.00  0.00     0.327 A 
ATOM     24  H7  UNL     1       3.501  23.508   2.304  1.00  0.00     0.170 HD
HETATM   25  O3  UNL     1       3.356  25.661   3.444  1.00  0.00    -0.247 OA
HETATM   26  N8  UNL     1       2.979  24.557   5.368  1.00  0.00    -0.275 N 
HETATM   27  C8  UNL     1       2.837  23.369   5.976  1.00  0.00     0.264 A 
ATOM     28  H8  UNL     1       2.911  25.432   5.889  1.00  0.00     0.173 HD
HETATM   29  O4  UNL     1       2.615  23.369   7.214  1.00  0.00    -0.267 OA
HETATM   30  C9  UNL     1       2.934  22.188   5.254  1.00  0.00     0.093 A 
BRANCH  30  31
HETATM   31  C10 UNL     1       2.779  20.926   5.937  1.00  0.00     0.277 C 
HETATM   32  O5  UNL     1       3.777  20.383   6.481  1.00  0.00    -0.301 OA
ENDBRANCH  30  31
ENDBRANCH  20  21
ENDBRANCH   3  20
TORSDOF 8
ENDMDL
