MODEL 1
REMARK VINA RESULT: -6.768458364      0.000      0.000
REMARK  8 active torsions:
REMARK  status: ('A' for Active; 'I' for Inactive)
REMARK    1  A    between atoms: C2_2  and  N1_3 
REMARK    2  A    between atoms: C8_18  and  O3_19 
REMARK    3  A    between atoms: C8_18  and  C9_21 
REMARK    4  A    between atoms: C9_21  and  N4_22 
REMARK    5  A    between atoms: C9_21  and  C10_26 
REMARK    6  A    between atoms: C10_26  and  N5_27 
REMARK    7  A    between atoms: C10_26  and  C11_31 
REMARK    8  A    between atoms: C11_31  and  C12_33 
ROOT
HETATM    1  C1  UNL     1       5.085  19.553   1.103  1.00  0.00     0.050 C 
HETATM    2  C2  UNL     1       4.921  19.475   2.566  1.00  0.00     0.164 C 
HETATM    3  C3  UNL     1       3.847  18.401   2.819  1.00  0.00     0.101 C 
HETATM    4  C4  UNL     1       2.654  19.175   3.173  1.00  0.00     0.041 A 
HETATM    5  N2  UNL     1       1.367  18.833   3.236  1.00  0.00    -0.321 N 
ATOM      6  H2  UNL     1       1.107  17.875   3.004  1.00  0.00     0.169 HD
HETATM    7  C5  UNL     1       0.396  19.693   3.591  1.00  0.00     0.314 A 
HETATM    8  O1  UNL     1      -0.817  19.376   3.652  1.00  0.00    -0.262 OA
HETATM    9  C6  UNL     1       0.777  20.972   3.895  1.00  0.00     0.314 A 
HETATM   10  O2  UNL     1      -0.080  21.821   4.233  1.00  0.00    -0.262 OA
HETATM   11  N3  UNL     1       2.095  21.332   3.832  1.00  0.00    -0.318 N 
ATOM     12  H3  UNL     1       2.366  22.288   4.061  1.00  0.00     0.169 HD
HETATM   13  C7  UNL     1       3.032  20.451   3.477  1.00  0.00     0.074 A 
HETATM   14  C8  UNL     1       4.526  20.628   3.343  1.00  0.00     0.165 C 
ENDROOT
BRANCH  14  15
HETATM   15  O3  UNL     1       4.980  20.522   4.682  1.00  0.00    -0.379 OA
ATOM     16  H3  UNL     1       5.181  21.377   5.045  1.00  0.00     0.211 HD
ENDBRANCH  14  15
BRANCH  14  17
HETATM   17  C9  UNL     1       4.802  22.002   2.908  1.00  0.00     0.264 C 
BRANCH  17  18
HETATM   18  N4  UNL     1       5.900  22.226   2.048  1.00  0.00    -0.069 N 
ATOM     19  H43 UNL     1       5.917  21.499   1.334  1.00  0.00     0.275 HD
ATOM     20  H42 UNL     1       5.714  23.053   1.481  1.00  0.00     0.275 HD
ATOM     21  H41 UNL     1       6.829  22.308   2.461  1.00  0.00     0.275 HD
ENDBRANCH  17  18
BRANCH  17  22
HETATM   22  C10 UNL     1       4.718  23.062   4.019  1.00  0.00     0.295 C 
BRANCH  22  23
HETATM   23  N5  UNL     1       5.909  23.153   4.782  1.00  0.00    -0.066 N 
ATOM     24  H53 UNL     1       5.735  23.603   5.680  1.00  0.00     0.275 HD
ATOM     25  H52 UNL     1       6.204  22.234   5.112  1.00  0.00     0.275 HD
ATOM     26  H51 UNL     1       6.664  23.621   4.280  1.00  0.00     0.275 HD
ENDBRANCH  22  23
BRANCH  22  27
HETATM   27  C11 UNL     1       4.450  24.405   3.450  1.00  0.00     0.246 C 
HETATM   28  O4  UNL     1       5.420  25.239   3.488  1.00  0.00    -0.285 OA
BRANCH  27  29
HETATM   29  C12 UNL     1       3.190  24.831   2.865  1.00  0.00     0.302 C 
HETATM   30  N6  UNL     1       3.168  25.952   2.019  1.00  0.00    -0.054 NA
HETATM   31  O5  UNL     1       2.153  24.182   3.135  1.00  0.00    -0.268 OA
ENDBRANCH  27  29
ENDBRANCH  22  27
ENDBRANCH  17  22
ENDBRANCH  14  17
BRANCH   2  32
HETATM   32  N1  UNL     1       6.142  18.887   3.101  1.00  0.00    -0.067 N 
ATOM     33  H13 UNL     1       6.240  17.897   2.878  1.00  0.00     0.275 HD
ATOM     34  H12 UNL     1       6.985  19.211   2.626  1.00  0.00     0.275 HD
ATOM     35  H11 UNL     1       6.150  19.075   4.103  1.00  0.00     0.275 HD
ENDBRANCH   2  32
TORSDOF 8
ENDMDL
MODEL 2
REMARK VINA RESULT: -6.721623485      2.884      5.281
REMARK  8 active torsions:
REMARK  status: ('A' for Active; 'I' for Inactive)
REMARK    1  A    between atoms: C2_2  and  N1_3 
REMARK    2  A    between atoms: C8_18  and  O3_19 
REMARK    3  A    between atoms: C8_18  and  C9_21 
REMARK    4  A    between atoms: C9_21  and  N4_22 
REMARK    5  A    between atoms: C9_21  and  C10_26 
REMARK    6  A    between atoms: C10_26  and  N5_27 
REMARK    7  A    between atoms: C10_26  and  C11_31 
REMARK    8  A    between atoms: C11_31  and  C12_33 
ROOT
HETATM    1  C1  UNL     1       2.681  24.133   3.228  1.00  0.00     0.050 C 
HETATM    2  C2  UNL     1       4.125  23.895   3.399  1.00  0.00     0.164 C 
HETATM    3  C3  UNL     1       4.634  23.363   2.047  1.00  0.00     0.101 C 
HETATM    4  C4  UNL     1       4.821  21.928   2.284  1.00  0.00     0.041 A 
HETATM    5  N2  UNL     1       4.982  20.909   1.441  1.00  0.00    -0.321 N 
ATOM      6  H2  UNL     1       4.979  21.101   0.439  1.00  0.00     0.169 HD
HETATM    7  C5  UNL     1       5.146  19.638   1.848  1.00  0.00     0.314 A 
HETATM    8  O1  UNL     1       5.298  18.674   1.058  1.00  0.00    -0.262 OA
HETATM    9  C6  UNL     1       5.144  19.412   3.198  1.00  0.00     0.314 A 
HETATM   10  O2  UNL     1       5.292  18.250   3.642  1.00  0.00    -0.262 OA
HETATM   11  N3  UNL     1       4.979  20.452   4.071  1.00  0.00    -0.318 N 
ATOM     12  H3  UNL     1       4.979  20.270   5.075  1.00  0.00     0.169 HD
HETATM   13  C7  UNL     1       4.819  21.701   3.630  1.00  0.00     0.074 A 
HETATM   14  C8  UNL     1       4.624  22.983   4.403  1.00  0.00     0.165 C 
ENDROOT
BRANCH  14  15
HETATM   15  O3  UNL     1       5.945  23.324   4.793  1.00  0.00    -0.379 OA
ATOM     16  H3  UNL     1       6.408  22.567   5.132  1.00  0.00     0.211 HD
ENDBRANCH  14  15
BRANCH  14  17
HETATM   17  C9  UNL     1       3.883  22.684   5.634  1.00  0.00     0.264 C 
BRANCH  17  18
HETATM   18  N4  UNL     1       3.025  23.677   6.158  1.00  0.00    -0.069 N 
ATOM     19  H43 UNL     1       3.469  24.589   6.055  1.00  0.00     0.275 HD
ATOM     20  H42 UNL     1       2.220  23.781   5.540  1.00  0.00     0.275 HD
ATOM     21  H41 UNL     1       2.697  23.575   7.119  1.00  0.00     0.275 HD
ENDBRANCH  17  18
BRANCH  17  22
HETATM   22  C10 UNL     1       4.706  21.997   6.736  1.00  0.00     0.295 C 
BRANCH  22  23
HETATM   23  N5  UNL     1       5.376  22.921   7.577  1.00  0.00    -0.066 N 
ATOM     24  H53 UNL     1       5.748  22.458   8.405  1.00  0.00     0.275 HD
ATOM     25  H52 UNL     1       6.250  23.233   7.155  1.00  0.00     0.275 HD
ATOM     26  H51 UNL     1       4.790  23.716   7.835  1.00  0.00     0.275 HD
ENDBRANCH  22  23
BRANCH  22  27
HETATM   27  C11 UNL     1       3.840  21.157   7.599  1.00  0.00     0.246 C 
HETATM   28  O4  UNL     1       2.676  20.887   7.139  1.00  0.00    -0.285 OA
BRANCH  27  29
HETATM   29  C12 UNL     1       4.211  20.632   8.901  1.00  0.00     0.302 C 
HETATM   30  N6  UNL     1       3.913  21.376  10.054  1.00  0.00    -0.054 NA
HETATM   31  O5  UNL     1       4.789  19.522   8.958  1.00  0.00    -0.268 OA
ENDBRANCH  27  29
ENDBRANCH  22  27
ENDBRANCH  17  22
ENDBRANCH  14  17
BRANCH   2  32
HETATM   32  N1  UNL     1       4.760  25.200   3.527  1.00  0.00    -0.067 N 
ATOM     33  H13 UNL     1       4.155  25.899   3.958  1.00  0.00     0.275 HD
ATOM     34  H12 UNL     1       5.500  25.219   4.229  1.00  0.00     0.275 HD
ATOM     35  H11 UNL     1       5.082  25.468   2.598  1.00  0.00     0.275 HD
ENDBRANCH   2  32
TORSDOF 8
ENDMDL
MODEL 3
REMARK VINA RESULT: -6.561846178      2.792      5.181
REMARK  8 active torsions:
REMARK  status: ('A' for Active; 'I' for Inactive)
REMARK    1  A    between atoms: C2_2  and  N1_3 
REMARK    2  A    between atoms: C8_18  and  O3_19 
REMARK    3  A    between atoms: C8_18  and  C9_21 
REMARK    4  A    between atoms: C9_21  and  N4_22 
REMARK    5  A    between atoms: C9_21  and  C10_26 
REMARK    6  A    between atoms: C10_26  and  N5_27 
REMARK    7  A    between atoms: C10_26  and  C11_31 
REMARK    8  A    between atoms: C11_31  and  C12_33 
ROOT
HETATM    1  C1  UNL     1       2.827  24.240   2.977  1.00  0.00     0.050 C 
HETATM    2  C2  UNL     1       4.177  23.886   3.450  1.00  0.00     0.164 C 
HETATM    3  C3  UNL     1       4.965  23.446   2.202  1.00  0.00     0.101 C 
HETATM    4  C4  UNL     1       5.024  21.986   2.321  1.00  0.00     0.041 A 
HETATM    5  N2  UNL     1       5.331  21.040   1.435  1.00  0.00    -0.321 N 
ATOM      6  H2  UNL     1       5.573  21.324   0.486  1.00  0.00     0.169 HD
HETATM    7  C5  UNL     1       5.336  19.728   1.732  1.00  0.00     0.314 A 
HETATM    8  O1  UNL     1       5.624  18.834   0.901  1.00  0.00    -0.262 OA
HETATM    9  C6  UNL     1       5.005  19.380   3.014  1.00  0.00     0.314 A 
HETATM   10  O2  UNL     1       4.990  18.174   3.354  1.00  0.00    -0.262 OA
HETATM   11  N3  UNL     1       4.688  20.344   3.931  1.00  0.00    -0.318 N 
ATOM     12  H3  UNL     1       4.443  20.071   4.883  1.00  0.00     0.169 HD
HETATM   13  C7  UNL     1       4.694  21.636   3.599  1.00  0.00     0.074 A 
HETATM   14  C8  UNL     1       4.383  22.853   4.439  1.00  0.00     0.165 C 
ENDROOT
BRANCH  14  15
HETATM   15  O3  UNL     1       5.589  23.063   5.155  1.00  0.00    -0.379 OA
ATOM     16  H3  UNL     1       5.723  22.386   5.808  1.00  0.00     0.211 HD
ENDBRANCH  14  15
BRANCH  14  17
HETATM   17  C9  UNL     1       3.360  22.495   5.427  1.00  0.00     0.264 C 
BRANCH  17  18
HETATM   18  N4  UNL     1       2.007  22.761   5.120  1.00  0.00    -0.069 N 
ATOM     19  H43 UNL     1       1.414  22.340   5.835  1.00  0.00     0.275 HD
ATOM     20  H42 UNL     1       1.821  23.753   5.272  1.00  0.00     0.275 HD
ATOM     21  H41 UNL     1       1.658  22.495   4.199  1.00  0.00     0.275 HD
ENDBRANCH  17  18
BRANCH  17  22
HETATM   22  C10 UNL     1       3.702  22.868   6.880  1.00  0.00     0.295 C 
BRANCH  22  23
HETATM   23  N5  UNL     1       2.550  23.062   7.682  1.00  0.00    -0.066 N 
ATOM     24  H53 UNL     1       2.355  22.236   8.246  1.00  0.00     0.275 HD
ATOM     25  H52 UNL     1       2.732  23.732   8.429  1.00  0.00     0.275 HD
ATOM     26  H51 UNL     1       1.731  23.334   7.138  1.00  0.00     0.275 HD
ENDBRANCH  22  23
BRANCH  22  27
HETATM   27  C11 UNL     1       4.518  21.809   7.521  1.00  0.00     0.246 C 
HETATM   28  O4  UNL     1       4.377  20.626   7.054  1.00  0.00    -0.285 OA
BRANCH  27  29
HETATM   29  C12 UNL     1       5.447  22.016   8.618  1.00  0.00     0.302 C 
HETATM   30  N6  UNL     1       5.029  22.740   9.746  1.00  0.00    -0.054 NA
HETATM   31  O5  UNL     1       6.601  21.538   8.526  1.00  0.00    -0.268 OA
ENDBRANCH  27  29
ENDBRANCH  22  27
ENDBRANCH  17  22
ENDBRANCH  14  17
BRANCH   2  32
HETATM   32  N1  UNL     1       4.825  25.126   3.857  1.00  0.00    -0.067 N 
ATOM     33  H13 UNL     1       4.673  25.891   3.201  1.00  0.00     0.275 HD
ATOM     34  H12 UNL     1       4.383  25.561   4.668  1.00  0.00     0.275 HD
ATOM     35  H11 UNL     1       5.811  24.914   4.004  1.00  0.00     0.275 HD
ENDBRANCH   2  32
TORSDOF 8
ENDMDL
MODEL 4
REMARK VINA RESULT: -6.439676194      2.817      5.135
REMARK  8 active torsions:
REMARK  status: ('A' for Active; 'I' for Inactive)
REMARK    1  A    between atoms: C2_2  and  N1_3 
REMARK    2  A    between atoms: C8_18  and  O3_19 
REMARK    3  A    between atoms: C8_18  and  C9_21 
REMARK    4  A    between atoms: C9_21  and  N4_22 
REMARK    5  A    between atoms: C9_21  and  C10_26 
REMARK    6  A    between atoms: C10_26  and  N5_27 
REMARK    7  A    between atoms: C10_26  and  C11_31 
REMARK    8  A    between atoms: C11_31  and  C12_33 
ROOT
HETATM    1  C1  UNL     1       2.760  24.149   3.060  1.00  0.00     0.050 C 
HETATM    2  C2  UNL     1       4.186  23.880   3.315  1.00  0.00     0.164 C 
HETATM    3  C3  UNL     1       4.757  23.316   2.001  1.00  0.00     0.101 C 
HETATM    4  C4  UNL     1       4.897  21.882   2.266  1.00  0.00     0.041 A 
HETATM    5  N2  UNL     1       5.080  20.846   1.447  1.00  0.00    -0.321 N 
ATOM      6  H2  UNL     1       5.137  21.024   0.445  1.00  0.00     0.169 HD
HETATM    7  C5  UNL     1       5.192  19.578   1.880  1.00  0.00     0.314 A 
HETATM    8  O1  UNL     1       5.364  18.600   1.113  1.00  0.00    -0.262 OA
HETATM    9  C6  UNL     1       5.109  19.372   3.231  1.00  0.00     0.314 A 
HETATM   10  O2  UNL     1       5.205  18.214   3.698  1.00  0.00    -0.262 OA
HETATM   11  N3  UNL     1       4.921  20.429   4.079  1.00  0.00    -0.318 N 
ATOM     12  H3  UNL     1       4.861  20.262   5.084  1.00  0.00     0.169 HD
HETATM   13  C7  UNL     1       4.815  21.674   3.613  1.00  0.00     0.074 A 
HETATM   14  C8  UNL     1       4.607  22.972   4.357  1.00  0.00     0.165 C 
ENDROOT
BRANCH  14  15
HETATM   15  O3  UNL     1       5.912  23.288   4.815  1.00  0.00    -0.379 OA
ATOM     16  H3  UNL     1       6.473  23.553   4.095  1.00  0.00     0.211 HD
ENDBRANCH  14  15
BRANCH  14  17
HETATM   17  C9  UNL     1       3.792  22.708   5.548  1.00  0.00     0.264 C 
BRANCH  17  18
HETATM   18  N4  UNL     1       3.002  23.758   6.067  1.00  0.00    -0.069 N 
ATOM     19  H43 UNL     1       3.410  24.650   5.787  1.00  0.00     0.275 HD
ATOM     20  H42 UNL     1       2.114  23.784   5.566  1.00  0.00     0.275 HD
ATOM     21  H41 UNL     1       2.820  23.777   7.071  1.00  0.00     0.275 HD
ENDBRANCH  17  18
BRANCH  17  22
HETATM   22  C10 UNL     1       4.507  21.924   6.662  1.00  0.00     0.295 C 
BRANCH  22  23
HETATM   23  N5  UNL     1       5.300  22.754   7.495  1.00  0.00    -0.066 N 
ATOM     24  H53 UNL     1       5.488  23.649   7.045  1.00  0.00     0.275 HD
ATOM     25  H52 UNL     1       4.766  23.083   8.299  1.00  0.00     0.275 HD
ATOM     26  H51 UNL     1       6.166  22.303   7.790  1.00  0.00     0.275 HD
ENDBRANCH  22  23
BRANCH  22  27
HETATM   27  C11 UNL     1       3.527  21.228   7.532  1.00  0.00     0.246 C 
HETATM   28  O4  UNL     1       2.962  21.941   8.431  1.00  0.00    -0.285 OA
BRANCH  27  29
HETATM   29  C12 UNL     1       3.172  19.823   7.435  1.00  0.00     0.302 C 
HETATM   30  N6  UNL     1       2.364  19.247   8.429  1.00  0.00    -0.054 NA
HETATM   31  O5  UNL     1       3.600  19.161   6.461  1.00  0.00    -0.268 OA
ENDBRANCH  27  29
ENDBRANCH  22  27
ENDBRANCH  17  22
ENDBRANCH  14  17
BRANCH   2  32
HETATM   32  N1  UNL     1       4.844  25.172   3.461  1.00  0.00    -0.067 N 
ATOM     33  H13 UNL     1       4.267  25.863   3.939  1.00  0.00     0.275 HD
ATOM     34  H12 UNL     1       5.613  25.158   4.131  1.00  0.00     0.275 HD
ATOM     35  H11 UNL     1       5.131  25.468   2.528  1.00  0.00     0.275 HD
ENDBRANCH   2  32
TORSDOF 8
ENDMDL
MODEL 5
REMARK VINA RESULT: -6.307462288      2.416      4.383
REMARK  8 active torsions:
REMARK  status: ('A' for Active; 'I' for Inactive)
REMARK    1  A    between atoms: C2_2  and  N1_3 
REMARK    2  A    between atoms: C8_18  and  O3_19 
REMARK    3  A    between atoms: C8_18  and  C9_21 
REMARK    4  A    between atoms: C9_21  and  N4_22 
REMARK    5  A    between atoms: C9_21  and  C10_26 
REMARK    6  A    between atoms: C10_26  and  N5_27 
REMARK    7  A    between atoms: C10_26  and  C11_31 
REMARK    8  A    between atoms: C11_31  and  C12_33 
ROOT
HETATM    1  C1  UNL     1       3.150  19.498   5.998  1.00  0.00     0.050 C 
HETATM    2  C2  UNL     1       2.983  19.180   4.568  1.00  0.00     0.164 C 
HETATM    3  C3  UNL     1       3.284  17.677   4.427  1.00  0.00     0.101 C 
HETATM    4  C4  UNL     1       4.619  17.643   3.822  1.00  0.00     0.041 A 
HETATM    5  N2  UNL     1       5.510  16.659   3.706  1.00  0.00    -0.321 N 
ATOM      6  H2  UNL     1       5.277  15.744   4.092  1.00  0.00     0.169 HD
HETATM    7  C5  UNL     1       6.703  16.815   3.104  1.00  0.00     0.314 A 
HETATM    8  O1  UNL     1       7.546  15.892   2.992  1.00  0.00    -0.262 OA
HETATM    9  C6  UNL     1       6.986  18.055   2.598  1.00  0.00     0.314 A 
HETATM   10  O2  UNL     1       8.081  18.266   2.026  1.00  0.00    -0.262 OA
HETATM   11  N3  UNL     1       6.078  19.071   2.713  1.00  0.00    -0.318 N 
ATOM     12  H3  UNL     1       6.302  19.990   2.331  1.00  0.00     0.169 HD
HETATM   13  C7  UNL     1       4.905  18.879   3.316  1.00  0.00     0.074 A 
HETATM   14  C8  UNL     1       3.767  19.844   3.552  1.00  0.00     0.165 C 
ENDROOT
BRANCH  14  15
HETATM   15  O3  UNL     1       3.090  19.849   2.306  1.00  0.00    -0.379 OA
ATOM     16  H3  UNL     1       2.792  20.723   2.081  1.00  0.00     0.211 HD
ENDBRANCH  14  15
BRANCH  14  17
HETATM   17  C9  UNL     1       4.322  21.190   3.739  1.00  0.00     0.264 C 
BRANCH  17  18
HETATM   18  N4  UNL     1       5.021  21.467   4.935  1.00  0.00    -0.069 N 
ATOM     19  H43 UNL     1       4.379  21.380   5.723  1.00  0.00     0.275 HD
ATOM     20  H42 UNL     1       5.669  20.703   5.125  1.00  0.00     0.275 HD
ATOM     21  H41 UNL     1       5.520  22.354   5.009  1.00  0.00     0.275 HD
ENDBRANCH  17  18
BRANCH  17  22
HETATM   22  C10 UNL     1       3.379  22.340   3.346  1.00  0.00     0.295 C 
BRANCH  22  23
HETATM   23  N5  UNL     1       2.787  22.972   4.469  1.00  0.00    -0.066 N 
ATOM     24  H53 UNL     1       1.778  22.831   4.476  1.00  0.00     0.275 HD
ATOM     25  H52 UNL     1       3.028  22.485   5.332  1.00  0.00     0.275 HD
ATOM     26  H51 UNL     1       3.019  23.963   4.531  1.00  0.00     0.275 HD
ENDBRANCH  22  23
BRANCH  22  27
HETATM   27  C11 UNL     1       4.106  23.382   2.581  1.00  0.00     0.246 C 
HETATM   28  O4  UNL     1       4.650  23.003   1.486  1.00  0.00    -0.285 OA
BRANCH  27  29
HETATM   29  C12 UNL     1       4.241  24.772   2.979  1.00  0.00     0.302 C 
HETATM   30  N6  UNL     1       5.327  25.156   3.783  1.00  0.00    -0.054 NA
HETATM   31  O5  UNL     1       3.380  25.595   2.589  1.00  0.00    -0.268 OA
ENDBRANCH  27  29
ENDBRANCH  22  27
ENDBRANCH  17  22
ENDBRANCH  14  17
BRANCH   2  32
HETATM   32  N1  UNL     1       1.560  19.285   4.272  1.00  0.00    -0.067 N 
ATOM     33  H13 UNL     1       0.982  18.702   4.876  1.00  0.00     0.275 HD
ATOM     34  H12 UNL     1       1.161  20.185   4.539  1.00  0.00     0.275 HD
ATOM     35  H11 UNL     1       1.445  19.074   3.281  1.00  0.00     0.275 HD
ENDBRANCH   2  32
TORSDOF 8
ENDMDL
