MODEL 1
REMARK VINA RESULT: -7.387598259      0.000      0.000
REMARK  2 active torsions:
REMARK  status: ('A' for Active; 'I' for Inactive)
REMARK    1  A    between atoms: N1_2  and  C3_5 
REMARK    2  A    between atoms: C4_6  and  C5_7 
REMARK       I    between atoms: N5_13  and  C7_15 
REMARK       I    between atoms: N7_17  and  C8_19 
REMARK       I    between atoms: C8_19  and  N8_20 
REMARK       I    between atoms: C8_19  and  N9_24 
ROOT
HETATM    1  C1  UNL     1       2.186  16.331   1.196  1.00  0.00     0.169 C 
HETATM    2  N1  UNL     1       2.875  17.528   0.722  1.00  0.00    -0.282 N 
HETATM    3  C2  UNL     1       2.310  18.016  -0.495  1.00  0.00     0.184 C 
HETATM    4  N2  UNL     1       1.827  18.392  -1.498  1.00  0.00    -0.172 NA
ENDROOT
BRANCH   2   5
HETATM    5  C3  UNL     1       3.970  18.153   1.326  1.00  0.00     0.144 C 
HETATM    6  C4  UNL     1       3.730  19.119   2.277  1.00  0.00     0.133 C 
HETATM    7  N4  UNL     1       4.291  20.380   2.329  1.00  0.00    -0.332 N 
HETATM    8  C6  UNL     1       5.484  20.746   1.808  1.00  0.00     0.178 C 
ATOM      9  H4  UNL     1       3.754  21.105   2.805  1.00  0.00     0.168 HD
HETATM   10  N5  UNL     1       5.813  21.984   1.909  1.00  0.00    -0.312 N 
HETATM   11  C9  UNL     1       6.411  19.953   1.171  1.00  0.00     0.292 C 
HETATM   12  C7  UNL     1       4.971  22.938   2.538  1.00  0.00     0.192 C 
ATOM     13  H5  UNL     1       6.707  22.291   1.526  1.00  0.00     0.170 HD
HETATM   14  N6  UNL     1       5.068  23.048   3.952  1.00  0.00    -0.063 NA
HETATM   15  N7  UNL     1       4.153  23.680   1.918  1.00  0.00    -0.315 N 
HETATM   16  C8  UNL     1       3.288  24.652   2.510  1.00  0.00     0.482 C 
ATOM     17  H7  UNL     1       4.107  23.576   0.904  1.00  0.00     0.166 HD
HETATM   18  N8  UNL     1       4.018  25.533   3.389  1.00  0.00    -0.033 N 
HETATM   19  N9  UNL     1       2.219  24.046   3.290  1.00  0.00    -0.033 N 
ATOM     20  H83 UNL     1       4.537  25.011   4.096  1.00  0.00     0.278 HD
ATOM     21  H82 UNL     1       4.804  25.972   2.911  1.00  0.00     0.278 HD
ATOM     22  H81 UNL     1       3.401  26.225   3.812  1.00  0.00     0.278 HD
ATOM     23  H93 UNL     1       1.691  23.376   2.731  1.00  0.00     0.278 HD
ATOM     24  H92 UNL     1       2.594  23.411   3.994  1.00  0.00     0.278 HD
ATOM     25  H91 UNL     1       1.602  24.739   3.713  1.00  0.00     0.278 HD
HETATM   26  O2  UNL     1       7.487  20.521   0.907  1.00  0.00    -0.264 OA
HETATM   27  N10 UNL     1       6.335  18.655   0.788  1.00  0.00    -0.285 N 
HETATM   28  C10 UNL     1       5.255  17.829   0.869  1.00  0.00     0.278 C 
ATOM     29  H10 UNL     1       7.184  18.251   0.394  1.00  0.00     0.172 HD
HETATM   30  O3  UNL     1       5.403  16.653   0.500  1.00  0.00    -0.265 OA
BRANCH   6  31
HETATM   31  C5  UNL     1       2.845  18.748   3.348  1.00  0.00     0.284 C 
HETATM   32  N3  UNL     1       1.557  19.345   3.419  1.00  0.00    -0.056 NA
HETATM   33  O1  UNL     1       3.148  17.928   4.224  1.00  0.00    -0.269 OA
ENDBRANCH   6  31
ENDBRANCH   2   5
TORSDOF 2
ENDMDL
MODEL 2
REMARK VINA RESULT: -6.900902774      0.543      1.142
REMARK  2 active torsions:
REMARK  status: ('A' for Active; 'I' for Inactive)
REMARK    1  A    between atoms: N1_2  and  C3_5 
REMARK    2  A    between atoms: C4_6  and  C5_7 
REMARK       I    between atoms: N5_13  and  C7_15 
REMARK       I    between atoms: N7_17  and  C8_19 
REMARK       I    between atoms: C8_19  and  N8_20 
REMARK       I    between atoms: C8_19  and  N9_24 
ROOT
HETATM    1  C1  UNL     1       2.129  18.039  -0.522  1.00  0.00     0.169 C 
HETATM    2  N1  UNL     1       2.825  17.553   0.665  1.00  0.00    -0.282 N 
HETATM    3  C2  UNL     1       2.240  16.351   1.167  1.00  0.00     0.184 C 
HETATM    4  N2  UNL     1       1.735  15.365   1.558  1.00  0.00    -0.172 NA
ENDROOT
BRANCH   2   5
HETATM    5  C3  UNL     1       3.919  18.155   1.293  1.00  0.00     0.144 C 
HETATM    6  C4  UNL     1       3.679  19.118   2.247  1.00  0.00     0.133 C 
HETATM    7  N4  UNL     1       4.261  20.370   2.318  1.00  0.00    -0.332 N 
HETATM    8  C6  UNL     1       5.470  20.717   1.822  1.00  0.00     0.178 C 
ATOM      9  H4  UNL     1       3.728  21.101   2.790  1.00  0.00     0.168 HD
HETATM   10  N5  UNL     1       5.818  21.949   1.938  1.00  0.00    -0.312 N 
HETATM   11  C9  UNL     1       6.394  19.912   1.197  1.00  0.00     0.292 C 
HETATM   12  C7  UNL     1       4.981  22.913   2.558  1.00  0.00     0.192 C 
ATOM     13  H5  UNL     1       6.724  22.242   1.573  1.00  0.00     0.170 HD
HETATM   14  N6  UNL     1       5.054  23.012   3.974  1.00  0.00    -0.063 NA
HETATM   15  N7  UNL     1       4.188  23.674   1.928  1.00  0.00    -0.315 N 
HETATM   16  C8  UNL     1       3.330  24.657   2.511  1.00  0.00     0.482 C 
ATOM     17  H7  UNL     1       4.160  23.577   0.913  1.00  0.00     0.166 HD
HETATM   18  N8  UNL     1       4.058  25.519   3.410  1.00  0.00    -0.033 N 
HETATM   19  N9  UNL     1       2.236  24.065   3.267  1.00  0.00    -0.033 N 
ATOM     20  H83 UNL     1       4.555  24.983   4.123  1.00  0.00     0.278 HD
ATOM     21  H82 UNL     1       4.861  25.947   2.950  1.00  0.00     0.278 HD
ATOM     22  H81 UNL     1       3.446  26.219   3.826  1.00  0.00     0.278 HD
ATOM     23  H93 UNL     1       1.706  23.408   2.693  1.00  0.00     0.278 HD
ATOM     24  H92 UNL     1       2.586  23.418   3.974  1.00  0.00     0.278 HD
ATOM     25  H91 UNL     1       1.624  24.765   3.684  1.00  0.00     0.278 HD
HETATM   26  O2  UNL     1       7.484  20.463   0.956  1.00  0.00    -0.264 OA
HETATM   27  N10 UNL     1       6.302  18.619   0.803  1.00  0.00    -0.285 N 
HETATM   28  C10 UNL     1       5.206  17.811   0.858  1.00  0.00     0.278 C 
ATOM     29  H10 UNL     1       7.151  18.203   0.422  1.00  0.00     0.172 HD
HETATM   30  O3  UNL     1       5.341  16.635   0.483  1.00  0.00    -0.265 OA
BRANCH   6  31
HETATM   31  C5  UNL     1       2.768  18.757   3.299  1.00  0.00     0.284 C 
HETATM   32  N3  UNL     1       1.475  19.346   3.329  1.00  0.00    -0.056 NA
HETATM   33  O1  UNL     1       3.052  17.949   4.193  1.00  0.00    -0.269 OA
ENDBRANCH   6  31
ENDBRANCH   2   5
TORSDOF 2
ENDMDL
MODEL 3
REMARK VINA RESULT: -6.751224092      3.285      6.380
REMARK  2 active torsions:
REMARK  status: ('A' for Active; 'I' for Inactive)
REMARK    1  A    between atoms: N1_2  and  C3_5 
REMARK    2  A    between atoms: C4_6  and  C5_7 
REMARK       I    between atoms: N5_13  and  C7_15 
REMARK       I    between atoms: N7_17  and  C8_19 
REMARK       I    between atoms: C8_19  and  N8_20 
REMARK       I    between atoms: C8_19  and  N9_24 
ROOT
HETATM    1  C1  UNL     1       2.781  22.561   8.289  1.00  0.00     0.169 C 
HETATM    2  N1  UNL     1       3.695  22.313   7.177  1.00  0.00    -0.282 N 
HETATM    3  C2  UNL     1       5.027  22.069   7.631  1.00  0.00     0.184 C 
HETATM    4  N2  UNL     1       6.113  21.877   8.034  1.00  0.00    -0.172 NA
ENDROOT
BRANCH   2   5
HETATM    5  C3  UNL     1       3.372  22.319   5.817  1.00  0.00     0.144 C 
HETATM    6  C4  UNL     1       3.436  21.132   5.123  1.00  0.00     0.133 C 
HETATM    7  N4  UNL     1       4.074  20.917   3.916  1.00  0.00    -0.332 N 
HETATM    8  C6  UNL     1       4.319  21.847   2.966  1.00  0.00     0.178 C 
ATOM      9  H4  UNL     1       4.390  19.966   3.725  1.00  0.00     0.168 HD
HETATM   10  N5  UNL     1       4.977  21.466   1.930  1.00  0.00    -0.312 N 
HETATM   11  C9  UNL     1       3.951  23.172   2.961  1.00  0.00     0.292 C 
HETATM   12  C7  UNL     1       5.432  20.130   1.776  1.00  0.00     0.192 C 
ATOM     13  H5  UNL     1       5.177  22.144   1.195  1.00  0.00     0.170 HD
HETATM   14  N6  UNL     1       4.510  19.195   1.233  1.00  0.00    -0.063 NA
HETATM   15  N7  UNL     1       6.594  19.736   2.091  1.00  0.00    -0.315 N 
HETATM   16  C8  UNL     1       7.093  18.404   1.953  1.00  0.00     0.482 C 
ATOM     17  H7  UNL     1       7.231  20.432   2.478  1.00  0.00     0.166 HD
HETATM   18  N8  UNL     1       6.861  17.895   0.623  1.00  0.00    -0.033 N 
HETATM   19  N9  UNL     1       6.473  17.477   2.887  1.00  0.00    -0.033 N 
ATOM     20  H83 UNL     1       5.876  17.956   0.364  1.00  0.00     0.278 HD
ATOM     21  H82 UNL     1       7.247  18.516  -0.088  1.00  0.00     0.278 HD
ATOM     22  H81 UNL     1       7.216  16.945   0.524  1.00  0.00     0.278 HD
ATOM     23  H93 UNL     1       6.567  17.806   3.848  1.00  0.00     0.278 HD
ATOM     24  H92 UNL     1       5.457  17.498   2.806  1.00  0.00     0.278 HD
ATOM     25  H91 UNL     1       6.829  16.526   2.789  1.00  0.00     0.278 HD
HETATM   26  O2  UNL     1       4.190  23.774   1.897  1.00  0.00    -0.264 OA
HETATM   27  N10 UNL     1       3.372  23.922   3.929  1.00  0.00    -0.285 N 
HETATM   28  C10 UNL     1       3.087  23.549   5.209  1.00  0.00     0.278 C 
ATOM     29  H10 UNL     1       3.120  24.876   3.671  1.00  0.00     0.172 HD
HETATM   30  O3  UNL     1       2.512  24.377   5.934  1.00  0.00    -0.265 OA
BRANCH   6  31
HETATM   31  C5  UNL     1       2.719  20.024   5.694  1.00  0.00     0.284 C 
HETATM   32  N3  UNL     1       3.450  18.915   6.202  1.00  0.00    -0.056 NA
HETATM   33  O1  UNL     1       1.485  19.982   5.770  1.00  0.00    -0.269 OA
ENDBRANCH   6  31
ENDBRANCH   2   5
TORSDOF 2
ENDMDL
MODEL 4
REMARK VINA RESULT: -6.582139588      1.291      1.756
REMARK  2 active torsions:
REMARK  status: ('A' for Active; 'I' for Inactive)
REMARK    1  A    between atoms: N1_2  and  C3_5 
REMARK    2  A    between atoms: C4_6  and  C5_7 
REMARK       I    between atoms: N5_13  and  C7_15 
REMARK       I    between atoms: N7_17  and  C8_19 
REMARK       I    between atoms: C8_19  and  N8_20 
REMARK       I    between atoms: C8_19  and  N9_24 
ROOT
HETATM    1  C1  UNL     1       1.861  17.591   0.973  1.00  0.00     0.169 C 
HETATM    2  N1  UNL     1       2.857  17.282   1.995  1.00  0.00    -0.282 N 
HETATM    3  C2  UNL     1       2.514  16.106   2.729  1.00  0.00     0.184 C 
HETATM    4  N2  UNL     1       2.203  15.139   3.318  1.00  0.00    -0.172 NA
ENDROOT
BRANCH   2   5
HETATM    5  C3  UNL     1       4.010  18.017   2.283  1.00  0.00     0.144 C 
HETATM    6  C4  UNL     1       3.896  19.125   3.092  1.00  0.00     0.133 C 
HETATM    7  N4  UNL     1       4.400  20.387   2.837  1.00  0.00    -0.332 N 
HETATM    8  C6  UNL     1       5.466  20.678   2.058  1.00  0.00     0.178 C 
ATOM      9  H4  UNL     1       3.921  21.173   3.277  1.00  0.00     0.168 HD
HETATM   10  N5  UNL     1       5.750  21.921   1.896  1.00  0.00    -0.312 N 
HETATM   11  C9  UNL     1       6.302  19.804   1.403  1.00  0.00     0.292 C 
HETATM   12  C7  UNL     1       4.988  22.953   2.502  1.00  0.00     0.192 C 
ATOM     13  H5  UNL     1       6.549  22.173   1.314  1.00  0.00     0.170 HD
HETATM   14  N6  UNL     1       5.325  23.301   3.838  1.00  0.00    -0.063 NA
HETATM   15  N7  UNL     1       4.041  23.568   1.926  1.00  0.00    -0.315 N 
HETATM   16  C8  UNL     1       3.250  24.612   2.498  1.00  0.00     0.482 C 
ATOM     17  H7  UNL     1       3.825  23.294   0.968  1.00  0.00     0.166 HD
HETATM   18  N8  UNL     1       4.081  25.639   3.077  1.00  0.00    -0.033 N 
HETATM   19  N9  UNL     1       2.362  24.128   3.545  1.00  0.00    -0.033 N 
ATOM     20  H83 UNL     1       4.738  25.252   3.755  1.00  0.00     0.278 HD
ATOM     21  H82 UNL     1       4.751  26.004   2.401  1.00  0.00     0.278 HD
ATOM     22  H81 UNL     1       3.516  26.383   3.486  1.00  0.00     0.278 HD
ATOM     23  H93 UNL     1       1.775  23.366   3.206  1.00  0.00     0.278 HD
ATOM     24  H92 UNL     1       2.882  23.626   4.264  1.00  0.00     0.278 HD
ATOM     25  H91 UNL     1       1.797  24.873   3.953  1.00  0.00     0.278 HD
HETATM   26  O2  UNL     1       7.289  20.337   0.861  1.00  0.00    -0.264 OA
HETATM   27  N10 UNL     1       6.220  18.460   1.256  1.00  0.00    -0.285 N 
HETATM   28  C10 UNL     1       5.209  17.641   1.662  1.00  0.00     0.278 C 
ATOM     29  H10 UNL     1       7.005  18.009   0.787  1.00  0.00     0.172 HD
HETATM   30  O3  UNL     1       5.344  16.423   1.468  1.00  0.00    -0.265 OA
BRANCH   6  31
HETATM   31  C5  UNL     1       3.229  18.927   4.350  1.00  0.00     0.284 C 
HETATM   32  N3  UNL     1       3.893  18.203   5.379  1.00  0.00    -0.056 NA
HETATM   33  O1  UNL     1       2.093  19.356   4.591  1.00  0.00    -0.269 OA
ENDBRANCH   6  31
ENDBRANCH   2   5
TORSDOF 2
ENDMDL
MODEL 5
REMARK VINA RESULT: -6.469346919      2.600      6.182
REMARK  2 active torsions:
REMARK  status: ('A' for Active; 'I' for Inactive)
REMARK    1  A    between atoms: N1_2  and  C3_5 
REMARK    2  A    between atoms: C4_6  and  C5_7 
REMARK       I    between atoms: N5_13  and  C7_15 
REMARK       I    between atoms: N7_17  and  C8_19 
REMARK       I    between atoms: C8_19  and  N8_20 
REMARK       I    between atoms: C8_19  and  N9_24 
ROOT
HETATM    1  C1  UNL     1       2.756  24.934   5.238  1.00  0.00     0.169 C 
HETATM    2  N1  UNL     1       2.839  23.975   4.140  1.00  0.00    -0.282 N 
HETATM    3  C2  UNL     1       3.019  24.626   2.882  1.00  0.00     0.184 C 
HETATM    4  N2  UNL     1       3.163  25.190   1.862  1.00  0.00    -0.172 NA
ENDROOT
BRANCH   2   5
HETATM    5  C3  UNL     1       2.741  22.584   4.240  1.00  0.00     0.144 C 
HETATM    6  C4  UNL     1       3.903  21.846   4.266  1.00  0.00     0.133 C 
HETATM    7  N4  UNL     1       4.193  20.739   3.491  1.00  0.00    -0.332 N 
HETATM    8  C6  UNL     1       3.294  19.886   2.950  1.00  0.00     0.178 C 
ATOM      9  H4  UNL     1       5.179  20.547   3.310  1.00  0.00     0.168 HD
HETATM   10  N5  UNL     1       3.755  18.942   2.210  1.00  0.00    -0.312 N 
HETATM   11  C9  UNL     1       1.926  19.896   3.087  1.00  0.00     0.292 C 
HETATM   12  C7  UNL     1       5.145  18.788   1.963  1.00  0.00     0.192 C 
ATOM     13  H5  UNL     1       3.102  18.282   1.787  1.00  0.00     0.170 HD
HETATM   14  N6  UNL     1       5.893  18.065   2.931  1.00  0.00    -0.063 NA
HETATM   15  N7  UNL     1       5.741  19.253   0.946  1.00  0.00    -0.315 N 
HETATM   16  C8  UNL     1       7.134  19.121   0.660  1.00  0.00     0.482 C 
ATOM     17  H7  UNL     1       5.175  19.767   0.271  1.00  0.00     0.166 HD
HETATM   18  N8  UNL     1       7.560  17.747   0.761  1.00  0.00    -0.033 N 
HETATM   19  N9  UNL     1       7.966  19.902   1.563  1.00  0.00    -0.033 N 
ATOM     20  H83 UNL     1       7.325  17.347   1.670  1.00  0.00     0.278 HD
ATOM     21  H82 UNL     1       6.997  17.135   0.171  1.00  0.00     0.278 HD
ATOM     22  H81 UNL     1       8.555  17.653   0.557  1.00  0.00     0.278 HD
ATOM     23  H93 UNL     1       7.683  20.883   1.567  1.00  0.00     0.278 HD
ATOM     24  H92 UNL     1       7.769  19.671   2.536  1.00  0.00     0.278 HD
ATOM     25  H91 UNL     1       8.961  19.809   1.359  1.00  0.00     0.278 HD
HETATM   26  O2  UNL     1       1.346  18.913   2.588  1.00  0.00    -0.264 OA
HETATM   27  N10 UNL     1       1.113  20.805   3.679  1.00  0.00    -0.285 N 
HETATM   28  C10 UNL     1       1.466  22.005   4.219  1.00  0.00     0.278 C 
ATOM     29  H10 UNL     1       0.124  20.562   3.726  1.00  0.00     0.172 HD
HETATM   30  O3  UNL     1       0.571  22.678   4.755  1.00  0.00    -0.265 OA
BRANCH   6  31
HETATM   31  C5  UNL     1       4.887  22.244   5.236  1.00  0.00     0.284 C 
HETATM   32  N3  UNL     1       4.917  21.592   6.499  1.00  0.00    -0.056 NA
HETATM   33  O1  UNL     1       5.720  23.136   5.030  1.00  0.00    -0.269 OA
ENDBRANCH   6  31
ENDBRANCH   2   5
TORSDOF 2
ENDMDL
