MODEL 1
REMARK VINA RESULT: -8.517805688      0.000      0.000
REMARK  6 active torsions:
REMARK  status: ('A' for Active; 'I' for Inactive)
REMARK    1  A    between atoms: C3_3  and  N1_4 
REMARK    2  A    between atoms: C5_7  and  C6_8 
REMARK    3  A    between atoms: C6_8  and  S1_9 
REMARK    4  A    between atoms: S1_9  and  C7_10 
REMARK    5  A    between atoms: C11_16  and  O2_17 
REMARK    6  A    between atoms: C14_21  and  O3_22 
ROOT
HETATM    1  C1  UNL     1      36.133  -0.489 -38.049  1.00  0.00     0.014 C 
HETATM    2  C2  UNL     1      37.323  -0.663 -38.159  1.00  0.00    -0.097 C 
HETATM    3  C3  UNL     1      38.779  -0.902 -38.296  1.00  0.00     0.226 C 
ENDROOT
BRANCH   3   4
HETATM    4  N1  UNL     1      39.016  -2.328 -38.251  1.00  0.00    -0.288 N 
HETATM    5  C4  UNL     1      39.390  -2.915 -37.115  1.00  0.00     0.259 A 
HETATM    6  O1  UNL     1      39.551  -2.250 -36.035  1.00  0.00    -0.267 OA
HETATM    7  C5  UNL     1      39.639  -4.290 -36.992  1.00  0.00     0.054 A 
HETATM    8  C14 UNL     1      39.463  -5.009 -38.148  1.00  0.00     0.092 A 
HETATM    9  C15 UNL     1      39.070  -4.384 -39.343  1.00  0.00     0.053 A 
HETATM   10  C16 UNL     1      38.823  -4.835 -40.625  1.00  0.00     0.007 A 
HETATM   11  C18 UNL     1      38.847  -3.027 -39.383  1.00  0.00     0.125 A 
HETATM   12  C17 UNL     1      38.456  -3.747 -41.413  1.00  0.00     0.044 A 
HETATM   13  C20 UNL     1      38.773  -5.998 -41.537  1.00  0.00     0.210 C 
HETATM   14  N2  UNL     1      38.476  -2.648 -40.639  1.00  0.00    -0.342 N 
HETATM   15  C19 UNL     1      38.203  -4.273 -42.782  1.00  0.00     0.225 C 
ATOM     16  H2  UNL     1      38.253  -1.699 -40.939  1.00  0.00     0.167 HD
HETATM   17  O4  UNL     1      37.889  -5.609 -42.560  1.00  0.00    -0.381 OA
BRANCH   7  18
HETATM   18  C6  UNL     1      39.951  -4.872 -35.680  1.00  0.00     0.126 C 
BRANCH  18  19
HETATM   19  S1  UNL     1      38.634  -5.436 -34.652  1.00  0.00    -0.123 SA
BRANCH  19  20
HETATM   20  C7  UNL     1      37.699  -6.782 -35.378  1.00  0.00     0.027 A 
HETATM   21  C8  UNL     1      36.543  -6.667 -36.077  1.00  0.00     0.046 A 
HETATM   22  C9  UNL     1      35.853  -7.758 -36.628  1.00  0.00     0.059 A 
HETATM   23 CL1  UNL     1      34.369  -7.496 -37.513  1.00  0.00    -0.082 Cl
HETATM   24  C10 UNL     1      36.365  -9.018 -36.459  1.00  0.00     0.090 A 
HETATM   25 CL2  UNL     1      35.537 -10.386 -37.130  1.00  0.00    -0.079 Cl
HETATM   26  C11 UNL     1      37.541  -9.152 -35.750  1.00  0.00     0.114 A 
HETATM   27  C13 UNL     1      38.213  -8.094 -35.213  1.00  0.00     0.086 A 
HETATM   28 CL3  UNL     1      39.688  -8.319 -34.327  1.00  0.00    -0.080 Cl
BRANCH  26  29
HETATM   29  O2  UNL     1      38.037 -10.457 -35.593  1.00  0.00    -0.352 OA
HETATM   30  C12 UNL     1      37.633 -11.140 -34.416  1.00  0.00     0.210 C 
ENDBRANCH  26  29
ENDBRANCH  19  20
ENDBRANCH  18  19
ENDBRANCH   7  18
BRANCH   8  31
HETATM   31  O3  UNL     1      39.659  -6.373 -38.164  1.00  0.00    -0.359 OA
ATOM     32  H3  UNL     1      40.449  -6.753 -37.799  1.00  0.00     0.217 HD
ENDBRANCH   8  31
ENDBRANCH   3   4
TORSDOF 6
ENDMDL
MODEL 2
REMARK VINA RESULT: -8.319891530      0.756      1.234
REMARK  6 active torsions:
REMARK  status: ('A' for Active; 'I' for Inactive)
REMARK    1  A    between atoms: C3_3  and  N1_4 
REMARK    2  A    between atoms: C5_7  and  C6_8 
REMARK    3  A    between atoms: C6_8  and  S1_9 
REMARK    4  A    between atoms: S1_9  and  C7_10 
REMARK    5  A    between atoms: C11_16  and  O2_17 
REMARK    6  A    between atoms: C14_21  and  O3_22 
ROOT
HETATM    1  C1  UNL     1      41.727  -0.137 -38.737  1.00  0.00     0.014 C 
HETATM    2  C2  UNL     1      40.632  -0.540 -38.429  1.00  0.00    -0.097 C 
HETATM    3  C3  UNL     1      39.297  -1.061 -38.048  1.00  0.00     0.226 C 
ENDROOT
BRANCH   3   4
HETATM    4  N1  UNL     1      39.353  -2.506 -38.038  1.00  0.00    -0.288 N 
HETATM    5  C4  UNL     1      39.677  -3.161 -36.926  1.00  0.00     0.259 A 
HETATM    6  O1  UNL     1      39.946  -2.548 -35.837  1.00  0.00    -0.267 OA
HETATM    7  C5  UNL     1      39.753  -4.559 -36.837  1.00  0.00     0.054 A 
HETATM    8  C14 UNL     1      39.461  -5.224 -38.002  1.00  0.00     0.092 A 
HETATM    9  C15 UNL     1      39.122  -4.526 -39.174  1.00  0.00     0.053 A 
HETATM   10  C16 UNL     1      38.789  -4.912 -40.458  1.00  0.00     0.007 A 
HETATM   11  C18 UNL     1      39.070  -3.151 -39.179  1.00  0.00     0.125 A 
HETATM   12  C17 UNL     1      38.543  -3.767 -41.213  1.00  0.00     0.044 A 
HETATM   13  C20 UNL     1      38.571  -6.037 -41.392  1.00  0.00     0.210 C 
HETATM   14  N2  UNL     1      38.720  -2.699 -40.418  1.00  0.00    -0.342 N 
HETATM   15  C19 UNL     1      38.194  -4.226 -42.585  1.00  0.00     0.225 C 
ATOM     16  H2  UNL     1      38.611  -1.723 -40.692  1.00  0.00     0.167 HD
HETATM   17  O4  UNL     1      37.720  -5.517 -42.382  1.00  0.00    -0.381 OA
BRANCH   7  18
HETATM   18  C6  UNL     1      40.021  -5.207 -35.546  1.00  0.00     0.126 C 
BRANCH  18  19
HETATM   19  S1  UNL     1      38.665  -5.719 -34.542  1.00  0.00    -0.123 SA
BRANCH  19  20
HETATM   20  C7  UNL     1      37.676  -7.010 -35.296  1.00  0.00     0.027 A 
HETATM   21  C8  UNL     1      36.541  -6.831 -36.015  1.00  0.00     0.046 A 
HETATM   22  C9  UNL     1      35.807  -7.881 -36.588  1.00  0.00     0.059 A 
HETATM   23 CL1  UNL     1      34.356  -7.537 -37.499  1.00  0.00    -0.082 Cl
HETATM   24  C10 UNL     1      36.250  -9.167 -36.419  1.00  0.00     0.090 A 
HETATM   25 CL2  UNL     1      35.366 -10.486 -37.116  1.00  0.00    -0.079 Cl
HETATM   26  C11 UNL     1      37.403  -9.366 -35.689  1.00  0.00     0.114 A 
HETATM   27  C13 UNL     1      38.118  -8.348 -35.131  1.00  0.00     0.086 A 
HETATM   28 CL3  UNL     1      39.563  -8.655 -34.219  1.00  0.00    -0.080 Cl
BRANCH  26  29
HETATM   29  O2  UNL     1      37.829 -10.696 -35.533  1.00  0.00    -0.352 OA
HETATM   30  C12 UNL     1      37.361 -11.368 -34.373  1.00  0.00     0.210 C 
ENDBRANCH  26  29
ENDBRANCH  19  20
ENDBRANCH  18  19
ENDBRANCH   7  18
BRANCH   8  31
HETATM   31  O3  UNL     1      39.483  -6.600 -38.052  1.00  0.00    -0.359 OA
ATOM     32  H3  UNL     1      39.676  -7.053 -38.864  1.00  0.00     0.217 HD
ENDBRANCH   8  31
ENDBRANCH   3   4
TORSDOF 6
ENDMDL
MODEL 3
REMARK VINA RESULT: -8.198739197      1.188      2.197
REMARK  6 active torsions:
REMARK  status: ('A' for Active; 'I' for Inactive)
REMARK    1  A    between atoms: C3_3  and  N1_4 
REMARK    2  A    between atoms: C5_7  and  C6_8 
REMARK    3  A    between atoms: C6_8  and  S1_9 
REMARK    4  A    between atoms: S1_9  and  C7_10 
REMARK    5  A    between atoms: C11_16  and  O2_17 
REMARK    6  A    between atoms: C14_21  and  O3_22 
ROOT
HETATM    1  C1  UNL     1      36.101  -0.461 -38.050  1.00  0.00     0.014 C 
HETATM    2  C2  UNL     1      37.297  -0.591 -38.145  1.00  0.00    -0.097 C 
HETATM    3  C3  UNL     1      38.763  -0.778 -38.262  1.00  0.00     0.226 C 
ENDROOT
BRANCH   3   4
HETATM    4  N1  UNL     1      39.052  -2.194 -38.188  1.00  0.00    -0.288 N 
HETATM    5  C4  UNL     1      39.477  -2.736 -37.049  1.00  0.00     0.259 A 
HETATM    6  O1  UNL     1      39.643  -2.038 -35.990  1.00  0.00    -0.267 OA
HETATM    7  C5  UNL     1      39.779  -4.098 -36.897  1.00  0.00     0.054 A 
HETATM    8  C14 UNL     1      39.598  -4.853 -38.029  1.00  0.00     0.092 A 
HETATM    9  C15 UNL     1      39.151  -4.274 -39.229  1.00  0.00     0.053 A 
HETATM   10  C16 UNL     1      38.886  -4.767 -40.492  1.00  0.00     0.007 A 
HETATM   11  C18 UNL     1      38.878  -2.927 -39.296  1.00  0.00     0.125 A 
HETATM   12  C17 UNL     1      38.459  -3.713 -41.296  1.00  0.00     0.044 A 
HETATM   13  C20 UNL     1      38.853  -5.954 -41.373  1.00  0.00     0.210 C 
HETATM   14  N2  UNL     1      38.460  -2.594 -40.551  1.00  0.00    -0.342 N 
HETATM   15  C19 UNL     1      38.188  -4.284 -42.644  1.00  0.00     0.225 C 
ATOM     16  H2  UNL     1      38.195  -1.662 -40.868  1.00  0.00     0.167 HD
HETATM   17  O4  UNL     1      37.929  -5.624 -42.379  1.00  0.00    -0.381 OA
BRANCH   7  18
HETATM   18  C6  UNL     1      40.147  -4.634 -35.581  1.00  0.00     0.126 C 
BRANCH  18  19
HETATM   19  S1  UNL     1      38.915  -5.425 -34.597  1.00  0.00    -0.123 SA
BRANCH  19  20
HETATM   20  C7  UNL     1      38.750  -7.175 -34.945  1.00  0.00     0.027 A 
HETATM   21  C8  UNL     1      39.529  -8.167 -34.449  1.00  0.00     0.046 A 
HETATM   22  C9  UNL     1      39.352  -9.525 -34.753  1.00  0.00     0.059 A 
HETATM   23 CL1  UNL     1      40.416 -10.723 -34.055  1.00  0.00    -0.082 Cl
HETATM   24  C10 UNL     1      38.336  -9.887 -35.599  1.00  0.00     0.090 A 
HETATM   25 CL2  UNL     1      38.089 -11.557 -35.993  1.00  0.00    -0.079 Cl
HETATM   26  C11 UNL     1      37.534  -8.890 -36.114  1.00  0.00     0.114 A 
HETATM   27  C13 UNL     1      37.704  -7.569 -35.820  1.00  0.00     0.086 A 
HETATM   28 CL3  UNL     1      36.666  -6.353 -36.497  1.00  0.00    -0.080 Cl
BRANCH  26  29
HETATM   29  O2  UNL     1      36.503  -9.293 -36.979  1.00  0.00    -0.352 OA
HETATM   30  C12 UNL     1      35.248  -9.561 -36.371  1.00  0.00     0.210 C 
ENDBRANCH  26  29
ENDBRANCH  19  20
ENDBRANCH  18  19
ENDBRANCH   7  18
BRANCH   8  31
HETATM   31  O3  UNL     1      39.843  -6.209 -38.017  1.00  0.00    -0.359 OA
ATOM     32  H3  UNL     1      40.602  -6.560 -37.567  1.00  0.00     0.217 HD
ENDBRANCH   8  31
ENDBRANCH   3   4
TORSDOF 6
ENDMDL
MODEL 4
REMARK VINA RESULT: -7.823906138      5.051      8.780
REMARK  6 active torsions:
REMARK  status: ('A' for Active; 'I' for Inactive)
REMARK    1  A    between atoms: C3_3  and  N1_4 
REMARK    2  A    between atoms: C5_7  and  C6_8 
REMARK    3  A    between atoms: C6_8  and  S1_9 
REMARK    4  A    between atoms: S1_9  and  C7_10 
REMARK    5  A    between atoms: C11_16  and  O2_17 
REMARK    6  A    between atoms: C14_21  and  O3_22 
ROOT
HETATM    1  C1  UNL     1      36.113  -0.427 -39.596  1.00  0.00     0.014 C 
HETATM    2  C2  UNL     1      37.029  -0.738 -40.319  1.00  0.00    -0.097 C 
HETATM    3  C3  UNL     1      38.149  -1.146 -41.200  1.00  0.00     0.226 C 
ENDROOT
BRANCH   3   4
HETATM    4  N1  UNL     1      38.374  -2.565 -41.030  1.00  0.00    -0.288 N 
HETATM    5  C4  UNL     1      38.172  -3.406 -42.041  1.00  0.00     0.259 A 
HETATM    6  O1  UNL     1      37.776  -3.000 -43.187  1.00  0.00    -0.267 OA
HETATM    7  C5  UNL     1      38.367  -4.793 -41.954  1.00  0.00     0.054 A 
HETATM    8  C14 UNL     1      38.796  -5.235 -40.726  1.00  0.00     0.092 A 
HETATM    9  C15 UNL     1      39.006  -4.341 -39.663  1.00  0.00     0.053 A 
HETATM   10  C16 UNL     1      39.422  -4.488 -38.354  1.00  0.00     0.007 A 
HETATM   11  C18 UNL     1      38.790  -2.992 -39.829  1.00  0.00     0.125 A 
HETATM   12  C17 UNL     1      39.449  -3.231 -37.755  1.00  0.00     0.044 A 
HETATM   13  C20 UNL     1      39.865  -5.422 -37.296  1.00  0.00     0.210 C 
HETATM   14  N2  UNL     1      39.059  -2.327 -38.669  1.00  0.00    -0.342 N 
HETATM   15  C19 UNL     1      39.896  -3.435 -36.350  1.00  0.00     0.225 C 
ATOM     16  H2  UNL     1      38.979  -1.321 -38.522  1.00  0.00     0.167 HD
HETATM   17  O4  UNL     1      40.610  -4.626 -36.409  1.00  0.00    -0.381 OA
BRANCH   7  18
HETATM   18  C6  UNL     1      38.216  -5.639 -43.144  1.00  0.00     0.126 C 
BRANCH  18  19
HETATM   19  S1  UNL     1      39.593  -5.864 -44.222  1.00  0.00    -0.123 SA
BRANCH  19  20
HETATM   20  C7  UNL     1      39.994  -4.397 -45.171  1.00  0.00     0.027 A 
HETATM   21  C8  UNL     1      41.105  -3.634 -45.034  1.00  0.00     0.046 A 
HETATM   22  C9  UNL     1      41.370  -2.495 -45.810  1.00  0.00     0.059 A 
HETATM   23 CL1  UNL     1      42.838  -1.583 -45.549  1.00  0.00    -0.082 Cl
HETATM   24  C10 UNL     1      40.463  -2.119 -46.766  1.00  0.00     0.090 A 
HETATM   25 CL2  UNL     1      40.762  -0.718 -47.742  1.00  0.00    -0.079 Cl
HETATM   26  C11 UNL     1      39.326  -2.885 -46.918  1.00  0.00     0.114 A 
HETATM   27  C13 UNL     1      39.065  -3.993 -46.165  1.00  0.00     0.086 A 
HETATM   28 CL3  UNL     1      37.616  -4.920 -46.397  1.00  0.00    -0.080 Cl
BRANCH  26  29
HETATM   29  O2  UNL     1      38.415  -2.473 -47.905  1.00  0.00    -0.352 OA
HETATM   30  C12 UNL     1      37.446  -1.518 -47.498  1.00  0.00     0.210 C 
ENDBRANCH  26  29
ENDBRANCH  19  20
ENDBRANCH  18  19
ENDBRANCH   7  18
BRANCH   8  31
HETATM   31  O3  UNL     1      39.042  -6.572 -40.507  1.00  0.00    -0.359 OA
ATOM     32  H3  UNL     1      39.337  -6.877 -39.657  1.00  0.00     0.217 HD
ENDBRANCH   8  31
ENDBRANCH   3   4
TORSDOF 6
ENDMDL
MODEL 5
REMARK VINA RESULT: -7.822566699      1.450      3.195
REMARK  6 active torsions:
REMARK  status: ('A' for Active; 'I' for Inactive)
REMARK    1  A    between atoms: C3_3  and  N1_4 
REMARK    2  A    between atoms: C5_7  and  C6_8 
REMARK    3  A    between atoms: C6_8  and  S1_9 
REMARK    4  A    between atoms: S1_9  and  C7_10 
REMARK    5  A    between atoms: C11_16  and  O2_17 
REMARK    6  A    between atoms: C14_21  and  O3_22 
ROOT
HETATM    1  C1  UNL     1      37.036  -7.283 -40.531  1.00  0.00     0.014 C 
HETATM    2  C2  UNL     1      38.090  -6.697 -40.479  1.00  0.00    -0.097 C 
HETATM    3  C3  UNL     1      39.376  -5.965 -40.392  1.00  0.00     0.226 C 
ENDROOT
BRANCH   3   4
HETATM    4  N1  UNL     1      39.282  -4.998 -39.320  1.00  0.00    -0.288 N 
HETATM    5  C4  UNL     1      39.540  -5.356 -38.064  1.00  0.00     0.259 A 
HETATM    6  O1  UNL     1      39.876  -6.552 -37.759  1.00  0.00    -0.267 OA
HETATM    7  C5  UNL     1      39.471  -4.478 -36.972  1.00  0.00     0.054 A 
HETATM    8  C14 UNL     1      39.115  -3.192 -37.294  1.00  0.00     0.092 A 
HETATM    9  C15 UNL     1      38.842  -2.821 -38.622  1.00  0.00     0.053 A 
HETATM   10  C16 UNL     1      38.471  -1.638 -39.231  1.00  0.00     0.007 A 
HETATM   11  C18 UNL     1      38.931  -3.744 -39.639  1.00  0.00     0.125 A 
HETATM   12  C17 UNL     1      38.343  -1.867 -40.599  1.00  0.00     0.044 A 
HETATM   13  C20 UNL     1      38.151  -0.205 -39.054  1.00  0.00     0.210 C 
HETATM   14  N2  UNL     1      38.627  -3.159 -40.832  1.00  0.00    -0.342 N 
HETATM   15  C19 UNL     1      37.939  -0.573 -41.214  1.00  0.00     0.225 C 
ATOM     16  H2  UNL     1      38.616  -3.621 -41.741  1.00  0.00     0.167 HD
HETATM   17  O4  UNL     1      38.406   0.374 -40.309  1.00  0.00    -0.381 OA
BRANCH   7  18
HETATM   18  C6  UNL     1      39.867  -4.929 -35.632  1.00  0.00     0.126 C 
BRANCH  18  19
HETATM   19  S1  UNL     1      38.646  -5.608 -34.556  1.00  0.00    -0.123 SA
BRANCH  19  20
HETATM   20  C7  UNL     1      37.682  -6.913 -35.318  1.00  0.00     0.027 A 
HETATM   21  C8  UNL     1      36.546  -6.751 -36.039  1.00  0.00     0.046 A 
HETATM   22  C9  UNL     1      35.832  -7.812 -36.618  1.00  0.00     0.059 A 
HETATM   23 CL1  UNL     1      34.376  -7.489 -37.531  1.00  0.00    -0.082 Cl
HETATM   24  C10 UNL     1      36.296  -9.091 -36.454  1.00  0.00     0.090 A 
HETATM   25 CL2  UNL     1      35.438 -10.422 -37.159  1.00  0.00    -0.079 Cl
HETATM   26  C11 UNL     1      37.452  -9.272 -35.722  1.00  0.00     0.114 A 
HETATM   27  C13 UNL     1      38.148  -8.244 -35.158  1.00  0.00     0.086 A 
HETATM   28 CL3  UNL     1      39.595  -8.529 -34.244  1.00  0.00    -0.080 Cl
BRANCH  26  29
HETATM   29  O2  UNL     1      37.901 -10.595 -35.571  1.00  0.00    -0.352 OA
HETATM   30  C12 UNL     1      37.448 -11.278 -34.411  1.00  0.00     0.210 C 
ENDBRANCH  26  29
ENDBRANCH  19  20
ENDBRANCH  18  19
ENDBRANCH   7  18
BRANCH   8  31
HETATM   31  O3  UNL     1      39.024  -2.222 -36.320  1.00  0.00    -0.359 OA
ATOM     32  H3  UNL     1      39.805  -1.804 -35.978  1.00  0.00     0.217 HD
ENDBRANCH   8  31
ENDBRANCH   3   4
TORSDOF 6
ENDMDL
