MODEL 1
REMARK VINA RESULT: -8.791828730      0.000      0.000
REMARK  7 active torsions:
REMARK  status: ('A' for Active; 'I' for Inactive)
REMARK    1  A    between atoms: C6_8  and  N3_9 
REMARK    2  A    between atoms: N3_9  and  C7_11 
REMARK    3  A    between atoms: C7_11  and  C8_12 
REMARK    4  A    between atoms: C14_20  and  C15_21 
REMARK    5  A    between atoms: N5_30  and  C20_31 
REMARK    6  A    between atoms: C20_31  and  C21_32 
REMARK    7  A    between atoms: C21_32  and  O2_33 
ROOT
HETATM    1  C1  UNL     1      34.253   0.889 -47.504  1.00  0.00     0.148 C 
HETATM    2  N1  UNL     1      35.593   1.019 -46.986  1.00  0.00    -0.392 N 
HETATM    3  C2  UNL     1      36.597   1.111 -47.979  1.00  0.00     0.128 C 
HETATM    4  C3  UNL     1      37.179  -0.225 -48.372  1.00  0.00     0.080 C 
HETATM    5  C4  UNL     1      37.448  -1.063 -47.166  1.00  0.00     0.060 A 
HETATM    6  C5  UNL     1      36.827  -0.811 -45.985  1.00  0.00     0.097 A 
HETATM    7  N2  UNL     1      37.263  -1.716 -45.077  1.00  0.00    -0.127 N 
HETATM    8  C6  UNL     1      37.127  -2.112 -43.742  1.00  0.00     0.156 A 
HETATM    9  C14 UNL     1      37.944  -3.178 -43.571  1.00  0.00     0.128 A 
HETATM   10  N4  UNL     1      38.573  -3.411 -44.804  1.00  0.00    -0.184 N 
ATOM     11  H4  UNL     1      39.253  -4.147 -44.995  1.00  0.00     0.184 HD
HETATM   12  C19 UNL     1      38.133  -2.509 -45.683  1.00  0.00     0.694 A 
HETATM   13  N5  UNL     1      38.242  -2.096 -46.982  1.00  0.00    -0.182 N 
HETATM   14  C22 UNL     1      35.858   0.276 -45.822  1.00  0.00     0.118 C 
ENDROOT
BRANCH   8  15
HETATM   15  N3  UNL     1      36.331  -1.374 -42.857  1.00  0.00    -0.369 N 
ATOM     16  H3  UNL     1      35.398  -1.748 -42.686  1.00  0.00     0.161 HD
BRANCH  15  17
HETATM   17  C7  UNL     1      36.648  -0.180 -42.170  1.00  0.00     0.160 C 
BRANCH  17  18
HETATM   18  C8  UNL     1      37.190  -0.470 -40.793  1.00  0.00    -0.039 A 
HETATM   19  C9  UNL     1      36.414  -0.632 -39.679  1.00  0.00     0.010 A 
HETATM   20  C10 UNL     1      36.963  -0.897 -38.432  1.00  0.00     0.026 A 
HETATM   21  C11 UNL     1      38.325  -1.004 -38.295  1.00  0.00     0.055 A 
HETATM   22 CL1  UNL     1      39.026  -1.339 -36.722  1.00  0.00    -0.083 Cl
HETATM   23  C12 UNL     1      39.121  -0.845 -39.404  1.00  0.00     0.056 A 
HETATM   24 CL2  UNL     1      40.860  -0.982 -39.222  1.00  0.00    -0.083 Cl
HETATM   25  C13 UNL     1      38.550  -0.577 -40.657  1.00  0.00     0.034 A 
ENDBRANCH  17  18
ENDBRANCH  15  17
ENDBRANCH   8  15
BRANCH   9  26
HETATM   26  C15 UNL     1      38.138  -4.118 -42.474  1.00  0.00     0.108 A 
HETATM   27  C16 UNL     1      37.990  -5.449 -42.281  1.00  0.00     0.043 A 
HETATM   28  C17 UNL     1      38.355  -5.775 -40.989  1.00  0.00     0.053 A 
HETATM   29  C18 UNL     1      38.728  -4.588 -40.421  1.00  0.00     0.145 A 
HETATM   30 CL3  UNL     1      39.291  -4.446 -38.752  1.00  0.00    -0.057 Cl
HETATM   31  O1  UNL     1      38.593  -3.665 -41.296  1.00  0.00    -0.296 OA
ENDBRANCH   9  26
BRANCH  13  32
HETATM   32  C20 UNL     1      39.115  -2.745 -47.937  1.00  0.00     0.173 C 
BRANCH  32  33
HETATM   33  C21 UNL     1      40.575  -2.546 -47.594  1.00  0.00     0.185 C 
BRANCH  33  34
HETATM   34  O2  UNL     1      41.073  -3.660 -46.908  1.00  0.00    -0.399 OA
ATOM     35  H2  UNL     1      40.497  -3.891 -46.188  1.00  0.00     0.209 HD
ENDBRANCH  33  34
ENDBRANCH  32  33
ENDBRANCH  13  32
TORSDOF 7
ENDMDL
MODEL 2
REMARK VINA RESULT: -8.645217457      3.486      5.280
REMARK  7 active torsions:
REMARK  status: ('A' for Active; 'I' for Inactive)
REMARK    1  A    between atoms: C6_8  and  N3_9 
REMARK    2  A    between atoms: N3_9  and  C7_11 
REMARK    3  A    between atoms: C7_11  and  C8_12 
REMARK    4  A    between atoms: C14_20  and  C15_21 
REMARK    5  A    between atoms: N5_30  and  C20_31 
REMARK    6  A    between atoms: C20_31  and  C21_32 
REMARK    7  A    between atoms: C21_32  and  O2_33 
ROOT
HETATM    1  C1  UNL     1      36.863  -0.816 -42.575  1.00  0.00     0.148 C 
HETATM    2  N1  UNL     1      38.078  -1.590 -42.632  1.00  0.00    -0.392 N 
HETATM    3  C2  UNL     1      38.258  -2.310 -43.837  1.00  0.00     0.128 C 
HETATM    4  C3  UNL     1      37.700  -3.711 -43.790  1.00  0.00     0.080 C 
HETATM    5  C4  UNL     1      38.053  -4.381 -42.503  1.00  0.00     0.060 A 
HETATM    6  C5  UNL     1      38.410  -3.658 -41.411  1.00  0.00     0.097 A 
HETATM    7  N2  UNL     1      38.678  -4.520 -40.403  1.00  0.00    -0.127 N 
HETATM    8  C6  UNL     1      39.078  -4.581 -39.063  1.00  0.00     0.156 A 
HETATM    9  C14 UNL     1      39.118  -5.893 -38.732  1.00  0.00     0.128 A 
HETATM   10  N4  UNL     1      38.748  -6.614 -39.878  1.00  0.00    -0.184 N 
ATOM     11  H4  UNL     1      38.688  -7.630 -39.949  1.00  0.00     0.184 HD
HETATM   12  C19 UNL     1      38.491  -5.748 -40.860  1.00  0.00     0.694 A 
HETATM   13  N5  UNL     1      38.102  -5.653 -42.168  1.00  0.00    -0.182 N 
HETATM   14  C22 UNL     1      38.460  -2.193 -41.421  1.00  0.00     0.118 C 
ENDROOT
BRANCH   8  15
HETATM   15  N3  UNL     1      39.431  -3.416 -38.371  1.00  0.00    -0.369 N 
ATOM     16  H3  UNL     1      40.316  -2.990 -38.647  1.00  0.00     0.161 HD
BRANCH  15  17
HETATM   17  C7  UNL     1      38.725  -2.751 -37.343  1.00  0.00     0.160 C 
BRANCH  17  18
HETATM   18  C8  UNL     1      38.113  -1.466 -37.843  1.00  0.00    -0.039 A 
HETATM   19  C9  UNL     1      36.775  -1.192 -37.822  1.00  0.00     0.010 A 
HETATM   20  C10 UNL     1      36.260   0.007 -38.296  1.00  0.00     0.026 A 
HETATM   21  C11 UNL     1      37.109   0.960 -38.804  1.00  0.00     0.055 A 
HETATM   22 CL1  UNL     1      36.467   2.478 -39.405  1.00  0.00    -0.083 Cl
HETATM   23  C12 UNL     1      38.459   0.702 -38.833  1.00  0.00     0.056 A 
HETATM   24 CL2  UNL     1      39.537   1.922 -39.484  1.00  0.00    -0.083 Cl
HETATM   25  C13 UNL     1      38.962  -0.516 -38.351  1.00  0.00     0.034 A 
ENDBRANCH  17  18
ENDBRANCH  15  17
ENDBRANCH   8  15
BRANCH   9  26
HETATM   26  C15 UNL     1      39.309  -6.596 -37.469  1.00  0.00     0.108 A 
HETATM   27  C16 UNL     1      39.476  -6.257 -36.170  1.00  0.00     0.043 A 
HETATM   28  C17 UNL     1      39.598  -7.400 -35.404  1.00  0.00     0.053 A 
HETATM   29  C18 UNL     1      39.494  -8.432 -36.295  1.00  0.00     0.145 A 
HETATM   30 CL3  UNL     1      39.584 -10.133 -35.824  1.00  0.00    -0.057 Cl
HETATM   31  O1  UNL     1      39.330  -7.938 -37.463  1.00  0.00    -0.296 OA
ENDBRANCH   9  26
BRANCH  13  32
HETATM   32  C20 UNL     1      37.811  -6.814 -42.983  1.00  0.00     0.173 C 
BRANCH  32  33
HETATM   33  C21 UNL     1      38.900  -7.077 -43.998  1.00  0.00     0.185 C 
BRANCH  33  34
HETATM   34  O2  UNL     1      38.872  -8.414 -44.411  1.00  0.00    -0.399 OA
ATOM     35  H2  UNL     1      39.206  -8.981 -43.726  1.00  0.00     0.209 HD
ENDBRANCH  33  34
ENDBRANCH  32  33
ENDBRANCH  13  32
TORSDOF 7
ENDMDL
MODEL 3
REMARK VINA RESULT: -8.565552863      2.489      4.792
REMARK  7 active torsions:
REMARK  status: ('A' for Active; 'I' for Inactive)
REMARK    1  A    between atoms: C6_8  and  N3_9 
REMARK    2  A    between atoms: N3_9  and  C7_11 
REMARK    3  A    between atoms: C7_11  and  C8_12 
REMARK    4  A    between atoms: C14_20  and  C15_21 
REMARK    5  A    between atoms: N5_30  and  C20_31 
REMARK    6  A    between atoms: C20_31  and  C21_32 
REMARK    7  A    between atoms: C21_32  and  O2_33 
ROOT
HETATM    1  C1  UNL     1      40.971  -3.049 -46.614  1.00  0.00     0.148 C 
HETATM    2  N1  UNL     1      39.666  -3.495 -46.191  1.00  0.00    -0.392 N 
HETATM    3  C2  UNL     1      38.661  -3.391 -47.183  1.00  0.00     0.128 C 
HETATM    4  C3  UNL     1      37.915  -2.080 -47.149  1.00  0.00     0.080 C 
HETATM    5  C4  UNL     1      37.570  -1.701 -45.746  1.00  0.00     0.060 A 
HETATM    6  C5  UNL     1      38.239  -2.234 -44.692  1.00  0.00     0.097 A 
HETATM    7  N2  UNL     1      37.714  -1.719 -43.555  1.00  0.00    -0.127 N 
HETATM    8  C6  UNL     1      37.826  -1.748 -42.160  1.00  0.00     0.156 A 
HETATM    9  C14 UNL     1      36.889  -0.896 -41.681  1.00  0.00     0.128 A 
HETATM   10  N4  UNL     1      36.214  -0.365 -42.791  1.00  0.00    -0.184 N 
ATOM     11  H4  UNL     1      35.447   0.306 -42.755  1.00  0.00     0.184 HD
HETATM   12  C19 UNL     1      36.744  -0.886 -43.899  1.00  0.00     0.694 A 
HETATM   13  N5  UNL     1      36.661  -0.881 -45.264  1.00  0.00    -0.182 N 
HETATM   14  C22 UNL     1      39.334  -3.193 -44.858  1.00  0.00     0.118 C 
ENDROOT
BRANCH   8  15
HETATM   15  N3  UNL     1      38.721  -2.625 -41.536  1.00  0.00    -0.369 N 
ATOM     16  H3  UNL     1      39.651  -2.249 -41.350  1.00  0.00     0.161 HD
BRANCH  15  17
HETATM   17  C7  UNL     1      38.509  -3.962 -41.129  1.00  0.00     0.160 C 
BRANCH  17  18
HETATM   18  C8  UNL     1      38.977  -4.182 -39.712  1.00  0.00    -0.039 A 
HETATM   19  C9  UNL     1      39.327  -5.399 -39.197  1.00  0.00     0.010 A 
HETATM   20  C10 UNL     1      39.751  -5.549 -37.884  1.00  0.00     0.026 A 
HETATM   21  C11 UNL     1      39.829  -4.451 -37.063  1.00  0.00     0.055 A 
HETATM   22 CL1  UNL     1      40.365  -4.632 -35.402  1.00  0.00    -0.083 Cl
HETATM   23  C12 UNL     1      39.483  -3.218 -37.563  1.00  0.00     0.056 A 
HETATM   24 CL2  UNL     1      39.584  -1.821 -36.510  1.00  0.00    -0.083 Cl
HETATM   25  C13 UNL     1      39.055  -3.085 -38.893  1.00  0.00     0.034 A 
ENDBRANCH  17  18
ENDBRANCH  15  17
ENDBRANCH   8  15
BRANCH   9  26
HETATM   26  C15 UNL     1      36.604  -0.378 -40.348  1.00  0.00     0.108 A 
HETATM   27  C16 UNL     1      36.495  -0.884 -39.098  1.00  0.00     0.043 A 
HETATM   28  C17 UNL     1      36.212   0.133 -38.208  1.00  0.00     0.053 A 
HETATM   29  C18 UNL     1      36.159   1.265 -38.975  1.00  0.00     0.145 A 
HETATM   30 CL3  UNL     1      35.825   2.869 -38.314  1.00  0.00    -0.057 Cl
HETATM   31  O1  UNL     1      36.388   0.937 -40.189  1.00  0.00    -0.296 OA
ENDBRANCH   9  26
BRANCH  13  32
HETATM   32  C20 UNL     1      35.698  -0.075 -45.985  1.00  0.00     0.173 C 
BRANCH  32  33
HETATM   33  C21 UNL     1      36.170   1.352 -46.153  1.00  0.00     0.185 C 
BRANCH  33  34
HETATM   34  O2  UNL     1      36.131   2.028 -44.928  1.00  0.00    -0.399 OA
ATOM     35  H2  UNL     1      36.516   1.495 -44.242  1.00  0.00     0.209 HD
ENDBRANCH  33  34
ENDBRANCH  32  33
ENDBRANCH  13  32
TORSDOF 7
ENDMDL
MODEL 4
REMARK VINA RESULT: -8.518256868      3.363      5.289
REMARK  7 active torsions:
REMARK  status: ('A' for Active; 'I' for Inactive)
REMARK    1  A    between atoms: C6_8  and  N3_9 
REMARK    2  A    between atoms: N3_9  and  C7_11 
REMARK    3  A    between atoms: C7_11  and  C8_12 
REMARK    4  A    between atoms: C14_20  and  C15_21 
REMARK    5  A    between atoms: N5_30  and  C20_31 
REMARK    6  A    between atoms: C20_31  and  C21_32 
REMARK    7  A    between atoms: C21_32  and  O2_33 
ROOT
HETATM    1  C1  UNL     1      36.777  -1.515 -43.676  1.00  0.00     0.148 C 
HETATM    2  N1  UNL     1      38.093  -2.058 -43.441  1.00  0.00    -0.392 N 
HETATM    3  C2  UNL     1      38.576  -2.893 -44.476  1.00  0.00     0.128 C 
HETATM    4  C3  UNL     1      38.246  -4.351 -44.277  1.00  0.00     0.080 C 
HETATM    5  C4  UNL     1      38.488  -4.763 -42.862  1.00  0.00     0.060 A 
HETATM    6  C5  UNL     1      38.546  -3.843 -41.865  1.00  0.00     0.097 A 
HETATM    7  N2  UNL     1      38.781  -4.495 -40.702  1.00  0.00    -0.127 N 
HETATM    8  C6  UNL     1      38.964  -4.298 -39.329  1.00  0.00     0.156 A 
HETATM    9  C14 UNL     1      39.157  -5.523 -38.786  1.00  0.00     0.128 A 
HETATM   10  N4  UNL     1      39.095  -6.450 -39.838  1.00  0.00    -0.184 N 
ATOM     11  H4  UNL     1      39.208  -7.460 -39.749  1.00  0.00     0.184 HD
HETATM   12  C19 UNL     1      38.866  -5.788 -40.974  1.00  0.00     0.694 A 
HETATM   13  N5  UNL     1      38.683  -5.946 -42.320  1.00  0.00    -0.182 N 
HETATM   14  C22 UNL     1      38.365  -2.409 -42.107  1.00  0.00     0.118 C 
ENDROOT
BRANCH   8  15
HETATM   15  N3  UNL     1      39.013  -3.004 -38.796  1.00  0.00    -0.369 N 
ATOM     16  H3  UNL     1      39.692  -2.375 -39.224  1.00  0.00     0.161 HD
BRANCH  15  17
HETATM   17  C7  UNL     1      38.247  -2.453 -37.744  1.00  0.00     0.160 C 
BRANCH  17  18
HETATM   18  C8  UNL     1      37.668  -1.115 -38.132  1.00  0.00    -0.039 A 
HETATM   19  C9  UNL     1      36.352  -0.775 -37.990  1.00  0.00     0.010 A 
HETATM   20  C10 UNL     1      35.868   0.471 -38.364  1.00  0.00     0.026 A 
HETATM   21  C11 UNL     1      36.726   1.404 -38.893  1.00  0.00     0.055 A 
HETATM   22 CL1  UNL     1      36.122   2.982 -39.368  1.00  0.00    -0.083 Cl
HETATM   23  C12 UNL     1      38.053   1.081 -39.043  1.00  0.00     0.056 A 
HETATM   24 CL2  UNL     1      39.142   2.277 -39.721  1.00  0.00    -0.083 Cl
HETATM   25  C13 UNL     1      38.525  -0.184 -38.661  1.00  0.00     0.034 A 
ENDBRANCH  17  18
ENDBRANCH  15  17
ENDBRANCH   8  15
BRANCH   9  26
HETATM   26  C15 UNL     1      39.251  -5.999 -37.411  1.00  0.00     0.108 A 
HETATM   27  C16 UNL     1      39.523  -7.171 -36.792  1.00  0.00     0.043 A 
HETATM   28  C17 UNL     1      39.475  -6.995 -35.423  1.00  0.00     0.053 A 
HETATM   29  C18 UNL     1      39.167  -5.674 -35.250  1.00  0.00     0.145 A 
HETATM   30 CL3  UNL     1      38.985  -4.920 -33.662  1.00  0.00    -0.057 Cl
HETATM   31  O1  UNL     1      39.047  -5.136 -36.404  1.00  0.00    -0.296 OA
ENDBRANCH   9  26
BRANCH  13  32
HETATM   32  C20 UNL     1      38.714  -7.241 -42.966  1.00  0.00     0.173 C 
BRANCH  32  33
HETATM   33  C21 UNL     1      37.717  -8.201 -42.355  1.00  0.00     0.185 C 
BRANCH  33  34
HETATM   34  O2  UNL     1      38.365  -9.109 -41.512  1.00  0.00    -0.399 OA
ATOM     35  H2  UNL     1      38.258  -8.854 -40.602  1.00  0.00     0.209 HD
ENDBRANCH  33  34
ENDBRANCH  32  33
ENDBRANCH  13  32
TORSDOF 7
ENDMDL
MODEL 5
REMARK VINA RESULT: -8.509674844      2.778      5.305
REMARK  7 active torsions:
REMARK  status: ('A' for Active; 'I' for Inactive)
REMARK    1  A    between atoms: C6_8  and  N3_9 
REMARK    2  A    between atoms: N3_9  and  C7_11 
REMARK    3  A    between atoms: C7_11  and  C8_12 
REMARK    4  A    between atoms: C14_20  and  C15_21 
REMARK    5  A    between atoms: N5_30  and  C20_31 
REMARK    6  A    between atoms: C20_31  and  C21_32 
REMARK    7  A    between atoms: C21_32  and  O2_33 
ROOT
HETATM    1  C1  UNL     1      38.563  -8.897 -43.906  1.00  0.00     0.148 C 
HETATM    2  N1  UNL     1      37.564  -7.857 -43.863  1.00  0.00    -0.392 N 
HETATM    3  C2  UNL     1      37.057  -7.479 -45.128  1.00  0.00     0.128 C 
HETATM    4  C3  UNL     1      37.813  -6.338 -45.764  1.00  0.00     0.080 C 
HETATM    5  C4  UNL     1      38.097  -5.266 -44.764  1.00  0.00     0.060 A 
HETATM    6  C5  UNL     1      38.073  -5.527 -43.431  1.00  0.00     0.097 A 
HETATM    7  N2  UNL     1      38.359  -4.380 -42.772  1.00  0.00    -0.127 N 
HETATM    8  C6  UNL     1      38.520  -3.838 -41.491  1.00  0.00     0.156 A 
HETATM    9  C14 UNL     1      38.828  -2.531 -41.662  1.00  0.00     0.128 A 
HETATM   10  N4  UNL     1      38.841  -2.292 -43.044  1.00  0.00    -0.184 N 
ATOM     11  H4  UNL     1      39.037  -1.396 -43.491  1.00  0.00     0.184 HD
HETATM   12  C19 UNL     1      38.556  -3.432 -43.676  1.00  0.00     0.694 A 
HETATM   13  N5  UNL     1      38.391  -3.992 -44.912  1.00  0.00    -0.182 N 
HETATM   14  C22 UNL     1      37.783  -6.860 -42.896  1.00  0.00     0.118 C 
ENDROOT
BRANCH   8  15
HETATM   15  N3  UNL     1      38.274  -4.616 -40.353  1.00  0.00    -0.369 N 
ATOM     16  H3  UNL     1      37.323  -4.571 -39.985  1.00  0.00     0.161 HD
BRANCH  15  17
HETATM   17  C7  UNL     1      39.164  -5.456 -39.647  1.00  0.00     0.160 C 
BRANCH  17  18
HETATM   18  C8  UNL     1      39.273  -5.043 -38.200  1.00  0.00    -0.039 A 
HETATM   19  C9  UNL     1      39.473  -5.912 -37.165  1.00  0.00     0.010 A 
HETATM   20  C10 UNL     1      39.566  -5.481 -35.849  1.00  0.00     0.026 A 
HETATM   21  C11 UNL     1      39.456  -4.143 -35.560  1.00  0.00     0.055 A 
HETATM   22 CL1  UNL     1      39.572  -3.589 -33.899  1.00  0.00    -0.083 Cl
HETATM   23  C12 UNL     1      39.255  -3.253 -36.589  1.00  0.00     0.056 A 
HETATM   24 CL2  UNL     1      39.115  -1.546 -36.213  1.00  0.00    -0.083 Cl
HETATM   25  C13 UNL     1      39.163  -3.706 -37.914  1.00  0.00     0.034 A 
ENDBRANCH  17  18
ENDBRANCH  15  17
ENDBRANCH   8  15
BRANCH   9  26
HETATM   26  C15 UNL     1      39.255  -1.482 -40.744  1.00  0.00     0.108 A 
HETATM   27  C16 UNL     1      38.733  -0.336 -40.248  1.00  0.00     0.043 A 
HETATM   28  C17 UNL     1      39.635   0.247 -39.379  1.00  0.00     0.053 A 
HETATM   29  C18 UNL     1      40.712  -0.595 -39.376  1.00  0.00     0.145 A 
HETATM   30 CL3  UNL     1      42.166  -0.306 -38.413  1.00  0.00    -0.057 Cl
HETATM   31  O1  UNL     1      40.462  -1.570 -40.163  1.00  0.00    -0.296 OA
ENDBRANCH   9  26
BRANCH  13  32
HETATM   32  C20 UNL     1      38.533  -3.235 -46.138  1.00  0.00     0.173 C 
BRANCH  32  33
HETATM   33  C21 UNL     1      39.963  -2.799 -46.369  1.00  0.00     0.185 C 
BRANCH  33  34
HETATM   34  O2  UNL     1      40.810  -3.911 -46.428  1.00  0.00    -0.399 OA
ATOM     35  H2  UNL     1      40.651  -4.409 -47.221  1.00  0.00     0.209 HD
ENDBRANCH  33  34
ENDBRANCH  32  33
ENDBRANCH  13  32
TORSDOF 7
ENDMDL
