MODEL 1
REMARK VINA RESULT: -8.634719189      0.000      0.000
REMARK  5 active torsions:
REMARK  status: ('A' for Active; 'I' for Inactive)
REMARK    1  A    between atoms: C2_2  and  C3_3 
REMARK    2  A    between atoms: C3_3  and  N1_4 
REMARK    3  A    between atoms: C8_9  and  C9_10 
REMARK    4  A    between atoms: N2_14  and  C11_15 
REMARK    5  A    between atoms: C14_19  and  C15_20 
ROOT
HETATM    1  C11 UNL     1      38.138  -6.142 -41.587  1.00  0.00     0.082 A 
HETATM    2  C12 UNL     1      38.235  -4.751 -41.501  1.00  0.00     0.058 A 
HETATM    3  C13 UNL     1      38.794  -4.040 -42.541  1.00  0.00     0.049 A 
HETATM    4 CL1  UNL     1      38.841  -2.293 -42.423  1.00  0.00    -0.083 Cl
HETATM    5  C14 UNL     1      39.272  -4.630 -43.685  1.00  0.00     0.029 A 
HETATM    6  C19 UNL     1      39.154  -6.027 -43.732  1.00  0.00     0.169 A 
HETATM    7  F1  UNL     1      39.603  -6.693 -44.832  1.00  0.00    -0.202 F 
HETATM    8  C20 UNL     1      38.601  -6.755 -42.708  1.00  0.00     0.182 A 
HETATM    9  F2  UNL     1      38.503  -8.103 -42.788  1.00  0.00    -0.200 F 
ENDROOT
BRANCH   1  10
HETATM   10  N2  UNL     1      37.545  -6.815 -40.473  1.00  0.00    -0.321 N 
HETATM   11  C6  UNL     1      38.101  -7.039 -39.294  1.00  0.00     0.027 A 
HETATM   12  C5  UNL     1      39.440  -6.696 -38.767  1.00  0.00     0.088 C 
HETATM   13  C7  UNL     1      37.189  -7.709 -38.514  1.00  0.00     0.011 A 
HETATM   14  C4  UNL     1      39.541  -6.600 -37.296  1.00  0.00     0.279 C 
HETATM   15  N1  UNL     1      38.417  -7.025 -36.547  1.00  0.00     0.093 N 
HETATM   16  C21 UNL     1      37.622  -8.053 -37.137  1.00  0.00     0.314 C 
HETATM   17  C8  UNL     1      36.062  -7.885 -39.255  1.00  0.00     0.066 A 
HETATM   18  C10 UNL     1      36.301  -7.320 -40.481  1.00  0.00     0.116 A 
BRANCH  15  19
HETATM   19  C3  UNL     1      37.603  -5.987 -36.006  1.00  0.00     0.272 C 
BRANCH  19  20
HETATM   20  C2  UNL     1      38.338  -4.722 -35.672  1.00  0.00     0.026 C 
HETATM   21  C1  UNL     1      38.647  -4.583 -34.209  1.00  0.00     0.007 C 
ENDBRANCH  19  20
ENDBRANCH  15  19
BRANCH  17  22
HETATM   22  C9  UNL     1      34.843  -8.559 -38.794  1.00  0.00     0.211 C 
HETATM   23  O1  UNL     1      34.020  -7.845 -38.143  1.00  0.00    -0.644 OA
HETATM   24  O2  UNL     1      34.592  -9.876 -39.040  1.00  0.00    -0.644 OA
ENDBRANCH  17  22
ENDBRANCH   1  10
BRANCH   5  25
HETATM   25  C15 UNL     1      39.910  -3.969 -44.789  1.00  0.00     0.041 C 
HETATM   26  C16 UNL     1      39.386  -3.256 -45.732  1.00  0.00     0.079 C 
HETATM   27  S1  UNL     1      40.325  -2.471 -47.099  1.00  0.00    -0.024 SA
HETATM   28  C18 UNL     1      38.039  -2.795 -46.040  1.00  0.00     0.266 C 
HETATM   29  C17 UNL     1      38.909  -2.599 -48.252  1.00  0.00     0.291 C 
HETATM   30  O3  UNL     1      38.970  -2.769 -49.487  1.00  0.00    -0.260 OA
HETATM   31  N3  UNL     1      37.812  -2.457 -47.367  1.00  0.00    -0.283 N 
ATOM     32  H3  UNL     1      36.904  -2.124 -47.688  1.00  0.00     0.172 HD
HETATM   33  O4  UNL     1      37.137  -2.711 -45.121  1.00  0.00    -0.267 OA
ENDBRANCH   5  25
TORSDOF 5
ENDMDL
MODEL 2
REMARK VINA RESULT: -8.526049958      5.692      9.162
REMARK  5 active torsions:
REMARK  status: ('A' for Active; 'I' for Inactive)
REMARK    1  A    between atoms: C2_2  and  C3_3 
REMARK    2  A    between atoms: C3_3  and  N1_4 
REMARK    3  A    between atoms: C8_9  and  C9_10 
REMARK    4  A    between atoms: N2_14  and  C11_15 
REMARK    5  A    between atoms: C14_19  and  C15_20 
ROOT
HETATM    1  C11 UNL     1      38.907  -3.665 -38.180  1.00  0.00     0.082 A 
HETATM    2  C12 UNL     1      39.007  -4.707 -39.105  1.00  0.00     0.058 A 
HETATM    3  C13 UNL     1      38.610  -5.978 -38.748  1.00  0.00     0.049 A 
HETATM    4 CL1  UNL     1      38.692  -7.245 -39.955  1.00  0.00    -0.083 Cl
HETATM    5  C14 UNL     1      38.111  -6.289 -37.507  1.00  0.00     0.029 A 
HETATM    6  C19 UNL     1      38.026  -5.215 -36.609  1.00  0.00     0.169 A 
HETATM    7  F1  UNL     1      37.541  -5.436 -35.356  1.00  0.00    -0.202 F 
HETATM    8  C20 UNL     1      38.415  -3.941 -36.945  1.00  0.00     0.182 A 
HETATM    9  F2  UNL     1      38.318  -2.929 -36.051  1.00  0.00    -0.200 F 
ENDROOT
BRANCH   1  10
HETATM   10  N2  UNL     1      39.334  -2.372 -38.620  1.00  0.00    -0.321 N 
HETATM   11  C6  UNL     1      38.628  -1.500 -39.319  1.00  0.00     0.027 A 
HETATM   12  C5  UNL     1      37.250  -1.565 -39.854  1.00  0.00     0.088 C 
HETATM   13  C7  UNL     1      39.409  -0.387 -39.523  1.00  0.00     0.011 A 
HETATM   14  C4  UNL     1      36.599  -0.262 -40.099  1.00  0.00     0.279 C 
HETATM   15  N1  UNL     1      37.410   0.893 -39.981  1.00  0.00     0.093 N 
HETATM   16  C21 UNL     1      38.792   0.723 -40.291  1.00  0.00     0.314 C 
HETATM   17  C8  UNL     1      40.611  -0.611 -38.926  1.00  0.00     0.066 A 
HETATM   18  C10 UNL     1      40.548  -1.860 -38.364  1.00  0.00     0.116 A 
BRANCH  15  19
HETATM   19  C3  UNL     1      37.237   1.655 -38.789  1.00  0.00     0.272 C 
BRANCH  19  20
HETATM   20  C2  UNL     1      35.810   1.958 -38.439  1.00  0.00     0.026 C 
HETATM   21  C1  UNL     1      35.433   3.394 -38.669  1.00  0.00     0.007 C 
ENDBRANCH  19  20
ENDBRANCH  15  19
BRANCH  17  22
HETATM   22  C9  UNL     1      41.736   0.331 -38.910  1.00  0.00     0.211 C 
HETATM   23  O1  UNL     1      42.838  -0.121 -38.469  1.00  0.00    -0.644 OA
HETATM   24  O2  UNL     1      41.623   1.619 -39.338  1.00  0.00    -0.644 OA
ENDBRANCH  17  22
ENDBRANCH   1  10
BRANCH   5  25
HETATM   25  C15 UNL     1      37.723  -7.591 -37.040  1.00  0.00     0.041 C 
HETATM   26  C16 UNL     1      36.624  -8.242 -37.244  1.00  0.00     0.079 C 
HETATM   27  S1  UNL     1      36.252  -9.909 -36.575  1.00  0.00    -0.024 SA
HETATM   28  C18 UNL     1      35.415  -7.994 -38.018  1.00  0.00     0.266 C 
HETATM   29  C17 UNL     1      34.455  -9.567 -36.504  1.00  0.00     0.291 C 
HETATM   30  O3  UNL     1      33.645 -10.017 -35.668  1.00  0.00    -0.260 OA
HETATM   31  N3  UNL     1      34.291  -8.699 -37.611  1.00  0.00    -0.283 N 
ATOM     32  H3  UNL     1      33.394  -8.597 -38.084  1.00  0.00     0.172 HD
HETATM   33  O4  UNL     1      35.417  -7.173 -39.013  1.00  0.00    -0.267 OA
ENDBRANCH   5  25
TORSDOF 5
ENDMDL
MODEL 3
REMARK VINA RESULT: -8.391811152      5.174      6.342
REMARK  5 active torsions:
REMARK  status: ('A' for Active; 'I' for Inactive)
REMARK    1  A    between atoms: C2_2  and  C3_3 
REMARK    2  A    between atoms: C3_3  and  N1_4 
REMARK    3  A    between atoms: C8_9  and  C9_10 
REMARK    4  A    between atoms: N2_14  and  C11_15 
REMARK    5  A    between atoms: C14_19  and  C15_20 
ROOT
HETATM    1  C11 UNL     1      39.119  -5.925 -36.571  1.00  0.00     0.082 A 
HETATM    2  C12 UNL     1      39.263  -4.857 -35.683  1.00  0.00     0.058 A 
HETATM    3  C13 UNL     1      39.527  -3.595 -36.170  1.00  0.00     0.049 A 
HETATM    4 CL1  UNL     1      39.638  -2.269 -35.030  1.00  0.00    -0.083 Cl
HETATM    5  C14 UNL     1      39.662  -3.318 -37.508  1.00  0.00     0.029 A 
HETATM    6  C19 UNL     1      39.510  -4.418 -38.365  1.00  0.00     0.169 A 
HETATM    7  F1  UNL     1      39.627  -4.232 -39.709  1.00  0.00    -0.202 F 
HETATM    8  C20 UNL     1      39.245  -5.683 -37.901  1.00  0.00     0.182 A 
HETATM    9  F2  UNL     1      39.104  -6.721 -38.759  1.00  0.00    -0.200 F 
ENDROOT
BRANCH   1  10
HETATM   10  N2  UNL     1      38.842  -7.206 -35.996  1.00  0.00    -0.321 N 
HETATM   11  C6  UNL     1      37.672  -7.820 -35.953  1.00  0.00     0.027 A 
HETATM   12  C5  UNL     1      36.338  -7.412 -36.448  1.00  0.00     0.088 C 
HETATM   13  C7  UNL     1      37.847  -9.027 -35.320  1.00  0.00     0.011 A 
HETATM   14  C4  UNL     1      35.396  -8.516 -36.726  1.00  0.00     0.279 C 
HETATM   15  N1  UNL     1      35.790  -9.814 -36.318  1.00  0.00     0.093 N 
HETATM   16  C21 UNL     1      36.641  -9.879 -35.174  1.00  0.00     0.314 C 
HETATM   17  C8  UNL     1      39.160  -9.128 -34.979  1.00  0.00     0.066 A 
HETATM   18  C10 UNL     1      39.771  -7.977 -35.409  1.00  0.00     0.116 A 
BRANCH  15  19
HETATM   19  C3  UNL     1      36.247 -10.680 -37.353  1.00  0.00     0.272 C 
BRANCH  19  20
HETATM   20  C2  UNL     1      36.219 -10.081 -38.729  1.00  0.00     0.026 C 
HETATM   21  C1  UNL     1      37.588  -9.812 -39.287  1.00  0.00     0.007 C 
ENDBRANCH  19  20
ENDBRANCH  15  19
BRANCH  17  22
HETATM   22  C9  UNL     1      39.768 -10.266 -34.281  1.00  0.00     0.211 C 
HETATM   23  O1  UNL     1      39.789 -10.200 -33.013  1.00  0.00    -0.644 OA
HETATM   24  O2  UNL     1      40.287 -11.340 -34.940  1.00  0.00    -0.644 OA
ENDBRANCH  17  22
ENDBRANCH   1  10
BRANCH   5  25
HETATM   25  C15 UNL     1      39.985  -2.047 -38.093  1.00  0.00     0.041 C 
HETATM   26  C16 UNL     1      39.196  -1.102 -38.488  1.00  0.00     0.079 C 
HETATM   27  S1  UNL     1      39.747   0.482 -39.233  1.00  0.00    -0.024 SA
HETATM   28  C18 UNL     1      37.754  -0.894 -38.467  1.00  0.00     0.266 C 
HETATM   29  C17 UNL     1      38.226   0.630 -40.240  1.00  0.00     0.291 C 
HETATM   30  O3  UNL     1      38.131   1.149 -41.371  1.00  0.00    -0.260 OA
HETATM   31  N3  UNL     1      37.269   0.016 -39.394  1.00  0.00    -0.283 N 
ATOM     32  H3  UNL     1      36.275   0.233 -39.464  1.00  0.00     0.172 HD
HETATM   33  O4  UNL     1      37.003  -1.524 -37.629  1.00  0.00    -0.267 OA
ENDBRANCH   5  25
TORSDOF 5
ENDMDL
MODEL 4
REMARK VINA RESULT: -8.385054152      4.991      8.803
REMARK  5 active torsions:
REMARK  status: ('A' for Active; 'I' for Inactive)
REMARK    1  A    between atoms: C2_2  and  C3_3 
REMARK    2  A    between atoms: C3_3  and  N1_4 
REMARK    3  A    between atoms: C8_9  and  C9_10 
REMARK    4  A    between atoms: N2_14  and  C11_15 
REMARK    5  A    between atoms: C14_19  and  C15_20 
ROOT
HETATM    1  C11 UNL     1      39.110  -4.386 -38.440  1.00  0.00     0.082 A 
HETATM    2  C12 UNL     1      38.650  -4.457 -37.123  1.00  0.00     0.058 A 
HETATM    3  C13 UNL     1      38.263  -5.672 -36.600  1.00  0.00     0.049 A 
HETATM    4 CL1  UNL     1      37.752  -5.733 -34.926  1.00  0.00    -0.083 Cl
HETATM    5  C14 UNL     1      38.303  -6.846 -37.313  1.00  0.00     0.029 A 
HETATM    6  C19 UNL     1      38.772  -6.730 -38.630  1.00  0.00     0.169 A 
HETATM    7  F1  UNL     1      38.845  -7.845 -39.407  1.00  0.00    -0.202 F 
HETATM    8  C20 UNL     1      39.163  -5.529 -39.171  1.00  0.00     0.182 A 
HETATM    9  F2  UNL     1      39.611  -5.456 -40.446  1.00  0.00    -0.200 F 
ENDROOT
BRANCH   1  10
HETATM   10  N2  UNL     1      39.498  -3.093 -38.916  1.00  0.00    -0.321 N 
HETATM   11  C6  UNL     1      38.972  -2.432 -39.933  1.00  0.00     0.027 A 
HETATM   12  C5  UNL     1      37.880  -2.787 -40.866  1.00  0.00     0.088 C 
HETATM   13  C7  UNL     1      39.631  -1.231 -40.046  1.00  0.00     0.011 A 
HETATM   14  C4  UNL     1      37.196  -1.646 -41.510  1.00  0.00     0.279 C 
HETATM   15  N1  UNL     1      37.768  -0.364 -41.319  1.00  0.00     0.093 N 
HETATM   16  C21 UNL     1      39.182  -0.330 -41.137  1.00  0.00     0.314 C 
HETATM   17  C8  UNL     1      40.574  -1.183 -39.066  1.00  0.00     0.066 A 
HETATM   18  C10 UNL     1      40.478  -2.359 -38.366  1.00  0.00     0.116 A 
BRANCH  15  19
HETATM   19  C3  UNL     1      37.104   0.479 -40.382  1.00  0.00     0.272 C 
BRANCH  19  20
HETATM   20  C2  UNL     1      36.038  -0.199 -39.572  1.00  0.00     0.026 C 
HETATM   21  C1  UNL     1      36.444  -0.449 -38.147  1.00  0.00     0.007 C 
ENDBRANCH  19  20
ENDBRANCH  15  19
BRANCH  17  22
HETATM   22  C9  UNL     1      41.499  -0.068 -38.836  1.00  0.00     0.211 C 
HETATM   23  O1  UNL     1      42.646  -0.376 -38.385  1.00  0.00    -0.644 OA
HETATM   24  O2  UNL     1      41.165   1.229 -39.086  1.00  0.00    -0.644 OA
ENDBRANCH  17  22
ENDBRANCH   1  10
BRANCH   5  25
HETATM   25  C15 UNL     1      37.874  -8.139 -36.861  1.00  0.00     0.041 C 
HETATM   26  C16 UNL     1      36.725  -8.716 -36.999  1.00  0.00     0.079 C 
HETATM   27  S1  UNL     1      36.304 -10.384 -36.359  1.00  0.00    -0.024 SA
HETATM   28  C18 UNL     1      35.476  -8.369 -37.666  1.00  0.00     0.266 C 
HETATM   29  C17 UNL     1      34.542  -9.941 -36.135  1.00  0.00     0.291 C 
HETATM   30  O3  UNL     1      33.773 -10.375 -35.252  1.00  0.00    -0.260 OA
HETATM   31  N3  UNL     1      34.347  -9.022 -37.195  1.00  0.00    -0.283 N 
ATOM     32  H3  UNL     1      33.424  -8.850 -37.592  1.00  0.00     0.172 HD
HETATM   33  O4  UNL     1      35.453  -7.512 -38.630  1.00  0.00    -0.267 OA
ENDBRANCH   5  25
TORSDOF 5
ENDMDL
MODEL 5
REMARK VINA RESULT: -8.337975419      1.705      1.788
REMARK  5 active torsions:
REMARK  status: ('A' for Active; 'I' for Inactive)
REMARK    1  A    between atoms: C2_2  and  C3_3 
REMARK    2  A    between atoms: C3_3  and  N1_4 
REMARK    3  A    between atoms: C8_9  and  C9_10 
REMARK    4  A    between atoms: N2_14  and  C11_15 
REMARK    5  A    between atoms: C14_19  and  C15_20 
ROOT
HETATM    1  C11 UNL     1      37.678  -5.913 -42.278  1.00  0.00     0.082 A 
HETATM    2  C12 UNL     1      37.702  -4.519 -42.189  1.00  0.00     0.058 A 
HETATM    3  C13 UNL     1      37.954  -3.768 -43.317  1.00  0.00     0.049 A 
HETATM    4 CL1  UNL     1      37.914  -2.022 -43.179  1.00  0.00    -0.083 Cl
HETATM    5  C14 UNL     1      38.189  -4.319 -44.552  1.00  0.00     0.029 A 
HETATM    6  C19 UNL     1      38.155  -5.721 -44.598  1.00  0.00     0.169 A 
HETATM    7  F1  UNL     1      38.377  -6.350 -45.785  1.00  0.00    -0.202 F 
HETATM    8  C20 UNL     1      37.905  -6.489 -43.487  1.00  0.00     0.182 A 
HETATM    9  F2  UNL     1      37.880  -7.840 -43.570  1.00  0.00    -0.200 F 
ENDROOT
BRANCH   1  10
HETATM   10  N2  UNL     1      37.407  -6.630 -41.070  1.00  0.00    -0.321 N 
HETATM   11  C6  UNL     1      38.171  -6.685 -39.993  1.00  0.00     0.027 A 
HETATM   12  C5  UNL     1      39.484  -6.070 -39.696  1.00  0.00     0.088 C 
HETATM   13  C7  UNL     1      37.539  -7.475 -39.062  1.00  0.00     0.011 A 
HETATM   14  C4  UNL     1      39.790  -5.883 -38.262  1.00  0.00     0.279 C 
HETATM   15  N1  UNL     1      38.900  -6.474 -37.333  1.00  0.00     0.093 N 
HETATM   16  C21 UNL     1      38.239  -7.662 -37.767  1.00  0.00     0.314 C 
HETATM   17  C8  UNL     1      36.367  -7.898 -39.608  1.00  0.00     0.066 A 
HETATM   18  C10 UNL     1      36.299  -7.360 -40.868  1.00  0.00     0.116 A 
BRANCH  15  19
HETATM   19  C3  UNL     1      37.994  -5.583 -36.688  1.00  0.00     0.272 C 
BRANCH  19  20
HETATM   20  C2  UNL     1      38.636  -4.607 -35.746  1.00  0.00     0.026 C 
HETATM   21  C1  UNL     1      38.516  -5.008 -34.303  1.00  0.00     0.007 C 
ENDBRANCH  19  20
ENDBRANCH  15  19
BRANCH  17  22
HETATM   22  C9  UNL     1      35.389  -8.766 -38.943  1.00  0.00     0.211 C 
HETATM   23  O1  UNL     1      34.219  -8.290 -38.806  1.00  0.00    -0.644 OA
HETATM   24  O2  UNL     1      35.699 -10.014 -38.492  1.00  0.00    -0.644 OA
ENDBRANCH  17  22
ENDBRANCH   1  10
BRANCH   5  25
HETATM   25  C15 UNL     1      38.507  -3.612 -45.761  1.00  0.00     0.041 C 
HETATM   26  C16 UNL     1      39.651  -3.176 -46.179  1.00  0.00     0.079 C 
HETATM   27  S1  UNL     1      39.917  -2.271 -47.754  1.00  0.00    -0.024 SA
HETATM   28  C18 UNL     1      41.019  -3.248 -45.684  1.00  0.00     0.266 C 
HETATM   29  C17 UNL     1      41.329  -1.330 -47.067  1.00  0.00     0.291 C 
HETATM   30  O3  UNL     1      41.660  -0.164 -47.366  1.00  0.00    -0.260 OA
HETATM   31  N3  UNL     1      41.879  -2.271 -46.162  1.00  0.00    -0.283 N 
ATOM     32  H3  UNL     1      42.857  -2.231 -45.877  1.00  0.00     0.172 HD
HETATM   33  O4  UNL     1      41.381  -4.173 -44.860  1.00  0.00    -0.267 OA
ENDBRANCH   5  25
TORSDOF 5
ENDMDL
