MODEL 1
REMARK VINA RESULT: -6.682152698      0.000      0.000
REMARK  5 active torsions:
REMARK  status: ('A' for Active; 'I' for Inactive)
REMARK       I    between atoms: C1_2  and  N2_4 
REMARK    1  A    between atoms: C4_7  and  C5_8 
REMARK    2  A    between atoms: C5_8  and  C6_9 
REMARK       I    between atoms: C6_9  and  N3_11 
REMARK    3  A    between atoms: N3_11  and  C7_13 
REMARK    4  A    between atoms: C8_18  and  C9_19 
REMARK    5  A    between atoms: C20_31  and  C21_32 
ROOT
HETATM    1  C7  UNL     1      -9.820  10.899  17.044  1.00  0.00     0.131 A 
HETATM    2  N4  UNL     1      -9.035  10.083  17.708  1.00  0.00    -0.285 N 
ATOM      3  H4  UNL     1      -8.810   9.124  17.444  1.00  0.00     0.188 HD
HETATM    4  N5  UNL     1      -8.583  10.718  18.782  1.00  0.00    -0.302 N 
ATOM      5  H5  UNL     1      -7.951  10.311  19.472  1.00  0.00     0.186 HD
HETATM    6  C8  UNL     1      -9.073  11.976  18.837  1.00  0.00     0.045 A 
HETATM    7  C20 UNL     1      -9.861  12.128  17.755  1.00  0.00     0.016 A 
ENDROOT
BRANCH   1   8
HETATM    8  N3  UNL     1     -10.443  10.689  15.993  1.00  0.00    -0.312 N 
HETATM    9  C6  UNL     1     -11.107   9.653  15.392  1.00  0.00     0.223 C 
HETATM   10  O2  UNL     1     -11.410   8.561  15.906  1.00  0.00    -0.273 OA
ATOM     11  H3  UNL     1     -10.468  11.526  15.410  1.00  0.00     0.170 HD
BRANCH   9  12
HETATM   12  C5  UNL     1     -11.502   9.892  13.945  1.00  0.00     0.108 C 
BRANCH  12  13
HETATM   13  C4  UNL     1     -11.970   8.558  13.414  1.00  0.00    -0.003 C 
HETATM   14  C3  UNL     1     -11.082   8.142  12.284  1.00  0.00     0.025 C 
HETATM   15  C2  UNL     1     -11.900   7.591  11.122  1.00  0.00     0.127 C 
HETATM   16  N2  UNL     1     -12.917   8.599  10.784  1.00  0.00    -0.337 N 
HETATM   17  C1  UNL     1     -13.116   9.037   9.469  1.00  0.00     0.330 C 
HETATM   18  C25 UNL     1     -13.761   9.177  11.832  1.00  0.00     0.127 C 
HETATM   19  N1  UNL     1     -12.362   8.507   8.407  1.00  0.00    -0.040 NA
HETATM   20  O1  UNL     1     -13.969   9.917   9.180  1.00  0.00    -0.251 OA
HETATM   21  C24 UNL     1     -13.434   8.497  13.116  1.00  0.00     0.025 C 
ENDBRANCH  12  13
ENDBRANCH   9  12
ENDBRANCH   1   8
BRANCH   7  22
HETATM   22  C21 UNL     1     -10.597  13.232  17.225  1.00  0.00     0.024 A 
HETATM   23  C22 UNL     1     -10.909  14.576  17.644  1.00  0.00     0.010 A 
HETATM   24  C23 UNL     1     -11.961  13.543  17.833  1.00  0.00     0.010 A 
ENDBRANCH   7  22
BRANCH   6  25
HETATM   25  C9  UNL     1      -8.694  12.903  19.921  1.00  0.00     0.005 C 
HETATM   26  C10 UNL     1      -7.953  14.090  19.480  1.00  0.00     0.020 C 
HETATM   27  C11 UNL     1      -7.267  14.891  20.569  1.00  0.00    -0.012 C 
HETATM   28  C12 UNL     1      -6.468  14.066  21.506  1.00  0.00     0.009 C 
HETATM   29  C18 UNL     1      -8.188  15.862  21.226  1.00  0.00     0.025 C 
HETATM   30  C13 UNL     1      -7.180  12.850  21.946  1.00  0.00    -0.013 C 
HETATM   31  C14 UNL     1      -8.296  13.227  22.893  1.00  0.00     0.011 C 
HETATM   32  C19 UNL     1      -7.671  12.082  20.779  1.00  0.00     0.020 C 
HETATM   33  C15 UNL     1      -9.450  13.859  22.141  1.00  0.00     0.005 C 
HETATM   34  C16 UNL     1      -9.805  13.131  20.865  1.00  0.00     0.022 C 
HETATM   35  C17 UNL     1      -9.310  15.324  22.000  1.00  0.00     0.086 C 
HETATM   36 CL1  UNL     1     -10.908  16.025  21.552  1.00  0.00    -0.125 Cl
ENDBRANCH   6  25
TORSDOF 5
ENDMDL
MODEL 2
REMARK VINA RESULT: -6.612828301      1.062      1.749
REMARK  5 active torsions:
REMARK  status: ('A' for Active; 'I' for Inactive)
REMARK       I    between atoms: C1_2  and  N2_4 
REMARK    1  A    between atoms: C4_7  and  C5_8 
REMARK    2  A    between atoms: C5_8  and  C6_9 
REMARK       I    between atoms: C6_9  and  N3_11 
REMARK    3  A    between atoms: N3_11  and  C7_13 
REMARK    4  A    between atoms: C8_18  and  C9_19 
REMARK    5  A    between atoms: C20_31  and  C21_32 
ROOT
HETATM    1  C7  UNL     1      -9.818  10.852  17.052  1.00  0.00     0.131 A 
HETATM    2  N4  UNL     1      -9.050  10.017  17.713  1.00  0.00    -0.285 N 
ATOM      3  H4  UNL     1      -8.865   9.047  17.459  1.00  0.00     0.188 HD
HETATM    4  N5  UNL     1      -8.555  10.650  18.770  1.00  0.00    -0.302 N 
ATOM      5  H5  UNL     1      -7.925  10.230  19.453  1.00  0.00     0.186 HD
HETATM    6  C8  UNL     1      -8.998  11.926  18.816  1.00  0.00     0.045 A 
HETATM    7  C20 UNL     1      -9.802  12.091  17.746  1.00  0.00     0.016 A 
ENDROOT
BRANCH   1   8
HETATM    8  N3  UNL     1     -10.469  10.650  16.016  1.00  0.00    -0.312 N 
HETATM    9  C6  UNL     1     -11.150   9.619  15.425  1.00  0.00     0.223 C 
HETATM   10  O2  UNL     1     -11.440   8.524  15.939  1.00  0.00    -0.273 OA
ATOM     11  H3  UNL     1     -10.509  11.492  15.441  1.00  0.00     0.170 HD
BRANCH   9  12
HETATM   12  C5  UNL     1     -11.582   9.870  13.991  1.00  0.00     0.108 C 
BRANCH  12  13
HETATM   13  C4  UNL     1     -11.993   8.525  13.438  1.00  0.00    -0.003 C 
HETATM   14  C3  UNL     1     -11.076   8.158  12.314  1.00  0.00     0.025 C 
HETATM   15  C2  UNL     1     -11.858   7.591  11.136  1.00  0.00     0.127 C 
HETATM   16  N2  UNL     1     -12.910   8.564  10.798  1.00  0.00    -0.337 N 
HETATM   17  C1  UNL     1     -13.110   9.010   9.486  1.00  0.00     0.330 C 
HETATM   18  C25 UNL     1     -13.787   9.095  11.843  1.00  0.00     0.127 C 
HETATM   19  N1  UNL     1     -12.324   8.523   8.427  1.00  0.00    -0.040 NA
HETATM   20  O1  UNL     1     -13.993   9.860   9.198  1.00  0.00    -0.251 OA
HETATM   21  C24 UNL     1     -13.449   8.412  13.122  1.00  0.00     0.025 C 
ENDBRANCH  12  13
ENDBRANCH   9  12
ENDBRANCH   1   8
BRANCH   7  22
HETATM   22  C21 UNL     1     -10.508  13.213  17.215  1.00  0.00     0.024 A 
HETATM   23  C22 UNL     1     -10.873  14.530  17.675  1.00  0.00     0.010 A 
HETATM   24  C23 UNL     1     -11.921  13.477  17.721  1.00  0.00     0.010 A 
ENDBRANCH   7  22
BRANCH   6  25
HETATM   25  C9  UNL     1      -8.565  12.853  19.878  1.00  0.00     0.005 C 
HETATM   26  C10 UNL     1      -9.660  13.480  20.628  1.00  0.00     0.020 C 
HETATM   27  C11 UNL     1      -9.283  14.667  21.491  1.00  0.00    -0.012 C 
HETATM   28  C12 UNL     1      -8.451  15.676  20.793  1.00  0.00     0.009 C 
HETATM   29  C18 UNL     1      -8.769  14.256  22.829  1.00  0.00     0.025 C 
HETATM   30  C13 UNL     1      -7.356  15.070  20.011  1.00  0.00    -0.013 C 
HETATM   31  C14 UNL     1      -6.298  14.532  20.945  1.00  0.00     0.011 C 
HETATM   32  C19 UNL     1      -7.881  14.028  19.098  1.00  0.00     0.020 C 
HETATM   33  C15 UNL     1      -6.772  13.260  21.620  1.00  0.00     0.005 C 
HETATM   34  C16 UNL     1      -7.454  12.298  20.675  1.00  0.00     0.022 C 
HETATM   35  C17 UNL     1      -7.505  13.517  22.878  1.00  0.00     0.086 C 
HETATM   36 CL1  UNL     1      -7.589  11.989  23.830  1.00  0.00    -0.125 Cl
ENDBRANCH   6  25
TORSDOF 5
ENDMDL
MODEL 3
REMARK VINA RESULT: -6.517228836      1.301      1.685
REMARK  5 active torsions:
REMARK  status: ('A' for Active; 'I' for Inactive)
REMARK       I    between atoms: C1_2  and  N2_4 
REMARK    1  A    between atoms: C4_7  and  C5_8 
REMARK    2  A    between atoms: C5_8  and  C6_9 
REMARK       I    between atoms: C6_9  and  N3_11 
REMARK    3  A    between atoms: N3_11  and  C7_13 
REMARK    4  A    between atoms: C8_18  and  C9_19 
REMARK    5  A    between atoms: C20_31  and  C21_32 
ROOT
HETATM    1  C7  UNL     1      -9.632  10.287  17.824  1.00  0.00     0.131 A 
HETATM    2  N4  UNL     1      -8.733   9.739  18.608  1.00  0.00    -0.285 N 
ATOM      3  H4  UNL     1      -8.472   8.753  18.620  1.00  0.00     0.188 HD
HETATM    4  N5  UNL     1      -8.220  10.686  19.384  1.00  0.00    -0.302 N 
ATOM      5  H5  UNL     1      -7.497  10.530  20.087  1.00  0.00     0.186 HD
HETATM    6  C8  UNL     1      -8.784  11.884  19.115  1.00  0.00     0.045 A 
HETATM    7  C20 UNL     1      -9.684  11.673  18.134  1.00  0.00     0.016 A 
ENDROOT
BRANCH   1   8
HETATM    8  N3  UNL     1     -10.340   9.746  16.963  1.00  0.00    -0.312 N 
HETATM    9  C6  UNL     1     -11.613   9.252  16.853  1.00  0.00     0.223 C 
HETATM   10  O2  UNL     1     -12.539   9.385  17.674  1.00  0.00    -0.273 OA
ATOM     11  H3  UNL     1      -9.830   9.639  16.085  1.00  0.00     0.170 HD
BRANCH   9  12
HETATM   12  C5  UNL     1     -11.891   8.461  15.587  1.00  0.00     0.108 C 
BRANCH  12  13
HETATM   13  C4  UNL     1     -12.340   9.470  14.555  1.00  0.00    -0.003 C 
HETATM   14  C3  UNL     1     -13.531   8.930  13.829  1.00  0.00     0.025 C 
HETATM   15  C2  UNL     1     -13.410   9.170  12.329  1.00  0.00     0.127 C 
HETATM   16  N2  UNL     1     -12.112   8.626  11.900  1.00  0.00    -0.337 N 
HETATM   17  C1  UNL     1     -11.998   7.761  10.805  1.00  0.00     0.330 C 
HETATM   18  C25 UNL     1     -10.888   8.982  12.620  1.00  0.00     0.127 C 
HETATM   19  N1  UNL     1     -13.127   7.397  10.049  1.00  0.00    -0.040 NA
HETATM   20  O1  UNL     1     -10.892   7.275  10.450  1.00  0.00    -0.251 OA
HETATM   21  C24 UNL     1     -11.242   9.974  13.674  1.00  0.00     0.025 C 
ENDBRANCH  12  13
ENDBRANCH   9  12
ENDBRANCH   1   8
BRANCH   7  22
HETATM   22  C21 UNL     1     -10.540  12.537  17.386  1.00  0.00     0.024 A 
HETATM   23  C22 UNL     1     -10.960  13.914  17.466  1.00  0.00     0.010 A 
HETATM   24  C23 UNL     1     -11.902  12.883  17.976  1.00  0.00     0.010 A 
ENDBRANCH   7  22
BRANCH   6  25
HETATM   25  C9  UNL     1      -8.362  13.109  19.821  1.00  0.00     0.005 C 
HETATM   26  C10 UNL     1      -7.684  14.099  18.977  1.00  0.00     0.020 C 
HETATM   27  C11 UNL     1      -6.952  15.208  19.706  1.00  0.00    -0.012 C 
HETATM   28  C12 UNL     1      -6.072  14.727  20.797  1.00  0.00     0.009 C 
HETATM   29  C18 UNL     1      -7.855  16.332  20.085  1.00  0.00     0.025 C 
HETATM   30  C13 UNL     1      -6.721  13.711  21.649  1.00  0.00    -0.013 C 
HETATM   31  C14 UNL     1      -7.783  14.362  22.503  1.00  0.00     0.011 C 
HETATM   32  C19 UNL     1      -7.264  12.608  20.822  1.00  0.00     0.020 C 
HETATM   33  C15 UNL     1      -9.000  14.716  21.671  1.00  0.00     0.005 C 
HETATM   34  C16 UNL     1      -9.416  13.619  20.720  1.00  0.00     0.022 C 
HETATM   35  C17 UNL     1      -8.910  16.061  21.065  1.00  0.00     0.086 C 
HETATM   36 CL1  UNL     1     -10.552  16.575  20.530  1.00  0.00    -0.125 Cl
ENDBRANCH   6  25
TORSDOF 5
ENDMDL
MODEL 4
REMARK VINA RESULT: -6.482031278      4.003      5.726
REMARK  5 active torsions:
REMARK  status: ('A' for Active; 'I' for Inactive)
REMARK       I    between atoms: C1_2  and  N2_4 
REMARK    1  A    between atoms: C4_7  and  C5_8 
REMARK    2  A    between atoms: C5_8  and  C6_9 
REMARK       I    between atoms: C6_9  and  N3_11 
REMARK    3  A    between atoms: N3_11  and  C7_13 
REMARK    4  A    between atoms: C8_18  and  C9_19 
REMARK    5  A    between atoms: C20_31  and  C21_32 
ROOT
HETATM    1  C7  UNL     1      -8.164  11.631  19.993  1.00  0.00     0.131 A 
HETATM    2  N4  UNL     1      -6.958  12.107  20.204  1.00  0.00    -0.285 N 
ATOM      3  H4  UNL     1      -6.499  12.835  19.657  1.00  0.00     0.188 HD
HETATM    4  N5  UNL     1      -6.438  11.480  21.252  1.00  0.00    -0.302 N 
ATOM      5  H5  UNL     1      -5.508  11.660  21.631  1.00  0.00     0.186 HD
HETATM    6  C8  UNL     1      -7.307  10.571  21.747  1.00  0.00     0.045 A 
HETATM    7  C20 UNL     1      -8.410  10.636  20.976  1.00  0.00     0.016 A 
ENDROOT
BRANCH   1   8
HETATM    8  N3  UNL     1      -8.976  11.945  19.110  1.00  0.00    -0.312 N 
HETATM    9  C6  UNL     1      -9.247  13.024  18.313  1.00  0.00     0.223 C 
HETATM   10  O2  UNL     1      -8.542  14.040  18.164  1.00  0.00    -0.273 OA
ATOM     11  H3  UNL     1      -9.627  11.181  18.925  1.00  0.00     0.170 HD
BRANCH   9  12
HETATM   12  C5  UNL     1     -10.553  12.945  17.542  1.00  0.00     0.108 C 
BRANCH  12  13
HETATM   13  C4  UNL     1     -10.958  11.490  17.554  1.00  0.00    -0.003 C 
HETATM   14  C3  UNL     1     -10.107  10.738  16.579  1.00  0.00     0.025 C 
HETATM   15  C2  UNL     1     -10.948   9.772  15.753  1.00  0.00     0.127 C 
HETATM   16  N2  UNL     1     -12.050  10.547  15.160  1.00  0.00    -0.337 N 
HETATM   17  C1  UNL     1     -12.352  10.477  13.794  1.00  0.00     0.330 C 
HETATM   18  C25 UNL     1     -12.872  11.422  15.998  1.00  0.00     0.127 C 
HETATM   19  N1  UNL     1     -11.623   9.637  12.934  1.00  0.00    -0.040 NA
HETATM   20  O1  UNL     1     -13.278  11.156  13.280  1.00  0.00    -0.251 OA
HETATM   21  C24 UNL     1     -12.428  11.261  17.411  1.00  0.00     0.025 C 
ENDBRANCH  12  13
ENDBRANCH   9  12
ENDBRANCH   1   8
BRANCH   7  22
HETATM   22  C21 UNL     1      -9.681   9.985  21.026  1.00  0.00     0.024 A 
HETATM   23  C22 UNL     1     -10.249   8.857  21.721  1.00  0.00     0.010 A 
HETATM   24  C23 UNL     1      -9.831   8.648  20.310  1.00  0.00     0.010 A 
ENDBRANCH   7  22
BRANCH   6  25
HETATM   25  C9  UNL     1      -6.980   9.762  22.936  1.00  0.00     0.005 C 
HETATM   26  C10 UNL     1      -7.756  10.095  24.136  1.00  0.00     0.020 C 
HETATM   27  C11 UNL     1      -7.238   9.530  25.444  1.00  0.00    -0.012 C 
HETATM   28  C12 UNL     1      -5.787   9.745  25.656  1.00  0.00     0.009 C 
HETATM   29  C18 UNL     1      -7.700   8.134  25.683  1.00  0.00     0.025 C 
HETATM   30  C13 UNL     1      -4.983   9.441  24.456  1.00  0.00    -0.013 C 
HETATM   31  C14 UNL     1      -4.946   7.948  24.230  1.00  0.00     0.011 C 
HETATM   32  C19 UNL     1      -5.506  10.173  23.279  1.00  0.00     0.020 C 
HETATM   33  C15 UNL     1      -6.275   7.452  23.698  1.00  0.00     0.005 C 
HETATM   34  C16 UNL     1      -6.852   8.328  22.610  1.00  0.00     0.022 C 
HETATM   35  C17 UNL     1      -7.226   7.090  24.771  1.00  0.00     0.086 C 
HETATM   36 CL1  UNL     1      -8.541   6.077  24.073  1.00  0.00    -0.125 Cl
ENDBRANCH   6  25
TORSDOF 5
ENDMDL
MODEL 5
REMARK VINA RESULT: -6.417571605      3.010      4.129
REMARK  5 active torsions:
REMARK  status: ('A' for Active; 'I' for Inactive)
REMARK       I    between atoms: C1_2  and  N2_4 
REMARK    1  A    between atoms: C4_7  and  C5_8 
REMARK    2  A    between atoms: C5_8  and  C6_9 
REMARK       I    between atoms: C6_9  and  N3_11 
REMARK    3  A    between atoms: N3_11  and  C7_13 
REMARK    4  A    between atoms: C8_18  and  C9_19 
REMARK    5  A    between atoms: C20_31  and  C21_32 
ROOT
HETATM    1  C7  UNL     1      -9.680  10.363  17.700  1.00  0.00     0.131 A 
HETATM    2  N4  UNL     1      -8.944  11.449  17.762  1.00  0.00    -0.285 N 
ATOM      3  H4  UNL     1      -8.795  12.113  17.002  1.00  0.00     0.188 HD
HETATM    4  N5  UNL     1      -8.427  11.536  18.981  1.00  0.00    -0.302 N 
ATOM      5  H5  UNL     1      -7.815  12.288  19.298  1.00  0.00     0.186 HD
HETATM    6  C8  UNL     1      -8.823  10.494  19.746  1.00  0.00     0.045 A 
HETATM    7  C20 UNL     1      -9.615   9.728  18.970  1.00  0.00     0.016 A 
ENDROOT
BRANCH   1   8
HETATM    8  N3  UNL     1     -10.325   9.919  16.739  1.00  0.00    -0.312 N 
HETATM    9  C6  UNL     1     -10.820  10.374  15.546  1.00  0.00     0.223 C 
HETATM   10  O2  UNL     1     -10.571  11.466  15.002  1.00  0.00    -0.273 OA
ATOM     11  H3  UNL     1     -10.552   8.933  16.876  1.00  0.00     0.170 HD
BRANCH   9  12
HETATM   12  C5  UNL     1     -11.769   9.425  14.836  1.00  0.00     0.108 C 
BRANCH  12  13
HETATM   13  C4  UNL     1     -11.744   9.822  13.379  1.00  0.00    -0.003 C 
HETATM   14  C3  UNL     1     -13.147   9.870  12.861  1.00  0.00     0.025 C 
HETATM   15  C2  UNL     1     -13.245   9.214  11.490  1.00  0.00     0.127 C 
HETATM   16  N2  UNL     1     -12.663   7.867  11.606  1.00  0.00    -0.337 N 
HETATM   17  C1  UNL     1     -13.335   6.728  11.142  1.00  0.00     0.330 C 
HETATM   18  C25 UNL     1     -11.346   7.682  12.217  1.00  0.00     0.127 C 
HETATM   19  N1  UNL     1     -14.591   6.833  10.519  1.00  0.00    -0.040 NA
HETATM   20  O1  UNL     1     -12.851   5.573  11.261  1.00  0.00    -0.251 OA
HETATM   21  C24 UNL     1     -10.794   9.026  12.543  1.00  0.00     0.025 C 
ENDBRANCH  12  13
ENDBRANCH   9  12
ENDBRANCH   1   8
BRANCH   7  22
HETATM   22  C21 UNL     1     -10.378   8.546  19.213  1.00  0.00     0.024 A 
HETATM   23  C22 UNL     1     -10.703   7.730  20.357  1.00  0.00     0.010 A 
HETATM   24  C23 UNL     1      -9.624   7.243  19.458  1.00  0.00     0.010 A 
ENDBRANCH   7  22
BRANCH   6  25
HETATM   25  C9  UNL     1      -8.411  10.375  21.157  1.00  0.00     0.005 C 
HETATM   26  C10 UNL     1      -9.497  10.546  22.129  1.00  0.00     0.020 C 
HETATM   27  C11 UNL     1      -9.076  10.758  23.569  1.00  0.00    -0.012 C 
HETATM   28  C12 UNL     1      -8.023  11.787  23.740  1.00  0.00     0.009 C 
HETATM   29  C18 UNL     1      -8.811   9.474  24.278  1.00  0.00     0.025 C 
HETATM   30  C13 UNL     1      -6.929  11.653  22.759  1.00  0.00    -0.013 C 
HETATM   31  C14 UNL     1      -6.094  10.438  23.087  1.00  0.00     0.011 C 
HETATM   32  C19 UNL     1      -7.468  11.607  21.380  1.00  0.00     0.020 C 
HETATM   33  C15 UNL     1      -6.830   9.165  22.722  1.00  0.00     0.005 C 
HETATM   34  C16 UNL     1      -7.507   9.228  21.373  1.00  0.00     0.022 C 
HETATM   35  C17 UNL     1      -7.683   8.660  23.820  1.00  0.00     0.086 C 
HETATM   36 CL1  UNL     1      -8.110   6.941  23.488  1.00  0.00    -0.125 Cl
ENDBRANCH   6  25
TORSDOF 5
ENDMDL
