MODEL 1
REMARK VINA RESULT: -6.297029069      0.000      0.000
REMARK  4 active torsions:
REMARK  status: ('A' for Active; 'I' for Inactive)
REMARK    1  A    between atoms: C2_2  and  C3_3 
REMARK    2  A    between atoms: C3_3  and  C4_4 
REMARK    3  A    between atoms: C18_20  and  N1_21 
REMARK       I    between atoms: N1_21  and  C19_22 
REMARK       I    between atoms: C19_22  and  N2_24 
REMARK    4  A    between atoms: N2_24  and  N3_26 
ROOT
HETATM    1  C4  UNL     1      -4.304  17.007  20.199  1.00  0.00     0.012 C 
HETATM    2  C5  UNL     1      -4.095  18.423  20.518  1.00  0.00     0.063 C 
HETATM    3 BR1  UNL     1      -2.486  18.834  21.539  1.00  0.00    -0.091 Br
HETATM    4  C6  UNL     1      -5.205  19.106  21.296  1.00  0.00     0.016 C 
HETATM    5  C7  UNL     1      -6.505  18.484  20.909  1.00  0.00     0.007 C 
HETATM    6  C8  UNL     1      -6.593  17.022  21.273  1.00  0.00    -0.001 C 
HETATM    7  C9  UNL     1      -7.611  16.435  20.375  1.00  0.00     0.003 C 
HETATM    8  C10 UNL     1      -8.924  17.175  20.327  1.00  0.00     0.013 C 
HETATM    9  C11 UNL     1      -9.543  16.761  19.010  1.00  0.00     0.079 C 
HETATM   10  C12 UNL     1      -9.110  15.452  18.556  1.00  0.00     0.136 C 
HETATM   11  O1  UNL     1      -9.549  15.074  17.464  1.00  0.00    -0.297 OA
HETATM   12  C13 UNL     1      -8.186  14.466  19.238  1.00  0.00     0.027 C 
HETATM   13  C14 UNL     1      -8.974  13.156  19.146  1.00  0.00     0.024 C 
HETATM   14  C15 UNL     1      -6.884  14.384  18.498  1.00  0.00     0.018 C 
HETATM   15  C16 UNL     1      -5.610  14.452  19.233  1.00  0.00     0.010 C 
HETATM   16  C17 UNL     1      -5.550  14.856  20.614  1.00  0.00     0.031 C 
HETATM   17  C18 UNL     1      -6.834  14.367  21.377  1.00  0.00     0.183 C 
HETATM   18  C20 UNL     1      -7.962  14.965  20.614  1.00  0.00     0.007 C 
HETATM   19  C21 UNL     1      -9.176  14.894  21.521  1.00  0.00     0.020 C 
HETATM   20  C22 UNL     1      -5.294  16.258  21.052  1.00  0.00    -0.029 C 
HETATM   21  C23 UNL     1      -4.692  16.222  22.464  1.00  0.00     0.016 C 
ENDROOT
BRANCH  17  22
HETATM   22  N1  UNL     1      -6.782  13.042  21.696  1.00  0.00    -0.389 NA
HETATM   23  C19 UNL     1      -6.728  11.703  22.018  1.00  0.00     0.408 C 
HETATM   24  O2  UNL     1      -6.352  11.255  23.159  1.00  0.00    -0.229 OA
HETATM   25  N2  UNL     1      -7.115  10.659  21.075  1.00  0.00    -0.226 N 
ATOM     26  H2  UNL     1      -7.448  10.906  20.143  1.00  0.00     0.194 HD
BRANCH  25  27
HETATM   27  N3  UNL     1      -7.026   9.349  21.448  1.00  0.00    -0.245 N 
HETATM   28  N4  UNL     1      -7.917   8.857  22.212  1.00  0.00    -0.331 N 
ATOM     29  H42 UNL     1      -8.683   9.449  22.532  1.00  0.00     0.178 HD
ATOM     30  H41 UNL     1      -7.851   7.878  22.490  1.00  0.00     0.178 HD
ATOM     31  H3  UNL     1      -6.254   8.770  21.119  1.00  0.00     0.208 HD
ENDBRANCH  25  27
ENDBRANCH  17  22
BRANCH   1  32
HETATM   32  C3  UNL     1      -2.987  16.309  20.079  1.00  0.00     0.033 C 
BRANCH  32  33
HETATM   33  C2  UNL     1      -2.441  16.255  18.702  1.00  0.00    -0.036 C 
HETATM   34  C1  UNL     1      -2.059  15.107  18.182  1.00  0.00     0.007 C 
ENDBRANCH  32  33
ENDBRANCH   1  32
TORSDOF 4
ENDMDL
MODEL 2
REMARK VINA RESULT: -5.515701965      3.412      5.441
REMARK  4 active torsions:
REMARK  status: ('A' for Active; 'I' for Inactive)
REMARK    1  A    between atoms: C2_2  and  C3_3 
REMARK    2  A    between atoms: C3_3  and  C4_4 
REMARK    3  A    between atoms: C18_20  and  N1_21 
REMARK       I    between atoms: N1_21  and  C19_22 
REMARK       I    between atoms: C19_22  and  N2_24 
REMARK    4  A    between atoms: N2_24  and  N3_26 
ROOT
HETATM    1  C4  UNL     1      -6.391  12.287  23.973  1.00  0.00     0.012 C 
HETATM    2  C5  UNL     1      -6.092  12.712  25.344  1.00  0.00     0.063 C 
HETATM    3 BR1  UNL     1      -7.107  11.820  26.749  1.00  0.00    -0.091 Br
HETATM    4  C6  UNL     1      -6.275  14.189  25.644  1.00  0.00     0.016 C 
HETATM    5  C7  UNL     1      -5.967  14.963  24.405  1.00  0.00     0.007 C 
HETATM    6  C8  UNL     1      -6.910  14.658  23.267  1.00  0.00    -0.001 C 
HETATM    7  C9  UNL     1      -6.188  15.019  22.027  1.00  0.00     0.003 C 
HETATM    8  C10 UNL     1      -5.582  16.401  22.021  1.00  0.00     0.013 C 
HETATM    9  C11 UNL     1      -4.489  16.328  20.977  1.00  0.00     0.079 C 
HETATM   10  C12 UNL     1      -4.740  15.335  19.948  1.00  0.00     0.136 C 
HETATM   11  O1  UNL     1      -3.863  15.198  19.088  1.00  0.00    -0.297 OA
HETATM   12  C13 UNL     1      -5.941  14.431  19.771  1.00  0.00     0.027 C 
HETATM   13  C14 UNL     1      -6.287  14.625  18.292  1.00  0.00     0.024 C 
HETATM   14  C15 UNL     1      -5.564  13.010  20.071  1.00  0.00     0.018 C 
HETATM   15  C16 UNL     1      -6.416  12.188  20.946  1.00  0.00     0.010 C 
HETATM   16  C17 UNL     1      -7.466  12.765  21.744  1.00  0.00     0.031 C 
HETATM   17  C18 UNL     1      -8.116  13.979  20.987  1.00  0.00     0.183 C 
HETATM   18  C20 UNL     1      -6.976  14.897  20.722  1.00  0.00     0.007 C 
HETATM   19  C21 UNL     1      -7.583  16.246  20.389  1.00  0.00     0.020 C 
HETATM   20  C22 UNL     1      -7.287  13.186  23.163  1.00  0.00    -0.029 C 
HETATM   21  C23 UNL     1      -8.657  13.151  23.856  1.00  0.00     0.016 C 
ENDROOT
BRANCH  17  22
HETATM   22  N1  UNL     1      -8.985  13.585  20.012  1.00  0.00    -0.389 NA
HETATM   23  C19 UNL     1      -9.863  13.184  19.027  1.00  0.00     0.408 C 
HETATM   24  O2  UNL     1     -10.843  12.382  19.224  1.00  0.00    -0.229 OA
HETATM   25  N2  UNL     1      -9.758  13.658  17.651  1.00  0.00    -0.226 N 
ATOM     26  H2  UNL     1      -9.023  14.316  17.389  1.00  0.00     0.194 HD
BRANCH  25  27
HETATM   27  N3  UNL     1     -10.649  13.215  16.717  1.00  0.00    -0.245 N 
HETATM   28  N4  UNL     1     -10.446  12.099  16.141  1.00  0.00    -0.331 N 
ATOM     29  H42 UNL     1      -9.620  11.554  16.387  1.00  0.00     0.178 HD
ATOM     30  H41 UNL     1     -11.112  11.768  15.444  1.00  0.00     0.178 HD
ATOM     31  H3  UNL     1     -11.470  13.773  16.483  1.00  0.00     0.208 HD
ENDBRANCH  25  27
ENDBRANCH  17  22
BRANCH   1  32
HETATM   32  C3  UNL     1      -6.831  10.858  23.964  1.00  0.00     0.033 C 
BRANCH  32  33
HETATM   33  C2  UNL     1      -5.802   9.898  23.501  1.00  0.00    -0.036 C 
HETATM   34  C1  UNL     1      -4.922   9.405  24.348  1.00  0.00     0.007 C 
ENDBRANCH  32  33
ENDBRANCH   1  32
TORSDOF 4
ENDMDL
MODEL 3
REMARK VINA RESULT: -5.472765516      1.032      1.176
REMARK  4 active torsions:
REMARK  status: ('A' for Active; 'I' for Inactive)
REMARK    1  A    between atoms: C2_2  and  C3_3 
REMARK    2  A    between atoms: C3_3  and  C4_4 
REMARK    3  A    between atoms: C18_20  and  N1_21 
REMARK       I    between atoms: N1_21  and  C19_22 
REMARK       I    between atoms: C19_22  and  N2_24 
REMARK    4  A    between atoms: N2_24  and  N3_26 
ROOT
HETATM    1  C4  UNL     1      -5.182  17.164  21.382  1.00  0.00     0.012 C 
HETATM    2  C5  UNL     1      -5.286  18.464  22.053  1.00  0.00     0.063 C 
HETATM    3 BR1  UNL     1      -3.925  18.836  23.398  1.00  0.00    -0.091 Br
HETATM    4  C6  UNL     1      -6.594  18.747  22.769  1.00  0.00     0.016 C 
HETATM    5  C7  UNL     1      -7.694  18.057  22.033  1.00  0.00     0.007 C 
HETATM    6  C8  UNL     1      -7.550  16.554  22.027  1.00  0.00    -0.001 C 
HETATM    7  C9  UNL     1      -8.317  16.073  20.858  1.00  0.00     0.003 C 
HETATM    8  C10 UNL     1      -9.730  16.593  20.763  1.00  0.00     0.013 C 
HETATM    9  C11 UNL     1     -10.089  16.445  19.301  1.00  0.00     0.079 C 
HETATM   10  C12 UNL     1      -9.364  15.379  18.634  1.00  0.00     0.136 C 
HETATM   11  O1  UNL     1      -9.581  15.234  17.426  1.00  0.00    -0.297 OA
HETATM   12  C13 UNL     1      -8.364  14.401  19.215  1.00  0.00     0.027 C 
HETATM   13  C14 UNL     1      -8.872  13.056  18.688  1.00  0.00     0.024 C 
HETATM   14  C15 UNL     1      -6.987  14.712  18.706  1.00  0.00     0.018 C 
HETATM   15  C16 UNL     1      -5.851  14.778  19.641  1.00  0.00     0.010 C 
HETATM   16  C17 UNL     1      -6.043  14.816  21.068  1.00  0.00     0.031 C 
HETATM   17  C18 UNL     1      -7.297  13.959  21.469  1.00  0.00     0.183 C 
HETATM   18  C20 UNL     1      -8.413  14.556  20.686  1.00  0.00     0.007 C 
HETATM   19  C21 UNL     1      -9.696  14.070  21.333  1.00  0.00     0.020 C 
HETATM   20  C22 UNL     1      -6.113  16.079  21.857  1.00  0.00    -0.029 C 
HETATM   21  C23 UNL     1      -5.698  15.771  23.303  1.00  0.00     0.016 C 
ENDROOT
BRANCH  17  22
HETATM   22  N1  UNL     1      -7.037  12.620  21.474  1.00  0.00    -0.389 NA
HETATM   23  C19 UNL     1      -6.772  11.267  21.479  1.00  0.00     0.408 C 
HETATM   24  O2  UNL     1      -5.751  10.739  22.046  1.00  0.00    -0.229 OA
HETATM   25  N2  UNL     1      -7.656  10.298  20.838  1.00  0.00    -0.226 N 
ATOM     26  H2  UNL     1      -8.509  10.610  20.373  1.00  0.00     0.194 HD
BRANCH  25  27
HETATM   27  N3  UNL     1      -7.333   8.972  20.865  1.00  0.00    -0.245 N 
HETATM   28  N4  UNL     1      -7.430   8.329  21.958  1.00  0.00    -0.331 N 
ATOM     29  H42 UNL     1      -7.747   8.815  22.797  1.00  0.00     0.178 HD
ATOM     30  H41 UNL     1      -7.189   7.338  21.978  1.00  0.00     0.178 HD
ATOM     31  H3  UNL     1      -7.018   8.502  20.017  1.00  0.00     0.208 HD
ENDBRANCH  25  27
ENDBRANCH  17  22
BRANCH   1  32
HETATM   32  C3  UNL     1      -3.753  16.728  21.327  1.00  0.00     0.033 C 
BRANCH  32  33
HETATM   33  C2  UNL     1      -3.036  17.121  20.091  1.00  0.00    -0.036 C 
HETATM   34  C1  UNL     1      -2.421  16.214  19.361  1.00  0.00     0.007 C 
ENDBRANCH  32  33
ENDBRANCH   1  32
TORSDOF 4
ENDMDL
MODEL 4
REMARK VINA RESULT: -5.383239576      3.063      5.782
REMARK  4 active torsions:
REMARK  status: ('A' for Active; 'I' for Inactive)
REMARK    1  A    between atoms: C2_2  and  C3_3 
REMARK    2  A    between atoms: C3_3  and  C4_4 
REMARK    3  A    between atoms: C18_20  and  N1_21 
REMARK       I    between atoms: N1_21  and  C19_22 
REMARK       I    between atoms: C19_22  and  N2_24 
REMARK    4  A    between atoms: N2_24  and  N3_26 
ROOT
HETATM    1  C4  UNL     1     -11.075  17.384  20.213  1.00  0.00     0.012 C 
HETATM    2  C5  UNL     1     -11.010  18.847  20.155  1.00  0.00     0.063 C 
HETATM    3 BR1  UNL     1     -12.359  19.714  19.048  1.00  0.00    -0.091 Br
HETATM    4  C6  UNL     1      -9.701  19.442  19.668  1.00  0.00     0.016 C 
HETATM    5  C7  UNL     1      -8.588  18.537  20.082  1.00  0.00     0.007 C 
HETATM    6  C8  UNL     1      -8.674  17.168  19.450  1.00  0.00    -0.001 C 
HETATM    7  C9  UNL     1      -7.911  16.260  20.332  1.00  0.00     0.003 C 
HETATM    8  C10 UNL     1      -6.521  16.730  20.684  1.00  0.00     0.013 C 
HETATM    9  C11 UNL     1      -6.184  15.989  21.959  1.00  0.00     0.079 C 
HETATM   10  C12 UNL     1      -6.879  14.722  22.091  1.00  0.00     0.136 C 
HETATM   11  O1  UNL     1      -6.678  14.087  23.132  1.00  0.00    -0.297 OA
HETATM   12  C13 UNL     1      -7.829  14.053  21.120  1.00  0.00     0.027 C 
HETATM   13  C14 UNL     1      -7.279  12.626  21.048  1.00  0.00     0.024 C 
HETATM   14  C15 UNL     1      -9.226  14.082  21.666  1.00  0.00     0.018 C 
HETATM   15  C16 UNL     1     -10.346  14.505  20.809  1.00  0.00     0.010 C 
HETATM   16  C17 UNL     1     -10.130  15.147  19.538  1.00  0.00     0.031 C 
HETATM   17  C18 UNL     1      -8.836  14.573  18.855  1.00  0.00     0.183 C 
HETATM   18  C20 UNL     1      -7.759  14.815  19.853  1.00  0.00     0.007 C 
HETATM   19  C21 UNL     1      -6.447  14.683  19.104  1.00  0.00     0.020 C 
HETATM   20  C22 UNL     1     -10.095  16.626  19.356  1.00  0.00    -0.029 C 
HETATM   21  C23 UNL     1     -10.471  16.946  17.902  1.00  0.00     0.016 C 
ENDROOT
BRANCH  17  22
HETATM   22  N1  UNL     1      -9.044  13.355  18.278  1.00  0.00    -0.389 NA
HETATM   23  C19 UNL     1      -9.255  12.124  17.694  1.00  0.00     0.408 C 
HETATM   24  O2  UNL     1      -9.637  11.963  16.481  1.00  0.00    -0.229 OA
HETATM   25  N2  UNL     1      -9.046  10.873  18.417  1.00  0.00    -0.226 N 
ATOM     26  H2  UNL     1      -8.724  10.887  19.385  1.00  0.00     0.194 HD
BRANCH  25  27
HETATM   27  N3  UNL     1      -9.286   9.685  17.789  1.00  0.00    -0.245 N 
HETATM   28  N4  UNL     1     -10.483   9.359  17.507  1.00  0.00    -0.331 N 
ATOM     29  H42 UNL     1     -11.244   9.991  17.755  1.00  0.00     0.178 HD
ATOM     30  H41 UNL     1     -10.661   8.472  17.037  1.00  0.00     0.178 HD
ATOM     31  H3  UNL     1      -8.513   9.065  17.547  1.00  0.00     0.208 HD
ENDBRANCH  25  27
ENDBRANCH  17  22
BRANCH   1  32
HETATM   32  C3  UNL     1     -12.487  16.926  20.032  1.00  0.00     0.033 C 
BRANCH  32  33
HETATM   33  C2  UNL     1     -13.262  16.804  21.289  1.00  0.00    -0.036 C 
HETATM   34  C1  UNL     1     -12.642  16.706  22.447  1.00  0.00     0.007 C 
ENDBRANCH  32  33
ENDBRANCH   1  32
TORSDOF 4
ENDMDL
MODEL 5
REMARK VINA RESULT: -5.380953096      2.410      3.133
REMARK  4 active torsions:
REMARK  status: ('A' for Active; 'I' for Inactive)
REMARK    1  A    between atoms: C2_2  and  C3_3 
REMARK    2  A    between atoms: C3_3  and  C4_4 
REMARK    3  A    between atoms: C18_20  and  N1_21 
REMARK       I    between atoms: N1_21  and  C19_22 
REMARK       I    between atoms: C19_22  and  N2_24 
REMARK    4  A    between atoms: N2_24  and  N3_26 
ROOT
HETATM    1  C4  UNL     1      -2.998  17.092  19.362  1.00  0.00     0.012 C 
HETATM    2  C5  UNL     1      -2.217  18.209  18.820  1.00  0.00     0.063 C 
HETATM    3 BR1  UNL     1      -0.281  18.041  18.969  1.00  0.00    -0.091 Br
HETATM    4  C6  UNL     1      -2.511  19.579  19.405  1.00  0.00     0.016 C 
HETATM    5  C7  UNL     1      -3.953  19.629  19.788  1.00  0.00     0.007 C 
HETATM    6  C8  UNL     1      -4.312  18.639  20.869  1.00  0.00    -0.001 C 
HETATM    7  C9  UNL     1      -5.767  18.403  20.743  1.00  0.00     0.003 C 
HETATM    8  C10 UNL     1      -6.614  19.650  20.692  1.00  0.00     0.013 C 
HETATM    9  C11 UNL     1      -7.898  19.206  20.025  1.00  0.00     0.079 C 
HETATM   10  C12 UNL     1      -8.193  17.798  20.220  1.00  0.00     0.136 C 
HETATM   11  O1  UNL     1      -9.207  17.364  19.664  1.00  0.00    -0.297 OA
HETATM   12  C13 UNL     1      -7.425  16.768  21.021  1.00  0.00     0.027 C 
HETATM   13  C14 UNL     1      -8.527  16.108  21.854  1.00  0.00     0.024 C 
HETATM   14  C15 UNL     1      -6.764  15.787  20.097  1.00  0.00     0.018 C 
HETATM   15  C16 UNL     1      -5.350  15.426  20.291  1.00  0.00     0.010 C 
HETATM   16  C17 UNL     1      -4.489  16.171  21.173  1.00  0.00     0.031 C 
HETATM   17  C18 UNL     1      -5.307  16.700  22.407  1.00  0.00     0.183 C 
HETATM   18  C20 UNL     1      -6.403  17.502  21.802  1.00  0.00     0.007 C 
HETATM   19  C21 UNL     1      -6.959  18.371  22.914  1.00  0.00     0.020 C 
HETATM   20  C22 UNL     1      -3.617  17.292  20.721  1.00  0.00    -0.029 C 
HETATM   21  C23 UNL     1      -2.444  17.420  21.703  1.00  0.00     0.016 C 
ENDROOT
BRANCH  17  22
HETATM   22  N1  UNL     1      -5.532  15.731  23.340  1.00  0.00    -0.389 NA
HETATM   23  C19 UNL     1      -5.758  14.751  24.284  1.00  0.00     0.408 C 
HETATM   24  O2  UNL     1      -5.212  14.734  25.443  1.00  0.00    -0.229 OA
HETATM   25  N2  UNL     1      -6.667  13.634  24.044  1.00  0.00    -0.226 N 
ATOM     26  H2  UNL     1      -7.170  13.562  23.159  1.00  0.00     0.194 HD
BRANCH  25  27
HETATM   27  N3  UNL     1      -6.840  12.688  25.012  1.00  0.00    -0.245 N 
HETATM   28  N4  UNL     1      -5.970  11.770  25.149  1.00  0.00    -0.331 N 
ATOM     29  H42 UNL     1      -5.157  11.757  24.533  1.00  0.00     0.178 HD
ATOM     30  H41 UNL     1      -6.099  11.063  25.873  1.00  0.00     0.178 HD
ATOM     31  H3  UNL     1      -7.658  12.716  25.620  1.00  0.00     0.208 HD
ENDBRANCH  25  27
ENDBRANCH  17  22
BRANCH   1  32
HETATM   32  C3  UNL     1      -2.217  15.822  19.255  1.00  0.00     0.033 C 
BRANCH  32  33
HETATM   33  C2  UNL     1      -2.450  15.057  18.007  1.00  0.00    -0.036 C 
HETATM   34  C1  UNL     1      -1.538  15.038  17.057  1.00  0.00     0.007 C 
ENDBRANCH  32  33
ENDBRANCH   1  32
TORSDOF 4
ENDMDL
