MODEL 1
REMARK VINA RESULT: -4.102455467      0.000      0.000
REMARK  2 active torsions:
REMARK  status: ('A' for Active; 'I' for Inactive)
REMARK    1  A    between atoms: C2_2  and  C3_3 
REMARK    2  A    between atoms: C3_3  and  N1_4 
ROOT
HETATM    1  N1  UNL     1      44.100  78.806  36.146  1.00  0.00    -0.363 N 
HETATM    2  C4  UNL     1      44.233  77.697  36.987  1.00  0.00     0.074 C 
HETATM    3  C5  UNL     1      43.142  77.578  38.028  1.00  0.00     0.125 C 
HETATM    4  S1  UNL     1      42.021  79.029  37.855  1.00  0.00    -0.106 SA
HETATM    5  C6  UNL     1      43.139  80.399  37.573  1.00  0.00     0.079 C 
HETATM    6  N2  UNL     1      42.939  81.505  38.145  1.00  0.00    -0.393 N 
ATOM      7  H21 UNL     1      43.576  82.286  37.984  1.00  0.00     0.156 HD
ATOM      8  H22 UNL     1      42.164  81.706  38.778  1.00  0.00     0.156 HD
HETATM    9  C7  UNL     1      44.267  80.106  36.651  1.00  0.00     0.126 C 
ENDROOT
BRANCH   1  10
HETATM   10  C3  UNL     1      44.219  78.593  34.747  1.00  0.00     0.154 C 
BRANCH  10  11
HETATM   11  C2  UNL     1      45.337  77.703  34.359  1.00  0.00    -0.017 C 
HETATM   12  C1  UNL     1      46.392  78.119  33.685  1.00  0.00     0.008 C 
ENDBRANCH  10  11
ENDBRANCH   1  10
TORSDOF 2
ENDMDL
MODEL 2
REMARK VINA RESULT: -3.695935597      1.111      1.423
REMARK  2 active torsions:
REMARK  status: ('A' for Active; 'I' for Inactive)
REMARK    1  A    between atoms: C2_2  and  C3_3 
REMARK    2  A    between atoms: C3_3  and  N1_4 
ROOT
HETATM    1  N1  UNL     1      43.763  78.823  37.356  1.00  0.00    -0.363 N 
HETATM    2  C4  UNL     1      43.743  78.215  38.615  1.00  0.00     0.074 C 
HETATM    3  C5  UNL     1      42.747  78.824  39.577  1.00  0.00     0.125 C 
HETATM    4  S1  UNL     1      41.932  80.247  38.739  1.00  0.00    -0.106 SA
HETATM    5  C6  UNL     1      43.275  81.057  37.876  1.00  0.00     0.079 C 
HETATM    6  N2  UNL     1      43.354  82.316  37.871  1.00  0.00    -0.393 N 
ATOM      7  H21 UNL     1      44.119  82.777  37.379  1.00  0.00     0.156 HD
ATOM      8  H22 UNL     1      42.695  82.946  38.329  1.00  0.00     0.156 HD
HETATM    9  C7  UNL     1      44.234  80.138  37.210  1.00  0.00     0.126 C 
ENDROOT
BRANCH   1  10
HETATM   10  C3  UNL     1      43.713  77.981  36.214  1.00  0.00     0.154 C 
BRANCH  10  11
HETATM   11  C2  UNL     1      44.482  78.484  35.052  1.00  0.00    -0.017 C 
HETATM   12  C1  UNL     1      44.814  77.728  34.024  1.00  0.00     0.008 C 
ENDBRANCH  10  11
ENDBRANCH   1  10
TORSDOF 2
ENDMDL
MODEL 3
REMARK VINA RESULT: -3.685649262      1.673      2.375
REMARK  2 active torsions:
REMARK  status: ('A' for Active; 'I' for Inactive)
REMARK    1  A    between atoms: C2_2  and  C3_3 
REMARK    2  A    between atoms: C3_3  and  N1_4 
ROOT
HETATM    1  N1  UNL     1      43.692  78.550  36.652  1.00  0.00    -0.363 N 
HETATM    2  C4  UNL     1      43.724  79.897  36.281  1.00  0.00     0.074 C 
HETATM    3  C5  UNL     1      44.034  80.843  37.420  1.00  0.00     0.125 C 
HETATM    4  S1  UNL     1      44.198  79.852  38.963  1.00  0.00    -0.106 SA
HETATM    5  C6  UNL     1      42.868  78.659  38.845  1.00  0.00     0.079 C 
HETATM    6  N2  UNL     1      42.175  78.382  39.862  1.00  0.00    -0.393 N 
ATOM      7  H21 UNL     1      41.418  77.702  39.794  1.00  0.00     0.156 HD
ATOM      8  H22 UNL     1      42.307  78.788  40.789  1.00  0.00     0.156 HD
HETATM    9  C7  UNL     1      42.676  78.069  37.494  1.00  0.00     0.126 C 
ENDROOT
BRANCH   1  10
HETATM   10  C3  UNL     1      44.415  77.626  35.852  1.00  0.00     0.154 C 
BRANCH  10  11
HETATM   11  C2  UNL     1      44.903  78.182  34.569  1.00  0.00    -0.017 C 
HETATM   12  C1  UNL     1      44.501  77.744  33.392  1.00  0.00     0.008 C 
ENDBRANCH  10  11
ENDBRANCH   1  10
TORSDOF 2
ENDMDL
MODEL 4
REMARK VINA RESULT: -3.597476081      2.221      4.591
REMARK  2 active torsions:
REMARK  status: ('A' for Active; 'I' for Inactive)
REMARK    1  A    between atoms: C2_2  and  C3_3 
REMARK    2  A    between atoms: C3_3  and  N1_4 
ROOT
HETATM    1  N1  UNL     1      42.747  79.841  38.355  1.00  0.00    -0.363 N 
HETATM    2  C4  UNL     1      41.935  78.706  38.447  1.00  0.00     0.074 C 
HETATM    3  C5  UNL     1      42.562  77.452  37.881  1.00  0.00     0.125 C 
HETATM    4  S1  UNL     1      44.207  77.896  37.182  1.00  0.00    -0.106 SA
HETATM    5  C6  UNL     1      43.911  79.457  36.356  1.00  0.00     0.079 C 
HETATM    6  N2  UNL     1      44.423  79.680  35.225  1.00  0.00    -0.393 N 
ATOM      7  H21 UNL     1      44.255  80.569  34.756  1.00  0.00     0.156 HD
ATOM      8  H22 UNL     1      45.020  79.029  34.713  1.00  0.00     0.156 HD
HETATM    9  C7  UNL     1      43.043  80.404  37.103  1.00  0.00     0.126 C 
ENDROOT
BRANCH   1  10
HETATM   10  C3  UNL     1      42.905  80.638  39.520  1.00  0.00     0.154 C 
BRANCH  10  11
HETATM   11  C2  UNL     1      42.476  79.976  40.774  1.00  0.00    -0.017 C 
HETATM   12  C1  UNL     1      42.906  80.339  41.967  1.00  0.00     0.008 C 
ENDBRANCH  10  11
ENDBRANCH   1  10
TORSDOF 2
ENDMDL
MODEL 5
REMARK VINA RESULT: -3.585990345      2.540      4.728
REMARK  2 active torsions:
REMARK  status: ('A' for Active; 'I' for Inactive)
REMARK    1  A    between atoms: C2_2  and  C3_3 
REMARK    2  A    between atoms: C3_3  and  N1_4 
ROOT
HETATM    1  N1  UNL     1      42.490  79.176  39.066  1.00  0.00    -0.363 N 
HETATM    2  C4  UNL     1      42.632  78.180  38.095  1.00  0.00     0.074 C 
HETATM    3  C5  UNL     1      43.586  78.541  36.978  1.00  0.00     0.125 C 
HETATM    4  S1  UNL     1      44.191  80.256  37.269  1.00  0.00    -0.106 SA
HETATM    5  C6  UNL     1      42.728  81.138  37.805  1.00  0.00     0.079 C 
HETATM    6  N2  UNL     1      42.499  82.301  37.374  1.00  0.00    -0.393 N 
ATOM      7  H21 UNL     1      41.666  82.803  37.680  1.00  0.00     0.156 HD
ATOM      8  H22 UNL     1      43.096  82.813  36.724  1.00  0.00     0.156 HD
HETATM    9  C7  UNL     1      41.860  80.391  38.752  1.00  0.00     0.126 C 
ENDROOT
BRANCH   1  10
HETATM   10  C3  UNL     1      42.595  78.790  40.430  1.00  0.00     0.154 C 
BRANCH  10  11
HETATM   11  C2  UNL     1      42.243  79.858  41.393  1.00  0.00    -0.017 C 
HETATM   12  C1  UNL     1      43.124  80.434  42.188  1.00  0.00     0.008 C 
ENDBRANCH  10  11
ENDBRANCH   1  10
TORSDOF 2
ENDMDL
