MODEL 1
REMARK VINA RESULT: -5.579845514      0.000      0.000
REMARK  2 active torsions:
REMARK  status: ('A' for Active; 'I' for Inactive)
REMARK    1  A    between atoms: C2_5  and  N3_6 
REMARK    2  A    between atoms: N3_6  and  C3_8 
ROOT
HETATM    1  N1  UNL     1      40.795  78.808  42.194  1.00  0.00    -0.172 NA
HETATM    2  C1  UNL     1      41.511  79.077  41.315  1.00  0.00     0.182 C 
HETATM    3  N2  UNL     1      42.378  79.377  40.264  1.00  0.00    -0.290 N 
ATOM      4  H2  UNL     1      43.224  78.821  40.143  1.00  0.00     0.178 HD
HETATM    5  C2  UNL     1      42.136  80.335  39.446  1.00  0.00     0.188 C 
ENDROOT
BRANCH   5   6
HETATM    6  N3  UNL     1      42.984  80.679  38.364  1.00  0.00    -0.359 N 
ATOM      7  H3  UNL     1      43.654  81.434  38.507  1.00  0.00     0.162 HD
BRANCH   6   8
HETATM    8  C3  UNL     1      42.965  80.040  37.089  1.00  0.00     0.221 C 
HETATM    9  C4  UNL     1      44.279  80.113  36.354  1.00  0.00     0.054 C 
HETATM   10  C5  UNL     1      44.337  78.942  35.396  1.00  0.00     0.006 C 
HETATM   11  C6  UNL     1      44.399  77.682  36.226  1.00  0.00     0.026 C 
HETATM   12  C7  UNL     1      43.417  77.784  37.365  1.00  0.00     0.170 C 
HETATM   13  O1  UNL     1      42.468  78.769  37.187  1.00  0.00    -0.367 OA
ENDBRANCH   6   8
ENDBRANCH   5   6
TORSDOF 2
ENDMDL
MODEL 2
REMARK VINA RESULT: -5.446166667      3.039      5.519
REMARK  2 active torsions:
REMARK  status: ('A' for Active; 'I' for Inactive)
REMARK    1  A    between atoms: C2_5  and  N3_6 
REMARK    2  A    between atoms: N3_6  and  C3_8 
ROOT
HETATM    1  N1  UNL     1      45.892  78.096  32.309  1.00  0.00    -0.172 NA
HETATM    2  C1  UNL     1      45.260  78.332  33.259  1.00  0.00     0.182 C 
HETATM    3  N2  UNL     1      44.490  78.628  34.383  1.00  0.00    -0.290 N 
ATOM      4  H2  UNL     1      43.915  79.470  34.385  1.00  0.00     0.178 HD
HETATM    5  C2  UNL     1      44.487  77.867  35.416  1.00  0.00     0.188 C 
ENDROOT
BRANCH   5   6
HETATM    6  N3  UNL     1      43.722  78.124  36.581  1.00  0.00    -0.359 N 
ATOM      7  H3  UNL     1      43.001  77.449  36.835  1.00  0.00     0.162 HD
BRANCH   6   8
HETATM    8  C3  UNL     1      43.892  79.262  37.424  1.00  0.00     0.221 C 
HETATM    9  C4  UNL     1      42.922  80.379  37.138  1.00  0.00     0.054 C 
HETATM   10  C5  UNL     1      42.770  81.193  38.405  1.00  0.00     0.006 C 
HETATM   11  C6  UNL     1      42.093  80.313  39.429  1.00  0.00     0.026 C 
HETATM   12  C7  UNL     1      42.705  78.935  39.387  1.00  0.00     0.170 C 
HETATM   13  O1  UNL     1      43.923  78.893  38.742  1.00  0.00    -0.367 OA
ENDBRANCH   6   8
ENDBRANCH   5   6
TORSDOF 2
ENDMDL
MODEL 3
REMARK VINA RESULT: -5.380550170      1.478      1.966
REMARK  2 active torsions:
REMARK  status: ('A' for Active; 'I' for Inactive)
REMARK    1  A    between atoms: C2_5  and  N3_6 
REMARK    2  A    between atoms: N3_6  and  C3_8 
ROOT
HETATM    1  N1  UNL     1      42.706  80.707  42.361  1.00  0.00    -0.172 NA
HETATM    2  C1  UNL     1      42.854  80.288  41.285  1.00  0.00     0.182 C 
HETATM    3  N2  UNL     1      43.036  79.765  40.005  1.00  0.00    -0.290 N 
ATOM      4  H2  UNL     1      43.622  78.939  39.883  1.00  0.00     0.178 HD
HETATM    5  C2  UNL     1      42.485  80.298  38.975  1.00  0.00     0.188 C 
ENDROOT
BRANCH   5   6
HETATM    6  N3  UNL     1      42.639  79.804  37.656  1.00  0.00    -0.359 N 
ATOM      7  H3  UNL     1      41.842  79.880  37.024  1.00  0.00     0.162 HD
BRANCH   6   8
HETATM    8  C3  UNL     1      43.833  79.210  37.151  1.00  0.00     0.221 C 
HETATM    9  C4  UNL     1      43.667  77.769  36.744  1.00  0.00     0.054 C 
HETATM   10  C5  UNL     1      44.721  77.460  35.702  1.00  0.00     0.006 C 
HETATM   11  C6  UNL     1      44.395  78.274  34.473  1.00  0.00     0.026 C 
HETATM   12  C7  UNL     1      44.011  79.672  34.888  1.00  0.00     0.170 C 
HETATM   13  O1  UNL     1      44.391  79.989  36.174  1.00  0.00    -0.367 OA
ENDBRANCH   6   8
ENDBRANCH   5   6
TORSDOF 2
ENDMDL
MODEL 4
REMARK VINA RESULT: -5.154732897      1.072      1.671
REMARK  2 active torsions:
REMARK  status: ('A' for Active; 'I' for Inactive)
REMARK    1  A    between atoms: C2_5  and  N3_6 
REMARK    2  A    between atoms: N3_6  and  C3_8 
ROOT
HETATM    1  N1  UNL     1      40.016  78.467  42.371  1.00  0.00    -0.172 NA
HETATM    2  C1  UNL     1      40.874  78.811  41.661  1.00  0.00     0.182 C 
HETATM    3  N2  UNL     1      41.914  79.203  40.819  1.00  0.00    -0.290 N 
ATOM      4  H2  UNL     1      42.861  78.878  41.013  1.00  0.00     0.178 HD
HETATM    5  C2  UNL     1      41.709  79.965  39.807  1.00  0.00     0.188 C 
ENDROOT
BRANCH   5   6
HETATM    6  N3  UNL     1      42.731  80.391  38.923  1.00  0.00    -0.359 N 
ATOM      7  H3  UNL     1      42.758  81.378  38.669  1.00  0.00     0.162 HD
BRANCH   6   8
HETATM    8  C3  UNL     1      43.724  79.534  38.364  1.00  0.00     0.221 C 
HETATM    9  C4  UNL     1      43.177  78.230  37.843  1.00  0.00     0.054 C 
HETATM   10  C5  UNL     1      44.123  77.728  36.773  1.00  0.00     0.006 C 
HETATM   11  C6  UNL     1      44.052  78.696  35.615  1.00  0.00     0.026 C 
HETATM   12  C7  UNL     1      44.059  80.108  36.144  1.00  0.00     0.170 C 
HETATM   13  O1  UNL     1      44.490  80.205  37.450  1.00  0.00    -0.367 OA
ENDBRANCH   6   8
ENDBRANCH   5   6
TORSDOF 2
ENDMDL
MODEL 5
REMARK VINA RESULT: -5.125156575      1.565      2.140
REMARK  2 active torsions:
REMARK  status: ('A' for Active; 'I' for Inactive)
REMARK    1  A    between atoms: C2_5  and  N3_6 
REMARK    2  A    between atoms: N3_6  and  C3_8 
ROOT
HETATM    1  N1  UNL     1      42.812  80.970  42.392  1.00  0.00    -0.172 NA
HETATM    2  C1  UNL     1      43.029  80.351  41.429  1.00  0.00     0.182 C 
HETATM    3  N2  UNL     1      43.311  79.611  40.281  1.00  0.00    -0.290 N 
ATOM      4  H2  UNL     1      44.236  79.684  39.857  1.00  0.00     0.178 HD
HETATM    5  C2  UNL     1      42.436  78.841  39.744  1.00  0.00     0.188 C 
ENDROOT
BRANCH   5   6
HETATM    6  N3  UNL     1      42.674  78.070  38.579  1.00  0.00    -0.359 N 
ATOM      7  H3  UNL     1      41.969  77.384  38.311  1.00  0.00     0.162 HD
BRANCH   6   8
HETATM    8  C3  UNL     1      43.832  78.188  37.756  1.00  0.00     0.221 C 
HETATM    9  C4  UNL     1      43.710  77.480  36.432  1.00  0.00     0.054 C 
HETATM   10  C5  UNL     1      44.647  78.161  35.457  1.00  0.00     0.006 C 
HETATM   11  C6  UNL     1      44.121  79.558  35.225  1.00  0.00     0.026 C 
HETATM   12  C7  UNL     1      43.703  80.159  36.544  1.00  0.00     0.170 C 
HETATM   13  O1  UNL     1      44.217  79.497  37.638  1.00  0.00    -0.367 OA
ENDBRANCH   6   8
ENDBRANCH   5   6
TORSDOF 2
ENDMDL
