MODEL 1
REMARK VINA RESULT: -6.873301416      0.000      0.000
REMARK  5 active torsions:
REMARK  status: ('A' for Active; 'I' for Inactive)
REMARK    1  A    between atoms: C2_2  and  C3_3 
REMARK    2  A    between atoms: C3_3  and  C4_4 
REMARK    3  A    between atoms: C3_3  and  C6_6 
REMARK    4  A    between atoms: C6_6  and  O2_8 
REMARK    5  A    between atoms: O2_8  and  C7_9 
ROOT
HETATM    1  C7  UNL     1      45.016  37.954  86.997  1.00  0.00     0.296 C 
HETATM    2  C8  UNL     1      43.663  37.432  87.424  1.00  0.00     0.232 C 
HETATM    3  O3  UNL     1      43.647  36.096  87.104  1.00  0.00    -0.350 OA
HETATM    4  C9  UNL     1      44.505  36.037  85.985  1.00  0.00     0.171 C 
HETATM    5  C10 UNL     1      44.967  34.611  85.861  1.00  0.00     0.073 C 
HETATM    6  C11 UNL     1      45.084  34.164  84.424  1.00  0.00    -0.013 C 
HETATM    7  C12 UNL     1      45.568  32.707  84.472  1.00  0.00     0.010 C 
HETATM    8  C13 UNL     1      43.734  34.203  83.769  1.00  0.00     0.009 C 
HETATM    9  C14 UNL     1      42.896  35.321  84.302  1.00  0.00    -0.009 C 
HETATM   10  C15 UNL     1      41.829  35.764  83.328  1.00  0.00     0.010 C 
HETATM   11  C16 UNL     1      43.718  36.493  84.801  1.00  0.00     0.048 C 
HETATM   12  C17 UNL     1      44.571  37.056  83.692  1.00  0.00     0.016 C 
HETATM   13  O4  UNL     1      45.561  36.883  86.302  1.00  0.00    -0.322 OA
ENDROOT
BRANCH   1  14
HETATM   14  O2  UNL     1      45.735  38.260  88.179  1.00  0.00    -0.287 OA
BRANCH  14  15
HETATM   15  C6  UNL     1      46.188  39.529  88.442  1.00  0.00     0.265 C 
HETATM   16  O1  UNL     1      46.015  40.381  87.506  1.00  0.00    -0.265 OA
BRANCH  15  17
HETATM   17  C3  UNL     1      46.837  39.970  89.678  1.00  0.00     0.085 C 
BRANCH  17  18
HETATM   18  C2  UNL     1      48.089  40.784  89.421  1.00  0.00     0.010 C 
HETATM   19  C1  UNL     1      49.038  40.781  90.568  1.00  0.00     0.006 C 
ENDBRANCH  17  18
BRANCH  17  20
HETATM   20  C4  UNL     1      45.918  40.829  90.526  1.00  0.00     0.010 C 
HETATM   21  C5  UNL     1      45.247  40.012  91.611  1.00  0.00     0.006 C 
ENDBRANCH  17  20
ENDBRANCH  15  17
ENDBRANCH  14  15
ENDBRANCH   1  14
TORSDOF 5
ENDMDL
MODEL 2
REMARK VINA RESULT: -6.853393179      1.116      1.877
REMARK  5 active torsions:
REMARK  status: ('A' for Active; 'I' for Inactive)
REMARK    1  A    between atoms: C2_2  and  C3_3 
REMARK    2  A    between atoms: C3_3  and  C4_4 
REMARK    3  A    between atoms: C3_3  and  C6_6 
REMARK    4  A    between atoms: C6_6  and  O2_8 
REMARK    5  A    between atoms: O2_8  and  C7_9 
ROOT
HETATM    1  C7  UNL     1      44.997  37.732  87.083  1.00  0.00     0.296 C 
HETATM    2  C8  UNL     1      43.574  37.331  87.399  1.00  0.00     0.232 C 
HETATM    3  O3  UNL     1      43.436  36.032  86.971  1.00  0.00    -0.350 OA
HETATM    4  C9  UNL     1      44.346  35.963  85.896  1.00  0.00     0.171 C 
HETATM    5  C10 UNL     1      44.662  34.508  85.681  1.00  0.00     0.073 C 
HETATM    6  C11 UNL     1      44.815  34.159  84.220  1.00  0.00    -0.013 C 
HETATM    7  C12 UNL     1      45.138  32.658  84.175  1.00  0.00     0.010 C 
HETATM    8  C13 UNL     1      43.517  34.395  83.504  1.00  0.00     0.009 C 
HETATM    9  C14 UNL     1      42.772  35.556  84.083  1.00  0.00    -0.009 C 
HETATM   10  C15 UNL     1      41.816  36.185  83.096  1.00  0.00     0.010 C 
HETATM   11  C16 UNL     1      43.682  36.590  84.715  1.00  0.00     0.048 C 
HETATM   12  C17 UNL     1      44.653  37.137  83.698  1.00  0.00     0.016 C 
HETATM   13  O4  UNL     1      45.466  36.662  86.332  1.00  0.00    -0.322 OA
ENDROOT
BRANCH   1  14
HETATM   14  O2  UNL     1      45.675  37.868  88.320  1.00  0.00    -0.287 OA
BRANCH  14  15
HETATM   15  C6  UNL     1      45.684  39.052  89.013  1.00  0.00     0.265 C 
HETATM   16  O1  UNL     1      46.274  40.026  88.434  1.00  0.00    -0.265 OA
BRANCH  15  17
HETATM   17  C3  UNL     1      45.084  39.281  90.329  1.00  0.00     0.085 C 
BRANCH  17  18
HETATM   18  C2  UNL     1      44.730  37.991  91.041  1.00  0.00     0.010 C 
HETATM   19  C1  UNL     1      43.263  37.786  91.191  1.00  0.00     0.006 C 
ENDBRANCH  17  18
BRANCH  17  20
HETATM   20  C4  UNL     1      46.011  40.053  91.249  1.00  0.00     0.010 C 
HETATM   21  C5  UNL     1      45.232  40.820  92.298  1.00  0.00     0.006 C 
ENDBRANCH  17  20
ENDBRANCH  15  17
ENDBRANCH  14  15
ENDBRANCH   1  14
TORSDOF 5
ENDMDL
MODEL 3
REMARK VINA RESULT: -6.839776539      1.310      7.152
REMARK  5 active torsions:
REMARK  status: ('A' for Active; 'I' for Inactive)
REMARK    1  A    between atoms: C2_2  and  C3_3 
REMARK    2  A    between atoms: C3_3  and  C4_4 
REMARK    3  A    between atoms: C3_3  and  C6_6 
REMARK    4  A    between atoms: C6_6  and  O2_8 
REMARK    5  A    between atoms: O2_8  and  C7_9 
ROOT
HETATM    1  C7  UNL     1      44.738  36.818  87.216  1.00  0.00     0.296 C 
HETATM    2  C8  UNL     1      43.912  37.976  86.705  1.00  0.00     0.232 C 
HETATM    3  O3  UNL     1      44.635  39.113  86.973  1.00  0.00    -0.350 OA
HETATM    4  C9  UNL     1      45.360  38.752  88.129  1.00  0.00     0.171 C 
HETATM    5  C10 UNL     1      46.534  39.688  88.220  1.00  0.00     0.073 C 
HETATM    6  C11 UNL     1      46.854  40.078  89.643  1.00  0.00    -0.013 C 
HETATM    7  C12 UNL     1      48.067  41.017  89.562  1.00  0.00     0.010 C 
HETATM    8  C13 UNL     1      45.698  40.832  90.234  1.00  0.00     0.009 C 
HETATM    9  C14 UNL     1      44.389  40.336  89.704  1.00  0.00    -0.009 C 
HETATM   10  C15 UNL     1      43.238  40.617  90.641  1.00  0.00     0.010 C 
HETATM   11  C16 UNL     1      44.430  38.879  89.290  1.00  0.00     0.048 C 
HETATM   12  C17 UNL     1      44.806  38.003  90.459  1.00  0.00     0.016 C 
HETATM   13  O4  UNL     1      45.774  37.446  87.895  1.00  0.00    -0.322 OA
ENDROOT
BRANCH   1  14
HETATM   14  O2  UNL     1      45.188  36.096  86.083  1.00  0.00    -0.287 OA
BRANCH  14  15
HETATM   15  C6  UNL     1      44.513  34.999  85.609  1.00  0.00     0.265 C 
HETATM   16  O1  UNL     1      43.708  34.448  86.434  1.00  0.00    -0.265 OA
BRANCH  15  17
HETATM   17  C3  UNL     1      44.638  34.427  84.267  1.00  0.00     0.085 C 
BRANCH  17  18
HETATM   18  C2  UNL     1      44.880  32.931  84.292  1.00  0.00     0.010 C 
HETATM   19  C1  UNL     1      46.209  32.560  84.852  1.00  0.00     0.006 C 
ENDBRANCH  17  18
BRANCH  17  20
HETATM   20  C4  UNL     1      43.393  34.659  83.432  1.00  0.00     0.010 C 
HETATM   21  C5  UNL     1      43.467  35.977  82.688  1.00  0.00     0.006 C 
ENDBRANCH  17  20
ENDBRANCH  15  17
ENDBRANCH  14  15
ENDBRANCH   1  14
TORSDOF 5
ENDMDL
MODEL 4
REMARK VINA RESULT: -6.750923951      1.347      1.727
REMARK  5 active torsions:
REMARK  status: ('A' for Active; 'I' for Inactive)
REMARK    1  A    between atoms: C2_2  and  C3_3 
REMARK    2  A    between atoms: C3_3  and  C4_4 
REMARK    3  A    between atoms: C3_3  and  C6_6 
REMARK    4  A    between atoms: C6_6  and  O2_8 
REMARK    5  A    between atoms: O2_8  and  C7_9 
ROOT
HETATM    1  C7  UNL     1      45.020  37.878  87.097  1.00  0.00     0.296 C 
HETATM    2  C8  UNL     1      43.648  37.373  87.482  1.00  0.00     0.232 C 
HETATM    3  O3  UNL     1      43.602  36.054  87.101  1.00  0.00    -0.350 OA
HETATM    4  C9  UNL     1      44.475  36.022  85.993  1.00  0.00     0.171 C 
HETATM    5  C10 UNL     1      44.902  34.591  85.812  1.00  0.00     0.073 C 
HETATM    6  C11 UNL     1      45.030  34.205  84.357  1.00  0.00    -0.013 C 
HETATM    7  C12 UNL     1      45.475  32.735  84.347  1.00  0.00     0.010 C 
HETATM    8  C13 UNL     1      43.691  34.309  83.686  1.00  0.00     0.009 C 
HETATM    9  C14 UNL     1      42.874  35.425  84.257  1.00  0.00    -0.009 C 
HETATM   10  C15 UNL     1      41.834  35.938  83.289  1.00  0.00     0.010 C 
HETATM   11  C16 UNL     1      43.718  36.551  84.819  1.00  0.00     0.048 C 
HETATM   12  C17 UNL     1      44.602  37.140  83.749  1.00  0.00     0.016 C 
HETATM   13  O4  UNL     1      45.548  36.825  86.362  1.00  0.00    -0.322 OA
ENDROOT
BRANCH   1  14
HETATM   14  O2  UNL     1      45.729  38.112  88.301  1.00  0.00    -0.287 OA
BRANCH  14  15
HETATM   15  C6  UNL     1      45.364  39.107  89.174  1.00  0.00     0.265 C 
HETATM   16  O1  UNL     1      45.046  40.222  88.638  1.00  0.00    -0.265 OA
BRANCH  15  17
HETATM   17  C3  UNL     1      45.311  38.992  90.633  1.00  0.00     0.085 C 
BRANCH  17  18
HETATM   18  C2  UNL     1      44.517  40.111  91.276  1.00  0.00     0.010 C 
HETATM   19  C1  UNL     1      45.286  40.860  92.307  1.00  0.00     0.006 C 
ENDBRANCH  17  18
BRANCH  17  20
HETATM   20  C4  UNL     1      44.675  37.688  91.077  1.00  0.00     0.010 C 
HETATM   21  C5  UNL     1      43.177  37.835  91.244  1.00  0.00     0.006 C 
ENDBRANCH  17  20
ENDBRANCH  15  17
ENDBRANCH  14  15
ENDBRANCH   1  14
TORSDOF 5
ENDMDL
MODEL 5
REMARK VINA RESULT: -6.723187417      1.381      7.140
REMARK  5 active torsions:
REMARK  status: ('A' for Active; 'I' for Inactive)
REMARK    1  A    between atoms: C2_2  and  C3_3 
REMARK    2  A    between atoms: C3_3  and  C4_4 
REMARK    3  A    between atoms: C3_3  and  C6_6 
REMARK    4  A    between atoms: C6_6  and  O2_8 
REMARK    5  A    between atoms: O2_8  and  C7_9 
ROOT
HETATM    1  C7  UNL     1      44.309  36.552  87.232  1.00  0.00     0.296 C 
HETATM    2  C8  UNL     1      43.453  37.714  86.782  1.00  0.00     0.232 C 
HETATM    3  O3  UNL     1      44.220  38.843  86.947  1.00  0.00    -0.350 OA
HETATM    4  C9  UNL     1      45.055  38.493  88.029  1.00  0.00     0.171 C 
HETATM    5  C10 UNL     1      46.248  39.408  87.975  1.00  0.00     0.073 C 
HETATM    6  C11 UNL     1      46.721  39.823  89.347  1.00  0.00    -0.013 C 
HETATM    7  C12 UNL     1      47.934  40.737  89.119  1.00  0.00     0.010 C 
HETATM    8  C13 UNL     1      45.646  40.612  90.037  1.00  0.00     0.009 C 
HETATM    9  C14 UNL     1      44.281  40.130  89.658  1.00  0.00    -0.009 C 
HETATM   10  C15 UNL     1      43.239  40.452  90.704  1.00  0.00     0.010 C 
HETATM   11  C16 UNL     1      44.254  38.663  89.277  1.00  0.00     0.048 C 
HETATM   12  C17 UNL     1      44.735  37.806  90.422  1.00  0.00     0.016 C 
HETATM   13  O4  UNL     1      45.420  37.174  87.784  1.00  0.00    -0.322 OA
ENDROOT
BRANCH   1  14
HETATM   14  O2  UNL     1      44.626  35.797  86.075  1.00  0.00    -0.287 OA
BRANCH  14  15
HETATM   15  C6  UNL     1      43.852  34.739  85.668  1.00  0.00     0.265 C 
HETATM   16  O1  UNL     1      43.071  34.253  86.554  1.00  0.00    -0.265 OA
BRANCH  15  17
HETATM   17  C3  UNL     1      43.850  34.142  84.330  1.00  0.00     0.085 C 
BRANCH  17  18
HETATM   18  C2  UNL     1      43.332  35.091  83.269  1.00  0.00     0.010 C 
HETATM   19  C1  UNL     1      41.962  35.601  83.555  1.00  0.00     0.006 C 
ENDBRANCH  17  18
BRANCH  17  20
HETATM   20  C4  UNL     1      45.240  33.713  83.898  1.00  0.00     0.010 C 
HETATM   21  C5  UNL     1      45.823  32.693  84.855  1.00  0.00     0.006 C 
ENDBRANCH  17  20
ENDBRANCH  15  17
ENDBRANCH  14  15
ENDBRANCH   1  14
TORSDOF 5
ENDMDL
