MODEL 1
REMARK VINA RESULT: -7.207499344      0.000      0.000
REMARK  5 active torsions:
REMARK  status: ('A' for Active; 'I' for Inactive)
REMARK    1  A    between atoms: C2_2  and  C3_3 
REMARK    2  A    between atoms: C3_3  and  C4_4 
REMARK    3  A    between atoms: C7_7  and  C8_8 
REMARK    4  A    between atoms: C9_9  and  C10_10 
REMARK    5  A    between atoms: C18_20  and  O3_21 
ROOT
HETATM    1  C4  UNL     1      44.342  34.063  83.563  1.00  0.00    -0.016 C 
HETATM    2  C5  UNL     1      44.014  35.197  84.129  1.00  0.00    -0.023 C 
HETATM    3  C6  UNL     1      44.212  35.515  85.534  1.00  0.00     0.027 C 
HETATM    4  C7  UNL     1      44.353  36.799  85.999  1.00  0.00     0.039 C 
HETATM    5  C15 UNL     1      44.282  37.785  84.949  1.00  0.00     0.294 C 
HETATM    6  O1  UNL     1      44.398  38.997  85.242  1.00  0.00    -0.259 OA
HETATM    7  O2  UNL     1      44.087  37.470  83.586  1.00  0.00    -0.298 OA
HETATM    8  C16 UNL     1      43.402  36.274  83.297  1.00  0.00     0.126 A 
HETATM    9  C17 UNL     1      42.836  36.044  81.978  1.00  0.00     0.081 A 
HETATM   10  C18 UNL     1      41.938  36.411  83.160  1.00  0.00     0.161 A 
ENDROOT
BRANCH   4  11
HETATM   11  C8  UNL     1      44.543  37.001  87.407  1.00  0.00     0.014 C 
HETATM   12  C9  UNL     1      45.119  37.679  88.276  1.00  0.00    -0.021 C 
BRANCH  12  13
HETATM   13  C10 UNL     1      45.990  38.726  88.702  1.00  0.00     0.008 C 
HETATM   14  C11 UNL     1      45.496  39.348  90.041  1.00  0.00     0.008 C 
HETATM   15  C12 UNL     1      46.662  40.261  90.354  1.00  0.00     0.001 C 
HETATM   16  C13 UNL     1      47.241  40.661  89.003  1.00  0.00     0.001 C 
HETATM   17  C14 UNL     1      46.345  39.939  87.970  1.00  0.00     0.008 C 
ENDBRANCH  12  13
ENDBRANCH   4  11
BRANCH   1  18
HETATM   18  C3  UNL     1      44.966  32.941  84.297  1.00  0.00     0.027 C 
BRANCH  18  19
HETATM   19  C2  UNL     1      46.466  33.028  84.350  1.00  0.00    -0.001 C 
HETATM   20  C1  UNL     1      47.087  31.921  85.158  1.00  0.00     0.005 C 
ENDBRANCH  18  19
ENDBRANCH   1  18
BRANCH  10  21
HETATM   21  O3  UNL     1      41.362  37.695  83.138  1.00  0.00    -0.392 OA
ATOM     22  H3  UNL     1      40.418  37.782  83.080  1.00  0.00     0.210 HD
ENDBRANCH  10  21
TORSDOF 5
ENDMDL
MODEL 2
REMARK VINA RESULT: -7.039439455      0.579      1.028
REMARK  5 active torsions:
REMARK  status: ('A' for Active; 'I' for Inactive)
REMARK    1  A    between atoms: C2_2  and  C3_3 
REMARK    2  A    between atoms: C3_3  and  C4_4 
REMARK    3  A    between atoms: C7_7  and  C8_8 
REMARK    4  A    between atoms: C9_9  and  C10_10 
REMARK    5  A    between atoms: C18_20  and  O3_21 
ROOT
HETATM    1  C4  UNL     1      44.715  33.815  83.766  1.00  0.00    -0.016 C 
HETATM    2  C5  UNL     1      44.410  34.954  84.333  1.00  0.00    -0.023 C 
HETATM    3  C6  UNL     1      44.649  35.280  85.730  1.00  0.00     0.027 C 
HETATM    4  C7  UNL     1      44.811  36.567  86.182  1.00  0.00     0.039 C 
HETATM    5  C15 UNL     1      44.717  37.546  85.128  1.00  0.00     0.294 C 
HETATM    6  O1  UNL     1      44.847  38.759  85.409  1.00  0.00    -0.259 OA
HETATM    7  O2  UNL     1      44.481  37.224  83.773  1.00  0.00    -0.298 OA
HETATM    8  C16 UNL     1      43.781  36.030  83.511  1.00  0.00     0.126 A 
HETATM    9  C17 UNL     1      43.178  35.795  82.210  1.00  0.00     0.081 A 
HETATM   10  C18 UNL     1      42.315  36.174  83.415  1.00  0.00     0.161 A 
ENDROOT
BRANCH   4  11
HETATM   11  C8  UNL     1      45.042  36.776  87.583  1.00  0.00     0.014 C 
HETATM   12  C9  UNL     1      45.234  37.622  88.474  1.00  0.00    -0.021 C 
BRANCH  12  13
HETATM   13  C10 UNL     1      45.392  38.960  88.945  1.00  0.00     0.008 C 
HETATM   14  C11 UNL     1      46.595  39.657  88.245  1.00  0.00     0.008 C 
HETATM   15  C12 UNL     1      46.422  41.068  88.763  1.00  0.00     0.001 C 
HETATM   16  C13 UNL     1      45.768  40.922  90.131  1.00  0.00     0.001 C 
HETATM   17  C14 UNL     1      45.607  39.397  90.322  1.00  0.00     0.008 C 
ENDBRANCH  12  13
ENDBRANCH   4  11
BRANCH   1  18
HETATM   18  C3  UNL     1      45.354  32.694  84.489  1.00  0.00     0.027 C 
BRANCH  18  19
HETATM   19  C2  UNL     1      46.856  32.732  84.436  1.00  0.00    -0.001 C 
HETATM   20  C1  UNL     1      47.495  31.568  85.144  1.00  0.00     0.005 C 
ENDBRANCH  18  19
ENDBRANCH   1  18
BRANCH  10  21
HETATM   21  O3  UNL     1      41.746  37.462  83.400  1.00  0.00    -0.392 OA
ATOM     22  H3  UNL     1      40.961  37.619  82.889  1.00  0.00     0.210 HD
ENDBRANCH  10  21
TORSDOF 5
ENDMDL
MODEL 3
REMARK VINA RESULT: -6.873223641      1.978      3.834
REMARK  5 active torsions:
REMARK  status: ('A' for Active; 'I' for Inactive)
REMARK    1  A    between atoms: C2_2  and  C3_3 
REMARK    2  A    between atoms: C3_3  and  C4_4 
REMARK    3  A    between atoms: C7_7  and  C8_8 
REMARK    4  A    between atoms: C9_9  and  C10_10 
REMARK    5  A    between atoms: C18_20  and  O3_21 
ROOT
HETATM    1  C4  UNL     1      43.372  34.996  82.775  1.00  0.00    -0.016 C 
HETATM    2  C5  UNL     1      44.077  35.221  83.855  1.00  0.00    -0.023 C 
HETATM    3  C6  UNL     1      44.420  36.538  84.367  1.00  0.00     0.027 C 
HETATM    4  C7  UNL     1      44.685  36.780  85.692  1.00  0.00     0.039 C 
HETATM    5  C15 UNL     1      44.589  35.596  86.508  1.00  0.00     0.294 C 
HETATM    6  O1  UNL     1      44.808  35.682  87.737  1.00  0.00    -0.259 OA
HETATM    7  O2  UNL     1      44.258  34.318  86.004  1.00  0.00    -0.298 OA
HETATM    8  C16 UNL     1      44.570  34.061  84.655  1.00  0.00     0.126 A 
HETATM    9  C17 UNL     1      44.612  32.699  84.150  1.00  0.00     0.081 A 
HETATM   10  C18 UNL     1      45.903  33.472  84.423  1.00  0.00     0.161 A 
ENDROOT
BRANCH   4  11
HETATM   11  C8  UNL     1      45.014  38.120  86.090  1.00  0.00     0.014 C 
HETATM   12  C9  UNL     1      45.200  38.885  87.052  1.00  0.00    -0.021 C 
BRANCH  12  13
HETATM   13  C10 UNL     1      45.269  39.183  88.446  1.00  0.00     0.008 C 
HETATM   14  C11 UNL     1      46.647  39.809  88.812  1.00  0.00     0.008 C 
HETATM   15  C12 UNL     1      46.389  40.194  90.252  1.00  0.00     0.001 C 
HETATM   16  C13 UNL     1      45.372  39.185  90.768  1.00  0.00     0.001 C 
HETATM   17  C14 UNL     1      45.105  38.255  89.562  1.00  0.00     0.008 C 
ENDBRANCH  12  13
ENDBRANCH   4  11
BRANCH   1  18
HETATM   18  C3  UNL     1      42.826  36.075  81.923  1.00  0.00     0.027 C 
BRANCH  18  19
HETATM   19  C2  UNL     1      41.332  36.211  82.024  1.00  0.00    -0.001 C 
HETATM   20  C1  UNL     1      40.892  36.904  83.285  1.00  0.00     0.005 C 
ENDBRANCH  18  19
ENDBRANCH   1  18
BRANCH  10  21
HETATM   21  O3  UNL     1      46.671  33.044  85.523  1.00  0.00    -0.392 OA
ATOM     22  H3  UNL     1      47.612  33.172  85.514  1.00  0.00     0.210 HD
ENDBRANCH  10  21
TORSDOF 5
ENDMDL
MODEL 4
REMARK VINA RESULT: -6.825609933      1.397      2.075
REMARK  5 active torsions:
REMARK  status: ('A' for Active; 'I' for Inactive)
REMARK    1  A    between atoms: C2_2  and  C3_3 
REMARK    2  A    between atoms: C3_3  and  C4_4 
REMARK    3  A    between atoms: C7_7  and  C8_8 
REMARK    4  A    between atoms: C9_9  and  C10_10 
REMARK    5  A    between atoms: C18_20  and  O3_21 
ROOT
HETATM    1  C4  UNL     1      43.972  34.286  83.782  1.00  0.00    -0.016 C 
HETATM    2  C5  UNL     1      43.888  35.498  84.267  1.00  0.00    -0.023 C 
HETATM    3  C6  UNL     1      44.451  35.929  85.537  1.00  0.00     0.027 C 
HETATM    4  C7  UNL     1      44.807  37.230  85.795  1.00  0.00     0.039 C 
HETATM    5  C15 UNL     1      44.559  38.110  84.680  1.00  0.00     0.294 C 
HETATM    6  O1  UNL     1      44.841  39.325  84.788  1.00  0.00    -0.259 OA
HETATM    7  O2  UNL     1      44.009  37.686  83.450  1.00  0.00    -0.298 OA
HETATM    8  C16 UNL     1      43.179  36.549  83.479  1.00  0.00     0.126 A 
HETATM    9  C17 UNL     1      42.288  36.253  82.368  1.00  0.00     0.081 A 
HETATM   10  C18 UNL     1      41.743  36.829  83.676  1.00  0.00     0.161 A 
ENDROOT
BRANCH   4  11
HETATM   11  C8  UNL     1      45.355  37.547  87.083  1.00  0.00     0.014 C 
HETATM   12  C9  UNL     1      45.121  37.640  88.301  1.00  0.00    -0.021 C 
BRANCH  12  13
HETATM   13  C10 UNL     1      44.269  37.554  89.443  1.00  0.00     0.008 C 
HETATM   14  C11 UNL     1      42.921  38.290  89.187  1.00  0.00     0.008 C 
HETATM   15  C12 UNL     1      42.161  37.891  90.432  1.00  0.00     0.001 C 
HETATM   16  C13 UNL     1      43.219  37.696  91.511  1.00  0.00     0.001 C 
HETATM   17  C14 UNL     1      44.556  38.009  90.801  1.00  0.00     0.008 C 
ENDBRANCH  12  13
ENDBRANCH   4  11
BRANCH   1  18
HETATM   18  C3  UNL     1      44.665  33.180  84.478  1.00  0.00     0.027 C 
BRANCH  18  19
HETATM   19  C2  UNL     1      46.143  33.138  84.201  1.00  0.00    -0.001 C 
HETATM   20  C1  UNL     1      46.866  32.123  85.044  1.00  0.00     0.005 C 
ENDBRANCH  18  19
ENDBRANCH   1  18
BRANCH  10  21
HETATM   21  O3  UNL     1      41.285  38.160  83.635  1.00  0.00    -0.392 OA
ATOM     22  H3  UNL     1      41.356  38.652  82.826  1.00  0.00     0.210 HD
ENDBRANCH  10  21
TORSDOF 5
ENDMDL
MODEL 5
REMARK VINA RESULT: -6.683112623      2.198      2.726
REMARK  5 active torsions:
REMARK  status: ('A' for Active; 'I' for Inactive)
REMARK    1  A    between atoms: C2_2  and  C3_3 
REMARK    2  A    between atoms: C3_3  and  C4_4 
REMARK    3  A    between atoms: C7_7  and  C8_8 
REMARK    4  A    between atoms: C9_9  and  C10_10 
REMARK    5  A    between atoms: C18_20  and  O3_21 
ROOT
HETATM    1  C4  UNL     1      43.035  34.442  84.321  1.00  0.00    -0.016 C 
HETATM    2  C5  UNL     1      42.887  35.129  85.425  1.00  0.00    -0.023 C 
HETATM    3  C6  UNL     1      43.977  35.626  86.250  1.00  0.00     0.027 C 
HETATM    4  C7  UNL     1      43.857  36.724  87.065  1.00  0.00     0.039 C 
HETATM    5  C15 UNL     1      42.545  37.319  87.014  1.00  0.00     0.294 C 
HETATM    6  O1  UNL     1      42.306  38.330  87.714  1.00  0.00    -0.259 OA
HETATM    7  O2  UNL     1      41.489  36.830  86.214  1.00  0.00    -0.298 OA
HETATM    8  C16 UNL     1      41.510  35.458  85.897  1.00  0.00     0.126 A 
HETATM    9  C17 UNL     1      40.314  34.792  85.406  1.00  0.00     0.081 A 
HETATM   10  C18 UNL     1      40.787  34.587  86.846  1.00  0.00     0.161 A 
ENDROOT
BRANCH   4  11
HETATM   11  C8  UNL     1      44.997  37.130  87.838  1.00  0.00     0.014 C 
HETATM   12  C9  UNL     1      45.409  37.883  88.738  1.00  0.00    -0.021 C 
BRANCH  12  13
HETATM   13  C10 UNL     1      45.235  38.899  89.725  1.00  0.00     0.008 C 
HETATM   14  C11 UNL     1      46.439  39.887  89.722  1.00  0.00     0.008 C 
HETATM   15  C12 UNL     1      45.925  40.932  90.688  1.00  0.00     0.001 C 
HETATM   16  C13 UNL     1      45.006  40.186  91.646  1.00  0.00     0.001 C 
HETATM   17  C14 UNL     1      45.054  38.719  91.163  1.00  0.00     0.008 C 
ENDBRANCH  12  13
ENDBRANCH   4  11
BRANCH   1  18
HETATM   18  C3  UNL     1      44.356  34.079  83.763  1.00  0.00     0.027 C 
BRANCH  18  19
HETATM   19  C2  UNL     1      44.810  32.702  84.161  1.00  0.00    -0.001 C 
HETATM   20  C1  UNL     1      46.149  32.705  84.847  1.00  0.00     0.005 C 
ENDBRANCH  18  19
ENDBRANCH   1  18
BRANCH  10  21
HETATM   21  O3  UNL     1      39.999  35.170  87.856  1.00  0.00    -0.392 OA
ATOM     22  H3  UNL     1      40.172  34.956  88.765  1.00  0.00     0.210 HD
ENDBRANCH  10  21
TORSDOF 5
ENDMDL
