MODEL 1
REMARK VINA RESULT: -6.369888998      0.000      0.000
REMARK  4 active torsions:
REMARK  status: ('A' for Active; 'I' for Inactive)
REMARK    1  A    between atoms: C2_2  and  C3_3 
REMARK    2  A    between atoms: C2_2  and  C16_19 
REMARK    3  A    between atoms: C4_4  and  C5_5 
REMARK    4  A    between atoms: C7_7  and  C8_8 
ROOT
HETATM    1  C8  UNL     1      43.801  36.117  85.836  1.00  0.00     0.155 C 
HETATM    2  C9  UNL     1      44.507  37.369  85.430  1.00  0.00     0.042 C 
HETATM    3  C10 UNL     1      44.834  38.325  86.516  1.00  0.00     0.002 C 
HETATM    4  C11 UNL     1      45.382  37.729  87.766  1.00  0.00     0.011 C 
HETATM    5  C12 UNL     1      43.676  39.265  86.744  1.00  0.00     0.106 C 
HETATM    6  C13 UNL     1      44.195  40.442  87.479  1.00  0.00     0.065 C 
HETATM    7  N1  UNL     1      44.606  41.370  88.035  1.00  0.00    -0.197 NA
HETATM    8  C14 UNL     1      42.474  38.685  87.356  1.00  0.00     0.130 C 
HETATM    9  C15 UNL     1      42.464  37.259  87.620  1.00  0.00     0.260 C 
HETATM   10  O1  UNL     1      41.670  36.901  88.555  1.00  0.00    -0.265 OA
HETATM   11  O2  UNL     1      43.140  36.208  87.066  1.00  0.00    -0.312 OA
ENDROOT
BRANCH   1  12
HETATM   12  C7  UNL     1      44.703  34.936  85.839  1.00  0.00     0.012 C 
HETATM   13  C5  UNL     1      44.805  34.069  84.864  1.00  0.00    -0.063 C 
HETATM   14  C6  UNL     1      43.990  34.214  83.640  1.00  0.00     0.048 C 
BRANCH  13  15
HETATM   15  C4  UNL     1      45.733  32.935  84.974  1.00  0.00     0.007 C 
HETATM   16  C3  UNL     1      46.985  33.025  84.630  1.00  0.00     0.007 C 
BRANCH  16  17
HETATM   17  C2  UNL     1      47.976  31.977  84.701  1.00  0.00    -0.064 C 
HETATM   18  C1  UNL     1      47.695  30.864  85.376  1.00  0.00     0.019 C 
BRANCH  17  19
HETATM   19  C16 UNL     1      49.311  32.092  84.051  1.00  0.00     0.009 C 
HETATM   20  C17 UNL     1      49.873  33.483  84.169  1.00  0.00     0.014 C 
HETATM   21  C18 UNL     1      50.300  31.068  84.511  1.00  0.00     0.014 C 
ENDBRANCH  17  19
ENDBRANCH  16  17
ENDBRANCH  13  15
ENDBRANCH   1  12
TORSDOF 4
ENDMDL
MODEL 2
REMARK VINA RESULT: -6.242913489      4.106      7.794
REMARK  4 active torsions:
REMARK  status: ('A' for Active; 'I' for Inactive)
REMARK    1  A    between atoms: C2_2  and  C3_3 
REMARK    2  A    between atoms: C2_2  and  C16_19 
REMARK    3  A    between atoms: C4_4  and  C5_5 
REMARK    4  A    between atoms: C7_7  and  C8_8 
ROOT
HETATM    1  C8  UNL     1      43.645  37.737  84.609  1.00  0.00     0.155 C 
HETATM    2  C9  UNL     1      44.002  36.674  85.596  1.00  0.00     0.042 C 
HETATM    3  C10 UNL     1      44.763  35.514  85.071  1.00  0.00     0.002 C 
HETATM    4  C11 UNL     1      45.876  35.835  84.133  1.00  0.00     0.011 C 
HETATM    5  C12 UNL     1      43.812  34.464  84.553  1.00  0.00     0.106 C 
HETATM    6  C13 UNL     1      44.560  33.188  84.469  1.00  0.00     0.065 C 
HETATM    7  N1  UNL     1      45.139  32.187  84.424  1.00  0.00    -0.197 NA
HETATM    8  C14 UNL     1      43.085  34.790  83.320  1.00  0.00     0.130 C 
HETATM    9  C15 UNL     1      43.277  36.108  82.744  1.00  0.00     0.260 C 
HETATM   10  O1  UNL     1      43.052  36.172  81.488  1.00  0.00    -0.265 OA
HETATM   11  O2  UNL     1      43.656  37.308  83.278  1.00  0.00    -0.312 OA
ENDROOT
BRANCH   1  12
HETATM   12  C7  UNL     1      44.496  38.947  84.751  1.00  0.00     0.012 C 
HETATM   13  C5  UNL     1      44.091  40.097  85.227  1.00  0.00    -0.063 C 
HETATM   14  C6  UNL     1      42.695  40.275  85.675  1.00  0.00     0.048 C 
BRANCH  13  15
HETATM   15  C4  UNL     1      45.022  41.230  85.322  1.00  0.00     0.007 C 
HETATM   16  C3  UNL     1      45.350  41.949  84.287  1.00  0.00     0.007 C 
BRANCH  16  17
HETATM   17  C2  UNL     1      46.249  43.078  84.272  1.00  0.00    -0.064 C 
HETATM   18  C1  UNL     1      46.285  43.893  85.326  1.00  0.00     0.019 C 
BRANCH  17  19
HETATM   19  C16 UNL     1      47.141  43.377  83.117  1.00  0.00     0.009 C 
HETATM   20  C17 UNL     1      48.448  43.977  83.560  1.00  0.00     0.014 C 
HETATM   21  C18 UNL     1      47.361  42.214  82.204  1.00  0.00     0.014 C 
ENDBRANCH  17  19
ENDBRANCH  16  17
ENDBRANCH  13  15
ENDBRANCH   1  12
TORSDOF 4
ENDMDL
MODEL 3
REMARK VINA RESULT: -6.222887271      4.285      7.858
REMARK  4 active torsions:
REMARK  status: ('A' for Active; 'I' for Inactive)
REMARK    1  A    between atoms: C2_2  and  C3_3 
REMARK    2  A    between atoms: C2_2  and  C16_19 
REMARK    3  A    between atoms: C4_4  and  C5_5 
REMARK    4  A    between atoms: C7_7  and  C8_8 
ROOT
HETATM    1  C8  UNL     1      44.678  38.907  86.938  1.00  0.00     0.155 C 
HETATM    2  C9  UNL     1      43.668  37.989  87.545  1.00  0.00     0.042 C 
HETATM    3  C10 UNL     1      43.659  36.593  87.043  1.00  0.00     0.002 C 
HETATM    4  C11 UNL     1      44.994  35.954  86.866  1.00  0.00     0.011 C 
HETATM    5  C12 UNL     1      42.765  36.485  85.831  1.00  0.00     0.106 C 
HETATM    6  C13 UNL     1      42.432  35.053  85.650  1.00  0.00     0.065 C 
HETATM    7  N1  UNL     1      42.156  33.936  85.521  1.00  0.00    -0.197 NA
HETATM    8  C14 UNL     1      43.249  37.127  84.603  1.00  0.00     0.130 C 
HETATM    9  C15 UNL     1      44.493  37.869  84.666  1.00  0.00     0.260 C 
HETATM   10  O1  UNL     1      45.104  37.971  83.548  1.00  0.00    -0.265 OA
HETATM   11  O2  UNL     1      45.153  38.488  85.690  1.00  0.00    -0.312 OA
ENDROOT
BRANCH   1  12
HETATM   12  C7  UNL     1      45.824  39.166  87.848  1.00  0.00     0.012 C 
HETATM   13  C5  UNL     1      46.360  40.342  88.062  1.00  0.00    -0.063 C 
HETATM   14  C6  UNL     1      45.836  41.542  87.378  1.00  0.00     0.048 C 
BRANCH  13  15
HETATM   15  C4  UNL     1      47.493  40.482  88.986  1.00  0.00     0.007 C 
HETATM   16  C3  UNL     1      47.872  41.638  89.451  1.00  0.00     0.007 C 
BRANCH  16  17
HETATM   17  C2  UNL     1      48.966  41.884  90.360  1.00  0.00    -0.064 C 
HETATM   18  C1  UNL     1      49.428  40.881  91.106  1.00  0.00     0.019 C 
BRANCH  17  19
HETATM   19  C16 UNL     1      49.601  43.224  90.506  1.00  0.00     0.009 C 
HETATM   20  C17 UNL     1      50.845  43.165  91.349  1.00  0.00     0.014 C 
HETATM   21  C18 UNL     1      49.860  43.917  89.206  1.00  0.00     0.014 C 
ENDBRANCH  17  19
ENDBRANCH  16  17
ENDBRANCH  13  15
ENDBRANCH   1  12
TORSDOF 4
ENDMDL
MODEL 4
REMARK VINA RESULT: -6.216967731      4.328      8.206
REMARK  4 active torsions:
REMARK  status: ('A' for Active; 'I' for Inactive)
REMARK    1  A    between atoms: C2_2  and  C3_3 
REMARK    2  A    between atoms: C2_2  and  C16_19 
REMARK    3  A    between atoms: C4_4  and  C5_5 
REMARK    4  A    between atoms: C7_7  and  C8_8 
ROOT
HETATM    1  C8  UNL     1      42.103  35.712  85.056  1.00  0.00     0.155 C 
HETATM    2  C9  UNL     1      42.580  34.304  84.911  1.00  0.00     0.042 C 
HETATM    3  C10 UNL     1      44.002  34.051  85.253  1.00  0.00     0.002 C 
HETATM    4  C11 UNL     1      44.503  34.711  86.492  1.00  0.00     0.011 C 
HETATM    5  C12 UNL     1      44.873  34.283  84.043  1.00  0.00     0.106 C 
HETATM    6  C13 UNL     1      46.166  33.602  84.288  1.00  0.00     0.065 C 
HETATM    7  N1  UNL     1      47.168  33.052  84.472  1.00  0.00    -0.197 NA
HETATM    8  C14 UNL     1      45.027  35.675  83.605  1.00  0.00     0.130 C 
HETATM    9  C15 UNL     1      44.280  36.699  84.311  1.00  0.00     0.260 C 
HETATM   10  O1  UNL     1      44.795  37.867  84.247  1.00  0.00    -0.265 OA
HETATM   11  O2  UNL     1      43.125  36.667  85.041  1.00  0.00    -0.312 OA
ENDROOT
BRANCH   1  12
HETATM   12  C7  UNL     1      41.261  35.900  86.267  1.00  0.00     0.012 C 
HETATM   13  C5  UNL     1      39.961  35.751  86.307  1.00  0.00    -0.063 C 
HETATM   14  C6  UNL     1      39.211  35.370  85.092  1.00  0.00     0.048 C 
BRANCH  13  15
HETATM   15  C4  UNL     1      39.228  35.964  87.562  1.00  0.00     0.007 C 
HETATM   16  C3  UNL     1      38.588  35.004  88.164  1.00  0.00     0.007 C 
BRANCH  16  17
HETATM   17  C2  UNL     1      37.842  35.106  89.396  1.00  0.00    -0.064 C 
HETATM   18  C1  UNL     1      37.118  36.200  89.628  1.00  0.00     0.019 C 
BRANCH  17  19
HETATM   19  C16 UNL     1      37.853  34.035  90.431  1.00  0.00     0.009 C 
HETATM   20  C17 UNL     1      38.320  34.549  91.765  1.00  0.00     0.014 C 
HETATM   21  C18 UNL     1      36.556  33.301  90.557  1.00  0.00     0.014 C 
ENDBRANCH  17  19
ENDBRANCH  16  17
ENDBRANCH  13  15
ENDBRANCH   1  12
TORSDOF 4
ENDMDL
MODEL 5
REMARK VINA RESULT: -6.149939163      4.164      7.862
REMARK  4 active torsions:
REMARK  status: ('A' for Active; 'I' for Inactive)
REMARK    1  A    between atoms: C2_2  and  C3_3 
REMARK    2  A    between atoms: C2_2  and  C16_19 
REMARK    3  A    between atoms: C4_4  and  C5_5 
REMARK    4  A    between atoms: C7_7  and  C8_8 
ROOT
HETATM    1  C8  UNL     1      44.620  38.902  86.866  1.00  0.00     0.155 C 
HETATM    2  C9  UNL     1      43.607  37.988  87.475  1.00  0.00     0.042 C 
HETATM    3  C10 UNL     1      43.618  36.582  87.003  1.00  0.00     0.002 C 
HETATM    4  C11 UNL     1      44.960  35.951  86.864  1.00  0.00     0.011 C 
HETATM    5  C12 UNL     1      42.747  36.441  85.778  1.00  0.00     0.106 C 
HETATM    6  C13 UNL     1      42.428  35.003  85.622  1.00  0.00     0.065 C 
HETATM    7  N1  UNL     1      42.163  33.881  85.511  1.00  0.00    -0.197 NA
HETATM    8  C14 UNL     1      43.247  37.060  84.545  1.00  0.00     0.130 C 
HETATM    9  C15 UNL     1      44.485  37.814  84.615  1.00  0.00     0.260 C 
HETATM   10  O1  UNL     1      45.115  37.897  83.506  1.00  0.00    -0.265 OA
HETATM   11  O2  UNL     1      45.121  38.460  85.637  1.00  0.00    -0.312 OA
ENDROOT
BRANCH   1  12
HETATM   12  C7  UNL     1      45.747  39.190  87.791  1.00  0.00     0.012 C 
HETATM   13  C5  UNL     1      46.262  40.376  87.998  1.00  0.00    -0.063 C 
HETATM   14  C6  UNL     1      45.731  41.559  87.292  1.00  0.00     0.048 C 
BRANCH  13  15
HETATM   15  C4  UNL     1      47.379  40.545  88.938  1.00  0.00     0.007 C 
HETATM   16  C3  UNL     1      47.192  40.813  90.198  1.00  0.00     0.007 C 
BRANCH  16  17
HETATM   17  C2  UNL     1      48.215  40.996  91.201  1.00  0.00    -0.064 C 
HETATM   18  C1  UNL     1      49.453  40.573  90.949  1.00  0.00     0.019 C 
BRANCH  17  19
HETATM   19  C16 UNL     1      47.941  41.636  92.518  1.00  0.00     0.009 C 
HETATM   20  C17 UNL     1      48.114  43.129  92.461  1.00  0.00     0.014 C 
HETATM   21  C18 UNL     1      46.617  41.267  93.107  1.00  0.00     0.014 C 
ENDBRANCH  17  19
ENDBRANCH  16  17
ENDBRANCH  13  15
ENDBRANCH   1  12
TORSDOF 4
ENDMDL
