MODEL 1
REMARK VINA RESULT: -6.820252679      0.000      0.000
REMARK  4 active torsions:
REMARK  status: ('A' for Active; 'I' for Inactive)
REMARK    1  A    between atoms: C2_2  and  C4_4 
REMARK    2  A    between atoms: C4_4  and  N1_5 
REMARK    3  A    between atoms: C13_14  and  C14_15 
REMARK    4  A    between atoms: C14_15  and  N2_16 
ROOT
HETATM    1  N1  UNL     1      43.777  34.573  85.240  1.00  0.00     0.102 N 
HETATM    2  C5  UNL     1      43.327  35.366  86.373  1.00  0.00     0.283 C 
HETATM    3  C6  UNL     1      44.207  36.640  86.339  1.00  0.00    -0.012 C 
HETATM    4  C7  UNL     1      45.228  36.656  87.427  1.00  0.00     0.011 C 
HETATM    5  C8  UNL     1      45.503  38.076  87.904  1.00  0.00     0.001 C 
HETATM    6  C9  UNL     1      44.290  38.763  88.383  1.00  0.00     0.000 C 
HETATM    7  C10 UNL     1      43.030  38.120  87.824  1.00  0.00     0.001 C 
HETATM    8  C11 UNL     1      43.357  37.857  86.334  1.00  0.00     0.011 C 
HETATM    9  C12 UNL     1      44.970  36.433  84.993  1.00  0.00     0.052 C 
HETATM   10  C13 UNL     1      45.119  34.956  85.049  1.00  0.00     0.266 C 
ENDROOT
BRANCH  10  11
HETATM   11  C14 UNL     1      45.902  34.173  84.116  1.00  0.00     0.145 C 
BRANCH  11  12
HETATM   12  N2  UNL     1      46.828  33.209  84.601  1.00  0.00    -0.210 N 
HETATM   13  N3  UNL     1      46.536  32.142  85.351  1.00  0.00    -0.290 N 
HETATM   14  C15 UNL     1      47.671  31.335  85.403  1.00  0.00     0.135 A 
ATOM     15  H3  UNL     1      45.643  31.952  85.805  1.00  0.00     0.188 HD
HETATM   16  C16 UNL     1      48.619  31.962  84.653  1.00  0.00     0.040 A 
HETATM   17  C17 UNL     1      49.978  31.478  84.258  1.00  0.00     0.071 C 
HETATM   18  N4  UNL     1      48.096  33.087  84.189  1.00  0.00    -0.283 N 
ATOM     19  H4  UNL     1      48.587  33.762  83.604  1.00  0.00     0.188 HD
ENDBRANCH  11  12
ENDBRANCH  10  11
BRANCH   1  20
HETATM   20  C4  UNL     1      42.956  34.627  84.102  1.00  0.00     0.306 C 
BRANCH  20  21
HETATM   21  C2  UNL     1      41.614  35.395  84.310  1.00  0.00    -0.065 C 
HETATM   22  C1  UNL     1      40.796  35.136  85.136  1.00  0.00     0.015 C 
HETATM   23  C3  UNL     1      41.568  36.602  83.331  1.00  0.00     0.044 C 
ENDBRANCH  20  21
ENDBRANCH   1  20
TORSDOF 4
ENDMDL
MODEL 2
REMARK VINA RESULT: -6.589526323      1.536      2.444
REMARK  4 active torsions:
REMARK  status: ('A' for Active; 'I' for Inactive)
REMARK    1  A    between atoms: C2_2  and  C4_4 
REMARK    2  A    between atoms: C4_4  and  N1_5 
REMARK    3  A    between atoms: C13_14  and  C14_15 
REMARK    4  A    between atoms: C14_15  and  N2_16 
ROOT
HETATM    1  N1  UNL     1      43.348  36.668  86.586  1.00  0.00     0.102 N 
HETATM    2  C5  UNL     1      43.542  37.392  87.833  1.00  0.00     0.283 C 
HETATM    3  C6  UNL     1      44.447  38.591  87.457  1.00  0.00    -0.012 C 
HETATM    4  C7  UNL     1      45.841  38.432  87.964  1.00  0.00     0.011 C 
HETATM    5  C8  UNL     1      46.454  39.779  88.325  1.00  0.00     0.001 C 
HETATM    6  C9  UNL     1      45.665  40.514  89.330  1.00  0.00     0.000 C 
HETATM    7  C10 UNL     1      44.227  40.023  89.377  1.00  0.00     0.001 C 
HETATM    8  C11 UNL     1      43.822  39.866  87.890  1.00  0.00     0.011 C 
HETATM    9  C12 UNL     1      44.500  38.443  85.904  1.00  0.00     0.052 C 
HETATM   10  C13 UNL     1      44.497  36.960  85.824  1.00  0.00     0.266 C 
ENDROOT
BRANCH  10  11
HETATM   11  C14 UNL     1      44.690  36.203  84.605  1.00  0.00     0.145 C 
BRANCH  11  12
HETATM   12  N2  UNL     1      44.922  34.802  84.669  1.00  0.00    -0.210 N 
HETATM   13  N3  UNL     1      44.163  33.849  84.119  1.00  0.00    -0.290 N 
HETATM   14  C15 UNL     1      44.861  32.646  84.205  1.00  0.00     0.135 A 
ATOM     15  H3  UNL     1      43.238  33.979  83.709  1.00  0.00     0.188 HD
HETATM   16  C16 UNL     1      46.045  32.935  84.810  1.00  0.00     0.040 A 
HETATM   17  C17 UNL     1      47.229  32.048  85.035  1.00  0.00     0.071 C 
HETATM   18  N4  UNL     1      46.058  34.230  85.088  1.00  0.00    -0.283 N 
ATOM     19  H4  UNL     1      46.822  34.721  85.553  1.00  0.00     0.188 HD
ENDBRANCH  11  12
ENDBRANCH  10  11
BRANCH   1  20
HETATM   20  C4  UNL     1      42.116  36.885  85.947  1.00  0.00     0.306 C 
BRANCH  20  21
HETATM   21  C2  UNL     1      41.356  35.580  85.556  1.00  0.00    -0.065 C 
HETATM   22  C1  UNL     1      41.061  34.705  86.308  1.00  0.00     0.015 C 
HETATM   23  C3  UNL     1      40.969  35.655  84.052  1.00  0.00     0.044 C 
ENDBRANCH  20  21
ENDBRANCH   1  20
TORSDOF 4
ENDMDL
MODEL 3
REMARK VINA RESULT: -6.526184775      1.387      1.582
REMARK  4 active torsions:
REMARK  status: ('A' for Active; 'I' for Inactive)
REMARK    1  A    between atoms: C2_2  and  C4_4 
REMARK    2  A    between atoms: C4_4  and  N1_5 
REMARK    3  A    between atoms: C13_14  and  C14_15 
REMARK    4  A    between atoms: C14_15  and  N2_16 
ROOT
HETATM    1  N1  UNL     1      43.148  36.426  84.920  1.00  0.00     0.102 N 
HETATM    2  C5  UNL     1      42.739  37.055  86.167  1.00  0.00     0.283 C 
HETATM    3  C6  UNL     1      44.028  37.715  86.718  1.00  0.00    -0.012 C 
HETATM    4  C7  UNL     1      44.579  36.987  87.897  1.00  0.00     0.011 C 
HETATM    5  C8  UNL     1      45.250  37.945  88.873  1.00  0.00     0.001 C 
HETATM    6  C9  UNL     1      44.341  39.003  89.351  1.00  0.00     0.000 C 
HETATM    7  C10 UNL     1      43.165  39.195  88.406  1.00  0.00     0.001 C 
HETATM    8  C11 UNL     1      43.795  39.155  86.991  1.00  0.00     0.011 C 
HETATM    9  C12 UNL     1      45.010  37.479  85.528  1.00  0.00     0.052 C 
HETATM   10  C13 UNL     1      44.517  36.145  85.097  1.00  0.00     0.266 C 
ENDROOT
BRANCH  10  11
HETATM   11  C14 UNL     1      45.156  35.318  84.094  1.00  0.00     0.145 C 
BRANCH  11  12
HETATM   12  N2  UNL     1      45.891  34.167  84.488  1.00  0.00    -0.210 N 
HETATM   13  N3  UNL     1      45.376  32.997  84.881  1.00  0.00    -0.290 N 
HETATM   14  C15 UNL     1      46.416  32.073  84.941  1.00  0.00     0.135 A 
ATOM     15  H3  UNL     1      44.396  32.814  85.098  1.00  0.00     0.188 HD
HETATM   16  C16 UNL     1      47.541  32.739  84.562  1.00  0.00     0.040 A 
HETATM   17  C17 UNL     1      48.917  32.203  84.320  1.00  0.00     0.071 C 
HETATM   18  N4  UNL     1      47.206  33.994  84.303  1.00  0.00    -0.283 N 
ATOM     19  H4  UNL     1      47.854  34.723  84.007  1.00  0.00     0.188 HD
ENDBRANCH  11  12
ENDBRANCH  10  11
BRANCH   1  20
HETATM   20  C4  UNL     1      42.812  37.128  83.751  1.00  0.00     0.306 C 
BRANCH  20  21
HETATM   21  C2  UNL     1      41.947  36.315  82.739  1.00  0.00    -0.065 C 
HETATM   22  C1  UNL     1      40.802  36.023  82.892  1.00  0.00     0.015 C 
HETATM   23  C3  UNL     1      42.794  36.033  81.466  1.00  0.00     0.044 C 
ENDBRANCH  20  21
ENDBRANCH   1  20
TORSDOF 4
ENDMDL
MODEL 4
REMARK VINA RESULT: -6.421922073      2.098      3.971
REMARK  4 active torsions:
REMARK  status: ('A' for Active; 'I' for Inactive)
REMARK    1  A    between atoms: C2_2  and  C4_4 
REMARK    2  A    between atoms: C4_4  and  N1_5 
REMARK    3  A    between atoms: C13_14  and  C14_15 
REMARK    4  A    between atoms: C14_15  and  N2_16 
ROOT
HETATM    1  N1  UNL     1      42.003  35.601  84.747  1.00  0.00     0.102 N 
HETATM    2  C5  UNL     1      40.558  35.513  84.890  1.00  0.00     0.283 C 
HETATM    3  C6  UNL     1      40.281  35.929  86.356  1.00  0.00    -0.012 C 
HETATM    4  C7  UNL     1      39.892  34.771  87.212  1.00  0.00     0.011 C 
HETATM    5  C8  UNL     1      38.905  35.191  88.293  1.00  0.00     0.001 C 
HETATM    6  C9  UNL     1      37.683  35.805  87.744  1.00  0.00     0.000 C 
HETATM    7  C10 UNL     1      37.910  36.331  86.336  1.00  0.00     0.001 C 
HETATM    8  C11 UNL     1      39.289  37.033  86.401  1.00  0.00     0.011 C 
HETATM    9  C12 UNL     1      41.705  36.380  86.808  1.00  0.00     0.052 C 
HETATM   10  C13 UNL     1      42.503  35.385  86.046  1.00  0.00     0.266 C 
ENDROOT
BRANCH  10  11
HETATM   11  C14 UNL     1      43.933  35.203  86.181  1.00  0.00     0.145 C 
BRANCH  11  12
HETATM   12  N2  UNL     1      44.566  34.084  85.575  1.00  0.00    -0.210 N 
HETATM   13  N3  UNL     1      44.124  33.408  84.509  1.00  0.00    -0.290 N 
HETATM   14  C15 UNL     1      45.143  32.554  84.094  1.00  0.00     0.135 A 
ATOM     15  H3  UNL     1      43.205  33.502  84.077  1.00  0.00     0.188 HD
HETATM   16  C16 UNL     1      46.186  32.764  84.943  1.00  0.00     0.040 A 
HETATM   17  C17 UNL     1      47.576  32.213  84.881  1.00  0.00     0.071 C 
HETATM   18  N4  UNL     1      45.816  33.677  85.827  1.00  0.00    -0.283 N 
ATOM     19  H4  UNL     1      46.399  34.022  86.590  1.00  0.00     0.188 HD
ENDBRANCH  11  12
ENDBRANCH  10  11
BRANCH   1  20
HETATM   20  C4  UNL     1      42.476  36.749  84.090  1.00  0.00     0.306 C 
BRANCH  20  21
HETATM   21  C2  UNL     1      43.304  36.459  82.801  1.00  0.00    -0.065 C 
HETATM   22  C1  UNL     1      42.856  36.057  81.773  1.00  0.00     0.015 C 
HETATM   23  C3  UNL     1      44.783  36.868  83.050  1.00  0.00     0.044 C 
ENDBRANCH  20  21
ENDBRANCH   1  20
TORSDOF 4
ENDMDL
MODEL 5
REMARK VINA RESULT: -6.339774707      1.369      3.881
REMARK  4 active torsions:
REMARK  status: ('A' for Active; 'I' for Inactive)
REMARK    1  A    between atoms: C2_2  and  C4_4 
REMARK    2  A    between atoms: C4_4  and  N1_5 
REMARK    3  A    between atoms: C13_14  and  C14_15 
REMARK    4  A    between atoms: C14_15  and  N2_16 
ROOT
HETATM    1  N1  UNL     1      43.987  36.753  85.473  1.00  0.00     0.102 N 
HETATM    2  C5  UNL     1      42.598  37.148  85.645  1.00  0.00     0.283 C 
HETATM    3  C6  UNL     1      41.777  35.934  85.143  1.00  0.00    -0.012 C 
HETATM    4  C7  UNL     1      41.123  36.195  83.828  1.00  0.00     0.011 C 
HETATM    5  C8  UNL     1      39.791  35.464  83.720  1.00  0.00     0.001 C 
HETATM    6  C9  UNL     1      38.852  35.827  84.797  1.00  0.00     0.000 C 
HETATM    7  C10 UNL     1      39.580  36.410  85.997  1.00  0.00     0.001 C 
HETATM    8  C11 UNL     1      40.815  35.494  86.184  1.00  0.00     0.011 C 
HETATM    9  C12 UNL     1      42.914  34.894  84.895  1.00  0.00     0.052 C 
HETATM   10  C13 UNL     1      43.965  35.827  84.412  1.00  0.00     0.266 C 
ENDROOT
BRANCH  10  11
HETATM   11  C14 UNL     1      45.242  35.414  83.868  1.00  0.00     0.145 C 
BRANCH  11  12
HETATM   12  N2  UNL     1      45.867  34.230  84.346  1.00  0.00    -0.210 N 
HETATM   13  N3  UNL     1      45.249  33.098  84.699  1.00  0.00    -0.290 N 
HETATM   14  C15 UNL     1      46.223  32.118  84.873  1.00  0.00     0.135 A 
ATOM     15  H3  UNL     1      44.244  32.975  84.820  1.00  0.00     0.188 HD
HETATM   16  C16 UNL     1      47.416  32.714  84.600  1.00  0.00     0.040 A 
HETATM   17  C17 UNL     1      48.776  32.097  84.502  1.00  0.00     0.071 C 
HETATM   18  N4  UNL     1      47.181  33.981  84.295  1.00  0.00    -0.283 N 
ATOM     19  H4  UNL     1      47.897  34.667  84.057  1.00  0.00     0.188 HD
ENDBRANCH  11  12
ENDBRANCH  10  11
BRANCH   1  20
HETATM   20  C4  UNL     1      44.644  36.333  86.641  1.00  0.00     0.306 C 
BRANCH  20  21
HETATM   21  C2  UNL     1      44.969  37.481  87.646  1.00  0.00    -0.065 C 
HETATM   22  C1  UNL     1      45.018  37.363  88.831  1.00  0.00     0.015 C 
HETATM   23  C3  UNL     1      45.305  38.770  86.846  1.00  0.00     0.044 C 
ENDBRANCH  20  21
ENDBRANCH   1  20
TORSDOF 4
ENDMDL
