MODEL 1
REMARK VINA RESULT: -7.133673832      0.000      0.000
REMARK  4 active torsions:
REMARK  status: ('A' for Active; 'I' for Inactive)
REMARK    1  A    between atoms: C3_4  and  C4_5 
REMARK    2  A    between atoms: C4_5  and  C5_6 
REMARK    3  A    between atoms: C5_6  and  C6_7 
REMARK    4  A    between atoms: C7_10  and  C8_11 
ROOT
HETATM    1  C6  UNL     1      44.895  36.259  86.831  1.00  0.00     0.148 A 
HETATM    2  N2  UNL     1      43.724  36.021  86.202  1.00  0.00    -0.327 N 
ATOM      3  H2  UNL     1      42.806  36.282  86.561  1.00  0.00     0.169 HD
HETATM    4  C7  UNL     1      43.942  35.390  85.036  1.00  0.00     0.108 A 
HETATM    5  N3  UNL     1      45.290  35.250  84.970  1.00  0.00    -0.247 N 
ATOM      6  H3  UNL     1      45.803  34.808  84.208  1.00  0.00     0.196 HD
HETATM    7  O1  UNL     1      45.815  35.764  86.026  1.00  0.00    -0.223 OA
ENDROOT
BRANCH   1   8
HETATM    8  C5  UNL     1      45.132  36.928  88.137  1.00  0.00     0.087 C 
BRANCH   8   9
HETATM    9  C4  UNL     1      45.521  38.355  87.896  1.00  0.00     0.015 C 
BRANCH   9  10
HETATM   10  C3  UNL     1      45.065  39.257  89.013  1.00  0.00     0.020 C 
HETATM   11  C2  UNL     1      45.059  38.569  90.352  1.00  0.00     0.277 C 
HETATM   12  N1  UNL     1      45.029  39.700  91.263  1.00  0.00     0.089 N 
HETATM   13  C1  UNL     1      43.683  40.218  91.351  1.00  0.00     0.310 C 
HETATM   14  C18 UNL     1      45.941  40.691  90.719  1.00  0.00     0.227 C 
HETATM   15  C13 UNL     1      45.985  40.411  89.248  1.00  0.00     0.025 C 
HETATM   16  C17 UNL     1      47.255  40.533  91.418  1.00  0.00     0.036 C 
HETATM   17  C14 UNL     1      47.381  40.191  88.729  1.00  0.00     0.007 C 
HETATM   18  C15 UNL     1      48.224  41.354  89.250  1.00  0.00     0.001 C 
HETATM   19  C16 UNL     1      48.412  41.150  90.713  1.00  0.00     0.002 C 
ENDBRANCH   9  10
ENDBRANCH   8   9
ENDBRANCH   1   8
BRANCH   4  20
HETATM   20  C8  UNL     1      42.928  34.951  84.047  1.00  0.00     0.055 C 
HETATM   21  C9  UNL     1      43.297  35.357  82.644  1.00  0.00     0.012 C 
HETATM   22  C10 UNL     1      42.073  36.094  82.121  1.00  0.00     0.001 C 
HETATM   23  C11 UNL     1      41.623  36.821  83.393  1.00  0.00     0.001 C 
HETATM   24  C12 UNL     1      41.633  35.655  84.383  1.00  0.00     0.012 C 
ENDBRANCH   4  20
TORSDOF 4
ENDMDL
MODEL 2
REMARK VINA RESULT: -6.828008340      0.939      1.167
REMARK  4 active torsions:
REMARK  status: ('A' for Active; 'I' for Inactive)
REMARK    1  A    between atoms: C3_4  and  C4_5 
REMARK    2  A    between atoms: C4_5  and  C5_6 
REMARK    3  A    between atoms: C5_6  and  C6_7 
REMARK    4  A    between atoms: C7_10  and  C8_11 
ROOT
HETATM    1  C6  UNL     1      44.233  36.676  87.290  1.00  0.00     0.148 A 
HETATM    2  N2  UNL     1      44.336  36.028  86.110  1.00  0.00    -0.327 N 
ATOM      3  H2  UNL     1      45.214  35.824  85.631  1.00  0.00     0.169 HD
HETATM    4  C7  UNL     1      43.118  35.690  85.655  1.00  0.00     0.108 A 
HETATM    5  N3  UNL     1      42.261  36.153  86.599  1.00  0.00    -0.247 N 
ATOM      6  H3  UNL     1      41.245  36.066  86.572  1.00  0.00     0.196 HD
HETATM    7  O1  UNL     1      42.938  36.719  87.535  1.00  0.00    -0.223 OA
ENDROOT
BRANCH   1   8
HETATM    8  C5  UNL     1      45.313  37.227  88.148  1.00  0.00     0.087 C 
BRANCH   8   9
HETATM    9  C4  UNL     1      45.449  38.696  87.886  1.00  0.00     0.015 C 
BRANCH   9  10
HETATM   10  C3  UNL     1      45.072  39.518  89.090  1.00  0.00     0.020 C 
HETATM   11  C2  UNL     1      45.091  38.722  90.368  1.00  0.00     0.277 C 
HETATM   12  N1  UNL     1      45.140  39.775  91.369  1.00  0.00     0.089 N 
HETATM   13  C1  UNL     1      43.819  40.330  91.555  1.00  0.00     0.310 C 
HETATM   14  C18 UNL     1      46.067  40.774  90.869  1.00  0.00     0.227 C 
HETATM   15  C13 UNL     1      46.043  40.616  89.380  1.00  0.00     0.025 C 
HETATM   16  C17 UNL     1      47.400  40.514  91.497  1.00  0.00     0.036 C 
HETATM   17  C14 UNL     1      47.409  40.391  88.787  1.00  0.00     0.007 C 
HETATM   18  C15 UNL     1      48.314  41.477  89.364  1.00  0.00     0.001 C 
HETATM   19  C16 UNL     1      48.552  41.147  90.797  1.00  0.00     0.002 C 
ENDBRANCH   9  10
ENDBRANCH   8   9
ENDBRANCH   1   8
BRANCH   4  20
HETATM   20  C8  UNL     1      42.794  34.970  84.400  1.00  0.00     0.055 C 
HETATM   21  C9  UNL     1      43.828  35.209  83.331  1.00  0.00     0.012 C 
HETATM   22  C10 UNL     1      43.032  35.681  82.123  1.00  0.00     0.001 C 
HETATM   23  C11 UNL     1      41.951  36.520  82.814  1.00  0.00     0.001 C 
HETATM   24  C12 UNL     1      41.488  35.528  83.882  1.00  0.00     0.012 C 
ENDBRANCH   4  20
TORSDOF 4
ENDMDL
MODEL 3
REMARK VINA RESULT: -6.730310491      1.702      2.277
REMARK  4 active torsions:
REMARK  status: ('A' for Active; 'I' for Inactive)
REMARK    1  A    between atoms: C3_4  and  C4_5 
REMARK    2  A    between atoms: C4_5  and  C5_6 
REMARK    3  A    between atoms: C5_6  and  C6_7 
REMARK    4  A    between atoms: C7_10  and  C8_11 
ROOT
HETATM    1  C6  UNL     1      44.543  36.878  87.721  1.00  0.00     0.148 A 
HETATM    2  N2  UNL     1      45.135  36.297  86.655  1.00  0.00    -0.327 N 
ATOM      3  H2  UNL     1      46.143  36.240  86.508  1.00  0.00     0.169 HD
HETATM    4  C7  UNL     1      44.207  35.807  85.817  1.00  0.00     0.108 A 
HETATM    5  N3  UNL     1      43.022  36.107  86.406  1.00  0.00    -0.247 N 
ATOM      6  H3  UNL     1      42.101  35.877  86.034  1.00  0.00     0.196 HD
HETATM    7  O1  UNL     1      43.250  36.727  87.509  1.00  0.00    -0.223 OA
ENDROOT
BRANCH   1   8
HETATM    8  C5  UNL     1      45.175  37.544  88.889  1.00  0.00     0.087 C 
BRANCH   8   9
HETATM    9  C4  UNL     1      45.532  38.951  88.520  1.00  0.00     0.015 C 
BRANCH   9  10
HETATM   10  C3  UNL     1      45.250  39.916  89.641  1.00  0.00     0.020 C 
HETATM   11  C2  UNL     1      45.217  39.247  90.990  1.00  0.00     0.277 C 
HETATM   12  N1  UNL     1      45.376  40.382  91.885  1.00  0.00     0.089 N 
HETATM   13  C1  UNL     1      44.113  41.069  92.025  1.00  0.00     0.310 C 
HETATM   14  C18 UNL     1      46.381  41.240  91.284  1.00  0.00     0.227 C 
HETATM   15  C13 UNL     1      46.320  40.944  89.818  1.00  0.00     0.025 C 
HETATM   16  C17 UNL     1      47.695  40.921  91.925  1.00  0.00     0.036 C 
HETATM   17  C14 UNL     1      47.651  40.539  89.240  1.00  0.00     0.007 C 
HETATM   18  C15 UNL     1      48.659  41.589  89.704  1.00  0.00     0.001 C 
HETATM   19  C16 UNL     1      48.888  41.376  91.160  1.00  0.00     0.002 C 
ENDBRANCH   9  10
ENDBRANCH   8   9
ENDBRANCH   1   8
BRANCH   4  20
HETATM   20  C8  UNL     1      44.438  35.097  84.535  1.00  0.00     0.055 C 
HETATM   21  C9  UNL     1      43.658  33.810  84.457  1.00  0.00     0.012 C 
HETATM   22  C10 UNL     1      44.696  32.752  84.110  1.00  0.00     0.001 C 
HETATM   23  C11 UNL     1      45.894  33.264  84.916  1.00  0.00     0.001 C 
HETATM   24  C12 UNL     1      45.903  34.730  84.478  1.00  0.00     0.012 C 
ENDBRANCH   4  20
TORSDOF 4
ENDMDL
MODEL 4
REMARK VINA RESULT: -6.696891641      1.959      8.090
REMARK  4 active torsions:
REMARK  status: ('A' for Active; 'I' for Inactive)
REMARK    1  A    between atoms: C3_4  and  C4_5 
REMARK    2  A    between atoms: C4_5  and  C5_6 
REMARK    3  A    between atoms: C5_6  and  C6_7 
REMARK    4  A    between atoms: C7_10  and  C8_11 
ROOT
HETATM    1  C6  UNL     1      45.743  38.859  88.650  1.00  0.00     0.148 A 
HETATM    2  N2  UNL     1      46.245  39.506  89.724  1.00  0.00    -0.327 N 
ATOM      3  H2  UNL     1      46.272  39.130  90.672  1.00  0.00     0.169 HD
HETATM    4  C7  UNL     1      46.703  40.717  89.366  1.00  0.00     0.108 A 
HETATM    5  N3  UNL     1      46.465  40.792  88.032  1.00  0.00    -0.247 N 
ATOM      6  H3  UNL     1      46.691  41.585  87.433  1.00  0.00     0.196 HD
HETATM    7  O1  UNL     1      45.908  39.698  87.646  1.00  0.00    -0.223 OA
ENDROOT
BRANCH   1   8
HETATM    8  C5  UNL     1      45.135  37.505  88.579  1.00  0.00     0.087 C 
BRANCH   8   9
HETATM    9  C4  UNL     1      45.116  37.048  87.153  1.00  0.00     0.015 C 
BRANCH   9  10
HETATM   10  C3  UNL     1      43.828  36.351  86.803  1.00  0.00     0.020 C 
HETATM   11  C2  UNL     1      43.078  37.036  85.691  1.00  0.00     0.277 C 
HETATM   12  N1  UNL     1      42.170  35.986  85.260  1.00  0.00     0.089 N 
HETATM   13  C1  UNL     1      41.052  35.907  86.171  1.00  0.00     0.310 C 
HETATM   14  C18 UNL     1      42.938  34.754  85.256  1.00  0.00     0.227 C 
HETATM   15  C13 UNL     1      44.032  34.976  86.254  1.00  0.00     0.025 C 
HETATM   16  C17 UNL     1      43.414  34.517  83.858  1.00  0.00     0.036 C 
HETATM   17  C14 UNL     1      45.408  34.749  85.684  1.00  0.00     0.007 C 
HETATM   18  C15 UNL     1      45.363  33.395  84.978  1.00  0.00     0.001 C 
HETATM   19  C16 UNL     1      44.550  33.562  83.741  1.00  0.00     0.002 C 
ENDBRANCH   9  10
ENDBRANCH   8   9
ENDBRANCH   1   8
BRANCH   4  20
HETATM   20  C8  UNL     1      47.329  41.738  90.241  1.00  0.00     0.055 C 
HETATM   21  C9  UNL     1      48.537  42.367  89.596  1.00  0.00     0.012 C 
HETATM   22  C10 UNL     1      49.648  42.210  90.623  1.00  0.00     0.001 C 
HETATM   23  C11 UNL     1      49.302  40.832  91.198  1.00  0.00     0.001 C 
HETATM   24  C12 UNL     1      47.813  41.030  91.486  1.00  0.00     0.012 C 
ENDBRANCH   4  20
TORSDOF 4
ENDMDL
MODEL 5
REMARK VINA RESULT: -6.614664523      2.149      3.324
REMARK  4 active torsions:
REMARK  status: ('A' for Active; 'I' for Inactive)
REMARK    1  A    between atoms: C3_4  and  C4_5 
REMARK    2  A    between atoms: C4_5  and  C5_6 
REMARK    3  A    between atoms: C5_6  and  C6_7 
REMARK    4  A    between atoms: C7_10  and  C8_11 
ROOT
HETATM    1  C6  UNL     1      44.541  39.440  84.469  1.00  0.00     0.148 A 
HETATM    2  N2  UNL     1      43.445  38.663  84.608  1.00  0.00    -0.327 N 
ATOM      3  H2  UNL     1      42.609  38.922  85.132  1.00  0.00     0.169 HD
HETATM    4  C7  UNL     1      43.613  37.499  83.958  1.00  0.00     0.108 A 
HETATM    5  N3  UNL     1      44.853  37.589  83.414  1.00  0.00    -0.247 N 
ATOM      6  H3  UNL     1      45.305  36.871  82.848  1.00  0.00     0.196 HD
HETATM    7  O1  UNL     1      45.365  38.726  83.728  1.00  0.00    -0.223 OA
ENDROOT
BRANCH   1   8
HETATM    8  C5  UNL     1      44.794  40.798  85.015  1.00  0.00     0.087 C 
BRANCH   8   9
HETATM    9  C4  UNL     1      44.391  40.833  86.457  1.00  0.00     0.015 C 
BRANCH   9  10
HETATM   10  C3  UNL     1      45.586  40.861  87.374  1.00  0.00     0.020 C 
HETATM   11  C2  UNL     1      45.430  41.843  88.504  1.00  0.00     0.277 C 
HETATM   12  N1  UNL     1      46.442  41.378  89.439  1.00  0.00     0.089 N 
HETATM   13  C1  UNL     1      47.744  41.839  89.014  1.00  0.00     0.310 C 
HETATM   14  C18 UNL     1      46.369  39.928  89.436  1.00  0.00     0.227 C 
HETATM   15  C13 UNL     1      45.803  39.570  88.096  1.00  0.00     0.025 C 
HETATM   16  C17 UNL     1      45.521  39.511  90.596  1.00  0.00     0.036 C 
HETATM   17  C14 UNL     1      44.570  38.710  88.185  1.00  0.00     0.007 C 
HETATM   18  C15 UNL     1      44.913  37.562  89.132  1.00  0.00     0.001 C 
HETATM   19  C16 UNL     1      44.986  38.125  90.509  1.00  0.00     0.002 C 
ENDBRANCH   9  10
ENDBRANCH   8   9
ENDBRANCH   1   8
BRANCH   4  20
HETATM   20  C8  UNL     1      42.652  36.375  83.862  1.00  0.00     0.055 C 
HETATM   21  C9  UNL     1      42.511  35.642  85.171  1.00  0.00     0.012 C 
HETATM   22  C10 UNL     1      42.761  34.182  84.824  1.00  0.00     0.001 C 
HETATM   23  C11 UNL     1      43.855  34.333  83.761  1.00  0.00     0.001 C 
HETATM   24  C12 UNL     1      43.208  35.387  82.862  1.00  0.00     0.012 C 
ENDBRANCH   4  20
TORSDOF 4
ENDMDL
