MODEL 1
REMARK VINA RESULT: -6.046720172      0.000      0.000
REMARK  5 active torsions:
REMARK  status: ('A' for Active; 'I' for Inactive)
REMARK    1  A    between atoms: C2_2  and  C3_3 
REMARK    2  A    between atoms: C3_3  and  C4_4 
REMARK    3  A    between atoms: C6_8  and  N2_9 
REMARK    4  A    between atoms: N2_9  and  C8_11 
REMARK    5  A    between atoms: N3_13  and  C10_14 
ROOT
HETATM    1  C4  UNL     1      46.115  32.942  84.573  1.00  0.00     0.009 C 
HETATM    2  C5  UNL     1      45.373  33.953  85.027  1.00  0.00     0.114 A 
HETATM    3  N1  UNL     1      45.795  35.152  85.627  1.00  0.00    -0.186 N 
ATOM      4  H1  UNL     1      46.769  35.406  85.794  1.00  0.00     0.184 HD
HETATM    5  C6  UNL     1      44.782  35.887  85.935  1.00  0.00     0.686 A 
HETATM    6  N3  UNL     1      43.561  35.256  85.575  1.00  0.00    -0.141 N 
HETATM    7  C17 UNL     1      43.918  34.010  84.989  1.00  0.00     0.289 A 
HETATM    8  O1  UNL     1      43.196  33.106  84.519  1.00  0.00    -0.265 OA
ENDROOT
BRANCH   6   9
HETATM    9  C10 UNL     1      42.187  35.723  85.741  1.00  0.00     0.111 C 
HETATM   10  C11 UNL     1      41.392  34.614  86.337  1.00  0.00     0.026 C 
HETATM   11  C12 UNL     1      40.092  35.088  86.976  1.00  0.00     0.002 C 
HETATM   12  C13 UNL     1      39.413  36.149  86.150  1.00  0.00     0.000 C 
HETATM   13  C14 UNL     1      39.241  35.601  84.759  1.00  0.00     0.000 C 
HETATM   14  C15 UNL     1      40.451  35.692  83.901  1.00  0.00     0.002 C 
HETATM   15  C16 UNL     1      41.632  36.345  84.519  1.00  0.00     0.026 C 
ENDBRANCH   6   9
BRANCH   5  16
HETATM   16  N2  UNL     1      44.900  37.149  86.550  1.00  0.00    -0.222 N 
HETATM   17  C7  UNL     1      44.677  38.349  85.774  1.00  0.00     0.168 C 
BRANCH  16  18
HETATM   18  C8  UNL     1      45.240  37.260  87.953  1.00  0.00     0.136 C 
HETATM   19  C9  UNL     1      45.832  38.619  88.276  1.00  0.00     0.027 C 
ENDBRANCH  16  18
ENDBRANCH   5  16
BRANCH   1  20
HETATM   20  C3  UNL     1      47.578  32.917  84.628  1.00  0.00     0.029 C 
BRANCH  20  21
HETATM   21  C2  UNL     1      48.133  31.559  85.021  1.00  0.00    -0.001 C 
HETATM   22  C1  UNL     1      49.581  31.392  84.686  1.00  0.00     0.005 C 
ENDBRANCH  20  21
ENDBRANCH   1  20
TORSDOF 5
ENDMDL
MODEL 2
REMARK VINA RESULT: -5.881352394      2.130      4.842
REMARK  5 active torsions:
REMARK  status: ('A' for Active; 'I' for Inactive)
REMARK    1  A    between atoms: C2_2  and  C3_3 
REMARK    2  A    between atoms: C3_3  and  C4_4 
REMARK    3  A    between atoms: C6_8  and  N2_9 
REMARK    4  A    between atoms: N2_9  and  C8_11 
REMARK    5  A    between atoms: N3_13  and  C10_14 
ROOT
HETATM    1  C4  UNL     1      44.402  37.788  87.891  1.00  0.00     0.009 C 
HETATM    2  C5  UNL     1      43.758  36.968  87.060  1.00  0.00     0.114 A 
HETATM    3  N1  UNL     1      44.264  36.265  85.953  1.00  0.00    -0.186 N 
ATOM      4  H1  UNL     1      45.233  36.300  85.637  1.00  0.00     0.184 HD
HETATM    5  C6  UNL     1      43.334  35.571  85.392  1.00  0.00     0.686 A 
HETATM    6  N3  UNL     1      42.094  35.734  86.065  1.00  0.00    -0.141 N 
HETATM    7  C17 UNL     1      42.344  36.629  87.142  1.00  0.00     0.289 A 
HETATM    8  O1  UNL     1      41.568  37.075  88.013  1.00  0.00    -0.265 OA
ENDROOT
BRANCH   6   9
HETATM    9  C10 UNL     1      40.791  35.143  85.773  1.00  0.00     0.111 C 
HETATM   10  C11 UNL     1      39.900  36.220  85.259  1.00  0.00     0.026 C 
HETATM   11  C12 UNL     1      38.692  35.684  84.501  1.00  0.00     0.002 C 
HETATM   12  C13 UNL     1      38.103  34.468  85.166  1.00  0.00     0.000 C 
HETATM   13  C14 UNL     1      37.810  34.829  86.597  1.00  0.00     0.000 C 
HETATM   14  C15 UNL     1      38.985  34.772  87.505  1.00  0.00     0.002 C 
HETATM   15  C16 UNL     1      40.258  34.328  86.886  1.00  0.00     0.026 C 
ENDBRANCH   6   9
BRANCH   5  16
HETATM   16  N2  UNL     1      43.549  34.763  84.257  1.00  0.00    -0.222 N 
HETATM   17  C7  UNL     1      43.249  35.281  82.940  1.00  0.00     0.168 C 
BRANCH  16  18
HETATM   18  C8  UNL     1      44.068  33.419  84.394  1.00  0.00     0.136 C 
HETATM   19  C9  UNL     1      45.543  33.354  84.044  1.00  0.00     0.027 C 
ENDBRANCH  16  18
ENDBRANCH   5  16
BRANCH   1  20
HETATM   20  C3  UNL     1      45.826  38.108  87.779  1.00  0.00     0.029 C 
BRANCH  20  21
HETATM   21  C2  UNL     1      46.150  39.529  88.206  1.00  0.00    -0.001 C 
HETATM   22  C1  UNL     1      46.191  39.706  89.691  1.00  0.00     0.005 C 
ENDBRANCH  20  21
ENDBRANCH   1  20
TORSDOF 5
ENDMDL
MODEL 3
REMARK VINA RESULT: -5.816363720      2.557      4.868
REMARK  5 active torsions:
REMARK  status: ('A' for Active; 'I' for Inactive)
REMARK    1  A    between atoms: C2_2  and  C3_3 
REMARK    2  A    between atoms: C3_3  and  C4_4 
REMARK    3  A    between atoms: C6_8  and  N2_9 
REMARK    4  A    between atoms: N2_9  and  C8_11 
REMARK    5  A    between atoms: N3_13  and  C10_14 
ROOT
HETATM    1  C4  UNL     1      44.120  37.723  88.446  1.00  0.00     0.009 C 
HETATM    2  C5  UNL     1      43.629  37.080  87.386  1.00  0.00     0.114 A 
HETATM    3  N1  UNL     1      44.304  36.642  86.234  1.00  0.00    -0.186 N 
ATOM      4  H1  UNL     1      45.301  36.769  86.062  1.00  0.00     0.184 HD
HETATM    5  C6  UNL     1      43.489  36.056  85.425  1.00  0.00     0.686 A 
HETATM    6  N3  UNL     1      42.168  36.039  85.949  1.00  0.00    -0.141 N 
HETATM    7  C17 UNL     1      42.236  36.693  87.211  1.00  0.00     0.289 A 
HETATM    8  O1  UNL     1      41.336  36.923  88.046  1.00  0.00    -0.265 OA
ENDROOT
BRANCH   6   9
HETATM    9  C10 UNL     1      40.945  35.486  85.373  1.00  0.00     0.111 C 
HETATM   10  C11 UNL     1      40.013  36.616  85.102  1.00  0.00     0.026 C 
HETATM   11  C12 UNL     1      38.916  36.258  84.106  1.00  0.00     0.002 C 
HETATM   12  C13 UNL     1      38.378  34.870  84.335  1.00  0.00     0.000 C 
HETATM   13  C14 UNL     1      37.944  34.782  85.774  1.00  0.00     0.000 C 
HETATM   14  C15 UNL     1      39.045  34.528  86.740  1.00  0.00     0.002 C 
HETATM   15  C16 UNL     1      40.395  34.355  86.149  1.00  0.00     0.026 C 
ENDBRANCH   6   9
BRANCH   5  16
HETATM   16  N2  UNL     1      43.884  35.512  84.186  1.00  0.00    -0.222 N 
HETATM   17  C7  UNL     1      44.265  34.120  84.103  1.00  0.00     0.168 C 
BRANCH  16  18
HETATM   18  C8  UNL     1      43.912  36.332  82.994  1.00  0.00     0.136 C 
HETATM   19  C9  UNL     1      42.768  35.991  82.058  1.00  0.00     0.027 C 
ENDBRANCH  16  18
ENDBRANCH   5  16
BRANCH   1  20
HETATM   20  C3  UNL     1      45.528  38.099  88.590  1.00  0.00     0.029 C 
BRANCH  20  21
HETATM   21  C2  UNL     1      45.858  39.427  87.931  1.00  0.00    -0.001 C 
HETATM   22  C1  UNL     1      46.984  40.153  88.595  1.00  0.00     0.005 C 
ENDBRANCH  20  21
ENDBRANCH   1  20
TORSDOF 5
ENDMDL
MODEL 4
REMARK VINA RESULT: -5.801769381      3.195      5.800
REMARK  5 active torsions:
REMARK  status: ('A' for Active; 'I' for Inactive)
REMARK    1  A    between atoms: C2_2  and  C3_3 
REMARK    2  A    between atoms: C3_3  and  C4_4 
REMARK    3  A    between atoms: C6_8  and  N2_9 
REMARK    4  A    between atoms: N2_9  and  C8_11 
REMARK    5  A    between atoms: N3_13  and  C10_14 
ROOT
HETATM    1  C4  UNL     1      45.149  38.104  89.665  1.00  0.00     0.009 C 
HETATM    2  C5  UNL     1      44.202  37.813  88.773  1.00  0.00     0.114 A 
HETATM    3  N1  UNL     1      42.806  37.850  88.931  1.00  0.00    -0.186 N 
ATOM      4  H1  UNL     1      42.326  38.118  89.790  1.00  0.00     0.184 HD
HETATM    5  C6  UNL     1      42.217  37.500  87.839  1.00  0.00     0.686 A 
HETATM    6  N3  UNL     1      43.159  37.186  86.823  1.00  0.00    -0.141 N 
HETATM    7  C17 UNL     1      44.444  37.382  87.403  1.00  0.00     0.289 A 
HETATM    8  O1  UNL     1      45.580  37.234  86.907  1.00  0.00    -0.265 OA
ENDROOT
BRANCH   6   9
HETATM    9  C10 UNL     1      42.935  36.747  85.448  1.00  0.00     0.111 C 
HETATM   10  C11 UNL     1      43.520  35.385  85.299  1.00  0.00     0.026 C 
HETATM   11  C12 UNL     1      42.976  34.632  84.092  1.00  0.00     0.002 C 
HETATM   12  C13 UNL     1      42.823  35.527  82.890  1.00  0.00     0.000 C 
HETATM   13  C14 UNL     1      44.153  36.188  82.644  1.00  0.00     0.000 C 
HETATM   14  C15 UNL     1      44.429  37.368  83.504  1.00  0.00     0.002 C 
HETATM   15  C16 UNL     1      43.345  37.750  84.442  1.00  0.00     0.026 C 
ENDBRANCH   6   9
BRANCH   5  16
HETATM   16  N2  UNL     1      40.815  37.444  87.700  1.00  0.00    -0.222 N 
HETATM   17  C7  UNL     1      40.112  38.543  87.076  1.00  0.00     0.168 C 
BRANCH  16  18
HETATM   18  C8  UNL     1      40.070  36.297  88.172  1.00  0.00     0.136 C 
HETATM   19  C9  UNL     1      40.034  35.191  87.135  1.00  0.00     0.027 C 
ENDBRANCH  16  18
ENDBRANCH   5  16
BRANCH   1  20
HETATM   20  C3  UNL     1      44.871  38.535  91.036  1.00  0.00     0.029 C 
BRANCH  20  21
HETATM   21  C2  UNL     1      45.574  39.831  91.404  1.00  0.00    -0.001 C 
HETATM   22  C1  UNL     1      46.564  40.280  90.376  1.00  0.00     0.005 C 
ENDBRANCH  20  21
ENDBRANCH   1  20
TORSDOF 5
ENDMDL
MODEL 5
REMARK VINA RESULT: -5.633823948      0.838      1.484
REMARK  5 active torsions:
REMARK  status: ('A' for Active; 'I' for Inactive)
REMARK    1  A    between atoms: C2_2  and  C3_3 
REMARK    2  A    between atoms: C3_3  and  C4_4 
REMARK    3  A    between atoms: C6_8  and  N2_9 
REMARK    4  A    between atoms: N2_9  and  C8_11 
REMARK    5  A    between atoms: N3_13  and  C10_14 
ROOT
HETATM    1  C4  UNL     1      46.674  32.628  84.499  1.00  0.00     0.009 C 
HETATM    2  C5  UNL     1      45.786  33.570  84.816  1.00  0.00     0.114 A 
HETATM    3  N1  UNL     1      46.015  34.846  85.361  1.00  0.00    -0.186 N 
ATOM      4  H1  UNL     1      46.935  35.222  85.589  1.00  0.00     0.184 HD
HETATM    5  C6  UNL     1      44.902  35.473  85.531  1.00  0.00     0.686 A 
HETATM    6  N3  UNL     1      43.797  34.682  85.118  1.00  0.00    -0.141 N 
HETATM    7  C17 UNL     1      44.344  33.453  84.654  1.00  0.00     0.289 A 
HETATM    8  O1  UNL     1      43.772  32.443  84.192  1.00  0.00    -0.265 OA
ENDROOT
BRANCH   6   9
HETATM    9  C10 UNL     1      42.370  34.994  85.135  1.00  0.00     0.111 C 
HETATM   10  C11 UNL     1      42.067  35.830  83.941  1.00  0.00     0.026 C 
HETATM   11  C12 UNL     1      40.585  35.846  83.585  1.00  0.00     0.002 C 
HETATM   12  C13 UNL     1      39.712  35.929  84.809  1.00  0.00     0.000 C 
HETATM   13  C14 UNL     1      40.158  37.126  85.605  1.00  0.00     0.000 C 
HETATM   14  C15 UNL     1      41.353  36.895  86.458  1.00  0.00     0.002 C 
HETATM   15  C16 UNL     1      41.904  35.517  86.437  1.00  0.00     0.026 C 
ENDBRANCH   6   9
BRANCH   5  16
HETATM   16  N2  UNL     1      44.822  36.777  86.061  1.00  0.00    -0.222 N 
HETATM   17  C7  UNL     1      44.585  37.897  85.178  1.00  0.00     0.168 C 
BRANCH  16  18
HETATM   18  C8  UNL     1      44.971  37.008  87.482  1.00  0.00     0.136 C 
HETATM   19  C9  UNL     1      45.713  38.302  87.760  1.00  0.00     0.027 C 
ENDBRANCH  16  18
ENDBRANCH   5  16
BRANCH   1  20
HETATM   20  C3  UNL     1      48.120  32.779  84.676  1.00  0.00     0.029 C 
BRANCH  20  21
HETATM   21  C2  UNL     1      48.800  31.496  85.122  1.00  0.00    -0.001 C 
HETATM   22  C1  UNL     1      50.125  31.269  84.465  1.00  0.00     0.005 C 
ENDBRANCH  20  21
ENDBRANCH   1  20
TORSDOF 5
ENDMDL
