MODEL 1
REMARK VINA RESULT: -5.633321917      0.000      0.000
REMARK  4 active torsions:
REMARK  status: ('A' for Active; 'I' for Inactive)
REMARK    1  A    between atoms: N1_2  and  C3_4 
REMARK    2  A    between atoms: N3_8  and  C5_9 
REMARK    3  A    between atoms: C11_15  and  C12_16 
REMARK    4  A    between atoms: C12_16  and  C13_17 
ROOT
HETATM    1  C3  UNL     1      41.527  36.580  87.067  1.00  0.00     0.126 A 
HETATM    2  N2  UNL     1      41.060  37.489  87.951  1.00  0.00    -0.337 N 
ATOM      3  H2  UNL     1      40.070  37.676  88.107  1.00  0.00     0.168 HD
HETATM    4  C4  UNL     1      42.047  38.112  88.594  1.00  0.00     0.185 A 
HETATM    5  N3  UNL     1      43.206  37.608  88.130  1.00  0.00    -0.338 N 
HETATM    6  C11 UNL     1      42.908  36.663  87.189  1.00  0.00     0.059 A 
ENDROOT
BRANCH   6   7
HETATM    7  C12 UNL     1      43.851  35.847  86.414  1.00  0.00     0.094 C 
BRANCH   7   8
HETATM    8  C13 UNL     1      43.901  36.202  84.955  1.00  0.00     0.137 C 
HETATM    9  O1  UNL     1      45.155  36.588  84.482  1.00  0.00    -0.384 OA
HETATM   10  C14 UNL     1      45.388  35.280  84.064  1.00  0.00     0.179 C 
HETATM   11  C15 UNL     1      43.907  35.069  83.994  1.00  0.00     0.000 C 
HETATM   12  C16 UNL     1      43.352  35.436  82.635  1.00  0.00     0.020 C 
HETATM   13  C17 UNL     1      43.392  33.751  84.468  1.00  0.00     0.020 C 
ENDBRANCH   7   8
ENDBRANCH   6   7
BRANCH   1  14
HETATM   14  N1  UNL     1      40.774  35.734  86.209  1.00  0.00    -0.374 N 
HETATM   15  C1  UNL     1      40.306  36.193  84.945  1.00  0.00     0.150 C 
HETATM   16  C2  UNL     1      40.487  34.387  86.643  1.00  0.00     0.150 C 
ENDBRANCH   1  14
BRANCH   5  17
HETATM   17  C5  UNL     1      44.537  38.006  88.564  1.00  0.00     0.091 C 
HETATM   18  C6  UNL     1      44.488  38.479  89.987  1.00  0.00     0.026 C 
HETATM   19  C7  UNL     1      45.703  39.232  90.416  1.00  0.00     0.002 C 
HETATM   20  C8  UNL     1      46.030  40.327  89.443  1.00  0.00     0.000 C 
HETATM   21  C9  UNL     1      46.387  39.633  88.121  1.00  0.00     0.002 C 
HETATM   22  C10 UNL     1      45.057  39.049  87.625  1.00  0.00     0.026 C 
ENDBRANCH   5  17
TORSDOF 4
ENDMDL
MODEL 2
REMARK VINA RESULT: -5.571026142      1.574      5.444
REMARK  4 active torsions:
REMARK  status: ('A' for Active; 'I' for Inactive)
REMARK    1  A    between atoms: N1_2  and  C3_4 
REMARK    2  A    between atoms: N3_8  and  C5_9 
REMARK    3  A    between atoms: C11_15  and  C12_16 
REMARK    4  A    between atoms: C12_16  and  C13_17 
ROOT
HETATM    1  C3  UNL     1      40.918  37.022  87.843  1.00  0.00     0.126 A 
HETATM    2  N2  UNL     1      40.274  35.978  87.276  1.00  0.00    -0.337 N 
ATOM      3  H2  UNL     1      39.323  35.697  87.514  1.00  0.00     0.168 HD
HETATM    4  C4  UNL     1      41.029  35.360  86.368  1.00  0.00     0.185 A 
HETATM    5  N3  UNL     1      42.209  36.006  86.325  1.00  0.00    -0.338 N 
HETATM    6  C11 UNL     1      42.161  37.032  87.225  1.00  0.00     0.059 A 
ENDROOT
BRANCH   6   7
HETATM    7  C12 UNL     1      43.218  38.008  87.524  1.00  0.00     0.094 C 
BRANCH   7   8
HETATM    8  C13 UNL     1      44.123  37.595  88.650  1.00  0.00     0.137 C 
HETATM    9  O1  UNL     1      45.472  37.491  88.316  1.00  0.00    -0.384 OA
HETATM   10  C14 UNL     1      45.674  38.792  88.771  1.00  0.00     0.179 C 
HETATM   11  C15 UNL     1      44.467  38.642  89.645  1.00  0.00     0.000 C 
HETATM   12  C16 UNL     1      44.824  38.080  91.004  1.00  0.00     0.020 C 
HETATM   13  C17 UNL     1      43.564  39.826  89.752  1.00  0.00     0.020 C 
ENDBRANCH   7   8
ENDBRANCH   6   7
BRANCH   1  14
HETATM   14  N1  UNL     1      40.430  37.905  88.844  1.00  0.00    -0.374 N 
HETATM   15  C1  UNL     1      39.781  39.125  88.499  1.00  0.00     0.150 C 
HETATM   16  C2  UNL     1      40.601  37.541  90.231  1.00  0.00     0.150 C 
ENDBRANCH   1  14
BRANCH   5  17
HETATM   17  C5  UNL     1      43.331  35.663  85.464  1.00  0.00     0.091 C 
HETATM   18  C6  UNL     1      42.825  35.112  84.163  1.00  0.00     0.026 C 
HETATM   19  C7  UNL     1      43.867  34.410  83.358  1.00  0.00     0.002 C 
HETATM   20  C8  UNL     1      44.590  33.388  84.187  1.00  0.00     0.000 C 
HETATM   21  C9  UNL     1      45.334  34.172  85.278  1.00  0.00     0.002 C 
HETATM   22  C10 UNL     1      44.220  34.704  86.191  1.00  0.00     0.026 C 
ENDBRANCH   5  17
TORSDOF 4
ENDMDL
MODEL 3
REMARK VINA RESULT: -5.477458485      1.067      4.999
REMARK  4 active torsions:
REMARK  status: ('A' for Active; 'I' for Inactive)
REMARK    1  A    between atoms: N1_2  and  C3_4 
REMARK    2  A    between atoms: N3_8  and  C5_9 
REMARK    3  A    between atoms: C11_15  and  C12_16 
REMARK    4  A    between atoms: C12_16  and  C13_17 
ROOT
HETATM    1  C3  UNL     1      43.293  37.795  87.955  1.00  0.00     0.126 A 
HETATM    2  N2  UNL     1      42.086  38.251  88.356  1.00  0.00    -0.337 N 
ATOM      3  H2  UNL     1      41.957  39.021  89.013  1.00  0.00     0.168 HD
HETATM    4  C4  UNL     1      41.085  37.577  87.792  1.00  0.00     0.185 A 
HETATM    5  N3  UNL     1      41.634  36.645  86.992  1.00  0.00    -0.338 N 
HETATM    6  C11 UNL     1      42.992  36.762  87.077  1.00  0.00     0.059 A 
ENDROOT
BRANCH   6   7
HETATM    7  C12 UNL     1      44.004  35.959  86.378  1.00  0.00     0.094 C 
BRANCH   7   8
HETATM    8  C13 UNL     1      44.056  36.206  84.897  1.00  0.00     0.137 C 
HETATM    9  O1  UNL     1      45.329  36.451  84.383  1.00  0.00    -0.384 OA
HETATM   10  C14 UNL     1      45.444  35.102  84.055  1.00  0.00     0.179 C 
HETATM   11  C15 UNL     1      43.949  35.013  84.019  1.00  0.00     0.000 C 
HETATM   12  C16 UNL     1      43.402  35.331  82.644  1.00  0.00     0.020 C 
HETATM   13  C17 UNL     1      43.335  33.779  84.591  1.00  0.00     0.020 C 
ENDBRANCH   7   8
ENDBRANCH   6   7
BRANCH   1  14
HETATM   14  N1  UNL     1      44.575  38.268  88.345  1.00  0.00    -0.374 N 
HETATM   15  C1  UNL     1      45.388  39.021  87.450  1.00  0.00     0.150 C 
HETATM   16  C2  UNL     1      45.046  37.971  89.678  1.00  0.00     0.150 C 
ENDBRANCH   1  14
BRANCH   5  17
HETATM   17  C5  UNL     1      40.899  35.686  86.180  1.00  0.00     0.091 C 
HETATM   18  C6  UNL     1      40.398  36.354  84.932  1.00  0.00     0.026 C 
HETATM   19  C7  UNL     1      39.349  35.576  84.210  1.00  0.00     0.002 C 
HETATM   20  C8  UNL     1      38.245  35.166  85.141  1.00  0.00     0.000 C 
HETATM   21  C9  UNL     1      38.879  34.207  86.160  1.00  0.00     0.002 C 
HETATM   22  C10 UNL     1      39.796  35.101  87.005  1.00  0.00     0.026 C 
ENDBRANCH   5  17
TORSDOF 4
ENDMDL
MODEL 4
REMARK VINA RESULT: -5.268440760      1.609      5.249
REMARK  4 active torsions:
REMARK  status: ('A' for Active; 'I' for Inactive)
REMARK    1  A    between atoms: N1_2  and  C3_4 
REMARK    2  A    between atoms: N3_8  and  C5_9 
REMARK    3  A    between atoms: C11_15  and  C12_16 
REMARK    4  A    between atoms: C12_16  and  C13_17 
ROOT
HETATM    1  C3  UNL     1      40.749  36.672  87.601  1.00  0.00     0.126 A 
HETATM    2  N2  UNL     1      40.332  35.443  87.223  1.00  0.00    -0.337 N 
ATOM      3  H2  UNL     1      39.466  35.011  87.544  1.00  0.00     0.168 HD
HETATM    4  C4  UNL     1      41.186  34.863  86.380  1.00  0.00     0.185 A 
HETATM    5  N3  UNL     1      42.202  35.725  86.188  1.00  0.00    -0.338 N 
HETATM    6  C11 UNL     1      41.953  36.844  86.929  1.00  0.00     0.059 A 
ENDROOT
BRANCH   6   7
HETATM    7  C12 UNL     1      42.783  38.051  87.032  1.00  0.00     0.094 C 
BRANCH   7   8
HETATM    8  C13 UNL     1      43.687  38.064  88.232  1.00  0.00     0.137 C 
HETATM    9  O1  UNL     1      44.418  36.895  88.435  1.00  0.00    -0.384 OA
HETATM   10  C14 UNL     1      45.492  37.460  87.752  1.00  0.00     0.179 C 
HETATM   11  C15 UNL     1      44.960  38.817  88.098  1.00  0.00     0.000 C 
HETATM   12  C16 UNL     1      45.504  39.311  89.421  1.00  0.00     0.020 C 
HETATM   13  C17 UNL     1      45.044  39.863  87.036  1.00  0.00     0.020 C 
ENDBRANCH   7   8
ENDBRANCH   6   7
BRANCH   1  14
HETATM   14  N1  UNL     1      40.101  37.577  88.484  1.00  0.00    -0.374 N 
HETATM   15  C1  UNL     1      40.383  37.576  89.880  1.00  0.00     0.150 C 
HETATM   16  C2  UNL     1      39.143  38.509  87.938  1.00  0.00     0.150 C 
ENDBRANCH   1  14
BRANCH   5  17
HETATM   17  C5  UNL     1      43.358  35.494  85.334  1.00  0.00     0.091 C 
HETATM   18  C6  UNL     1      42.908  34.996  83.991  1.00  0.00     0.026 C 
HETATM   19  C7  UNL     1      44.002  34.398  83.171  1.00  0.00     0.002 C 
HETATM   20  C8  UNL     1      44.763  33.369  83.955  1.00  0.00     0.000 C 
HETATM   21  C9  UNL     1      45.442  34.124  85.106  1.00  0.00     0.002 C 
HETATM   22  C10 UNL     1      44.283  34.541  86.024  1.00  0.00     0.026 C 
ENDBRANCH   5  17
TORSDOF 4
ENDMDL
MODEL 5
REMARK VINA RESULT: -5.247053202      1.312      1.697
REMARK  4 active torsions:
REMARK  status: ('A' for Active; 'I' for Inactive)
REMARK    1  A    between atoms: N1_2  and  C3_4 
REMARK    2  A    between atoms: N3_8  and  C5_9 
REMARK    3  A    between atoms: C11_15  and  C12_16 
REMARK    4  A    between atoms: C12_16  and  C13_17 
ROOT
HETATM    1  C3  UNL     1      41.116  37.284  86.115  1.00  0.00     0.126 A 
HETATM    2  N2  UNL     1      40.634  37.783  87.275  1.00  0.00    -0.337 N 
ATOM      3  H2  UNL     1      39.645  37.952  87.456  1.00  0.00     0.168 HD
HETATM    4  C4  UNL     1      41.605  38.029  88.155  1.00  0.00     0.185 A 
HETATM    5  N3  UNL     1      42.768  37.685  87.570  1.00  0.00    -0.338 N 
HETATM    6  C11 UNL     1      42.489  37.224  86.315  1.00  0.00     0.059 A 
ENDROOT
BRANCH   6   7
HETATM    7  C12 UNL     1      43.442  36.736  85.310  1.00  0.00     0.094 C 
BRANCH   7   8
HETATM    8  C13 UNL     1      43.911  35.329  85.553  1.00  0.00     0.137 C 
HETATM    9  O1  UNL     1      43.077  34.559  86.363  1.00  0.00    -0.384 OA
HETATM   10  C14 UNL     1      42.464  34.045  85.223  1.00  0.00     0.179 C 
HETATM   11  C15 UNL     1      43.707  34.358  84.448  1.00  0.00     0.000 C 
HETATM   12  C16 UNL     1      44.689  33.208  84.474  1.00  0.00     0.020 C 
HETATM   13  C17 UNL     1      43.521  34.901  83.070  1.00  0.00     0.020 C 
ENDBRANCH   7   8
ENDBRANCH   6   7
BRANCH   1  14
HETATM   14  N1  UNL     1      40.381  36.908  84.959  1.00  0.00    -0.374 N 
HETATM   15  C1  UNL     1      40.588  37.558  83.709  1.00  0.00     0.150 C 
HETATM   16  C2  UNL     1      39.411  35.844  85.071  1.00  0.00     0.150 C 
ENDBRANCH   1  14
BRANCH   5  17
HETATM   17  C5  UNL     1      44.085  37.788  88.179  1.00  0.00     0.091 C 
HETATM   18  C6  UNL     1      43.947  37.986  89.661  1.00  0.00     0.026 C 
HETATM   19  C7  UNL     1      45.198  38.452  90.327  1.00  0.00     0.002 C 
HETATM   20  C8  UNL     1      45.769  39.649  89.626  1.00  0.00     0.000 C 
HETATM   21  C9  UNL     1      46.172  39.172  88.223  1.00  0.00     0.002 C 
HETATM   22  C10 UNL     1      44.837  38.899  87.515  1.00  0.00     0.026 C 
ENDBRANCH   5  17
TORSDOF 4
ENDMDL
