MODEL 1
REMARK VINA RESULT: -7.502602543      0.000      0.000
REMARK  6 active torsions:
REMARK  status: ('A' for Active; 'I' for Inactive)
REMARK    1  A    between atoms: C2_2  and  C3_3 
REMARK    2  A    between atoms: C3_3  and  N1_4 
REMARK    3  A    between atoms: N1_4  and  C4_6 
REMARK    4  A    between atoms: C5_9  and  C6_10 
REMARK    5  A    between atoms: C10_18  and  N5_19 
REMARK    6  A    between atoms: N5_19  and  C11_21 
ROOT
HETATM    1  C6  UNL     1      42.892  35.668  84.533  1.00  0.00     0.077 A 
HETATM    2  C7  UNL     1      42.557  35.949  83.192  1.00  0.00     0.109 A 
HETATM    3  N3  UNL     1      41.473  36.700  82.954  1.00  0.00    -0.355 N 
ATOM      4  H3  UNL     1      41.224  36.908  81.986  1.00  0.00     0.166 HD
HETATM    5  C8  UNL     1      40.702  37.190  83.934  1.00  0.00     0.078 A 
HETATM    6  C9  UNL     1      39.515  38.017  83.576  1.00  0.00     0.089 C 
HETATM    7  N4  UNL     1      41.036  36.913  85.197  1.00  0.00    -0.332 N 
ATOM      8  H4  UNL     1      40.451  37.286  85.944  1.00  0.00     0.168 HD
HETATM    9  C10 UNL     1      42.130  36.151  85.543  1.00  0.00     0.118 A 
ENDROOT
BRANCH   1  10
HETATM   10  C5  UNL     1      44.073  34.850  84.751  1.00  0.00     0.201 A 
HETATM   11  N2  UNL     1      45.379  35.059  84.619  1.00  0.00    -0.166 N 
HETATM   12  C4  UNL     1      46.080  33.970  84.953  1.00  0.00     0.700 A 
ATOM     13  H2  UNL     1      45.792  35.936  84.302  1.00  0.00     0.186 HD
HETATM   14  N6  UNL     1      45.146  33.075  85.300  1.00  0.00    -0.089 N 
HETATM   15  O1  UNL     1      43.984  33.592  85.181  1.00  0.00    -0.203 OA
ATOM     16  H6  UNL     1      45.335  32.123  85.612  1.00  0.00     0.213 HD
BRANCH  12  17
HETATM   17  N1  UNL     1      47.378  33.838  84.934  1.00  0.00    -0.221 N 
ATOM     18  H1  UNL     1      47.971  34.614  84.641  1.00  0.00     0.178 HD
BRANCH  17  19
HETATM   19  C3  UNL     1      47.973  32.564  85.339  1.00  0.00     0.164 C 
BRANCH  19  20
HETATM   20  C2  UNL     1      49.429  32.568  85.222  1.00  0.00    -0.017 C 
HETATM   21  C1  UNL     1      50.097  31.440  85.073  1.00  0.00     0.008 C 
ENDBRANCH  19  20
ENDBRANCH  17  19
ENDBRANCH  12  17
ENDBRANCH   1  10
BRANCH   9  22
HETATM   22  N5  UNL     1      42.398  35.922  86.904  1.00  0.00    -0.371 N 
ATOM     23  H5  UNL     1      42.087  35.049  87.328  1.00  0.00     0.161 HD
BRANCH  22  24
HETATM   24  C11 UNL     1      43.103  36.889  87.726  1.00  0.00     0.083 C 
HETATM   25  C12 UNL     1      42.888  38.322  87.304  1.00  0.00     0.025 C 
HETATM   26  C13 UNL     1      43.203  39.152  88.565  1.00  0.00     0.002 C 
HETATM   27  C14 UNL     1      44.637  38.912  88.963  1.00  0.00     0.000 C 
HETATM   28  C15 UNL     1      45.038  37.479  89.029  1.00  0.00     0.002 C 
HETATM   29  C16 UNL     1      44.585  36.673  87.803  1.00  0.00     0.025 C 
ENDBRANCH  22  24
ENDBRANCH   9  22
TORSDOF 6
ENDMDL
MODEL 2
REMARK VINA RESULT: -7.471482758      2.092      2.692
REMARK  6 active torsions:
REMARK  status: ('A' for Active; 'I' for Inactive)
REMARK    1  A    between atoms: C2_2  and  C3_3 
REMARK    2  A    between atoms: C3_3  and  N1_4 
REMARK    3  A    between atoms: N1_4  and  C4_6 
REMARK    4  A    between atoms: C5_9  and  C6_10 
REMARK    5  A    between atoms: C10_18  and  N5_19 
REMARK    6  A    between atoms: N5_19  and  C11_21 
ROOT
HETATM    1  C6  UNL     1      42.891  35.661  84.403  1.00  0.00     0.077 A 
HETATM    2  C7  UNL     1      42.901  36.050  83.047  1.00  0.00     0.109 A 
HETATM    3  N3  UNL     1      41.771  36.546  82.521  1.00  0.00    -0.355 N 
ATOM      4  H3  UNL     1      41.770  36.828  81.541  1.00  0.00     0.166 HD
HETATM    5  C8  UNL     1      40.644  36.685  83.231  1.00  0.00     0.078 A 
HETATM    6  C9  UNL     1      39.435  37.246  82.565  1.00  0.00     0.089 C 
HETATM    7  N4  UNL     1      40.655  36.312  84.513  1.00  0.00    -0.332 N 
ATOM      8  H4  UNL     1      39.797  36.418  85.055  1.00  0.00     0.168 HD
HETATM    9  C10 UNL     1      41.765  35.792  85.142  1.00  0.00     0.118 A 
ENDROOT
BRANCH   1  10
HETATM   10  C5  UNL     1      44.133  35.128  84.936  1.00  0.00     0.201 A 
HETATM   11  N2  UNL     1      45.149  34.451  84.410  1.00  0.00    -0.166 N 
HETATM   12  C4  UNL     1      46.080  34.183  85.332  1.00  0.00     0.700 A 
ATOM     13  H2  UNL     1      45.209  34.172  83.431  1.00  0.00     0.186 HD
HETATM   14  N6  UNL     1      45.595  34.727  86.455  1.00  0.00    -0.089 N 
HETATM   15  O1  UNL     1      44.464  35.274  86.218  1.00  0.00    -0.203 OA
ATOM     16  H6  UNL     1      46.058  34.707  87.363  1.00  0.00     0.213 HD
BRANCH  12  17
HETATM   17  N1  UNL     1      47.199  33.537  85.149  1.00  0.00    -0.221 N 
ATOM     18  H1  UNL     1      47.951  33.952  84.599  1.00  0.00     0.178 HD
BRANCH  17  19
HETATM   19  C3  UNL     1      47.364  32.210  85.743  1.00  0.00     0.164 C 
BRANCH  19  20
HETATM   20  C2  UNL     1      48.749  31.748  85.700  1.00  0.00    -0.017 C 
HETATM   21  C1  UNL     1      49.620  32.305  84.879  1.00  0.00     0.008 C 
ENDBRANCH  19  20
ENDBRANCH  17  19
ENDBRANCH  12  17
ENDBRANCH   1  10
BRANCH   9  22
HETATM   22  N5  UNL     1      41.673  35.436  86.499  1.00  0.00    -0.371 N 
ATOM     23  H5  UNL     1      42.431  34.898  86.921  1.00  0.00     0.161 HD
BRANCH  22  24
HETATM   24  C11 UNL     1      40.536  35.807  87.321  1.00  0.00     0.083 C 
HETATM   25  C12 UNL     1      40.844  36.870  88.348  1.00  0.00     0.025 C 
HETATM   26  C13 UNL     1      39.478  37.503  88.677  1.00  0.00     0.002 C 
HETATM   27  C14 UNL     1      38.571  36.441  89.248  1.00  0.00     0.000 C 
HETATM   28  C15 UNL     1      38.513  35.178  88.463  1.00  0.00     0.002 C 
HETATM   29  C16 UNL     1      39.901  34.662  88.053  1.00  0.00     0.025 C 
ENDBRANCH  22  24
ENDBRANCH   9  22
TORSDOF 6
ENDMDL
MODEL 3
REMARK VINA RESULT: -7.410056810      1.540      1.882
REMARK  6 active torsions:
REMARK  status: ('A' for Active; 'I' for Inactive)
REMARK    1  A    between atoms: C2_2  and  C3_3 
REMARK    2  A    between atoms: C3_3  and  N1_4 
REMARK    3  A    between atoms: N1_4  and  C4_6 
REMARK    4  A    between atoms: C5_9  and  C6_10 
REMARK    5  A    between atoms: C10_18  and  N5_19 
REMARK    6  A    between atoms: N5_19  and  C11_21 
ROOT
HETATM    1  C6  UNL     1      42.917  35.584  84.446  1.00  0.00     0.077 A 
HETATM    2  C7  UNL     1      42.927  36.056  83.117  1.00  0.00     0.109 A 
HETATM    3  N3  UNL     1      41.791  36.562  82.616  1.00  0.00    -0.355 N 
ATOM      4  H3  UNL     1      41.790  36.905  81.655  1.00  0.00     0.166 HD
HETATM    5  C8  UNL     1      40.657  36.636  83.326  1.00  0.00     0.078 A 
HETATM    6  C9  UNL     1      39.441  37.215  82.687  1.00  0.00     0.089 C 
HETATM    7  N4  UNL     1      40.669  36.185  84.582  1.00  0.00    -0.332 N 
ATOM      8  H4  UNL     1      39.807  36.241  85.124  1.00  0.00     0.168 HD
HETATM    9  C10 UNL     1      41.785  35.648  85.185  1.00  0.00     0.118 A 
ENDROOT
BRANCH   1  10
HETATM   10  C5  UNL     1      44.166  35.041  84.953  1.00  0.00     0.201 A 
HETATM   11  N2  UNL     1      45.187  34.398  84.397  1.00  0.00    -0.166 N 
HETATM   12  C4  UNL     1      46.125  34.102  85.304  1.00  0.00     0.700 A 
ATOM     13  H2  UNL     1      45.248  34.161  83.407  1.00  0.00     0.186 HD
HETATM   14  N6  UNL     1      45.637  34.593  86.450  1.00  0.00    -0.089 N 
HETATM   15  O1  UNL     1      44.500  35.137  86.239  1.00  0.00    -0.203 OA
ATOM     16  H6  UNL     1      46.103  34.540  87.355  1.00  0.00     0.213 HD
BRANCH  12  17
HETATM   17  N1  UNL     1      47.249  33.475  85.092  1.00  0.00    -0.221 N 
ATOM     18  H1  UNL     1      47.977  33.901  84.517  1.00  0.00     0.178 HD
BRANCH  17  19
HETATM   19  C3  UNL     1      47.456  32.154  85.687  1.00  0.00     0.164 C 
BRANCH  19  20
HETATM   20  C2  UNL     1      48.871  31.803  85.784  1.00  0.00    -0.017 C 
HETATM   21  C1  UNL     1      49.677  31.959  84.751  1.00  0.00     0.008 C 
ENDBRANCH  19  20
ENDBRANCH  17  19
ENDBRANCH  12  17
ENDBRANCH   1  10
BRANCH   9  22
HETATM   22  N5  UNL     1      41.693  35.206  86.517  1.00  0.00    -0.371 N 
ATOM     23  H5  UNL     1      41.819  34.214  86.717  1.00  0.00     0.161 HD
BRANCH  22  24
HETATM   24  C11 UNL     1      41.426  36.115  87.616  1.00  0.00     0.083 C 
HETATM   25  C12 UNL     1      39.959  36.398  87.833  1.00  0.00     0.025 C 
HETATM   26  C13 UNL     1      39.863  36.861  89.300  1.00  0.00     0.002 C 
HETATM   27  C14 UNL     1      40.690  38.111  89.473  1.00  0.00     0.000 C 
HETATM   28  C15 UNL     1      42.070  38.031  88.922  1.00  0.00     0.002 C 
HETATM   29  C16 UNL     1      42.115  37.441  87.504  1.00  0.00     0.025 C 
ENDBRANCH  22  24
ENDBRANCH   9  22
TORSDOF 6
ENDMDL
MODEL 4
REMARK VINA RESULT: -7.122173994      1.485      4.123
REMARK  6 active torsions:
REMARK  status: ('A' for Active; 'I' for Inactive)
REMARK    1  A    between atoms: C2_2  and  C3_3 
REMARK    2  A    between atoms: C3_3  and  N1_4 
REMARK    3  A    between atoms: N1_4  and  C4_6 
REMARK    4  A    between atoms: C5_9  and  C6_10 
REMARK    5  A    between atoms: C10_18  and  N5_19 
REMARK    6  A    between atoms: N5_19  and  C11_21 
ROOT
HETATM    1  C6  UNL     1      43.737  36.062  87.110  1.00  0.00     0.077 A 
HETATM    2  C7  UNL     1      44.483  36.977  87.884  1.00  0.00     0.109 A 
HETATM    3  N3  UNL     1      43.815  37.877  88.619  1.00  0.00    -0.355 N 
ATOM      4  H3  UNL     1      44.347  38.542  89.181  1.00  0.00     0.166 HD
HETATM    5  C8  UNL     1      42.477  37.939  88.647  1.00  0.00     0.078 A 
HETATM    6  C9  UNL     1      41.819  38.973  89.495  1.00  0.00     0.089 C 
HETATM    7  N4  UNL     1      41.789  37.064  87.909  1.00  0.00    -0.332 N 
ATOM      8  H4  UNL     1      40.771  37.110  87.930  1.00  0.00     0.168 HD
HETATM    9  C10 UNL     1      42.384  36.103  87.121  1.00  0.00     0.118 A 
ENDROOT
BRANCH   1  10
HETATM   10  C5  UNL     1      44.496  35.103  86.326  1.00  0.00     0.201 A 
HETATM   11  N2  UNL     1      45.793  34.875  86.148  1.00  0.00    -0.166 N 
HETATM   12  C4  UNL     1      45.995  33.853  85.310  1.00  0.00     0.700 A 
ATOM     13  H2  UNL     1      46.538  35.411  86.593  1.00  0.00     0.186 HD
HETATM   14  N6  UNL     1      44.760  33.456  84.977  1.00  0.00    -0.089 N 
HETATM   15  O1  UNL     1      43.895  34.185  85.570  1.00  0.00    -0.203 OA
ATOM     16  H6  UNL     1      44.543  32.686  84.344  1.00  0.00     0.213 HD
BRANCH  12  17
HETATM   17  N1  UNL     1      47.144  33.372  84.922  1.00  0.00    -0.221 N 
ATOM     18  H1  UNL     1      47.632  33.782  84.126  1.00  0.00     0.178 HD
BRANCH  17  19
HETATM   19  C3  UNL     1      47.726  32.239  85.643  1.00  0.00     0.164 C 
BRANCH  19  20
HETATM   20  C2  UNL     1      49.183  32.314  85.714  1.00  0.00    -0.017 C 
HETATM   21  C1  UNL     1      49.936  31.538  84.957  1.00  0.00     0.008 C 
ENDBRANCH  19  20
ENDBRANCH  17  19
ENDBRANCH  12  17
ENDBRANCH   1  10
BRANCH   9  22
HETATM   22  N5  UNL     1      41.569  35.225  86.386  1.00  0.00    -0.371 N 
ATOM     23  H5  UNL     1      41.537  34.241  86.652  1.00  0.00     0.161 HD
BRANCH  22  24
HETATM   24  C11 UNL     1      40.770  35.673  85.260  1.00  0.00     0.083 C 
HETATM   25  C12 UNL     1      41.442  36.726  84.414  1.00  0.00     0.025 C 
HETATM   26  C13 UNL     1      40.743  36.632  83.043  1.00  0.00     0.002 C 
HETATM   27  C14 UNL     1      39.276  36.931  83.221  1.00  0.00     0.000 C 
HETATM   28  C15 UNL     1      38.612  36.185  84.325  1.00  0.00     0.002 C 
HETATM   29  C16 UNL     1      39.419  36.206  85.632  1.00  0.00     0.025 C 
ENDBRANCH  22  24
ENDBRANCH   9  22
TORSDOF 6
ENDMDL
MODEL 5
REMARK VINA RESULT: -7.067178666      2.022      4.290
REMARK  6 active torsions:
REMARK  status: ('A' for Active; 'I' for Inactive)
REMARK    1  A    between atoms: C2_2  and  C3_3 
REMARK    2  A    between atoms: C3_3  and  N1_4 
REMARK    3  A    between atoms: N1_4  and  C4_6 
REMARK    4  A    between atoms: C5_9  and  C6_10 
REMARK    5  A    between atoms: C10_18  and  N5_19 
REMARK    6  A    between atoms: N5_19  and  C11_21 
ROOT
HETATM    1  C6  UNL     1      44.034  36.450  87.316  1.00  0.00     0.077 A 
HETATM    2  C7  UNL     1      44.857  36.907  88.367  1.00  0.00     0.109 A 
HETATM    3  N3  UNL     1      44.400  37.898  89.145  1.00  0.00    -0.355 N 
ATOM      4  H3  UNL     1      44.990  38.234  89.907  1.00  0.00     0.166 HD
HETATM    5  C8  UNL     1      43.199  38.464  88.964  1.00  0.00     0.078 A 
HETATM    6  C9  UNL     1      42.772  39.560  89.880  1.00  0.00     0.089 C 
HETATM    7  N4  UNL     1      42.434  38.017  87.966  1.00  0.00    -0.332 N 
ATOM      8  H4  UNL     1      41.520  38.447  87.827  1.00  0.00     0.168 HD
HETATM    9  C10 UNL     1      42.816  37.005  87.113  1.00  0.00     0.118 A 
ENDROOT
BRANCH   1  10
HETATM   10  C5  UNL     1      44.564  35.376  86.494  1.00  0.00     0.201 A 
HETATM   11  N2  UNL     1      45.790  34.957  86.200  1.00  0.00    -0.166 N 
HETATM   12  C4  UNL     1      45.758  33.901  85.379  1.00  0.00     0.700 A 
ATOM     13  H2  UNL     1      46.646  35.385  86.555  1.00  0.00     0.186 HD
HETATM   14  N6  UNL     1      44.452  33.685  85.178  1.00  0.00    -0.089 N 
HETATM   15  O1  UNL     1      43.764  34.544  85.828  1.00  0.00    -0.203 OA
ATOM     16  H6  UNL     1      44.064  32.945  84.593  1.00  0.00     0.213 HD
BRANCH  12  17
HETATM   17  N1  UNL     1      46.781  33.250  84.899  1.00  0.00    -0.221 N 
ATOM     18  H1  UNL     1      47.121  33.445  83.957  1.00  0.00     0.178 HD
BRANCH  17  19
HETATM   19  C3  UNL     1      47.438  32.238  85.727  1.00  0.00     0.164 C 
BRANCH  19  20
HETATM   20  C2  UNL     1      48.852  32.079  85.395  1.00  0.00    -0.017 C 
HETATM   21  C1  UNL     1      49.535  33.074  84.861  1.00  0.00     0.008 C 
ENDBRANCH  19  20
ENDBRANCH  17  19
ENDBRANCH  12  17
ENDBRANCH   1  10
BRANCH   9  22
HETATM   22  N5  UNL     1      41.933  36.603  86.095  1.00  0.00    -0.371 N 
ATOM     23  H5  UNL     1      42.249  36.637  85.126  1.00  0.00     0.161 HD
BRANCH  22  24
HETATM   24  C11 UNL     1      40.586  36.141  86.378  1.00  0.00     0.083 C 
HETATM   25  C12 UNL     1      40.532  34.811  87.088  1.00  0.00     0.025 C 
HETATM   26  C13 UNL     1      39.155  34.792  87.779  1.00  0.00     0.002 C 
HETATM   27  C14 UNL     1      38.078  34.891  86.727  1.00  0.00     0.000 C 
HETATM   28  C15 UNL     1      38.274  35.979  85.730  1.00  0.00     0.002 C 
HETATM   29  C16 UNL     1      39.704  36.029  85.171  1.00  0.00     0.025 C 
ENDBRANCH  22  24
ENDBRANCH   9  22
TORSDOF 6
ENDMDL
