MODEL 1
REMARK VINA RESULT: -5.527111166      0.000      0.000
REMARK  7 active torsions:
REMARK  status: ('A' for Active; 'I' for Inactive)
REMARK    1  A    between atoms: O1_2  and  C2_3 
REMARK    2  A    between atoms: C5_6  and  O2_7 
REMARK    3  A    between atoms: C7_9  and  C8_10 
REMARK    4  A    between atoms: C8_10  and  C10_12 
REMARK    5  A    between atoms: C10_12  and  O3_14 
REMARK    6  A    between atoms: C13_17  and  O4_18 
REMARK    7  A    between atoms: C17_24  and  O5_25 
ROOT
HETATM    1  C2  UNL     1      37.856  36.500  84.616  1.00  0.00     0.103 A 
HETATM    2  C3  UNL     1      38.792  36.246  85.568  1.00  0.00     0.055 A 
HETATM    3  C4  UNL     1      40.132  36.195  85.239  1.00  0.00     0.015 A 
HETATM    4  C5  UNL     1      41.072  35.945  86.233  1.00  0.00     0.086 A 
HETATM    5  C7  UNL     1      42.420  35.898  85.969  1.00  0.00    -0.015 A 
HETATM    6  C12 UNL     1      42.780  36.107  84.657  1.00  0.00     0.047 A 
HETATM    7  C13 UNL     1      41.854  36.360  83.632  1.00  0.00     0.079 A 
HETATM    8  C14 UNL     1      40.526  36.402  83.931  1.00  0.00     0.034 A 
HETATM    9  C15 UNL     1      39.621  36.655  82.958  1.00  0.00     0.094 A 
HETATM   10  C16 UNL     1      39.990  36.869  81.579  1.00  0.00     0.103 C 
HETATM   11  N1  UNL     1      40.256  37.048  80.449  1.00  0.00    -0.191 NA
HETATM   12  C17 UNL     1      38.278  36.699  83.329  1.00  0.00     0.123 A 
ENDROOT
BRANCH  12  13
HETATM   13  O5  UNL     1      37.309  36.964  82.342  1.00  0.00    -0.352 OA
HETATM   14  C18 UNL     1      36.743  35.786  81.764  1.00  0.00     0.210 C 
ENDBRANCH  12  13
BRANCH   7  15
HETATM   15  O4  UNL     1      42.373  36.551  82.369  1.00  0.00    -0.360 OA
ATOM     16  H4  UNL     1      41.881  37.123  81.792  1.00  0.00     0.217 HD
ENDBRANCH   7  15
BRANCH   1  17
HETATM   17  O1  UNL     1      36.525  36.559  84.918  1.00  0.00    -0.353 OA
HETATM   18  C1  UNL     1      35.921  36.074  86.093  1.00  0.00     0.210 C 
ENDBRANCH   1  17
BRANCH   4  19
HETATM   19  O2  UNL     1      40.602  35.743  87.506  1.00  0.00    -0.354 OA
HETATM   20  C6  UNL     1      40.117  34.452  87.857  1.00  0.00     0.210 C 
ENDBRANCH   4  19
BRANCH   5  21
HETATM   21  C8  UNL     1      43.374  35.701  87.068  1.00  0.00     0.046 C 
HETATM   22  C9  UNL     1      44.751  35.206  86.610  1.00  0.00     0.017 C 
BRANCH  21  23
HETATM   23  C10 UNL     1      43.593  37.093  87.683  1.00  0.00     0.122 C 
HETATM   24  C11 UNL     1      44.966  37.256  88.260  1.00  0.00     0.040 C 
BRANCH  23  25
HETATM   25  O3  UNL     1      42.644  37.343  88.612  1.00  0.00    -0.395 OA
ATOM     26  H3  UNL     1      42.466  38.275  88.653  1.00  0.00     0.210 HD
ENDBRANCH  23  25
ENDBRANCH  21  23
ENDBRANCH   5  21
TORSDOF 7
ENDMDL
MODEL 2
REMARK VINA RESULT: -5.489826554      3.928      6.531
REMARK  7 active torsions:
REMARK  status: ('A' for Active; 'I' for Inactive)
REMARK    1  A    between atoms: O1_2  and  C2_3 
REMARK    2  A    between atoms: C5_6  and  O2_7 
REMARK    3  A    between atoms: C7_9  and  C8_10 
REMARK    4  A    between atoms: C8_10  and  C10_12 
REMARK    5  A    between atoms: C10_12  and  O3_14 
REMARK    6  A    between atoms: C13_17  and  O4_18 
REMARK    7  A    between atoms: C17_24  and  O5_25 
ROOT
HETATM    1  C2  UNL     1      40.581  38.592  90.149  1.00  0.00     0.103 A 
HETATM    2  C3  UNL     1      40.583  37.744  89.087  1.00  0.00     0.055 A 
HETATM    3  C4  UNL     1      41.767  37.396  88.469  1.00  0.00     0.015 A 
HETATM    4  C5  UNL     1      41.745  36.517  87.392  1.00  0.00     0.086 A 
HETATM    5  C7  UNL     1      42.892  36.121  86.747  1.00  0.00    -0.015 A 
HETATM    6  C12 UNL     1      44.064  36.655  87.231  1.00  0.00     0.047 A 
HETATM    7  C13 UNL     1      44.118  37.546  88.316  1.00  0.00     0.079 A 
HETATM    8  C14 UNL     1      42.961  37.914  88.932  1.00  0.00     0.034 A 
HETATM    9  C15 UNL     1      42.995  38.762  89.986  1.00  0.00     0.094 A 
HETATM   10  C16 UNL     1      44.220  39.331  90.495  1.00  0.00     0.103 C 
HETATM   11  N1  UNL     1      45.197  39.812  90.935  1.00  0.00    -0.191 NA
HETATM   12  C17 UNL     1      41.780  39.089  90.583  1.00  0.00     0.123 A 
ENDROOT
BRANCH  12  13
HETATM   13  O5  UNL     1      41.779  39.968  91.684  1.00  0.00    -0.352 OA
HETATM   14  C18 UNL     1      41.807  39.303  92.949  1.00  0.00     0.210 C 
ENDBRANCH  12  13
BRANCH   7  15
HETATM   15  O4  UNL     1      45.371  37.992  88.682  1.00  0.00    -0.360 OA
ATOM     16  H4  UNL     1      45.568  38.902  88.491  1.00  0.00     0.217 HD
ENDBRANCH   7  15
BRANCH   1  17
HETATM   17  O1  UNL     1      39.422  38.949  90.779  1.00  0.00    -0.353 OA
HETATM   18  C1  UNL     1      38.548  38.079  91.458  1.00  0.00     0.210 C 
ENDBRANCH   1  17
BRANCH   4  19
HETATM   19  O2  UNL     1      40.519  36.050  86.987  1.00  0.00    -0.354 OA
HETATM   20  C6  UNL     1      40.061  34.805  87.499  1.00  0.00     0.210 C 
ENDBRANCH   4  19
BRANCH   5  21
HETATM   21  C8  UNL     1      42.818  35.136  85.661  1.00  0.00     0.046 C 
HETATM   22  C9  UNL     1      42.342  35.722  84.326  1.00  0.00     0.017 C 
BRANCH  21  23
HETATM   23  C10 UNL     1      44.260  34.655  85.436  1.00  0.00     0.122 C 
HETATM   24  C11 UNL     1      44.881  35.255  84.211  1.00  0.00     0.040 C 
BRANCH  23  25
HETATM   25  O3  UNL     1      44.295  33.305  85.384  1.00  0.00    -0.395 OA
ATOM     26  H3  UNL     1      43.901  33.000  84.575  1.00  0.00     0.210 HD
ENDBRANCH  23  25
ENDBRANCH  21  23
ENDBRANCH   5  21
TORSDOF 7
ENDMDL
MODEL 3
REMARK VINA RESULT: -5.439740349      3.880      6.135
REMARK  7 active torsions:
REMARK  status: ('A' for Active; 'I' for Inactive)
REMARK    1  A    between atoms: O1_2  and  C2_3 
REMARK    2  A    between atoms: C5_6  and  O2_7 
REMARK    3  A    between atoms: C7_9  and  C8_10 
REMARK    4  A    between atoms: C8_10  and  C10_12 
REMARK    5  A    between atoms: C10_12  and  O3_14 
REMARK    6  A    between atoms: C13_17  and  O4_18 
REMARK    7  A    between atoms: C17_24  and  O5_25 
ROOT
HETATM    1  C2  UNL     1      41.729  38.762  89.965  1.00  0.00     0.103 A 
HETATM    2  C3  UNL     1      41.788  37.708  89.109  1.00  0.00     0.055 A 
HETATM    3  C4  UNL     1      42.052  37.906  87.768  1.00  0.00     0.015 A 
HETATM    4  C5  UNL     1      42.118  36.810  86.914  1.00  0.00     0.086 A 
HETATM    5  C7  UNL     1      42.392  36.944  85.574  1.00  0.00    -0.015 A 
HETATM    6  C12 UNL     1      42.591  38.231  85.129  1.00  0.00     0.047 A 
HETATM    7  C13 UNL     1      42.528  39.356  85.967  1.00  0.00     0.079 A 
HETATM    8  C14 UNL     1      42.257  39.186  87.290  1.00  0.00     0.034 A 
HETATM    9  C15 UNL     1      42.203  40.258  88.115  1.00  0.00     0.094 A 
HETATM   10  C16 UNL     1      42.404  41.611  87.655  1.00  0.00     0.103 C 
HETATM   11  N1  UNL     1      42.562  42.724  87.315  1.00  0.00    -0.191 NA
HETATM   12  C17 UNL     1      41.935  40.017  89.461  1.00  0.00     0.123 A 
ENDROOT
BRANCH  12  13
HETATM   13  O5  UNL     1      41.876  41.111  90.347  1.00  0.00    -0.352 OA
HETATM   14  C18 UNL     1      43.126  41.414  90.968  1.00  0.00     0.210 C 
ENDBRANCH  12  13
BRANCH   7  15
HETATM   15  O4  UNL     1      42.752  40.579  85.370  1.00  0.00    -0.360 OA
ATOM     16  H4  UNL     1      42.676  41.343  85.931  1.00  0.00     0.217 HD
ENDBRANCH   7  15
BRANCH   1  17
HETATM   17  O1  UNL     1      41.473  38.590  91.296  1.00  0.00    -0.353 OA
HETATM   18  C1  UNL     1      42.321  37.963  92.227  1.00  0.00     0.210 C 
ENDBRANCH   1  17
BRANCH   4  19
HETATM   19  O2  UNL     1      41.897  35.571  87.462  1.00  0.00    -0.354 OA
HETATM   20  C6  UNL     1      40.601  34.997  87.344  1.00  0.00     0.210 C 
ENDBRANCH   4  19
BRANCH   5  21
HETATM   21  C8  UNL     1      42.522  35.748  84.731  1.00  0.00     0.046 C 
HETATM   22  C9  UNL     1      42.794  36.059  83.255  1.00  0.00     0.017 C 
BRANCH  21  23
HETATM   23  C10 UNL     1      43.759  35.002  85.255  1.00  0.00     0.122 C 
HETATM   24  C11 UNL     1      44.953  35.177  84.367  1.00  0.00     0.040 C 
BRANCH  23  25
HETATM   25  O3  UNL     1      43.472  33.693  85.427  1.00  0.00    -0.395 OA
ATOM     26  H3  UNL     1      44.245  33.165  85.263  1.00  0.00     0.210 HD
ENDBRANCH  23  25
ENDBRANCH  21  23
ENDBRANCH   5  21
TORSDOF 7
ENDMDL
MODEL 4
REMARK VINA RESULT: -5.388796957      3.571      6.037
REMARK  7 active torsions:
REMARK  status: ('A' for Active; 'I' for Inactive)
REMARK    1  A    between atoms: O1_2  and  C2_3 
REMARK    2  A    between atoms: C5_6  and  O2_7 
REMARK    3  A    between atoms: C7_9  and  C8_10 
REMARK    4  A    between atoms: C8_10  and  C10_12 
REMARK    5  A    between atoms: C10_12  and  O3_14 
REMARK    6  A    between atoms: C13_17  and  O4_18 
REMARK    7  A    between atoms: C17_24  and  O5_25 
ROOT
HETATM    1  C2  UNL     1      40.319  38.043  89.041  1.00  0.00     0.103 A 
HETATM    2  C3  UNL     1      40.579  37.232  87.982  1.00  0.00     0.055 A 
HETATM    3  C4  UNL     1      41.879  36.917  87.641  1.00  0.00     0.015 A 
HETATM    4  C5  UNL     1      42.119  36.075  86.560  1.00  0.00     0.086 A 
HETATM    5  C7  UNL     1      43.390  35.713  86.183  1.00  0.00    -0.015 A 
HETATM    6  C12 UNL     1      44.411  36.241  86.940  1.00  0.00     0.047 A 
HETATM    7  C13 UNL     1      44.199  37.095  88.036  1.00  0.00     0.079 A 
HETATM    8  C14 UNL     1      42.926  37.430  88.382  1.00  0.00     0.034 A 
HETATM    9  C15 UNL     1      42.703  38.241  89.441  1.00  0.00     0.094 A 
HETATM   10  C16 UNL     1      43.769  38.804  90.236  1.00  0.00     0.103 C 
HETATM   11  N1  UNL     1      44.611  39.279  90.903  1.00  0.00    -0.191 NA
HETATM   12  C17 UNL     1      41.378  38.536  89.754  1.00  0.00     0.123 A 
ENDROOT
BRANCH  12  13
HETATM   13  O5  UNL     1      41.110  39.376  90.853  1.00  0.00    -0.352 OA
HETATM   14  C18 UNL     1      40.912  38.670  92.079  1.00  0.00     0.210 C 
ENDBRANCH  12  13
BRANCH   7  15
HETATM   15  O4  UNL     1      45.327  37.539  88.694  1.00  0.00    -0.360 OA
ATOM     16  H4  UNL     1      45.734  36.927  89.296  1.00  0.00     0.217 HD
ENDBRANCH   7  15
BRANCH   1  17
HETATM   17  O1  UNL     1      39.041  38.367  89.399  1.00  0.00    -0.353 OA
HETATM   18  C1  UNL     1      38.067  37.474  89.884  1.00  0.00     0.210 C 
ENDBRANCH   1  17
BRANCH   4  19
HETATM   19  O2  UNL     1      41.027  35.611  85.870  1.00  0.00    -0.354 OA
HETATM   20  C6  UNL     1      40.544  36.371  84.769  1.00  0.00     0.210 C 
ENDBRANCH   4  19
BRANCH   5  21
HETATM   21  C8  UNL     1      43.584  34.765  85.079  1.00  0.00     0.046 C 
HETATM   22  C9  UNL     1      43.892  35.437  83.735  1.00  0.00     0.017 C 
BRANCH  21  23
HETATM   23  C10 UNL     1      44.827  33.942  85.450  1.00  0.00     0.122 C 
HETATM   24  C11 UNL     1      46.089  34.523  84.889  1.00  0.00     0.040 C 
BRANCH  23  25
HETATM   25  O3  UNL     1      44.667  32.660  85.055  1.00  0.00    -0.395 OA
ATOM     26  H3  UNL     1      45.378  32.125  85.389  1.00  0.00     0.210 HD
ENDBRANCH  23  25
ENDBRANCH  21  23
ENDBRANCH   5  21
TORSDOF 7
ENDMDL
MODEL 5
REMARK VINA RESULT: -5.248940624      3.528      5.644
REMARK  7 active torsions:
REMARK  status: ('A' for Active; 'I' for Inactive)
REMARK    1  A    between atoms: O1_2  and  C2_3 
REMARK    2  A    between atoms: C5_6  and  O2_7 
REMARK    3  A    between atoms: C7_9  and  C8_10 
REMARK    4  A    between atoms: C8_10  and  C10_12 
REMARK    5  A    between atoms: C10_12  and  O3_14 
REMARK    6  A    between atoms: C13_17  and  O4_18 
REMARK    7  A    between atoms: C17_24  and  O5_25 
ROOT
HETATM    1  C2  UNL     1      38.477  36.837  90.518  1.00  0.00     0.103 A 
HETATM    2  C3  UNL     1      39.636  36.900  89.811  1.00  0.00     0.055 A 
HETATM    3  C4  UNL     1      39.732  36.309  88.567  1.00  0.00     0.015 A 
HETATM    4  C5  UNL     1      40.925  36.398  87.857  1.00  0.00     0.086 A 
HETATM    5  C7  UNL     1      41.076  35.843  86.609  1.00  0.00    -0.015 A 
HETATM    6  C12 UNL     1      39.973  35.189  86.108  1.00  0.00     0.047 A 
HETATM    7  C13 UNL     1      38.757  35.083  86.802  1.00  0.00     0.079 A 
HETATM    8  C14 UNL     1      38.643  35.647  88.035  1.00  0.00     0.034 A 
HETATM    9  C15 UNL     1      37.475  35.563  88.714  1.00  0.00     0.094 A 
HETATM   10  C16 UNL     1      36.316  34.873  88.198  1.00  0.00     0.103 C 
HETATM   11  N1  UNL     1      35.356  34.322  87.808  1.00  0.00    -0.191 NA
HETATM   12  C17 UNL     1      37.417  36.172  89.965  1.00  0.00     0.123 A 
ENDROOT
BRANCH  12  13
HETATM   13  O5  UNL     1      36.215  36.107  90.697  1.00  0.00    -0.352 OA
HETATM   14  C18 UNL     1      36.156  35.007  91.607  1.00  0.00     0.210 C 
ENDBRANCH  12  13
BRANCH   7  15
HETATM   15  O4  UNL     1      37.744  34.396  86.164  1.00  0.00    -0.360 OA
ATOM     16  H4  UNL     1      36.861  34.715  86.310  1.00  0.00     0.217 HD
ENDBRANCH   7  15
BRANCH   1  17
HETATM   17  O1  UNL     1      38.357  37.417  91.750  1.00  0.00    -0.353 OA
HETATM   18  C1  UNL     1      39.086  37.069  92.902  1.00  0.00     0.210 C 
ENDBRANCH   1  17
BRANCH   4  19
HETATM   19  O2  UNL     1      41.964  37.067  88.455  1.00  0.00    -0.354 OA
HETATM   20  C6  UNL     1      42.130  38.452  88.179  1.00  0.00     0.210 C 
ENDBRANCH   4  19
BRANCH   5  21
HETATM   21  C8  UNL     1      42.334  36.027  85.874  1.00  0.00     0.046 C 
HETATM   22  C9  UNL     1      43.026  34.713  85.494  1.00  0.00     0.017 C 
BRANCH  21  23
HETATM   23  C10 UNL     1      41.948  36.714  84.554  1.00  0.00     0.122 C 
HETATM   24  C11 UNL     1      42.635  36.108  83.369  1.00  0.00     0.040 C 
BRANCH  23  25
HETATM   25  O3  UNL     1      42.197  38.040  84.632  1.00  0.00    -0.395 OA
ATOM     26  H3  UNL     1      43.057  38.188  85.008  1.00  0.00     0.210 HD
ENDBRANCH  23  25
ENDBRANCH  21  23
ENDBRANCH   5  21
TORSDOF 7
ENDMDL
