MODEL 1
REMARK VINA RESULT: -6.018460210      0.000      0.000
REMARK  6 active torsions:
REMARK  status: ('A' for Active; 'I' for Inactive)
REMARK    1  A    between atoms: C2_2  and  C3_3 
REMARK    2  A    between atoms: C3_3  and  C4_4 
REMARK    3  A    between atoms: C4_4  and  N1_5 
REMARK    4  A    between atoms: C6_10  and  O1_11 
REMARK    5  A    between atoms: C7_13  and  C8_14 
REMARK    6  A    between atoms: N3_15  and  N4_17 
ROOT
HETATM    1  N1  UNL     1      43.531  35.895  85.412  1.00  0.00    -0.290 N 
HETATM    2  C5  UNL     1      43.006  36.695  84.463  1.00  0.00     0.182 A 
HETATM    3  S1  UNL     1      42.814  36.124  82.932  1.00  0.00    -0.040 SA
HETATM    4  N2  UNL     1      42.655  37.939  84.804  1.00  0.00    -0.313 N 
ATOM      5  H2  UNL     1      42.254  38.563  84.104  1.00  0.00     0.170 HD
HETATM    6  C6  UNL     1      42.827  38.372  86.070  1.00  0.00     0.159 A 
HETATM    7  C7  UNL     1      43.363  37.569  87.053  1.00  0.00     0.100 A 
HETATM    8  C15 UNL     1      43.718  36.291  86.683  1.00  0.00     0.265 A 
HETATM    9  O2  UNL     1      44.213  35.535  87.572  1.00  0.00    -0.267 OA
ENDROOT
BRANCH   7  10
HETATM   10  C8  UNL     1      43.566  37.993  88.429  1.00  0.00     0.128 C 
HETATM   11  N3  UNL     1      42.551  38.552  89.019  1.00  0.00    -0.313 N 
ATOM     12  H3  UNL     1      41.683  38.660  88.495  1.00  0.00     0.185 HD
BRANCH  11  13
HETATM   13  N4  UNL     1      42.597  39.009  90.332  1.00  0.00    -0.328 N 
HETATM   14  C9  UNL     1      43.244  40.304  90.459  1.00  0.00     0.142 C 
HETATM   15  C10 UNL     1      43.612  40.595  91.888  1.00  0.00     0.021 C 
HETATM   16  C11 UNL     1      44.708  39.650  92.318  1.00  0.00     0.002 C 
HETATM   17  C12 UNL     1      44.301  38.204  92.191  1.00  0.00     0.002 C 
HETATM   18  C13 UNL     1      42.847  37.986  92.547  1.00  0.00     0.021 C 
HETATM   19  C14 UNL     1      42.004  38.133  91.312  1.00  0.00     0.142 C 
ENDBRANCH  11  13
ENDBRANCH   7  10
BRANCH   6  20
HETATM   20  O1  UNL     1      42.465  39.668  86.439  1.00  0.00    -0.345 OA
ATOM     21  H1  UNL     1      43.123  40.344  86.554  1.00  0.00     0.219 HD
ENDBRANCH   6  20
BRANCH   1  22
HETATM   22  C4  UNL     1      43.909  34.548  85.038  1.00  0.00     0.135 C 
BRANCH  22  23
HETATM   23  C3  UNL     1      45.413  34.472  84.882  1.00  0.00     0.020 C 
BRANCH  23  24
HETATM   24  C2  UNL     1      45.940  33.127  85.263  1.00  0.00    -0.003 C 
HETATM   25  C1  UNL     1      47.456  33.173  85.213  1.00  0.00     0.005 C 
ENDBRANCH  23  24
ENDBRANCH  22  23
ENDBRANCH   1  22
TORSDOF 6
ENDMDL
MODEL 2
REMARK VINA RESULT: -5.724271256      0.702      1.393
REMARK  6 active torsions:
REMARK  status: ('A' for Active; 'I' for Inactive)
REMARK    1  A    between atoms: C2_2  and  C3_3 
REMARK    2  A    between atoms: C3_3  and  C4_4 
REMARK    3  A    between atoms: C4_4  and  N1_5 
REMARK    4  A    between atoms: C6_10  and  O1_11 
REMARK    5  A    between atoms: C7_13  and  C8_14 
REMARK    6  A    between atoms: N3_15  and  N4_17 
ROOT
HETATM    1  N1  UNL     1      43.159  36.103  85.537  1.00  0.00    -0.290 N 
HETATM    2  C5  UNL     1      42.601  36.971  84.670  1.00  0.00     0.182 A 
HETATM    3  S1  UNL     1      42.161  36.455  83.171  1.00  0.00    -0.040 SA
HETATM    4  N2  UNL     1      42.422  38.236  85.064  1.00  0.00    -0.313 N 
ATOM      5  H2  UNL     1      42.001  38.911  84.427  1.00  0.00     0.170 HD
HETATM    6  C6  UNL     1      42.796  38.622  86.302  1.00  0.00     0.159 A 
HETATM    7  C7  UNL     1      43.368  37.749  87.201  1.00  0.00     0.100 A 
HETATM    8  C15 UNL     1      43.543  36.451  86.777  1.00  0.00     0.265 A 
HETATM    9  O2  UNL     1      44.067  35.630  87.589  1.00  0.00    -0.267 OA
ENDROOT
BRANCH   7  10
HETATM   10  C8  UNL     1      43.784  38.121  88.544  1.00  0.00     0.128 C 
HETATM   11  N3  UNL     1      42.892  38.001  89.481  1.00  0.00    -0.313 N 
ATOM     12  H3  UNL     1      41.965  37.658  89.230  1.00  0.00     0.185 HD
BRANCH  11  13
HETATM   13  N4  UNL     1      43.145  38.320  90.812  1.00  0.00    -0.328 N 
HETATM   14  C9  UNL     1      41.932  38.458  91.601  1.00  0.00     0.142 C 
HETATM   15  C10 UNL     1      42.204  39.157  92.905  1.00  0.00     0.021 C 
HETATM   16  C11 UNL     1      42.567  40.596  92.628  1.00  0.00     0.002 C 
HETATM   17  C12 UNL     1      43.772  40.721  91.733  1.00  0.00     0.002 C 
HETATM   18  C13 UNL     1      44.809  39.658  92.018  1.00  0.00     0.021 C 
HETATM   19  C14 UNL     1      44.538  38.454  91.162  1.00  0.00     0.142 C 
ENDBRANCH  11  13
ENDBRANCH   7  10
BRANCH   6  20
HETATM   20  O1  UNL     1      42.615  39.939  86.726  1.00  0.00    -0.345 OA
ATOM     21  H1  UNL     1      42.106  40.136  87.503  1.00  0.00     0.219 HD
ENDBRANCH   6  20
BRANCH   1  22
HETATM   22  C4  UNL     1      43.349  34.733  85.106  1.00  0.00     0.135 C 
BRANCH  22  23
HETATM   23  C3  UNL     1      44.781  34.542  84.656  1.00  0.00     0.020 C 
BRANCH  23  24
HETATM   24  C2  UNL     1      45.277  33.167  84.963  1.00  0.00    -0.003 C 
HETATM   25  C1  UNL     1      46.749  33.255  85.322  1.00  0.00     0.005 C 
ENDBRANCH  23  24
ENDBRANCH  22  23
ENDBRANCH   1  22
TORSDOF 6
ENDMDL
MODEL 3
REMARK VINA RESULT: -5.705701713      2.913      7.171
REMARK  6 active torsions:
REMARK  status: ('A' for Active; 'I' for Inactive)
REMARK    1  A    between atoms: C2_2  and  C3_3 
REMARK    2  A    between atoms: C3_3  and  C4_4 
REMARK    3  A    between atoms: C4_4  and  N1_5 
REMARK    4  A    between atoms: C6_10  and  O1_11 
REMARK    5  A    between atoms: C7_13  and  C8_14 
REMARK    6  A    between atoms: N3_15  and  N4_17 
ROOT
HETATM    1  N1  UNL     1      43.570  38.899  91.050  1.00  0.00    -0.290 N 
HETATM    2  C5  UNL     1      42.338  39.325  91.393  1.00  0.00     0.182 A 
HETATM    3  S1  UNL     1      42.099  40.027  92.861  1.00  0.00    -0.040 SA
HETATM    4  N2  UNL     1      41.342  39.161  90.516  1.00  0.00    -0.313 N 
ATOM      5  H2  UNL     1      40.401  39.476  90.752  1.00  0.00     0.170 HD
HETATM    6  C6  UNL     1      41.576  38.580  89.321  1.00  0.00     0.159 A 
HETATM    7  C7  UNL     1      42.829  38.138  88.954  1.00  0.00     0.100 A 
HETATM    8  C15 UNL     1      43.841  38.317  89.869  1.00  0.00     0.265 A 
HETATM    9  O2  UNL     1      45.002  37.917  89.552  1.00  0.00    -0.267 OA
ENDROOT
BRANCH   7  10
HETATM   10  C8  UNL     1      43.126  37.508  87.677  1.00  0.00     0.128 C 
HETATM   11  N3  UNL     1      42.434  36.450  87.377  1.00  0.00    -0.313 N 
ATOM     12  H3  UNL     1      41.731  36.125  88.041  1.00  0.00     0.185 HD
BRANCH  11  13
HETATM   13  N4  UNL     1      42.609  35.742  86.192  1.00  0.00    -0.328 N 
HETATM   14  C9  UNL     1      43.845  34.978  86.166  1.00  0.00     0.142 C 
HETATM   15  C10 UNL     1      44.187  34.538  84.769  1.00  0.00     0.021 C 
HETATM   16  C11 UNL     1      44.546  35.750  83.944  1.00  0.00     0.002 C 
HETATM   17  C12 UNL     1      43.428  36.759  83.890  1.00  0.00     0.002 C 
HETATM   18  C13 UNL     1      42.068  36.102  83.828  1.00  0.00     0.021 C 
HETATM   19  C14 UNL     1      41.551  35.890  85.222  1.00  0.00     0.142 C 
ENDBRANCH  11  13
ENDBRANCH   7  10
BRANCH   6  20
HETATM   20  O1  UNL     1      40.546  38.403  88.397  1.00  0.00    -0.345 OA
ATOM     21  H1  UNL     1      40.027  37.606  88.392  1.00  0.00     0.219 HD
ENDBRANCH   6  20
BRANCH   1  22
HETATM   22  C4  UNL     1      44.646  39.080  92.002  1.00  0.00     0.135 C 
BRANCH  22  23
HETATM   23  C3  UNL     1      45.421  40.332  91.654  1.00  0.00     0.020 C 
BRANCH  23  24
HETATM   24  C2  UNL     1      46.151  40.877  92.838  1.00  0.00    -0.003 C 
HETATM   25  C1  UNL     1      47.549  41.273  92.400  1.00  0.00     0.005 C 
ENDBRANCH  23  24
ENDBRANCH  22  23
ENDBRANCH   1  22
TORSDOF 6
ENDMDL
MODEL 4
REMARK VINA RESULT: -5.687695329      3.509      4.288
REMARK  6 active torsions:
REMARK  status: ('A' for Active; 'I' for Inactive)
REMARK    1  A    between atoms: C2_2  and  C3_3 
REMARK    2  A    between atoms: C3_3  and  C4_4 
REMARK    3  A    between atoms: C4_4  and  N1_5 
REMARK    4  A    between atoms: C6_10  and  O1_11 
REMARK    5  A    between atoms: C7_13  and  C8_14 
REMARK    6  A    between atoms: N3_15  and  N4_17 
ROOT
HETATM    1  N1  UNL     1      41.985  35.334  85.452  1.00  0.00    -0.290 N 
HETATM    2  C5  UNL     1      41.822  36.133  84.380  1.00  0.00     0.182 A 
HETATM    3  S1  UNL     1      42.944  36.122  83.178  1.00  0.00    -0.040 SA
HETATM    4  N2  UNL     1      40.740  36.917  84.331  1.00  0.00    -0.313 N 
ATOM      5  H2  UNL     1      40.593  37.531  83.529  1.00  0.00     0.170 HD
HETATM    6  C6  UNL     1      39.840  36.900  85.336  1.00  0.00     0.159 A 
HETATM    7  C7  UNL     1      39.991  36.089  86.441  1.00  0.00     0.100 A 
HETATM    8  C15 UNL     1      41.111  35.289  86.473  1.00  0.00     0.265 A 
HETATM    9  O2  UNL     1      41.269  34.534  87.480  1.00  0.00    -0.267 OA
ENDROOT
BRANCH   7  10
HETATM   10  C8  UNL     1      39.048  36.037  87.546  1.00  0.00     0.128 C 
HETATM   11  N3  UNL     1      39.413  36.621  88.648  1.00  0.00    -0.313 N 
ATOM     12  H3  UNL     1      40.325  37.077  88.678  1.00  0.00     0.185 HD
BRANCH  11  13
HETATM   13  N4  UNL     1      38.617  36.652  89.789  1.00  0.00    -0.328 N 
HETATM   14  C9  UNL     1      39.360  36.998  90.988  1.00  0.00     0.142 C 
HETATM   15  C10 UNL     1      38.581  36.663  92.231  1.00  0.00     0.021 C 
HETATM   16  C11 UNL     1      38.466  35.162  92.352  1.00  0.00     0.002 C 
HETATM   17  C12 UNL     1      37.793  34.541  91.156  1.00  0.00     0.002 C 
HETATM   18  C13 UNL     1      36.674  35.405  90.617  1.00  0.00     0.021 C 
HETATM   19  C14 UNL     1      37.224  36.341  89.578  1.00  0.00     0.142 C 
ENDBRANCH  11  13
ENDBRANCH   7  10
BRANCH   6  20
HETATM   20  O1  UNL     1      38.708  37.712  85.298  1.00  0.00    -0.345 OA
ATOM     21  H1  UNL     1      37.901  37.445  85.724  1.00  0.00     0.219 HD
ENDBRANCH   6  20
BRANCH   1  22
HETATM   22  C4  UNL     1      43.158  34.486  85.501  1.00  0.00     0.135 C 
BRANCH  22  23
HETATM   23  C3  UNL     1      44.250  35.181  86.284  1.00  0.00     0.020 C 
BRANCH  23  24
HETATM   24  C2  UNL     1      45.590  34.572  86.025  1.00  0.00    -0.003 C 
HETATM   25  C1  UNL     1      45.434  33.503  84.960  1.00  0.00     0.005 C 
ENDBRANCH  23  24
ENDBRANCH  22  23
ENDBRANCH   1  22
TORSDOF 6
ENDMDL
MODEL 5
REMARK VINA RESULT: -5.684133439      5.171      7.741
REMARK  6 active torsions:
REMARK  status: ('A' for Active; 'I' for Inactive)
REMARK    1  A    between atoms: C2_2  and  C3_3 
REMARK    2  A    between atoms: C3_3  and  C4_4 
REMARK    3  A    between atoms: C4_4  and  N1_5 
REMARK    4  A    between atoms: C6_10  and  O1_11 
REMARK    5  A    between atoms: C7_13  and  C8_14 
REMARK    6  A    between atoms: N3_15  and  N4_17 
ROOT
HETATM    1  N1  UNL     1      36.936  35.362  88.729  1.00  0.00    -0.290 N 
HETATM    2  C5  UNL     1      35.983  34.709  88.036  1.00  0.00     0.182 A 
HETATM    3  S1  UNL     1      34.660  34.127  88.822  1.00  0.00    -0.040 SA
HETATM    4  N2  UNL     1      36.148  34.554  86.719  1.00  0.00    -0.313 N 
ATOM      5  H2  UNL     1      35.441  34.063  86.172  1.00  0.00     0.170 HD
HETATM    6  C6  UNL     1      37.247  35.044  86.108  1.00  0.00     0.159 A 
HETATM    7  C7  UNL     1      38.232  35.715  86.801  1.00  0.00     0.100 A 
HETATM    8  C15 UNL     1      38.043  35.864  88.156  1.00  0.00     0.265 A 
HETATM    9  O2  UNL     1      38.937  36.479  88.813  1.00  0.00    -0.267 OA
ENDROOT
BRANCH   7  10
HETATM   10  C8  UNL     1      39.431  36.260  86.185  1.00  0.00     0.128 C 
HETATM   11  N3  UNL     1      40.562  35.734  86.552  1.00  0.00    -0.313 N 
ATOM     12  H3  UNL     1      40.548  34.980  87.238  1.00  0.00     0.185 HD
BRANCH  11  13
HETATM   13  N4  UNL     1      41.790  36.153  86.049  1.00  0.00    -0.328 N 
HETATM   14  C9  UNL     1      41.730  36.530  84.647  1.00  0.00     0.142 C 
HETATM   15  C10 UNL     1      43.104  36.612  84.043  1.00  0.00     0.021 C 
HETATM   16  C11 UNL     1      43.697  35.226  83.972  1.00  0.00     0.002 C 
HETATM   17  C12 UNL     1      43.784  34.570  85.325  1.00  0.00     0.002 C 
HETATM   18  C13 UNL     1      44.140  35.555  86.416  1.00  0.00     0.021 C 
HETATM   19  C14 UNL     1      42.881  36.138  86.993  1.00  0.00     0.142 C 
ENDBRANCH  11  13
ENDBRANCH   7  10
BRANCH   6  20
HETATM   20  O1  UNL     1      37.433  34.890  84.735  1.00  0.00    -0.345 OA
ATOM     21  H1  UNL     1      38.157  34.376  84.395  1.00  0.00     0.219 HD
ENDBRANCH   6  20
BRANCH   1  22
HETATM   22  C4  UNL     1      36.751  35.528  90.156  1.00  0.00     0.135 C 
BRANCH  22  23
HETATM   23  C3  UNL     1      37.601  34.517  90.894  1.00  0.00     0.020 C 
BRANCH  23  24
HETATM   24  C2  UNL     1      37.818  34.913  92.318  1.00  0.00    -0.003 C 
HETATM   25  C1  UNL     1      38.772  36.093  92.349  1.00  0.00     0.005 C 
ENDBRANCH  23  24
ENDBRANCH  22  23
ENDBRANCH   1  22
TORSDOF 6
ENDMDL
