MODEL 1
REMARK VINA RESULT: -5.877725804      0.000      0.000
REMARK  6 active torsions:
REMARK  status: ('A' for Active; 'I' for Inactive)
REMARK    1  A    between atoms: C2_2  and  C3_3 
REMARK    2  A    between atoms: C3_3  and  C4_4 
REMARK    3  A    between atoms: C4_4  and  C5_5 
REMARK    4  A    between atoms: C5_5  and  N1_6 
REMARK    5  A    between atoms: C9_12  and  N3_13 
REMARK    6  A    between atoms: C16_23  and  N6_24 
ROOT
HETATM    1  N3  UNL     1      42.514  39.578  89.291  1.00  0.00    -0.348 N 
HETATM    2  C10 UNL     1      41.280  39.860  89.977  1.00  0.00     0.126 C 
HETATM    3  C11 UNL     1      41.213  39.254  91.354  1.00  0.00     0.020 C 
HETATM    4  C12 UNL     1      42.104  38.043  91.484  1.00  0.00     0.004 C 
HETATM    5  C13 UNL     1      43.540  38.351  91.161  1.00  0.00     0.040 C 
HETATM    6  C14 UNL     1      43.709  39.354  90.068  1.00  0.00     0.193 C 
HETATM    7  C15 UNL     1      44.218  40.638  90.555  1.00  0.00     0.084 C 
HETATM    8  N4  UNL     1      44.630  41.659  90.923  1.00  0.00    -0.195 NA
ENDROOT
BRANCH   1   9
HETATM    9  C9  UNL     1      42.500  39.532  87.867  1.00  0.00     0.151 A 
HETATM   10  C8  UNL     1      42.150  38.369  87.190  1.00  0.00     0.124 A 
HETATM   11  N2  UNL     1      41.784  37.160  87.605  1.00  0.00    -0.340 N 
HETATM   12  C17 UNL     1      42.131  38.303  85.817  1.00  0.00     0.155 A 
HETATM   13  C6  UNL     1      41.540  36.347  86.522  1.00  0.00     0.081 A 
ATOM     14  H2  UNL     1      41.698  36.877  88.581  1.00  0.00     0.167 HD
HETATM   15  N1  UNL     1      41.751  37.040  85.409  1.00  0.00    -0.321 N 
HETATM   16  C7  UNL     1      41.085  34.935  86.702  1.00  0.00     0.089 C 
HETATM   17  N7  UNL     1      42.467  39.417  85.137  1.00  0.00    -0.174 N 
HETATM   18  C16 UNL     1      42.811  40.558  85.794  1.00  0.00     0.679 A 
ATOM     19  H7  UNL     1      42.464  39.405  84.117  1.00  0.00     0.186 HD
HETATM   20  N5  UNL     1      42.831  40.626  87.129  1.00  0.00    -0.175 N 
ATOM     21  H5  UNL     1      43.094  41.496  87.593  1.00  0.00     0.186 HD
BRANCH  15  22
HETATM   22  C5  UNL     1      41.662  36.660  84.021  1.00  0.00     0.132 C 
BRANCH  22  23
HETATM   23  C4  UNL     1      42.822  35.972  83.442  1.00  0.00     0.020 C 
BRANCH  23  24
HETATM   24  C3  UNL     1      44.137  35.996  84.093  1.00  0.00     0.001 C 
BRANCH  24  25
HETATM   25  C2  UNL     1      44.607  34.740  84.742  1.00  0.00    -0.004 C 
HETATM   26  C1  UNL     1      44.963  34.949  86.205  1.00  0.00     0.005 C 
ENDBRANCH  24  25
ENDBRANCH  23  24
ENDBRANCH  22  23
ENDBRANCH  15  22
BRANCH  18  27
HETATM   27  N6  UNL     1      43.137  41.638  85.141  1.00  0.00    -0.234 N 
ATOM     28  H62 UNL     1      43.722  42.355  85.569  1.00  0.00     0.174 HD
ATOM     29  H61 UNL     1      42.782  41.729  84.189  1.00  0.00     0.174 HD
ENDBRANCH  18  27
ENDBRANCH   1   9
TORSDOF 6
ENDMDL
MODEL 2
REMARK VINA RESULT: -5.861118759      0.994      1.938
REMARK  6 active torsions:
REMARK  status: ('A' for Active; 'I' for Inactive)
REMARK    1  A    between atoms: C2_2  and  C3_3 
REMARK    2  A    between atoms: C3_3  and  C4_4 
REMARK    3  A    between atoms: C4_4  and  C5_5 
REMARK    4  A    between atoms: C5_5  and  N1_6 
REMARK    5  A    between atoms: C9_12  and  N3_13 
REMARK    6  A    between atoms: C16_23  and  N6_24 
ROOT
HETATM    1  N3  UNL     1      43.326  39.276  89.485  1.00  0.00    -0.348 N 
HETATM    2  C10 UNL     1      44.606  38.808  89.948  1.00  0.00     0.126 C 
HETATM    3  C11 UNL     1      45.003  39.381  91.282  1.00  0.00     0.020 C 
HETATM    4  C12 UNL     1      44.336  40.708  91.550  1.00  0.00     0.004 C 
HETATM    5  C13 UNL     1      42.836  40.618  91.489  1.00  0.00     0.040 C 
HETATM    6  C14 UNL     1      42.332  39.663  90.457  1.00  0.00     0.193 C 
HETATM    7  C15 UNL     1      41.734  38.462  91.046  1.00  0.00     0.084 C 
HETATM    8  N4  UNL     1      41.249  37.509  91.494  1.00  0.00    -0.195 NA
ENDROOT
BRANCH   1   9
HETATM    9  C9  UNL     1      43.095  39.336  88.081  1.00  0.00     0.151 A 
HETATM   10  C8  UNL     1      42.602  38.236  87.387  1.00  0.00     0.124 A 
HETATM   11  N2  UNL     1      42.258  37.010  87.770  1.00  0.00    -0.340 N 
HETATM   12  C17 UNL     1      42.373  38.271  86.033  1.00  0.00     0.155 A 
HETATM   13  C6  UNL     1      41.821  36.286  86.684  1.00  0.00     0.081 A 
ATOM     14  H2  UNL     1      42.309  36.658  88.726  1.00  0.00     0.167 HD
HETATM   15  N1  UNL     1      41.887  37.052  85.602  1.00  0.00    -0.321 N 
HETATM   16  C7  UNL     1      41.345  34.877  86.835  1.00  0.00     0.089 C 
HETATM   17  N7  UNL     1      42.645  39.422  85.387  1.00  0.00    -0.174 N 
HETATM   18  C16 UNL     1      43.128  40.502  86.060  1.00  0.00     0.679 A 
ATOM     19  H7  UNL     1      42.486  39.485  84.381  1.00  0.00     0.186 HD
HETATM   20  N5  UNL     1      43.352  40.471  87.378  1.00  0.00    -0.175 N 
ATOM     21  H5  UNL     1      43.715  41.297  87.854  1.00  0.00     0.186 HD
BRANCH  15  22
HETATM   22  C5  UNL     1      41.575  36.778  84.221  1.00  0.00     0.132 C 
BRANCH  22  23
HETATM   23  C4  UNL     1      42.563  36.012  83.453  1.00  0.00     0.020 C 
BRANCH  23  24
HETATM   24  C3  UNL     1      43.983  35.995  83.824  1.00  0.00     0.001 C 
BRANCH  24  25
HETATM   25  C2  UNL     1      44.537  34.724  84.369  1.00  0.00    -0.004 C 
HETATM   26  C1  UNL     1      45.041  34.883  85.794  1.00  0.00     0.005 C 
ENDBRANCH  24  25
ENDBRANCH  23  24
ENDBRANCH  22  23
ENDBRANCH  15  22
BRANCH  18  27
HETATM   27  N6  UNL     1      43.392  41.618  85.440  1.00  0.00    -0.234 N 
ATOM     28  H62 UNL     1      43.143  42.519  85.849  1.00  0.00     0.174 HD
ATOM     29  H61 UNL     1      43.855  41.547  84.534  1.00  0.00     0.174 HD
ENDBRANCH  18  27
ENDBRANCH   1   9
TORSDOF 6
ENDMDL
MODEL 3
REMARK VINA RESULT: -5.557782763      4.712      7.530
REMARK  6 active torsions:
REMARK  status: ('A' for Active; 'I' for Inactive)
REMARK    1  A    between atoms: C2_2  and  C3_3 
REMARK    2  A    between atoms: C3_3  and  C4_4 
REMARK    3  A    between atoms: C4_4  and  C5_5 
REMARK    4  A    between atoms: C5_5  and  N1_6 
REMARK    5  A    between atoms: C9_12  and  N3_13 
REMARK    6  A    between atoms: C16_23  and  N6_24 
ROOT
HETATM    1  N3  UNL     1      40.608  35.804  86.373  1.00  0.00    -0.348 N 
HETATM    2  C10 UNL     1      41.441  34.642  86.201  1.00  0.00     0.126 C 
HETATM    3  C11 UNL     1      42.713  34.928  85.448  1.00  0.00     0.020 C 
HETATM    4  C12 UNL     1      42.579  36.129  84.545  1.00  0.00     0.004 C 
HETATM    5  C13 UNL     1      42.173  37.367  85.294  1.00  0.00     0.040 C 
HETATM    6  C14 UNL     1      41.229  37.106  86.422  1.00  0.00     0.193 C 
HETATM    7  C15 UNL     1      41.851  37.299  87.733  1.00  0.00     0.084 C 
HETATM    8  N4  UNL     1      42.326  37.455  88.781  1.00  0.00    -0.195 NA
ENDROOT
BRANCH   1   9
HETATM    9  C9  UNL     1      39.201  35.616  86.489  1.00  0.00     0.151 A 
HETATM   10  C8  UNL     1      38.602  35.427  87.729  1.00  0.00     0.124 A 
HETATM   11  N2  UNL     1      39.088  35.376  88.966  1.00  0.00    -0.340 N 
HETATM   12  C17 UNL     1      37.247  35.243  87.864  1.00  0.00     0.155 A 
HETATM   13  C6  UNL     1      38.066  35.164  89.863  1.00  0.00     0.081 A 
ATOM     14  H2  UNL     1      40.072  35.478  89.214  1.00  0.00     0.167 HD
HETATM   15  N1  UNL     1      36.921  35.079  89.196  1.00  0.00    -0.321 N 
HETATM   16  C7  UNL     1      38.329  35.091  91.332  1.00  0.00     0.089 C 
HETATM   17  N7  UNL     1      36.504  35.252  86.740  1.00  0.00    -0.174 N 
HETATM   18  C16 UNL     1      37.084  35.436  85.522  1.00  0.00     0.679 A 
ATOM     19  H7  UNL     1      35.495  35.119  86.801  1.00  0.00     0.186 HD
HETATM   20  N5  UNL     1      38.403  35.615  85.388  1.00  0.00    -0.175 N 
ATOM     21  H5  UNL     1      38.809  35.750  84.461  1.00  0.00     0.186 HD
BRANCH  15  22
HETATM   22  C5  UNL     1      35.572  34.843  89.648  1.00  0.00     0.132 C 
BRANCH  22  23
HETATM   23  C4  UNL     1      35.194  33.452  89.921  1.00  0.00     0.020 C 
BRANCH  23  24
HETATM   24  C3  UNL     1      35.299  32.874  91.267  1.00  0.00     0.001 C 
BRANCH  24  25
HETATM   25  C2  UNL     1      34.910  31.446  91.435  1.00  0.00    -0.004 C 
HETATM   26  C1  UNL     1      34.878  31.028  92.896  1.00  0.00     0.005 C 
ENDBRANCH  24  25
ENDBRANCH  23  24
ENDBRANCH  22  23
ENDBRANCH  15  22
BRANCH  18  27
HETATM   27  N6  UNL     1      36.370  35.445  84.432  1.00  0.00    -0.234 N 
ATOM     28  H62 UNL     1      36.394  36.242  83.795  1.00  0.00     0.174 HD
ATOM     29  H61 UNL     1      35.793  34.626  84.249  1.00  0.00     0.174 HD
ENDBRANCH  18  27
ENDBRANCH   1   9
TORSDOF 6
ENDMDL
MODEL 4
REMARK VINA RESULT: -5.487448089      1.310      5.779
REMARK  6 active torsions:
REMARK  status: ('A' for Active; 'I' for Inactive)
REMARK    1  A    between atoms: C2_2  and  C3_3 
REMARK    2  A    between atoms: C3_3  and  C4_4 
REMARK    3  A    between atoms: C4_4  and  C5_5 
REMARK    4  A    between atoms: C5_5  and  N1_6 
REMARK    5  A    between atoms: C9_12  and  N3_13 
REMARK    6  A    between atoms: C16_23  and  N6_24 
ROOT
HETATM    1  N3  UNL     1      42.077  37.551  85.473  1.00  0.00    -0.348 N 
HETATM    2  C10 UNL     1      40.919  37.419  84.628  1.00  0.00     0.126 C 
HETATM    3  C11 UNL     1      41.094  36.401  83.533  1.00  0.00     0.020 C 
HETATM    4  C12 UNL     1      42.545  36.198  83.175  1.00  0.00     0.004 C 
HETATM    5  C13 UNL     1      43.375  35.782  84.358  1.00  0.00     0.040 C 
HETATM    6  C14 UNL     1      42.949  36.413  85.643  1.00  0.00     0.193 C 
HETATM    7  C15 UNL     1      42.327  35.457  86.561  1.00  0.00     0.084 C 
HETATM    8  N4  UNL     1      41.840  34.712  87.305  1.00  0.00    -0.195 NA
ENDROOT
BRANCH   1   9
HETATM    9  C9  UNL     1      42.311  38.803  86.109  1.00  0.00     0.151 A 
HETATM   10  C8  UNL     1      42.046  38.982  87.462  1.00  0.00     0.124 A 
HETATM   11  N2  UNL     1      41.576  38.169  88.403  1.00  0.00    -0.340 N 
HETATM   12  C17 UNL     1      42.264  40.182  88.095  1.00  0.00     0.155 A 
HETATM   13  C6  UNL     1      41.497  38.838  89.603  1.00  0.00     0.081 A 
ATOM     14  H2  UNL     1      41.312  37.194  88.258  1.00  0.00     0.167 HD
HETATM   15  N1  UNL     1      41.919  40.084  89.429  1.00  0.00    -0.321 N 
HETATM   16  C7  UNL     1      41.023  38.149  90.842  1.00  0.00     0.089 C 
HETATM   17  N7  UNL     1      42.750  41.197  87.354  1.00  0.00    -0.174 N 
HETATM   18  C16 UNL     1      43.011  41.028  86.028  1.00  0.00     0.679 A 
ATOM     19  H7  UNL     1      42.925  42.102  87.790  1.00  0.00     0.186 HD
HETATM   20  N5  UNL     1      42.800  39.862  85.409  1.00  0.00    -0.175 N 
ATOM     21  H5  UNL     1      43.005  39.767  84.414  1.00  0.00     0.186 HD
BRANCH  15  22
HETATM   22  C5  UNL     1      42.016  41.193  90.346  1.00  0.00     0.132 C 
BRANCH  22  23
HETATM   23  C4  UNL     1      43.042  41.106  91.391  1.00  0.00     0.020 C 
BRANCH  23  24
HETATM   24  C3  UNL     1      44.413  40.675  91.092  1.00  0.00     0.001 C 
BRANCH  24  25
HETATM   25  C2  UNL     1      44.766  39.256  91.379  1.00  0.00    -0.004 C 
HETATM   26  C1  UNL     1      45.062  38.472  90.112  1.00  0.00     0.005 C 
ENDBRANCH  24  25
ENDBRANCH  23  24
ENDBRANCH  22  23
ENDBRANCH  15  22
BRANCH  18  27
HETATM   27  N6  UNL     1      43.481  42.007  85.307  1.00  0.00    -0.234 N 
ATOM     28  H62 UNL     1      44.028  41.824  84.464  1.00  0.00     0.174 HD
ATOM     29  H61 UNL     1      43.278  42.955  85.621  1.00  0.00     0.174 HD
ENDBRANCH  18  27
ENDBRANCH   1   9
TORSDOF 6
ENDMDL
MODEL 5
REMARK VINA RESULT: -5.482836353      2.472      6.387
REMARK  6 active torsions:
REMARK  status: ('A' for Active; 'I' for Inactive)
REMARK    1  A    between atoms: C2_2  and  C3_3 
REMARK    2  A    between atoms: C3_3  and  C4_4 
REMARK    3  A    between atoms: C4_4  and  C5_5 
REMARK    4  A    between atoms: C5_5  and  N1_6 
REMARK    5  A    between atoms: C9_12  and  N3_13 
REMARK    6  A    between atoms: C16_23  and  N6_24 
ROOT
HETATM    1  N3  UNL     1      39.538  35.735  86.230  1.00  0.00    -0.348 N 
HETATM    2  C10 UNL     1      38.899  34.584  86.812  1.00  0.00     0.126 C 
HETATM    3  C11 UNL     1      37.462  34.829  87.191  1.00  0.00     0.020 C 
HETATM    4  C12 UNL     1      37.187  36.289  87.455  1.00  0.00     0.004 C 
HETATM    5  C13 UNL     1      37.532  37.159  86.278  1.00  0.00     0.040 C 
HETATM    6  C14 UNL     1      38.731  36.696  85.518  1.00  0.00     0.193 C 
HETATM    7  C15 UNL     1      38.389  36.160  84.198  1.00  0.00     0.084 C 
HETATM    8  N4  UNL     1      38.137  35.739  83.146  1.00  0.00    -0.195 NA
ENDROOT
BRANCH   1   9
HETATM    9  C9  UNL     1      40.947  35.876  86.384  1.00  0.00     0.151 A 
HETATM   10  C8  UNL     1      41.486  36.896  87.159  1.00  0.00     0.124 A 
HETATM   11  N2  UNL     1      40.935  37.876  87.868  1.00  0.00    -0.340 N 
HETATM   12  C17 UNL     1      42.842  37.051  87.320  1.00  0.00     0.155 A 
HETATM   13  C6  UNL     1      41.917  38.634  88.463  1.00  0.00     0.081 A 
ATOM     14  H2  UNL     1      39.932  38.043  87.958  1.00  0.00     0.167 HD
HETATM   15  N1  UNL     1      43.103  38.136  88.133  1.00  0.00    -0.321 N 
HETATM   16  C7  UNL     1      41.574  39.792  89.344  1.00  0.00     0.089 C 
HETATM   17  N7  UNL     1      43.647  36.169  86.693  1.00  0.00    -0.174 N 
HETATM   18  C16 UNL     1      43.125  35.168  85.933  1.00  0.00     0.679 A 
ATOM     19  H7  UNL     1      44.658  36.252  86.791  1.00  0.00     0.186 HD
HETATM   20  N5  UNL     1      41.806  35.015  85.774  1.00  0.00    -0.175 N 
ATOM     21  H5  UNL     1      41.445  34.255  85.197  1.00  0.00     0.186 HD
BRANCH  15  22
HETATM   22  C5  UNL     1      44.440  38.562  88.465  1.00  0.00     0.132 C 
BRANCH  22  23
HETATM   23  C4  UNL     1      44.991  38.095  89.742  1.00  0.00     0.020 C 
BRANCH  23  24
HETATM   24  C3  UNL     1      44.843  38.874  90.977  1.00  0.00     0.001 C 
BRANCH  24  25
HETATM   25  C2  UNL     1      44.369  38.153  92.192  1.00  0.00    -0.004 C 
HETATM   26  C1  UNL     1      42.856  38.012  92.222  1.00  0.00     0.005 C 
ENDBRANCH  24  25
ENDBRANCH  23  24
ENDBRANCH  22  23
ENDBRANCH  15  22
BRANCH  18  27
HETATM   27  N6  UNL     1      43.898  34.313  85.325  1.00  0.00    -0.234 N 
ATOM     28  H62 UNL     1      44.816  34.590  84.974  1.00  0.00     0.174 HD
ATOM     29  H61 UNL     1      43.546  33.362  85.218  1.00  0.00     0.174 HD
ENDBRANCH  18  27
ENDBRANCH   1   9
TORSDOF 6
ENDMDL
