MODEL 1
REMARK VINA RESULT: -3.672757944      0.000      0.000
REMARK  4 active torsions:
REMARK  status: ('A' for Active; 'I' for Inactive)
REMARK    1  A    between atoms: C2_2  and  C3_3 
REMARK    2  A    between atoms: C3_3  and  N1_4 
REMARK    3  A    between atoms: N1_4  and  C4_5 
REMARK       I    between atoms: N2_12  and  C9_13 
REMARK    4  A    between atoms: C9_13  and  C10_15 
ROOT
HETATM    1  C4  UNL     1      29.972  23.510   9.118  1.00  0.00     0.223 C 
HETATM    2  S1  UNL     1      31.687  23.221   9.659  1.00  0.00    -0.066 SA
HETATM    3  C5  UNL     1      32.103  22.292   8.120  1.00  0.00     0.044 C 
HETATM    4  C6  UNL     1      33.561  22.353   7.821  1.00  0.00     0.030 C 
HETATM    5  C7  UNL     1      31.565  20.896   8.317  1.00  0.00     0.030 C 
HETATM    6  C8  UNL     1      31.251  23.045   7.151  1.00  0.00     0.211 C 
HETATM    7 CL1  UNL     1      32.074  24.500   6.528  1.00  0.00    -0.100 Cl
HETATM    8  N2  UNL     1      30.020  23.417   7.701  1.00  0.00    -0.266 N 
HETATM    9  C9  UNL     1      28.866  23.694   6.910  1.00  0.00     0.241 C 
HETATM   10  O1  UNL     1      27.753  24.043   7.376  1.00  0.00    -0.272 OA
ENDROOT
BRANCH   1  11
HETATM   11  N1  UNL     1      29.072  23.713   9.854  1.00  0.00    -0.397 NA
BRANCH  11  12
HETATM   12  C3  UNL     1      28.054  23.944  10.688  1.00  0.00     0.157 C 
BRANCH  12  13
HETATM   13  C2  UNL     1      27.164  22.718  10.906  1.00  0.00     0.055 C 
HETATM   14  C1  UNL     1      25.914  22.873  10.047  1.00  0.00     0.011 C 
ENDBRANCH  12  13
ENDBRANCH  11  12
ENDBRANCH   1  11
BRANCH   9  15
HETATM   15  C10 UNL     1      28.923  23.578   5.431  1.00  0.00     0.217 C 
HETATM   16 CL2  UNL     1      27.331  23.890   4.706  1.00  0.00    -0.121 Cl
ENDBRANCH   9  15
TORSDOF 4
ENDMDL
MODEL 2
REMARK VINA RESULT: -3.611605462      1.155      1.221
REMARK  4 active torsions:
REMARK  status: ('A' for Active; 'I' for Inactive)
REMARK    1  A    between atoms: C2_2  and  C3_3 
REMARK    2  A    between atoms: C3_3  and  N1_4 
REMARK    3  A    between atoms: N1_4  and  C4_5 
REMARK       I    between atoms: N2_12  and  C9_13 
REMARK    4  A    between atoms: C9_13  and  C10_15 
ROOT
HETATM    1  C4  UNL     1      29.934  23.063   9.722  1.00  0.00     0.223 C 
HETATM    2  S1  UNL     1      31.513  22.491  10.430  1.00  0.00    -0.066 SA
HETATM    3  C5  UNL     1      32.220  22.122   8.766  1.00  0.00     0.044 C 
HETATM    4  C6  UNL     1      33.709  22.185   8.779  1.00  0.00     0.030 C 
HETATM    5  C7  UNL     1      31.655  20.783   8.361  1.00  0.00     0.030 C 
HETATM    6  C8  UNL     1      31.570  23.218   7.985  1.00  0.00     0.211 C 
HETATM    7 CL1  UNL     1      32.497  24.739   8.071  1.00  0.00    -0.100 Cl
HETATM    8  N2  UNL     1      30.256  23.459   8.397  1.00  0.00    -0.266 N 
HETATM    9  C9  UNL     1      29.276  24.067   7.557  1.00  0.00     0.241 C 
HETATM   10  O1  UNL     1      28.094  24.308   7.904  1.00  0.00    -0.272 OA
ENDROOT
BRANCH   1  11
HETATM   11  N1  UNL     1      28.908  23.060  10.306  1.00  0.00    -0.397 NA
BRANCH  11  12
HETATM   12  C3  UNL     1      27.748  23.057  10.968  1.00  0.00     0.157 C 
BRANCH  12  13
HETATM   13  C2  UNL     1      27.283  24.457  11.375  1.00  0.00     0.055 C 
HETATM   14  C1  UNL     1      25.928  24.721  10.726  1.00  0.00     0.011 C 
ENDBRANCH  12  13
ENDBRANCH  11  12
ENDBRANCH   1  11
BRANCH   9  15
HETATM   15  C10 UNL     1      29.619  24.464   6.167  1.00  0.00     0.217 C 
HETATM   16 CL2  UNL     1      29.387  23.108   5.043  1.00  0.00    -0.121 Cl
ENDBRANCH   9  15
TORSDOF 4
ENDMDL
MODEL 3
REMARK VINA RESULT: -3.557156796      3.455      4.522
REMARK  4 active torsions:
REMARK  status: ('A' for Active; 'I' for Inactive)
REMARK    1  A    between atoms: C2_2  and  C3_3 
REMARK    2  A    between atoms: C3_3  and  N1_4 
REMARK    3  A    between atoms: N1_4  and  C4_5 
REMARK       I    between atoms: N2_12  and  C9_13 
REMARK    4  A    between atoms: C9_13  and  C10_15 
ROOT
HETATM    1  C4  UNL     1      30.909  23.374   8.335  1.00  0.00     0.223 C 
HETATM    2  S1  UNL     1      30.410  22.673   9.941  1.00  0.00    -0.066 SA
HETATM    3  C5  UNL     1      32.080  21.946  10.235  1.00  0.00     0.044 C 
HETATM    4  C6  UNL     1      32.352  21.772  11.690  1.00  0.00     0.030 C 
HETATM    5  C7  UNL     1      32.125  20.667   9.435  1.00  0.00     0.030 C 
HETATM    6  C8  UNL     1      32.915  22.998   9.581  1.00  0.00     0.211 C 
HETATM    7 CL1  UNL     1      33.277  24.348  10.689  1.00  0.00    -0.100 Cl
HETATM    8  N2  UNL     1      32.320  23.506   8.422  1.00  0.00    -0.266 N 
HETATM    9  C9  UNL     1      33.063  24.127   7.374  1.00  0.00     0.241 C 
HETATM   10  O1  UNL     1      32.555  24.604   6.329  1.00  0.00    -0.272 OA
ENDROOT
BRANCH   1  11
HETATM   11  N1  UNL     1      30.157  23.624   7.460  1.00  0.00    -0.397 NA
BRANCH  11  12
HETATM   12  C3  UNL     1      29.304  23.908   6.471  1.00  0.00     0.157 C 
BRANCH  12  13
HETATM   13  C2  UNL     1      29.571  23.104   5.197  1.00  0.00     0.055 C 
HETATM   14  C1  UNL     1      29.898  24.082   4.072  1.00  0.00     0.011 C 
ENDBRANCH  12  13
ENDBRANCH  11  12
ENDBRANCH   1  11
BRANCH   9  15
HETATM   15  C10 UNL     1      34.541  24.246   7.469  1.00  0.00     0.217 C 
HETATM   16 CL2  UNL     1      35.331  22.710   7.052  1.00  0.00    -0.121 Cl
ENDBRANCH   9  15
TORSDOF 4
ENDMDL
MODEL 4
REMARK VINA RESULT: -3.353173343      3.253      4.123
REMARK  4 active torsions:
REMARK  status: ('A' for Active; 'I' for Inactive)
REMARK    1  A    between atoms: C2_2  and  C3_3 
REMARK    2  A    between atoms: C3_3  and  N1_4 
REMARK    3  A    between atoms: N1_4  and  C4_5 
REMARK       I    between atoms: N2_12  and  C9_13 
REMARK    4  A    between atoms: C9_13  and  C10_15 
ROOT
HETATM    1  C4  UNL     1      30.913  23.327   8.299  1.00  0.00     0.223 C 
HETATM    2  S1  UNL     1      30.359  22.654   9.899  1.00  0.00    -0.066 SA
HETATM    3  C5  UNL     1      32.020  21.937  10.265  1.00  0.00     0.044 C 
HETATM    4  C6  UNL     1      32.241  21.791  11.732  1.00  0.00     0.030 C 
HETATM    5  C7  UNL     1      32.096  20.645   9.490  1.00  0.00     0.030 C 
HETATM    6  C8  UNL     1      32.875  22.980   9.622  1.00  0.00     0.211 C 
HETATM    7 CL1  UNL     1      33.195  24.351  10.717  1.00  0.00    -0.100 Cl
HETATM    8  N2  UNL     1      32.320  23.465   8.433  1.00  0.00    -0.266 N 
HETATM    9  C9  UNL     1      33.097  24.069   7.401  1.00  0.00     0.241 C 
HETATM   10  O1  UNL     1      32.625  24.525   6.330  1.00  0.00    -0.272 OA
ENDROOT
BRANCH   1  11
HETATM   11  N1  UNL     1      30.191  23.559   7.394  1.00  0.00    -0.397 NA
BRANCH  11  12
HETATM   12  C3  UNL     1      29.373  23.820   6.371  1.00  0.00     0.157 C 
BRANCH  12  13
HETATM   13  C2  UNL     1      27.893  23.781   6.757  1.00  0.00     0.055 C 
HETATM   14  C1  UNL     1      27.627  24.905   7.754  1.00  0.00     0.011 C 
ENDBRANCH  12  13
ENDBRANCH  11  12
ENDBRANCH   1  11
BRANCH   9  15
HETATM   15  C10 UNL     1      34.570  24.194   7.545  1.00  0.00     0.217 C 
HETATM   16 CL2  UNL     1      35.384  22.680   7.097  1.00  0.00    -0.121 Cl
ENDBRANCH   9  15
TORSDOF 4
ENDMDL
MODEL 5
REMARK VINA RESULT: -3.300815223      1.899      2.209
REMARK  4 active torsions:
REMARK  status: ('A' for Active; 'I' for Inactive)
REMARK    1  A    between atoms: C2_2  and  C3_3 
REMARK    2  A    between atoms: C3_3  and  N1_4 
REMARK    3  A    between atoms: N1_4  and  C4_5 
REMARK       I    between atoms: N2_12  and  C9_13 
REMARK    4  A    between atoms: C9_13  and  C10_15 
ROOT
HETATM    1  C4  UNL     1      30.591  23.023   9.934  1.00  0.00     0.223 C 
HETATM    2  S1  UNL     1      31.739  22.045  10.956  1.00  0.00    -0.066 SA
HETATM    3  C5  UNL     1      32.838  21.680   9.519  1.00  0.00     0.044 C 
HETATM    4  C6  UNL     1      34.235  21.402   9.956  1.00  0.00     0.030 C 
HETATM    5  C7  UNL     1      32.181  20.547   8.769  1.00  0.00     0.030 C 
HETATM    6  C8  UNL     1      32.678  22.962   8.768  1.00  0.00     0.211 C 
HETATM    7 CL1  UNL     1      33.804  24.219   9.345  1.00  0.00    -0.100 Cl
HETATM    8  N2  UNL     1      31.372  23.456   8.830  1.00  0.00    -0.266 N 
HETATM    9  C9  UNL     1      30.829  24.346   7.855  1.00  0.00     0.241 C 
HETATM   10  O1  UNL     1      29.665  24.816   7.892  1.00  0.00    -0.272 OA
ENDROOT
BRANCH   1  11
HETATM   11  N1  UNL     1      29.455  23.199  10.201  1.00  0.00    -0.397 NA
BRANCH  11  12
HETATM   12  C3  UNL     1      28.169  23.399  10.504  1.00  0.00     0.157 C 
BRANCH  12  13
HETATM   13  C2  UNL     1      27.846  24.859  10.825  1.00  0.00     0.055 C 
HETATM   14  C1  UNL     1      26.514  24.904  11.567  1.00  0.00     0.011 C 
ENDBRANCH  12  13
ENDBRANCH  11  12
ENDBRANCH   1  11
BRANCH   9  15
HETATM   15  C10 UNL     1      31.649  24.780   6.696  1.00  0.00     0.217 C 
HETATM   16 CL2  UNL     1      30.786  24.506   5.167  1.00  0.00    -0.121 Cl
ENDBRANCH   9  15
TORSDOF 4
ENDMDL
