MODEL 1
REMARK VINA RESULT: -5.881889442      0.000      0.000
REMARK  8 active torsions:
REMARK  status: ('A' for Active; 'I' for Inactive)
REMARK    1  A    between atoms: C2_2  and  C3_3 
REMARK    2  A    between atoms: C4_4  and  S1_5 
REMARK    3  A    between atoms: C6_7  and  S2_8 
REMARK    4  A    between atoms: S2_8  and  C7_9 
REMARK    5  A    between atoms: C11_13  and  C12_14 
REMARK    6  A    between atoms: C14_20  and  N2_21 
REMARK       I    between atoms: N2_21  and  C15_23 
REMARK    7  A    between atoms: C15_23  and  C16_25 
REMARK    8  A    between atoms: C16_25  and  N3_26 
ROOT
HETATM    1  C3  UNL     1      42.245  35.160  83.248  1.00  0.00     0.052 C 
HETATM    2  C4  UNL     1      41.255  36.306  83.164  1.00  0.00     0.098 C 
HETATM    3  C6  UNL     1      39.934  35.841  83.739  1.00  0.00     0.027 C 
HETATM    4  C11 UNL     1      39.961  35.040  84.784  1.00  0.00     0.129 C 
HETATM    5  N1  UNL     1      41.206  34.646  85.314  1.00  0.00    -0.301 N 
HETATM    6  C13 UNL     1      41.943  33.952  86.306  1.00  0.00     0.250 C 
HETATM    7  O3  UNL     1      41.773  33.739  87.511  1.00  0.00    -0.271 OA
HETATM    8  C14 UNL     1      42.937  33.650  85.207  1.00  0.00     0.201 C 
HETATM    9  C17 UNL     1      42.510  34.992  84.726  1.00  0.00     0.134 C 
ENDROOT
BRANCH   8  10
HETATM   10  N2  UNL     1      44.248  33.539  85.782  1.00  0.00    -0.344 N 
HETATM   11  C15 UNL     1      45.109  32.505  85.329  1.00  0.00     0.243 C 
HETATM   12  O4  UNL     1      44.737  31.687  84.430  1.00  0.00    -0.272 OA
ATOM     13  H2  UNL     1      44.554  34.191  86.503  1.00  0.00     0.163 HD
BRANCH  11  14
HETATM   14  C16 UNL     1      46.479  32.315  85.866  1.00  0.00     0.332 C 
BRANCH  14  15
HETATM   15  N3  UNL     1      47.421  32.362  84.761  1.00  0.00    -0.071 N 
ATOM     16  H33 UNL     1      47.467  31.482  84.250  1.00  0.00     0.274 HD
ATOM     17  H32 UNL     1      47.095  32.953  83.996  1.00  0.00     0.274 HD
ATOM     18  H31 UNL     1      48.329  32.654  85.121  1.00  0.00     0.274 HD
ENDBRANCH  14  15
ENDBRANCH  11  14
ENDBRANCH   8  10
BRANCH   1  19
HETATM   19  C2  UNL     1      43.390  35.283  82.389  1.00  0.00    -0.029 C 
HETATM   20  C1  UNL     1      43.234  35.548  81.089  1.00  0.00     0.007 C 
ENDBRANCH   1  19
BRANCH   4  21
HETATM   21  C12 UNL     1      38.690  34.552  85.391  1.00  0.00     0.228 C 
HETATM   22  O1  UNL     1      38.247  35.121  86.405  1.00  0.00    -0.643 OA
HETATM   23  O2  UNL     1      38.005  33.484  84.843  1.00  0.00    -0.643 OA
ENDBRANCH   4  21
BRANCH   2  24
HETATM   24  S1  UNL     1      41.879  37.647  84.207  1.00  0.00    -0.163 SA
HETATM   25  C5  UNL     1      40.786  39.063  84.180  1.00  0.00     0.090 C 
ENDBRANCH   2  24
BRANCH   3  26
HETATM   26  S2  UNL     1      38.430  36.339  83.043  1.00  0.00    -0.122 SA
BRANCH  26  27
HETATM   27  C7  UNL     1      37.978  35.752  81.448  1.00  0.00     0.002 C 
HETATM   28  C8  UNL     1      38.940  36.058  80.336  1.00  0.00     0.026 C 
HETATM   29  C9  UNL     1      37.705  34.269  81.434  1.00  0.00     0.026 C 
HETATM   30  C10 UNL     1      36.636  36.424  81.083  1.00  0.00     0.026 C 
ENDBRANCH  26  27
ENDBRANCH   3  26
TORSDOF 8
ENDMDL
MODEL 2
REMARK VINA RESULT: -5.847610217      1.105      1.292
REMARK  8 active torsions:
REMARK  status: ('A' for Active; 'I' for Inactive)
REMARK    1  A    between atoms: C2_2  and  C3_3 
REMARK    2  A    between atoms: C4_4  and  S1_5 
REMARK    3  A    between atoms: C6_7  and  S2_8 
REMARK    4  A    between atoms: S2_8  and  C7_9 
REMARK    5  A    between atoms: C11_13  and  C12_14 
REMARK    6  A    between atoms: C14_20  and  N2_21 
REMARK       I    between atoms: N2_21  and  C15_23 
REMARK    7  A    between atoms: C15_23  and  C16_25 
REMARK    8  A    between atoms: C16_25  and  N3_26 
ROOT
HETATM    1  C3  UNL     1      42.144  35.307  82.898  1.00  0.00     0.052 C 
HETATM    2  C4  UNL     1      41.129  36.386  83.222  1.00  0.00     0.098 C 
HETATM    3  C6  UNL     1      40.121  35.817  84.199  1.00  0.00     0.027 C 
HETATM    4  C11 UNL     1      40.556  34.991  85.127  1.00  0.00     0.129 C 
HETATM    5  N1  UNL     1      41.927  34.667  85.169  1.00  0.00    -0.301 N 
HETATM    6  C13 UNL     1      43.001  33.996  85.805  1.00  0.00     0.250 C 
HETATM    7  O3  UNL     1      43.278  33.739  86.981  1.00  0.00    -0.271 OA
HETATM    8  C14 UNL     1      43.560  33.792  84.414  1.00  0.00     0.201 C 
HETATM    9  C17 UNL     1      42.921  35.116  84.180  1.00  0.00     0.134 C 
ENDROOT
BRANCH   8  10
HETATM   10  N2  UNL     1      44.994  33.753  84.489  1.00  0.00    -0.344 N 
HETATM   11  C15 UNL     1      45.637  32.499  84.648  1.00  0.00     0.243 C 
HETATM   12  O4  UNL     1      44.967  31.421  84.725  1.00  0.00    -0.272 OA
ATOM     13  H2  UNL     1      45.539  34.613  84.428  1.00  0.00     0.163 HD
BRANCH  11  14
HETATM   14  C16 UNL     1      47.112  32.364  84.736  1.00  0.00     0.332 C 
BRANCH  14  15
HETATM   15  N3  UNL     1      47.424  31.228  85.586  1.00  0.00    -0.071 N 
ATOM     16  H33 UNL     1      47.400  31.463  86.577  1.00  0.00     0.274 HD
ATOM     17  H32 UNL     1      46.682  30.527  85.589  1.00  0.00     0.274 HD
ATOM     18  H31 UNL     1      48.323  30.843  85.297  1.00  0.00     0.274 HD
ENDBRANCH  14  15
ENDBRANCH  11  14
ENDBRANCH   8  10
BRANCH   1  19
HETATM   19  C2  UNL     1      42.906  35.530  81.701  1.00  0.00    -0.029 C 
HETATM   20  C1  UNL     1      42.325  35.429  80.501  1.00  0.00     0.007 C 
ENDBRANCH   1  19
BRANCH   4  21
HETATM   21  C12 UNL     1      39.608  34.402  86.114  1.00  0.00     0.228 C 
HETATM   22  O1  UNL     1      39.590  34.848  87.276  1.00  0.00    -0.643 OA
HETATM   23  O2  UNL     1      38.755  33.375  85.756  1.00  0.00    -0.643 OA
ENDBRANCH   4  21
BRANCH   2  24
HETATM   24  S1  UNL     1      42.008  37.736  84.047  1.00  0.00    -0.163 SA
HETATM   25  C5  UNL     1      40.936  39.140  84.331  1.00  0.00     0.090 C 
ENDBRANCH   2  24
BRANCH   3  26
HETATM   26  S2  UNL     1      38.444  36.233  84.097  1.00  0.00    -0.122 SA
BRANCH  26  27
HETATM   27  C7  UNL     1      37.431  35.452  82.890  1.00  0.00     0.002 C 
HETATM   28  C8  UNL     1      37.840  34.066  82.483  1.00  0.00     0.026 C 
HETATM   29  C9  UNL     1      35.978  35.413  83.291  1.00  0.00     0.026 C 
HETATM   30  C10 UNL     1      37.487  36.330  81.619  1.00  0.00     0.026 C 
ENDBRANCH  26  27
ENDBRANCH   3  26
TORSDOF 8
ENDMDL
MODEL 3
REMARK VINA RESULT: -5.671586142      1.735      2.010
REMARK  8 active torsions:
REMARK  status: ('A' for Active; 'I' for Inactive)
REMARK    1  A    between atoms: C2_2  and  C3_3 
REMARK    2  A    between atoms: C4_4  and  S1_5 
REMARK    3  A    between atoms: C6_7  and  S2_8 
REMARK    4  A    between atoms: S2_8  and  C7_9 
REMARK    5  A    between atoms: C11_13  and  C12_14 
REMARK    6  A    between atoms: C14_20  and  N2_21 
REMARK       I    between atoms: N2_21  and  C15_23 
REMARK    7  A    between atoms: C15_23  and  C16_25 
REMARK    8  A    between atoms: C16_25  and  N3_26 
ROOT
HETATM    1  C3  UNL     1      42.539  34.785  83.435  1.00  0.00     0.052 C 
HETATM    2  C4  UNL     1      41.530  35.804  83.926  1.00  0.00     0.098 C 
HETATM    3  C6  UNL     1      40.746  35.191  85.068  1.00  0.00     0.027 C 
HETATM    4  C11 UNL     1      41.388  34.410  85.911  1.00  0.00     0.129 C 
HETATM    5  N1  UNL     1      42.764  34.172  85.713  1.00  0.00    -0.301 N 
HETATM    6  C13 UNL     1      43.973  33.580  86.155  1.00  0.00     0.250 C 
HETATM    7  O3  UNL     1      44.467  33.361  87.266  1.00  0.00    -0.271 OA
HETATM    8  C14 UNL     1      44.292  33.387  84.689  1.00  0.00     0.201 C 
HETATM    9  C17 UNL     1      43.539  34.664  84.563  1.00  0.00     0.134 C 
ENDROOT
BRANCH   8  10
HETATM   10  N2  UNL     1      45.716  33.438  84.511  1.00  0.00    -0.344 N 
HETATM   11  C15 UNL     1      46.478  32.265  84.749  1.00  0.00     0.243 C 
HETATM   12  O4  UNL     1      45.921  31.182  85.115  1.00  0.00    -0.272 OA
ATOM     13  H2  UNL     1      46.171  34.303  84.218  1.00  0.00     0.163 HD
BRANCH  11  14
HETATM   14  C16 UNL     1      47.953  32.226  84.592  1.00  0.00     0.332 C 
BRANCH  14  15
HETATM   15  N3  UNL     1      48.491  31.237  85.510  1.00  0.00    -0.071 N 
ATOM     16  H33 UNL     1      49.224  31.616  86.108  1.00  0.00     0.274 HD
ATOM     17  H32 UNL     1      47.828  30.983  86.243  1.00  0.00     0.274 HD
ATOM     18  H31 UNL     1      48.805  30.430  84.971  1.00  0.00     0.274 HD
ENDBRANCH  14  15
ENDBRANCH  11  14
ENDBRANCH   8  10
BRANCH   1  19
HETATM   19  C2  UNL     1      43.064  35.034  82.121  1.00  0.00    -0.029 C 
HETATM   20  C1  UNL     1      42.321  35.661  81.205  1.00  0.00     0.007 C 
ENDBRANCH   1  19
BRANCH   4  21
HETATM   21  C12 UNL     1      40.667  33.781  87.052  1.00  0.00     0.228 C 
HETATM   22  O1  UNL     1      40.482  34.443  88.090  1.00  0.00    -0.643 OA
HETATM   23  O2  UNL     1      40.205  32.481  86.972  1.00  0.00    -0.643 OA
ENDBRANCH   4  21
BRANCH   2  24
HETATM   24  S1  UNL     1      42.451  37.220  84.576  1.00  0.00    -0.163 SA
HETATM   25  C5  UNL     1      41.371  38.384  85.400  1.00  0.00     0.090 C 
ENDBRANCH   2  24
BRANCH   3  26
HETATM   26  S2  UNL     1      39.054  35.501  85.260  1.00  0.00    -0.122 SA
BRANCH  26  27
HETATM   27  C7  UNL     1      38.029  35.612  83.836  1.00  0.00     0.002 C 
HETATM   28  C8  UNL     1      38.092  36.905  83.076  1.00  0.00     0.026 C 
HETATM   29  C9  UNL     1      38.267  34.486  82.861  1.00  0.00     0.026 C 
HETATM   30  C10 UNL     1      36.570  35.441  84.316  1.00  0.00     0.026 C 
ENDBRANCH  26  27
ENDBRANCH   3  26
TORSDOF 8
ENDMDL
MODEL 4
REMARK VINA RESULT: -5.600534440      1.350      1.727
REMARK  8 active torsions:
REMARK  status: ('A' for Active; 'I' for Inactive)
REMARK    1  A    between atoms: C2_2  and  C3_3 
REMARK    2  A    between atoms: C4_4  and  S1_5 
REMARK    3  A    between atoms: C6_7  and  S2_8 
REMARK    4  A    between atoms: S2_8  and  C7_9 
REMARK    5  A    between atoms: C11_13  and  C12_14 
REMARK    6  A    between atoms: C14_20  and  N2_21 
REMARK       I    between atoms: N2_21  and  C15_23 
REMARK    7  A    between atoms: C15_23  and  C16_25 
REMARK    8  A    between atoms: C16_25  and  N3_26 
ROOT
HETATM    1  C3  UNL     1      42.199  35.276  83.338  1.00  0.00     0.052 C 
HETATM    2  C4  UNL     1      41.182  36.401  83.339  1.00  0.00     0.098 C 
HETATM    3  C6  UNL     1      39.876  35.866  83.887  1.00  0.00     0.027 C 
HETATM    4  C11 UNL     1      39.928  34.996  84.874  1.00  0.00     0.129 C 
HETATM    5  N1  UNL     1      41.186  34.596  85.370  1.00  0.00    -0.301 N 
HETATM    6  C13 UNL     1      41.946  33.853  86.307  1.00  0.00     0.250 C 
HETATM    7  O3  UNL     1      41.790  33.554  87.495  1.00  0.00    -0.271 OA
HETATM    8  C14 UNL     1      42.939  33.651  85.184  1.00  0.00     0.201 C 
HETATM    9  C17 UNL     1      42.478  35.013  84.800  1.00  0.00     0.134 C 
ENDROOT
BRANCH   8  10
HETATM   10  N2  UNL     1      44.256  33.532  85.743  1.00  0.00    -0.344 N 
HETATM   11  C15 UNL     1      45.097  32.479  85.296  1.00  0.00     0.243 C 
HETATM   12  O4  UNL     1      44.702  31.651  84.416  1.00  0.00    -0.272 OA
ATOM     13  H2  UNL     1      44.581  34.192  86.450  1.00  0.00     0.163 HD
BRANCH  11  14
HETATM   14  C16 UNL     1      46.472  32.279  85.818  1.00  0.00     0.332 C 
BRANCH  14  15
HETATM   15  N3  UNL     1      47.406  32.370  84.710  1.00  0.00    -0.071 N 
ATOM     16  H33 UNL     1      48.373  32.231  85.001  1.00  0.00     0.274 HD
ATOM     17  H32 UNL     1      47.335  31.576  84.073  1.00  0.00     0.274 HD
ATOM     18  H31 UNL     1      47.265  33.263  84.238  1.00  0.00     0.274 HD
ENDBRANCH  14  15
ENDBRANCH  11  14
ENDBRANCH   8  10
BRANCH   1  19
HETATM   19  C2  UNL     1      43.335  35.485  82.484  1.00  0.00    -0.029 C 
HETATM   20  C1  UNL     1      43.182  35.536  81.157  1.00  0.00     0.007 C 
ENDBRANCH   1  19
BRANCH   4  21
HETATM   21  C12 UNL     1      38.674  34.437  85.452  1.00  0.00     0.228 C 
HETATM   22  O1  UNL     1      38.304  34.819  86.578  1.00  0.00    -0.643 OA
HETATM   23  O2  UNL     1      37.923  33.508  84.757  1.00  0.00    -0.643 OA
ENDBRANCH   4  21
BRANCH   2  24
HETATM   24  S1  UNL     1      41.781  37.682  84.469  1.00  0.00    -0.163 SA
HETATM   25  C5  UNL     1      41.084  39.282  84.078  1.00  0.00     0.090 C 
ENDBRANCH   2  24
BRANCH   3  26
HETATM   26  S2  UNL     1      38.356  36.376  83.235  1.00  0.00    -0.122 SA
BRANCH  26  27
HETATM   27  C7  UNL     1      37.417  37.596  84.084  1.00  0.00     0.002 C 
HETATM   28  C8  UNL     1      38.002  38.102  85.371  1.00  0.00     0.026 C 
HETATM   29  C9  UNL     1      37.097  38.788  83.218  1.00  0.00     0.026 C 
HETATM   30  C10 UNL     1      36.053  36.957  84.429  1.00  0.00     0.026 C 
ENDBRANCH  26  27
ENDBRANCH   3  26
TORSDOF 8
ENDMDL
MODEL 5
REMARK VINA RESULT: -5.067011590      4.246      7.065
REMARK  8 active torsions:
REMARK  status: ('A' for Active; 'I' for Inactive)
REMARK    1  A    between atoms: C2_2  and  C3_3 
REMARK    2  A    between atoms: C4_4  and  S1_5 
REMARK    3  A    between atoms: C6_7  and  S2_8 
REMARK    4  A    between atoms: S2_8  and  C7_9 
REMARK    5  A    between atoms: C11_13  and  C12_14 
REMARK    6  A    between atoms: C14_20  and  N2_21 
REMARK       I    between atoms: N2_21  and  C15_23 
REMARK    7  A    between atoms: C15_23  and  C16_25 
REMARK    8  A    between atoms: C16_25  and  N3_26 
ROOT
HETATM    1  C3  UNL     1      42.568  35.846  85.989  1.00  0.00     0.052 C 
HETATM    2  C4  UNL     1      42.080  36.007  87.416  1.00  0.00     0.098 C 
HETATM    3  C6  UNL     1      42.388  37.419  87.870  1.00  0.00     0.027 C 
HETATM    4  C11 UNL     1      42.262  38.393  86.994  1.00  0.00     0.129 C 
HETATM    5  N1  UNL     1      41.858  38.085  85.679  1.00  0.00    -0.301 N 
HETATM    6  C13 UNL     1      41.502  38.525  84.380  1.00  0.00     0.250 C 
HETATM    7  O3  UNL     1      40.909  39.515  83.940  1.00  0.00    -0.271 OA
HETATM    8  C14 UNL     1      42.167  37.260  83.883  1.00  0.00     0.201 C 
HETATM    9  C17 UNL     1      41.648  36.721  85.169  1.00  0.00     0.134 C 
ENDROOT
BRANCH   8  10
HETATM   10  N2  UNL     1      41.516  36.835  82.676  1.00  0.00    -0.344 N 
HETATM   11  C15 UNL     1      42.185  35.917  81.825  1.00  0.00     0.243 C 
HETATM   12  O4  UNL     1      43.340  35.472  82.115  1.00  0.00    -0.272 OA
ATOM     13  H2  UNL     1      40.590  37.187  82.435  1.00  0.00     0.163 HD
BRANCH  11  14
HETATM   14  C16 UNL     1      41.589  35.423  80.558  1.00  0.00     0.332 C 
BRANCH  14  15
HETATM   15  N3  UNL     1      40.292  36.053  80.381  1.00  0.00    -0.071 N 
ATOM     16  H33 UNL     1      39.858  36.310  81.267  1.00  0.00     0.274 HD
ATOM     17  H32 UNL     1      40.363  36.989  79.982  1.00  0.00     0.274 HD
ATOM     18  H31 UNL     1      39.704  35.434  79.822  1.00  0.00     0.274 HD
ENDBRANCH  14  15
ENDBRANCH  11  14
ENDBRANCH   8  10
BRANCH   1  19
HETATM   19  C2  UNL     1      42.735  34.487  85.555  1.00  0.00    -0.029 C 
HETATM   20  C1  UNL     1      43.834  33.803  85.884  1.00  0.00     0.007 C 
ENDBRANCH   1  19
BRANCH   4  21
HETATM   21  C12 UNL     1      42.552  39.801  87.387  1.00  0.00     0.228 C 
HETATM   22  O1  UNL     1      43.664  40.289  87.112  1.00  0.00    -0.643 OA
HETATM   23  O2  UNL     1      41.608  40.563  88.048  1.00  0.00    -0.643 OA
ENDBRANCH   4  21
BRANCH   2  24
HETATM   24  S1  UNL     1      40.281  35.802  87.407  1.00  0.00    -0.163 SA
HETATM   25  C5  UNL     1      39.808  34.137  87.855  1.00  0.00     0.090 C 
ENDBRANCH   2  24
BRANCH   3  26
HETATM   26  S2  UNL     1      42.896  37.746  89.492  1.00  0.00    -0.122 SA
BRANCH  26  27
HETATM   27  C7  UNL     1      44.613  37.854  89.855  1.00  0.00     0.002 C 
HETATM   28  C8  UNL     1      45.536  37.178  88.883  1.00  0.00     0.026 C 
HETATM   29  C9  UNL     1      45.080  39.277  90.028  1.00  0.00     0.026 C 
HETATM   30  C10 UNL     1      44.827  37.178  91.228  1.00  0.00     0.026 C 
ENDBRANCH  26  27
ENDBRANCH   3  26
TORSDOF 8
ENDMDL
