MODEL 1
REMARK VINA RESULT: -6.868343385      0.000      0.000
REMARK  9 active torsions:
REMARK  status: ('A' for Active; 'I' for Inactive)
REMARK    1  A    between atoms: C3_3  and  O1_4 
REMARK    2  A    between atoms: O1_4  and  C4_5 
REMARK    3  A    between atoms: C9_11  and  N2_12 
REMARK    4  A    between atoms: N2_12  and  C10_14 
REMARK    5  A    between atoms: N4_18  and  C12_20 
REMARK    6  A    between atoms: C15_25  and  N6_26 
REMARK    7  A    between atoms: N6_26  and  C16_28 
REMARK    8  A    between atoms: C19_33  and  C20_34 
REMARK    9  A    between atoms: C20_34  and  O2_35 
ROOT
HETATM    1  C1  UNL     1      37.991  33.429  86.646  1.00  0.00     0.014 C 
HETATM    2  C2  UNL     1      39.199  33.437  86.630  1.00  0.00    -0.091 C 
HETATM    3  C3  UNL     1      40.677  33.467  86.619  1.00  0.00     0.268 C 
ENDROOT
BRANCH   3   4
HETATM    4  O1  UNL     1      41.090  34.709  86.110  1.00  0.00    -0.337 OA
BRANCH   4   5
HETATM    5  C4  UNL     1      41.622  34.926  84.870  1.00  0.00     0.101 A 
HETATM    6  C5  UNL     1      42.936  34.534  84.653  1.00  0.00     0.078 A 
HETATM    7  C6  UNL     1      43.672  33.927  85.718  1.00  0.00     0.102 C 
HETATM    8  C7  UNL     1      43.524  34.729  83.423  1.00  0.00     0.028 A 
HETATM    9  N1  UNL     1      44.280  33.449  86.587  1.00  0.00    -0.191 NA
HETATM   10  C8  UNL     1      42.775  35.313  82.441  1.00  0.00     0.032 A 
HETATM   11  C9  UNL     1      41.458  35.712  82.637  1.00  0.00     0.060 A 
HETATM   12  C19 UNL     1      40.861  35.525  83.857  1.00  0.00     0.027 A 
BRANCH  11  13
HETATM   13  N2  UNL     1      40.763  36.299  81.587  1.00  0.00    -0.190 N 
ATOM     14  H2  UNL     1      40.584  37.301  81.658  1.00  0.00     0.184 HD
BRANCH  13  15
HETATM   15  C10 UNL     1      40.316  35.698  80.521  1.00  0.00     0.711 A 
HETATM   16  N3  UNL     1      39.127  35.025  80.597  1.00  0.00    -0.021 N 
HETATM   17  C11 UNL     1      38.594  34.374  79.555  1.00  0.00     0.707 A 
ATOM     18  H3  UNL     1      38.626  35.019  81.484  1.00  0.00     0.203 HD
HETATM   19  N4  UNL     1      37.481  33.732  79.590  1.00  0.00    -0.221 N 
HETATM   20  N5  UNL     1      39.311  34.417  78.388  1.00  0.00    -0.021 N 
ATOM     21  H4  UNL     1      37.200  33.284  78.718  1.00  0.00     0.178 HD
HETATM   22  C15 UNL     1      40.474  35.059  78.263  1.00  0.00     0.707 A 
ATOM     23  H5  UNL     1      38.935  33.932  77.572  1.00  0.00     0.203 HD
HETATM   24  N7  UNL     1      40.971  35.703  79.350  1.00  0.00    -0.021 N 
ATOM     25  H7  UNL     1      41.860  36.199  79.276  1.00  0.00     0.203 HD
BRANCH  19  26
HETATM   26  C12 UNL     1      36.592  33.564  80.684  1.00  0.00     0.091 C 
HETATM   27  C13 UNL     1      36.896  32.252  81.375  1.00  0.00     0.032 C 
HETATM   28  C14 UNL     1      35.138  33.698  80.343  1.00  0.00     0.032 C 
ENDBRANCH  19  26
BRANCH  22  29
HETATM   29  N6  UNL     1      41.135  35.092  77.166  1.00  0.00    -0.221 N 
ATOM     30  H6  UNL     1      40.669  35.484  76.347  1.00  0.00     0.178 HD
BRANCH  29  31
HETATM   31  C16 UNL     1      42.473  34.620  77.000  1.00  0.00     0.091 C 
HETATM   32  C17 UNL     1      42.494  33.752  75.742  1.00  0.00     0.032 C 
HETATM   33  C18 UNL     1      43.435  35.783  76.865  1.00  0.00     0.032 C 
ENDBRANCH  29  31
ENDBRANCH  22  29
ENDBRANCH  13  15
ENDBRANCH  11  13
BRANCH  12  34
HETATM   34  C20 UNL     1      39.467  35.939  84.092  1.00  0.00     0.208 C 
BRANCH  34  35
HETATM   35  O2  UNL     1      38.581  35.063  83.514  1.00  0.00    -0.396 OA
ATOM     36  H2  UNL     1      38.746  34.170  83.794  1.00  0.00     0.209 HD
ENDBRANCH  34  35
ENDBRANCH  12  34
ENDBRANCH   4   5
ENDBRANCH   3   4
TORSDOF 9
ENDMDL
MODEL 2
REMARK VINA RESULT: -6.857101199      0.597      4.031
REMARK  9 active torsions:
REMARK  status: ('A' for Active; 'I' for Inactive)
REMARK    1  A    between atoms: C3_3  and  O1_4 
REMARK    2  A    between atoms: O1_4  and  C4_5 
REMARK    3  A    between atoms: C9_11  and  N2_12 
REMARK    4  A    between atoms: N2_12  and  C10_14 
REMARK    5  A    between atoms: N4_18  and  C12_20 
REMARK    6  A    between atoms: C15_25  and  N6_26 
REMARK    7  A    between atoms: N6_26  and  C16_28 
REMARK    8  A    between atoms: C19_33  and  C20_34 
REMARK    9  A    between atoms: C20_34  and  O2_35 
ROOT
HETATM    1  C1  UNL     1      38.161  33.455  86.757  1.00  0.00     0.014 C 
HETATM    2  C2  UNL     1      39.364  33.447  86.652  1.00  0.00    -0.091 C 
HETATM    3  C3  UNL     1      40.837  33.458  86.531  1.00  0.00     0.268 C 
ENDROOT
BRANCH   3   4
HETATM    4  O1  UNL     1      41.227  34.699  86.000  1.00  0.00    -0.337 OA
BRANCH   4   5
HETATM    5  C4  UNL     1      41.719  34.910  84.743  1.00  0.00     0.101 A 
HETATM    6  C5  UNL     1      43.020  34.504  84.481  1.00  0.00     0.078 A 
HETATM    7  C6  UNL     1      43.787  33.890  85.520  1.00  0.00     0.102 C 
HETATM    8  C7  UNL     1      43.567  34.691  83.231  1.00  0.00     0.028 A 
HETATM    9  N1  UNL     1      44.419  33.406  86.368  1.00  0.00    -0.191 NA
HETATM   10  C8  UNL     1      42.791  35.283  82.274  1.00  0.00     0.032 A 
HETATM   11  C9  UNL     1      41.486  35.696  82.516  1.00  0.00     0.060 A 
HETATM   12  C19 UNL     1      40.929  35.515  83.757  1.00  0.00     0.027 A 
BRANCH  11  13
HETATM   13  N2  UNL     1      40.761  36.290  81.490  1.00  0.00    -0.190 N 
ATOM     14  H2  UNL     1      40.662  37.304  81.525  1.00  0.00     0.184 HD
BRANCH  13  15
HETATM   15  C10 UNL     1      40.193  35.680  80.488  1.00  0.00     0.711 A 
HETATM   16  N3  UNL     1      40.822  35.689  79.274  1.00  0.00    -0.021 N 
HETATM   17  C11 UNL     1      40.311  35.095  78.188  1.00  0.00     0.707 A 
ATOM     18  H3  UNL     1      41.717  36.169  79.192  1.00  0.00     0.203 HD
HETATM   19  N4  UNL     1      40.873  35.084  77.032  1.00  0.00    -0.221 N 
HETATM   20  N5  UNL     1      39.107  34.464  78.357  1.00  0.00    -0.021 N 
ATOM     21  H4  UNL     1      40.366  34.590  76.297  1.00  0.00     0.178 HD
HETATM   22  C15 UNL     1      38.454  34.427  79.521  1.00  0.00     0.707 A 
ATOM     23  H5  UNL     1      38.687  33.999  77.552  1.00  0.00     0.203 HD
HETATM   24  N7  UNL     1      39.015  35.046  80.591  1.00  0.00    -0.021 N 
ATOM     25  H7  UNL     1      38.532  35.030  81.489  1.00  0.00     0.203 HD
BRANCH  19  26
HETATM   26  C12 UNL     1      42.107  35.669  76.644  1.00  0.00     0.091 C 
HETATM   27  C13 UNL     1      41.832  36.902  75.811  1.00  0.00     0.032 C 
HETATM   28  C14 UNL     1      43.065  34.734  75.966  1.00  0.00     0.032 C 
ENDBRANCH  19  26
BRANCH  22  29
HETATM   29  N6  UNL     1      37.328  33.833  79.666  1.00  0.00    -0.221 N 
ATOM     30  H6  UNL     1      36.667  33.882  78.891  1.00  0.00     0.178 HD
BRANCH  29  31
HETATM   31  C16 UNL     1      36.926  33.110  80.830  1.00  0.00     0.091 C 
HETATM   32  C17 UNL     1      35.413  33.280  80.969  1.00  0.00     0.032 C 
HETATM   33  C18 UNL     1      37.291  31.645  80.701  1.00  0.00     0.032 C 
ENDBRANCH  29  31
ENDBRANCH  22  29
ENDBRANCH  13  15
ENDBRANCH  11  13
BRANCH  12  34
HETATM   34  C20 UNL     1      39.549  35.945  84.039  1.00  0.00     0.208 C 
BRANCH  34  35
HETATM   35  O2  UNL     1      38.636  35.036  83.564  1.00  0.00    -0.396 OA
ATOM     36  H2  UNL     1      38.546  35.097  82.620  1.00  0.00     0.209 HD
ENDBRANCH  34  35
ENDBRANCH  12  34
ENDBRANCH   4   5
ENDBRANCH   3   4
TORSDOF 9
ENDMDL
MODEL 3
REMARK VINA RESULT: -6.741347493      0.963      1.480
REMARK  9 active torsions:
REMARK  status: ('A' for Active; 'I' for Inactive)
REMARK    1  A    between atoms: C3_3  and  O1_4 
REMARK    2  A    between atoms: O1_4  and  C4_5 
REMARK    3  A    between atoms: C9_11  and  N2_12 
REMARK    4  A    between atoms: N2_12  and  C10_14 
REMARK    5  A    between atoms: N4_18  and  C12_20 
REMARK    6  A    between atoms: C15_25  and  N6_26 
REMARK    7  A    between atoms: N6_26  and  C16_28 
REMARK    8  A    between atoms: C19_33  and  C20_34 
REMARK    9  A    between atoms: C20_34  and  O2_35 
ROOT
HETATM    1  C1  UNL     1      43.282  36.816  87.437  1.00  0.00     0.014 C 
HETATM    2  C2  UNL     1      42.341  36.078  87.268  1.00  0.00    -0.091 C 
HETATM    3  C3  UNL     1      41.203  35.158  87.059  1.00  0.00     0.268 C 
ENDROOT
BRANCH   3   4
HETATM    4  O1  UNL     1      41.543  34.260  86.034  1.00  0.00    -0.337 OA
BRANCH   4   5
HETATM    5  C4  UNL     1      41.990  34.602  84.789  1.00  0.00     0.101 A 
HETATM    6  C5  UNL     1      43.304  34.291  84.466  1.00  0.00     0.078 A 
HETATM    7  C6  UNL     1      44.128  33.634  85.433  1.00  0.00     0.102 C 
HETATM    8  C7  UNL     1      43.808  34.613  83.226  1.00  0.00     0.028 A 
HETATM    9  N1  UNL     1      44.806  33.116  86.222  1.00  0.00    -0.191 NA
HETATM   10  C8  UNL     1      42.978  35.241  82.340  1.00  0.00     0.032 A 
HETATM   11  C9  UNL     1      41.659  35.560  82.644  1.00  0.00     0.060 A 
HETATM   12  C19 UNL     1      41.145  35.245  83.875  1.00  0.00     0.027 A 
BRANCH  11  13
HETATM   13  N2  UNL     1      40.878  36.198  81.688  1.00  0.00    -0.190 N 
ATOM     14  H2  UNL     1      40.658  37.179  81.855  1.00  0.00     0.184 HD
BRANCH  13  15
HETATM   15  C10 UNL     1      40.398  35.667  80.598  1.00  0.00     0.711 A 
HETATM   16  N3  UNL     1      39.179  35.050  80.651  1.00  0.00    -0.021 N 
HETATM   17  C11 UNL     1      38.611  34.473  79.585  1.00  0.00     0.707 A 
ATOM     18  H3  UNL     1      38.682  35.029  81.541  1.00  0.00     0.203 HD
HETATM   19  N4  UNL     1      37.468  33.884  79.598  1.00  0.00    -0.221 N 
HETATM   20  N5  UNL     1      39.324  34.533  78.416  1.00  0.00    -0.021 N 
ATOM     21  H4  UNL     1      37.162  33.490  78.708  1.00  0.00     0.178 HD
HETATM   22  C15 UNL     1      40.517  35.123  78.314  1.00  0.00     0.707 A 
ATOM     23  H5  UNL     1      38.922  34.104  77.582  1.00  0.00     0.203 HD
HETATM   24  N7  UNL     1      41.049  35.692  79.425  1.00  0.00    -0.021 N 
ATOM     25  H7  UNL     1      41.960  36.148  79.368  1.00  0.00     0.203 HD
BRANCH  19  26
HETATM   26  C12 UNL     1      36.576  33.711  80.689  1.00  0.00     0.091 C 
HETATM   27  C13 UNL     1      36.944  32.448  81.436  1.00  0.00     0.032 C 
HETATM   28  C14 UNL     1      35.121  33.749  80.328  1.00  0.00     0.032 C 
ENDBRANCH  19  26
BRANCH  22  29
HETATM   29  N6  UNL     1      41.174  35.172  77.215  1.00  0.00    -0.221 N 
ATOM     30  H6  UNL     1      40.706  35.576  76.404  1.00  0.00     0.178 HD
BRANCH  29  31
HETATM   31  C16 UNL     1      42.512  34.705  77.038  1.00  0.00     0.091 C 
HETATM   32  C17 UNL     1      42.544  33.905  75.736  1.00  0.00     0.032 C 
HETATM   33  C18 UNL     1      43.481  35.869  76.976  1.00  0.00     0.032 C 
ENDBRANCH  29  31
ENDBRANCH  22  29
ENDBRANCH  13  15
ENDBRANCH  11  13
BRANCH  12  34
HETATM   34  C20 UNL     1      39.752  35.574  84.222  1.00  0.00     0.208 C 
BRANCH  34  35
HETATM   35  O2  UNL     1      38.870  34.715  83.614  1.00  0.00    -0.396 OA
ATOM     36  H2  UNL     1      38.908  34.792  82.668  1.00  0.00     0.209 HD
ENDBRANCH  34  35
ENDBRANCH  12  34
ENDBRANCH   4   5
ENDBRANCH   3   4
TORSDOF 9
ENDMDL
MODEL 4
REMARK VINA RESULT: -6.715433550      1.096      4.291
REMARK  9 active torsions:
REMARK  status: ('A' for Active; 'I' for Inactive)
REMARK    1  A    between atoms: C3_3  and  O1_4 
REMARK    2  A    between atoms: O1_4  and  C4_5 
REMARK    3  A    between atoms: C9_11  and  N2_12 
REMARK    4  A    between atoms: N2_12  and  C10_14 
REMARK    5  A    between atoms: N4_18  and  C12_20 
REMARK    6  A    between atoms: C15_25  and  N6_26 
REMARK    7  A    between atoms: N6_26  and  C16_28 
REMARK    8  A    between atoms: C19_33  and  C20_34 
REMARK    9  A    between atoms: C20_34  and  O2_35 
ROOT
HETATM    1  C1  UNL     1      43.326  36.774  87.624  1.00  0.00     0.014 C 
HETATM    2  C2  UNL     1      42.314  36.202  87.293  1.00  0.00    -0.091 C 
HETATM    3  C3  UNL     1      41.087  35.484  86.889  1.00  0.00     0.268 C 
ENDROOT
BRANCH   3   4
HETATM    4  O1  UNL     1      41.435  34.524  85.925  1.00  0.00    -0.337 OA
BRANCH   4   5
HETATM    5  C4  UNL     1      41.890  34.787  84.664  1.00  0.00     0.101 A 
HETATM    6  C5  UNL     1      43.189  34.406  84.353  1.00  0.00     0.078 A 
HETATM    7  C6  UNL     1      43.989  33.763  85.348  1.00  0.00     0.102 C 
HETATM    8  C7  UNL     1      43.700  34.646  83.097  1.00  0.00     0.028 A 
HETATM    9  N1  UNL     1      44.649  33.255  86.160  1.00  0.00    -0.191 NA
HETATM   10  C8  UNL     1      42.892  35.265  82.184  1.00  0.00     0.032 A 
HETATM   11  C9  UNL     1      41.589  35.653  82.476  1.00  0.00     0.060 A 
HETATM   12  C19 UNL     1      41.068  35.420  83.723  1.00  0.00     0.027 A 
BRANCH  11  13
HETATM   13  N2  UNL     1      40.831  36.276  81.492  1.00  0.00    -0.190 N 
ATOM     14  H2  UNL     1      40.734  37.289  81.560  1.00  0.00     0.184 HD
BRANCH  13  15
HETATM   15  C10 UNL     1      40.230  35.695  80.492  1.00  0.00     0.711 A 
HETATM   16  N3  UNL     1      40.846  35.688  79.271  1.00  0.00    -0.021 N 
HETATM   17  C11 UNL     1      40.303  35.121  78.187  1.00  0.00     0.707 A 
ATOM     18  H3  UNL     1      41.759  36.133  79.183  1.00  0.00     0.203 HD
HETATM   19  N4  UNL     1      40.852  35.095  77.025  1.00  0.00    -0.221 N 
HETATM   20  N5  UNL     1      39.076  34.537  78.364  1.00  0.00    -0.021 N 
ATOM     21  H4  UNL     1      40.319  34.627  76.293  1.00  0.00     0.178 HD
HETATM   22  C15 UNL     1      38.434  34.517  79.535  1.00  0.00     0.707 A 
ATOM     23  H5  UNL     1      38.630  34.094  77.560  1.00  0.00     0.203 HD
HETATM   24  N7  UNL     1      39.029  35.107  80.603  1.00  0.00    -0.021 N 
ATOM     25  H7  UNL     1      38.555  35.104  81.506  1.00  0.00     0.203 HD
BRANCH  19  26
HETATM   26  C12 UNL     1      42.104  35.634  76.628  1.00  0.00     0.091 C 
HETATM   27  C13 UNL     1      41.869  36.883  75.807  1.00  0.00     0.032 C 
HETATM   28  C14 UNL     1      43.017  34.667  75.935  1.00  0.00     0.032 C 
ENDBRANCH  19  26
BRANCH  22  29
HETATM   29  N6  UNL     1      37.286  33.967  79.688  1.00  0.00    -0.221 N 
ATOM     30  H6  UNL     1      36.617  34.054  78.923  1.00  0.00     0.178 HD
BRANCH  29  31
HETATM   31  C16 UNL     1      36.872  33.243  80.847  1.00  0.00     0.091 C 
HETATM   32  C17 UNL     1      35.347  33.312  80.903  1.00  0.00     0.032 C 
HETATM   33  C18 UNL     1      37.341  31.804  80.773  1.00  0.00     0.032 C 
ENDBRANCH  29  31
ENDBRANCH  22  29
ENDBRANCH  13  15
ENDBRANCH  11  13
BRANCH  12  34
HETATM   34  C20 UNL     1      39.692  35.822  84.057  1.00  0.00     0.208 C 
BRANCH  34  35
HETATM   35  O2  UNL     1      38.777  34.911  83.588  1.00  0.00    -0.396 OA
ATOM     36  H2  UNL     1      38.173  35.313  82.974  1.00  0.00     0.209 HD
ENDBRANCH  34  35
ENDBRANCH  12  34
ENDBRANCH   4   5
ENDBRANCH   3   4
TORSDOF 9
ENDMDL
MODEL 5
REMARK VINA RESULT: -6.505781269      1.662      4.452
REMARK  9 active torsions:
REMARK  status: ('A' for Active; 'I' for Inactive)
REMARK    1  A    between atoms: C3_3  and  O1_4 
REMARK    2  A    between atoms: O1_4  and  C4_5 
REMARK    3  A    between atoms: C9_11  and  N2_12 
REMARK    4  A    between atoms: N2_12  and  C10_14 
REMARK    5  A    between atoms: N4_18  and  C12_20 
REMARK    6  A    between atoms: C15_25  and  N6_26 
REMARK    7  A    between atoms: N6_26  and  C16_28 
REMARK    8  A    between atoms: C19_33  and  C20_34 
REMARK    9  A    between atoms: C20_34  and  O2_35 
ROOT
HETATM    1  C1  UNL     1      44.938  36.838  88.371  1.00  0.00     0.014 C 
HETATM    2  C2  UNL     1      43.806  36.638  87.997  1.00  0.00    -0.091 C 
HETATM    3  C3  UNL     1      42.425  36.374  87.544  1.00  0.00     0.268 C 
ENDROOT
BRANCH   3   4
HETATM    4  O1  UNL     1      42.432  35.204  86.767  1.00  0.00    -0.337 OA
BRANCH   4   5
HETATM    5  C4  UNL     1      42.656  35.142  85.420  1.00  0.00     0.101 A 
HETATM    6  C5  UNL     1      43.698  34.342  84.974  1.00  0.00     0.078 A 
HETATM    7  C6  UNL     1      44.488  33.623  85.925  1.00  0.00     0.102 C 
HETATM    8  C7  UNL     1      43.969  34.242  83.627  1.00  0.00     0.028 A 
HETATM    9  N1  UNL     1      45.143  33.050  86.697  1.00  0.00    -0.191 NA
HETATM   10  C8  UNL     1      43.184  34.951  82.762  1.00  0.00     0.032 A 
HETATM   11  C9  UNL     1      42.135  35.757  83.188  1.00  0.00     0.060 A 
HETATM   12  C19 UNL     1      41.855  35.865  84.526  1.00  0.00     0.027 A 
BRANCH  11  13
HETATM   13  N2  UNL     1      41.382  36.445  82.245  1.00  0.00    -0.190 N 
ATOM     14  H2  UNL     1      41.519  37.455  82.196  1.00  0.00     0.184 HD
BRANCH  13  15
HETATM   15  C10 UNL     1      40.517  35.930  81.416  1.00  0.00     0.711 A 
HETATM   16  N3  UNL     1      40.871  35.788  80.103  1.00  0.00    -0.021 N 
HETATM   17  C11 UNL     1      40.047  35.275  79.181  1.00  0.00     0.707 A 
ATOM     18  H3  UNL     1      41.803  36.085  79.814  1.00  0.00     0.203 HD
HETATM   19  N4  UNL     1      40.345  35.127  77.940  1.00  0.00    -0.221 N 
HETATM   20  N5  UNL     1      38.809  34.892  79.626  1.00  0.00    -0.021 N 
ATOM     21  H4  UNL     1      39.616  34.721  77.353  1.00  0.00     0.178 HD
HETATM   22  C15 UNL     1      38.416  35.010  80.897  1.00  0.00     0.707 A 
ATOM     23  H5  UNL     1      38.154  34.496  78.952  1.00  0.00     0.203 HD
HETATM   24  N7  UNL     1      39.290  35.538  81.792  1.00  0.00    -0.021 N 
ATOM     25  H7  UNL     1      39.010  35.637  82.768  1.00  0.00     0.203 HD
BRANCH  19  26
HETATM   26  C12 UNL     1      41.558  35.454  77.277  1.00  0.00     0.091 C 
HETATM   27  C13 UNL     1      41.242  35.983  75.895  1.00  0.00     0.032 C 
HETATM   28  C14 UNL     1      42.575  34.353  77.240  1.00  0.00     0.032 C 
ENDBRANCH  19  26
BRANCH  22  29
HETATM   29  N6  UNL     1      37.256  34.648  81.301  1.00  0.00    -0.221 N 
ATOM     30  H6  UNL     1      36.840  35.172  82.071  1.00  0.00     0.178 HD
BRANCH  29  31
HETATM   31  C16 UNL     1      36.499  33.567  80.756  1.00  0.00     0.091 C 
HETATM   32  C17 UNL     1      37.113  32.272  81.286  1.00  0.00     0.032 C 
HETATM   33  C18 UNL     1      35.043  33.675  81.162  1.00  0.00     0.032 C 
ENDBRANCH  29  31
ENDBRANCH  22  29
ENDBRANCH  13  15
ENDBRANCH  11  13
BRANCH  12  34
HETATM   34  C20 UNL     1      40.749  36.713  85.003  1.00  0.00     0.208 C 
BRANCH  34  35
HETATM   35  O2  UNL     1      39.534  36.100  84.821  1.00  0.00    -0.396 OA
ATOM     36  H2  UNL     1      39.063  36.016  85.641  1.00  0.00     0.209 HD
ENDBRANCH  34  35
ENDBRANCH  12  34
ENDBRANCH   4   5
ENDBRANCH   3   4
TORSDOF 9
ENDMDL
