MODEL 1
REMARK VINA RESULT: -5.960685436      0.000      0.000
REMARK  9 active torsions:
REMARK  status: ('A' for Active; 'I' for Inactive)
REMARK    1  A    between atoms: C2_2  and  C3_3 
REMARK    2  A    between atoms: C3_3  and  C4_4 
REMARK    3  A    between atoms: C3_3  and  C5_7 
REMARK    4  A    between atoms: C4_4  and  O1_5 
REMARK    5  A    between atoms: C5_7  and  C7_9 
REMARK    6  A    between atoms: C9_11  and  C10_12 
REMARK    7  A    between atoms: C19_23  and  O4_24 
REMARK    8  A    between atoms: C20_26  and  C21_27 
REMARK    9  A    between atoms: C21_27  and  O5_28 
ROOT
HETATM    1  C10 UNL     1      38.571  35.029  88.034  1.00  0.00     0.063 C 
HETATM    2  C11 UNL     1      38.327  33.751  87.304  1.00  0.00    -0.008 C 
HETATM    3  C12 UNL     1      39.355  33.251  86.648  1.00  0.00     0.042 C 
HETATM    4  C13 UNL     1      40.616  34.005  86.705  1.00  0.00     0.292 C 
HETATM    5  O2  UNL     1      41.787  33.304  86.925  1.00  0.00    -0.274 OA
HETATM    6  C14 UNL     1      42.808  34.150  86.433  1.00  0.00     0.265 C 
HETATM    7  O3  UNL     1      44.015  34.210  86.776  1.00  0.00    -0.265 OA
HETATM    8  C15 UNL     1      42.200  35.033  85.362  1.00  0.00     0.091 C 
HETATM    9  C16 UNL     1      43.005  34.744  84.104  1.00  0.00     0.021 C 
HETATM   10  C17 UNL     1      40.846  34.451  85.249  1.00  0.00     0.072 C 
HETATM   11  C18 UNL     1      39.724  35.299  84.825  1.00  0.00     0.045 C 
HETATM   12  C19 UNL     1      39.207  36.258  85.838  1.00  0.00     0.161 C 
HETATM   13  C20 UNL     1      39.421  36.002  87.259  1.00  0.00     0.226 C 
HETATM   14  N1  UNL     1      40.560  35.164  87.571  1.00  0.00     0.145 N 
HETATM   15  C22 UNL     1      39.879  34.827  88.803  1.00  0.00     0.298 C 
ENDROOT
BRANCH   1  16
HETATM   16  C9  UNL     1      37.444  35.590  88.758  1.00  0.00    -0.006 C 
HETATM   17  C7  UNL     1      36.606  34.961  89.536  1.00  0.00    -0.082 C 
HETATM   18  C8  UNL     1      35.539  35.830  90.222  1.00  0.00     0.043 C 
BRANCH  17  19
HETATM   19  C5  UNL     1      36.648  33.526  89.826  1.00  0.00     0.016 C 
HETATM   20  C6  UNL     1      37.377  33.352  91.146  1.00  0.00     0.015 C 
BRANCH  19  21
HETATM   21  C3  UNL     1      35.368  32.771  89.727  1.00  0.00     0.016 C 
BRANCH  21  22
HETATM   22  C2  UNL     1      34.944  32.378  88.348  1.00  0.00     0.003 C 
HETATM   23  C1  UNL     1      34.020  33.256  87.611  1.00  0.00     0.005 C 
ENDBRANCH  21  22
BRANCH  21  24
HETATM   24  C4  UNL     1      35.169  31.630  90.678  1.00  0.00     0.169 C 
BRANCH  24  25
HETATM   25  O1  UNL     1      34.734  30.454  90.093  1.00  0.00    -0.400 OA
ATOM     26  H1  UNL     1      35.425  29.850  89.847  1.00  0.00     0.209 HD
ENDBRANCH  24  25
ENDBRANCH  21  24
ENDBRANCH  19  21
ENDBRANCH  17  19
ENDBRANCH   1  16
BRANCH  13  27
HETATM   27  C21 UNL     1      39.575  37.308  88.003  1.00  0.00     0.210 C 
BRANCH  27  28
HETATM   28  O5  UNL     1      40.871  37.801  88.030  1.00  0.00    -0.398 OA
ATOM     29  H5  UNL     1      41.339  37.628  88.838  1.00  0.00     0.209 HD
ENDBRANCH  27  28
ENDBRANCH  13  27
BRANCH  12  30
HETATM   30  O4  UNL     1      39.886  37.482  85.533  1.00  0.00    -0.393 OA
ATOM     31  H4  UNL     1      40.753  37.361  85.904  1.00  0.00     0.210 HD
ENDBRANCH  12  30
TORSDOF 9
ENDMDL
MODEL 2
REMARK VINA RESULT: -5.737629867      3.194      5.613
REMARK  9 active torsions:
REMARK  status: ('A' for Active; 'I' for Inactive)
REMARK    1  A    between atoms: C2_2  and  C3_3 
REMARK    2  A    between atoms: C3_3  and  C4_4 
REMARK    3  A    between atoms: C3_3  and  C5_7 
REMARK    4  A    between atoms: C4_4  and  O1_5 
REMARK    5  A    between atoms: C5_7  and  C7_9 
REMARK    6  A    between atoms: C9_11  and  C10_12 
REMARK    7  A    between atoms: C19_23  and  O4_24 
REMARK    8  A    between atoms: C20_26  and  C21_27 
REMARK    9  A    between atoms: C21_27  and  O5_28 
ROOT
HETATM    1  C10 UNL     1      40.242  35.860  87.284  1.00  0.00     0.063 C 
HETATM    2  C11 UNL     1      40.918  37.177  87.100  1.00  0.00    -0.008 C 
HETATM    3  C12 UNL     1      41.295  37.470  85.871  1.00  0.00     0.042 C 
HETATM    4  C13 UNL     1      41.013  36.472  84.829  1.00  0.00     0.292 C 
HETATM    5  O2  UNL     1      40.494  36.912  83.626  1.00  0.00    -0.274 OA
HETATM    6  C14 UNL     1      40.805  35.886  82.705  1.00  0.00     0.265 C 
HETATM    7  O3  UNL     1      40.209  35.571  81.644  1.00  0.00    -0.265 OA
HETATM    8  C15 UNL     1      42.042  35.171  83.210  1.00  0.00     0.091 C 
HETATM    9  C16 UNL     1      43.069  35.317  82.097  1.00  0.00     0.021 C 
HETATM   10  C17 UNL     1      42.410  36.021  84.362  1.00  0.00     0.072 C 
HETATM   11  C18 UNL     1      43.129  35.432  85.500  1.00  0.00     0.045 C 
HETATM   12  C19 UNL     1      42.323  34.577  86.412  1.00  0.00     0.161 C 
HETATM   13  C20 UNL     1      40.876  34.750  86.485  1.00  0.00     0.226 C 
HETATM   14  N1  UNL     1      40.263  35.330  85.307  1.00  0.00     0.145 N 
HETATM   15  C22 UNL     1      39.192  35.771  86.174  1.00  0.00     0.298 C 
ENDROOT
BRANCH   1  16
HETATM   16  C9  UNL     1      39.825  35.526  88.635  1.00  0.00    -0.006 C 
HETATM   17  C7  UNL     1      40.177  36.116  89.743  1.00  0.00    -0.082 C 
HETATM   18  C8  UNL     1      39.526  35.580  91.030  1.00  0.00     0.043 C 
BRANCH  17  19
HETATM   19  C5  UNL     1      41.091  37.257  89.833  1.00  0.00     0.016 C 
HETATM   20  C6  UNL     1      40.357  38.369  90.561  1.00  0.00     0.015 C 
BRANCH  19  21
HETATM   21  C3  UNL     1      42.466  36.993  90.339  1.00  0.00     0.016 C 
BRANCH  21  22
HETATM   22  C2  UNL     1      43.568  37.745  89.666  1.00  0.00     0.003 C 
HETATM   23  C1  UNL     1      44.348  37.072  88.613  1.00  0.00     0.005 C 
ENDBRANCH  21  22
BRANCH  21  24
HETATM   24  C4  UNL     1      42.663  37.000  91.825  1.00  0.00     0.169 C 
BRANCH  24  25
HETATM   25  O1  UNL     1      43.911  36.579  92.250  1.00  0.00    -0.400 OA
ATOM     26  H1  UNL     1      44.594  37.238  92.199  1.00  0.00     0.209 HD
ENDBRANCH  24  25
ENDBRANCH  21  24
ENDBRANCH  19  21
ENDBRANCH  17  19
ENDBRANCH   1  16
BRANCH  13  27
HETATM   27  C21 UNL     1      40.208  33.425  86.764  1.00  0.00     0.210 C 
BRANCH  27  28
HETATM   28  O5  UNL     1      40.743  32.729  87.838  1.00  0.00    -0.398 OA
ATOM     29  H5  UNL     1      40.720  33.202  88.661  1.00  0.00     0.209 HD
ENDBRANCH  27  28
ENDBRANCH  13  27
BRANCH  12  30
HETATM   30  O4  UNL     1      42.554  33.246  85.933  1.00  0.00    -0.393 OA
ATOM     31  H4  UNL     1      41.683  32.874  85.860  1.00  0.00     0.210 HD
ENDBRANCH  12  30
TORSDOF 9
ENDMDL
MODEL 3
REMARK VINA RESULT: -5.675579479      2.114      6.597
REMARK  9 active torsions:
REMARK  status: ('A' for Active; 'I' for Inactive)
REMARK    1  A    between atoms: C2_2  and  C3_3 
REMARK    2  A    between atoms: C3_3  and  C4_4 
REMARK    3  A    between atoms: C3_3  and  C5_7 
REMARK    4  A    between atoms: C4_4  and  O1_5 
REMARK    5  A    between atoms: C5_7  and  C7_9 
REMARK    6  A    between atoms: C9_11  and  C10_12 
REMARK    7  A    between atoms: C19_23  and  O4_24 
REMARK    8  A    between atoms: C20_26  and  C21_27 
REMARK    9  A    between atoms: C21_27  and  O5_28 
ROOT
HETATM    1  C10 UNL     1      38.946  36.636  86.112  1.00  0.00     0.063 C 
HETATM    2  C11 UNL     1      38.024  36.243  85.008  1.00  0.00    -0.008 C 
HETATM    3  C12 UNL     1      36.908  35.641  85.369  1.00  0.00     0.042 C 
HETATM    4  C13 UNL     1      36.701  35.423  86.809  1.00  0.00     0.292 C 
HETATM    5  O2  UNL     1      35.457  35.705  87.340  1.00  0.00    -0.274 OA
HETATM    6  C14 UNL     1      35.400  34.952  88.536  1.00  0.00     0.265 C 
HETATM    7  O3  UNL     1      34.732  35.175  89.578  1.00  0.00    -0.265 OA
HETATM    8  C15 UNL     1      36.318  33.757  88.374  1.00  0.00     0.091 C 
HETATM    9  C16 UNL     1      35.425  32.540  88.566  1.00  0.00     0.021 C 
HETATM   10  C17 UNL     1      36.707  33.890  86.955  1.00  0.00     0.072 C 
HETATM   11  C18 UNL     1      38.007  33.370  86.506  1.00  0.00     0.045 C 
HETATM   12  C19 UNL     1      39.200  34.172  86.889  1.00  0.00     0.161 C 
HETATM   13  C20 UNL     1      39.057  35.592  87.194  1.00  0.00     0.226 C 
HETATM   14  N1  UNL     1      37.739  35.999  87.637  1.00  0.00     0.145 N 
HETATM   15  C22 UNL     1      38.071  37.325  87.162  1.00  0.00     0.298 C 
ENDROOT
BRANCH   1  16
HETATM   16  C9  UNL     1      40.180  37.297  85.725  1.00  0.00    -0.006 C 
HETATM   17  C7  UNL     1      41.130  36.825  84.966  1.00  0.00    -0.082 C 
HETATM   18  C8  UNL     1      42.301  37.779  84.677  1.00  0.00     0.043 C 
BRANCH  17  19
HETATM   19  C5  UNL     1      41.129  35.496  84.351  1.00  0.00     0.016 C 
HETATM   20  C6  UNL     1      40.887  35.685  82.864  1.00  0.00     0.015 C 
BRANCH  19  21
HETATM   21  C3  UNL     1      42.264  34.590  84.678  1.00  0.00     0.016 C 
BRANCH  21  22
HETATM   22  C2  UNL     1      43.374  34.541  83.678  1.00  0.00     0.003 C 
HETATM   23  C1  UNL     1      44.568  33.733  83.978  1.00  0.00     0.005 C 
ENDBRANCH  21  22
BRANCH  21  24
HETATM   24  C4  UNL     1      42.820  34.660  86.069  1.00  0.00     0.169 C 
BRANCH  24  25
HETATM   25  O1  UNL     1      42.505  33.583  86.878  1.00  0.00    -0.400 OA
ATOM     26  H1  UNL     1      42.973  33.553  87.704  1.00  0.00     0.209 HD
ENDBRANCH  24  25
ENDBRANCH  21  24
ENDBRANCH  19  21
ENDBRANCH  17  19
ENDBRANCH   1  16
BRANCH  13  27
HETATM   27  C21 UNL     1      40.059  36.000  88.248  1.00  0.00     0.210 C 
BRANCH  27  28
HETATM   28  O5  UNL     1      39.628  35.808  89.552  1.00  0.00    -0.398 OA
ATOM     29  H5  UNL     1      39.575  36.604  90.068  1.00  0.00     0.209 HD
ENDBRANCH  27  28
ENDBRANCH  13  27
BRANCH  12  30
HETATM   30  O4  UNL     1      39.672  33.540  88.085  1.00  0.00    -0.393 OA
ATOM     31  H4  UNL     1      40.617  33.615  88.026  1.00  0.00     0.210 HD
ENDBRANCH  12  30
TORSDOF 9
ENDMDL
MODEL 4
REMARK VINA RESULT: -5.540741278      2.023      6.718
REMARK  9 active torsions:
REMARK  status: ('A' for Active; 'I' for Inactive)
REMARK    1  A    between atoms: C2_2  and  C3_3 
REMARK    2  A    between atoms: C3_3  and  C4_4 
REMARK    3  A    between atoms: C3_3  and  C5_7 
REMARK    4  A    between atoms: C4_4  and  O1_5 
REMARK    5  A    between atoms: C5_7  and  C7_9 
REMARK    6  A    between atoms: C9_11  and  C10_12 
REMARK    7  A    between atoms: C19_23  and  O4_24 
REMARK    8  A    between atoms: C20_26  and  C21_27 
REMARK    9  A    between atoms: C21_27  and  O5_28 
ROOT
HETATM    1  C10 UNL     1      39.579  35.634  86.422  1.00  0.00     0.063 C 
HETATM    2  C11 UNL     1      40.093  34.258  86.680  1.00  0.00    -0.008 C 
HETATM    3  C12 UNL     1      39.217  33.385  87.137  1.00  0.00     0.042 C 
HETATM    4  C13 UNL     1      37.842  33.865  87.345  1.00  0.00     0.292 C 
HETATM    5  O2  UNL     1      36.800  33.068  86.911  1.00  0.00    -0.274 OA
HETATM    6  C14 UNL     1      35.683  33.497  87.665  1.00  0.00     0.265 C 
HETATM    7  O3  UNL     1      34.463  33.438  87.371  1.00  0.00    -0.265 OA
HETATM    8  C15 UNL     1      36.200  34.077  88.966  1.00  0.00     0.091 C 
HETATM    9  C16 UNL     1      35.547  33.245  90.060  1.00  0.00     0.021 C 
HETATM   10  C17 UNL     1      37.639  33.756  88.867  1.00  0.00     0.072 C 
HETATM   11  C18 UNL     1      38.623  34.613  89.544  1.00  0.00     0.045 C 
HETATM   12  C19 UNL     1      38.892  35.930  88.908  1.00  0.00     0.161 C 
HETATM   13  C20 UNL     1      38.628  36.120  87.485  1.00  0.00     0.226 C 
HETATM   14  N1  UNL     1      37.634  35.232  86.917  1.00  0.00     0.145 N 
HETATM   15  C22 UNL     1      38.276  35.453  85.640  1.00  0.00     0.298 C 
ENDROOT
BRANCH   1  16
HETATM   16  C9  UNL     1      40.537  36.603  85.921  1.00  0.00    -0.006 C 
HETATM   17  C7  UNL     1      41.443  36.422  85.000  1.00  0.00    -0.082 C 
HETATM   18  C8  UNL     1      42.285  37.654  84.628  1.00  0.00     0.043 C 
BRANCH  17  19
HETATM   19  C5  UNL     1      41.671  35.165  84.284  1.00  0.00     0.016 C 
HETATM   20  C6  UNL     1      41.580  35.467  82.799  1.00  0.00     0.015 C 
BRANCH  19  21
HETATM   21  C3  UNL     1      42.860  34.360  84.677  1.00  0.00     0.016 C 
BRANCH  21  22
HETATM   22  C2  UNL     1      43.946  34.255  83.655  1.00  0.00     0.003 C 
HETATM   23  C1  UNL     1      45.080  33.351  83.913  1.00  0.00     0.005 C 
ENDBRANCH  21  22
BRANCH  21  24
HETATM   24  C4  UNL     1      43.445  34.615  86.033  1.00  0.00     0.169 C 
BRANCH  24  25
HETATM   25  O1  UNL     1      43.333  33.563  86.924  1.00  0.00    -0.400 OA
ATOM     26  H1  UNL     1      42.445  33.368  87.203  1.00  0.00     0.209 HD
ENDBRANCH  24  25
ENDBRANCH  21  24
ENDBRANCH  19  21
ENDBRANCH  17  19
ENDBRANCH   1  16
BRANCH  13  27
HETATM   27  C21 UNL     1      38.196  37.544  87.224  1.00  0.00     0.210 C 
BRANCH  27  28
HETATM   28  O5  UNL     1      36.835  37.766  87.371  1.00  0.00    -0.398 OA
ATOM     29  H5  UNL     1      36.616  38.539  87.877  1.00  0.00     0.209 HD
ENDBRANCH  27  28
ENDBRANCH  13  27
BRANCH  12  30
HETATM   30  O4  UNL     1      38.032  36.836  89.611  1.00  0.00    -0.393 OA
ATOM     31  H4  UNL     1      38.631  37.403  90.081  1.00  0.00     0.210 HD
ENDBRANCH  12  30
TORSDOF 9
ENDMDL
MODEL 5
REMARK VINA RESULT: -5.512379246      3.994      7.145
REMARK  9 active torsions:
REMARK  status: ('A' for Active; 'I' for Inactive)
REMARK    1  A    between atoms: C2_2  and  C3_3 
REMARK    2  A    between atoms: C3_3  and  C4_4 
REMARK    3  A    between atoms: C3_3  and  C5_7 
REMARK    4  A    between atoms: C4_4  and  O1_5 
REMARK    5  A    between atoms: C5_7  and  C7_9 
REMARK    6  A    between atoms: C9_11  and  C10_12 
REMARK    7  A    between atoms: C19_23  and  O4_24 
REMARK    8  A    between atoms: C20_26  and  C21_27 
REMARK    9  A    between atoms: C21_27  and  O5_28 
ROOT
HETATM    1  C10 UNL     1      39.585  35.373  84.156  1.00  0.00     0.063 C 
HETATM    2  C11 UNL     1      40.601  35.271  83.068  1.00  0.00    -0.008 C 
HETATM    3  C12 UNL     1      40.371  35.991  81.988  1.00  0.00     0.042 C 
HETATM    4  C13 UNL     1      39.146  36.804  81.974  1.00  0.00     0.292 C 
HETATM    5  O2  UNL     1      39.230  38.105  81.518  1.00  0.00    -0.274 OA
HETATM    6  C14 UNL     1      37.909  38.440  81.144  1.00  0.00     0.265 C 
HETATM    7  O3  UNL     1      37.363  39.572  81.100  1.00  0.00    -0.265 OA
HETATM    8  C15 UNL     1      37.193  37.156  80.777  1.00  0.00     0.091 C 
HETATM    9  C16 UNL     1      36.744  37.347  79.336  1.00  0.00     0.021 C 
HETATM   10  C17 UNL     1      38.304  36.184  80.844  1.00  0.00     0.072 C 
HETATM   11  C18 UNL     1      38.022  34.779  81.171  1.00  0.00     0.045 C 
HETATM   12  C19 UNL     1      37.708  34.489  82.596  1.00  0.00     0.161 C 
HETATM   13  C20 UNL     1      38.168  35.396  83.643  1.00  0.00     0.226 C 
HETATM   14  N1  UNL     1      38.407  36.760  83.218  1.00  0.00     0.145 N 
HETATM   15  C22 UNL     1      39.317  36.869  84.338  1.00  0.00     0.298 C 
ENDROOT
BRANCH   1  16
HETATM   16  C9  UNL     1      39.828  34.582  85.349  1.00  0.00    -0.006 C 
HETATM   17  C7  UNL     1      40.971  34.359  85.935  1.00  0.00    -0.082 C 
HETATM   18  C8  UNL     1      40.917  33.526  87.228  1.00  0.00     0.043 C 
BRANCH  17  19
HETATM   19  C5  UNL     1      42.263  34.877  85.479  1.00  0.00     0.016 C 
HETATM   20  C6  UNL     1      42.551  36.139  86.272  1.00  0.00     0.015 C 
BRANCH  19  21
HETATM   21  C3  UNL     1      43.400  33.918  85.415  1.00  0.00     0.016 C 
BRANCH  21  22
HETATM   22  C2  UNL     1      44.104  33.824  84.100  1.00  0.00     0.003 C 
HETATM   23  C1  UNL     1      43.765  34.788  83.040  1.00  0.00     0.005 C 
ENDBRANCH  21  22
BRANCH  21  24
HETATM   24  C4  UNL     1      44.394  33.956  86.536  1.00  0.00     0.169 C 
BRANCH  24  25
HETATM   25  O1  UNL     1      45.540  33.209  86.325  1.00  0.00    -0.400 OA
ATOM     26  H1  UNL     1      45.454  32.283  86.518  1.00  0.00     0.209 HD
ENDBRANCH  24  25
ENDBRANCH  21  24
ENDBRANCH  19  21
ENDBRANCH  17  19
ENDBRANCH   1  16
BRANCH  13  27
HETATM   27  C21 UNL     1      37.175  35.420  84.781  1.00  0.00     0.210 C 
BRANCH  27  28
HETATM   28  O5  UNL     1      36.827  34.167  85.264  1.00  0.00    -0.398 OA
ATOM     29  H5  UNL     1      36.137  33.736  84.774  1.00  0.00     0.209 HD
ENDBRANCH  27  28
ENDBRANCH  13  27
BRANCH  12  30
HETATM   30  O4  UNL     1      36.276  34.499  82.643  1.00  0.00    -0.393 OA
ATOM     31  H4  UNL     1      36.071  35.204  83.247  1.00  0.00     0.210 HD
ENDBRANCH  12  30
TORSDOF 9
ENDMDL
