MODEL 1
REMARK VINA RESULT: -6.291178908      0.000      0.000
REMARK  11 active torsions:
REMARK  status: ('A' for Active; 'I' for Inactive)
REMARK    1  A    between atoms: C2_2  and  C3_3 
REMARK    2  A    between atoms: C3_3  and  C4_4 
REMARK    3  A    between atoms: C4_4  and  O1_5 
REMARK    4  A    between atoms: C4_4  and  N1_7 
REMARK    5  A    between atoms: N1_7  and  C5_9 
REMARK    6  A    between atoms: C10_17  and  C11_18 
REMARK       I    between atoms: C11_18  and  N2_20 
REMARK    7  A    between atoms: N2_20  and  C12_22 
REMARK    8  A    between atoms: C12_22  and  C13_23 
REMARK    9  A    between atoms: C13_23  and  N3_24 
REMARK       I    between atoms: N3_24  and  C14_26 
REMARK   10  A    between atoms: C14_26  and  O7_28 
REMARK   11  A    between atoms: O7_28  and  C15_29 
ROOT
HETATM    1  C5  UNL     1      40.621  34.287  87.107  1.00  0.00     0.222 C 
HETATM    2  C6  UNL     1      39.851  33.053  86.746  1.00  0.00     0.287 C 
HETATM    3  O2  UNL     1      40.341  31.905  86.898  1.00  0.00    -0.263 OA
HETATM    4  O3  UNL     1      38.568  33.261  86.235  1.00  0.00    -0.282 OA
HETATM    5  C7  UNL     1      37.710  34.261  86.804  1.00  0.00     0.167 C 
HETATM    6  C8  UNL     1      36.483  33.547  87.301  1.00  0.00     0.079 C 
HETATM    7  C9  UNL     1      37.304  35.284  85.793  1.00  0.00     0.079 C 
HETATM    8  O4  UNL     1      38.408  34.836  87.868  1.00  0.00    -0.338 OA
HETATM    9  C10 UNL     1      39.615  35.361  87.465  1.00  0.00     0.249 C 
ENDROOT
BRANCH   9  10
HETATM   10  C11 UNL     1      40.157  36.223  88.552  1.00  0.00     0.249 C 
HETATM   11  O5  UNL     1      41.168  36.943  88.380  1.00  0.00    -0.271 OA
HETATM   12  N2  UNL     1      39.518  36.228  89.809  1.00  0.00    -0.357 N 
ATOM     13  H2  UNL     1      38.695  35.637  89.928  1.00  0.00     0.162 HD
BRANCH  12  14
HETATM   14  C12 UNL     1      39.950  37.013  90.936  1.00  0.00     0.142 C 
BRANCH  14  15
HETATM   15  C13 UNL     1      41.327  36.586  91.366  1.00  0.00     0.144 C 
BRANCH  15  16
HETATM   16  N3  UNL     1      42.322  37.595  91.100  1.00  0.00    -0.335 N 
HETATM   17  C14 UNL     1      43.625  37.443  91.599  1.00  0.00     0.361 C 
HETATM   18  O6  UNL     1      43.938  36.439  92.274  1.00  0.00    -0.238 OA
ATOM     19  H3  UNL     1      42.079  38.419  90.551  1.00  0.00     0.164 HD
BRANCH  17  20
HETATM   20  O7  UNL     1      44.584  38.404  91.349  1.00  0.00    -0.294 OA
BRANCH  20  21
HETATM   21  C15 UNL     1      45.143  38.638  90.093  1.00  0.00     0.061 C 
HETATM   22  C16 UNL     1      46.537  39.229  90.345  1.00  0.00     0.046 C 
HETATM   23  C17 UNL     1      45.323  37.416  89.254  1.00  0.00     0.046 C 
HETATM   24  C18 UNL     1      44.370  39.734  89.391  1.00  0.00     0.046 C 
ENDBRANCH  20  21
ENDBRANCH  17  20
ENDBRANCH  15  16
ENDBRANCH  14  15
ENDBRANCH  12  14
ENDBRANCH   9  10
BRANCH   1  25
HETATM   25  N1  UNL     1      41.392  34.740  85.924  1.00  0.00    -0.355 N 
ATOM     26  H1  UNL     1      40.901  35.153  85.131  1.00  0.00     0.162 HD
BRANCH  25  27
HETATM   27  C4  UNL     1      42.787  34.607  85.881  1.00  0.00     0.136 C 
BRANCH  27  28
HETATM   28  C3  UNL     1      43.608  33.927  84.939  1.00  0.00     0.051 C 
BRANCH  28  29
HETATM   29  C2  UNL     1      43.985  34.230  83.729  1.00  0.00    -0.027 C 
HETATM   30  C1  UNL     1      43.198  35.030  82.785  1.00  0.00     0.036 C 
ENDBRANCH  28  29
ENDBRANCH  27  28
BRANCH  27  31
HETATM   31  O1  UNL     1      43.428  35.195  86.850  1.00  0.00    -0.346 OA
ATOM     32  H1  UNL     1      44.235  35.626  86.598  1.00  0.00     0.219 HD
ENDBRANCH  27  31
ENDBRANCH  25  27
ENDBRANCH   1  25
TORSDOF 11
ENDMDL
MODEL 2
REMARK VINA RESULT: -6.252490093      4.964      6.334
REMARK  11 active torsions:
REMARK  status: ('A' for Active; 'I' for Inactive)
REMARK    1  A    between atoms: C2_2  and  C3_3 
REMARK    2  A    between atoms: C3_3  and  C4_4 
REMARK    3  A    between atoms: C4_4  and  O1_5 
REMARK    4  A    between atoms: C4_4  and  N1_7 
REMARK    5  A    between atoms: N1_7  and  C5_9 
REMARK    6  A    between atoms: C10_17  and  C11_18 
REMARK       I    between atoms: C11_18  and  N2_20 
REMARK    7  A    between atoms: N2_20  and  C12_22 
REMARK    8  A    between atoms: C12_22  and  C13_23 
REMARK    9  A    between atoms: C13_23  and  N3_24 
REMARK       I    between atoms: N3_24  and  C14_26 
REMARK   10  A    between atoms: C14_26  and  O7_28 
REMARK   11  A    between atoms: O7_28  and  C15_29 
ROOT
HETATM    1  C5  UNL     1      41.529  36.307  85.484  1.00  0.00     0.222 C 
HETATM    2  C6  UNL     1      40.689  35.294  84.765  1.00  0.00     0.287 C 
HETATM    3  O2  UNL     1      39.672  34.783  85.302  1.00  0.00    -0.263 OA
HETATM    4  O3  UNL     1      41.106  34.959  83.475  1.00  0.00    -0.282 OA
HETATM    5  C7  UNL     1      41.581  35.973  82.576  1.00  0.00     0.167 C 
HETATM    6  C8  UNL     1      40.671  35.951  81.379  1.00  0.00     0.079 C 
HETATM    7  C9  UNL     1      42.982  35.706  82.130  1.00  0.00     0.079 C 
HETATM    8  O4  UNL     1      41.477  37.192  83.250  1.00  0.00    -0.338 OA
HETATM    9  C10 UNL     1      42.178  37.184  84.434  1.00  0.00     0.249 C 
ENDROOT
BRANCH   9  10
HETATM   10  C11 UNL     1      42.292  38.580  84.940  1.00  0.00     0.249 C 
HETATM   11  O5  UNL     1      42.530  38.828  86.145  1.00  0.00    -0.271 OA
HETATM   12  N2  UNL     1      42.128  39.653  84.040  1.00  0.00    -0.357 N 
ATOM     13  H2  UNL     1      41.938  39.431  83.063  1.00  0.00     0.162 HD
BRANCH  12  14
HETATM   14  C12 UNL     1      42.211  41.042  84.408  1.00  0.00     0.142 C 
BRANCH  14  15
HETATM   15  C13 UNL     1      42.971  41.810  83.361  1.00  0.00     0.144 C 
BRANCH  15  16
HETATM   16  N3  UNL     1      44.339  41.369  83.242  1.00  0.00    -0.335 N 
HETATM   17  C14 UNL     1      45.348  42.009  83.976  1.00  0.00     0.361 C 
HETATM   18  O6  UNL     1      45.078  42.963  84.738  1.00  0.00    -0.238 OA
ATOM     19  H3  UNL     1      44.572  40.592  82.624  1.00  0.00     0.164 HD
BRANCH  17  20
HETATM   20  O7  UNL     1      46.660  41.594  83.869  1.00  0.00    -0.294 OA
BRANCH  20  21
HETATM   21  C15 UNL     1      47.657  42.325  83.223  1.00  0.00     0.061 C 
HETATM   22  C16 UNL     1      48.536  41.302  82.491  1.00  0.00     0.046 C 
HETATM   23  C17 UNL     1      47.157  43.292  82.201  1.00  0.00     0.046 C 
HETATM   24  C18 UNL     1      48.566  42.962  84.253  1.00  0.00     0.046 C 
ENDBRANCH  20  21
ENDBRANCH  17  20
ENDBRANCH  15  16
ENDBRANCH  14  15
ENDBRANCH  12  14
ENDBRANCH   9  10
BRANCH   1  25
HETATM   25  N1  UNL     1      42.596  35.605  86.237  1.00  0.00    -0.355 N 
ATOM     26  H1  UNL     1      43.236  36.142  86.822  1.00  0.00     0.162 HD
BRANCH  25  27
HETATM   27  C4  UNL     1      42.737  34.212  86.155  1.00  0.00     0.136 C 
BRANCH  27  28
HETATM   28  C3  UNL     1      43.580  33.430  85.318  1.00  0.00     0.051 C 
BRANCH  28  29
HETATM   29  C2  UNL     1      44.815  33.034  85.446  1.00  0.00    -0.027 C 
HETATM   30  C1  UNL     1      45.698  32.677  84.331  1.00  0.00     0.036 C 
ENDBRANCH  28  29
ENDBRANCH  27  28
BRANCH  27  31
HETATM   31  O1  UNL     1      41.982  33.532  86.969  1.00  0.00    -0.346 OA
ATOM     32  H1  UNL     1      42.319  33.442  87.853  1.00  0.00     0.219 HD
ENDBRANCH  27  31
ENDBRANCH  25  27
ENDBRANCH   1  25
TORSDOF 11
ENDMDL
MODEL 3
REMARK VINA RESULT: -6.239191353      2.270      3.078
REMARK  11 active torsions:
REMARK  status: ('A' for Active; 'I' for Inactive)
REMARK    1  A    between atoms: C2_2  and  C3_3 
REMARK    2  A    between atoms: C3_3  and  C4_4 
REMARK    3  A    between atoms: C4_4  and  O1_5 
REMARK    4  A    between atoms: C4_4  and  N1_7 
REMARK    5  A    between atoms: N1_7  and  C5_9 
REMARK    6  A    between atoms: C10_17  and  C11_18 
REMARK       I    between atoms: C11_18  and  N2_20 
REMARK    7  A    between atoms: N2_20  and  C12_22 
REMARK    8  A    between atoms: C12_22  and  C13_23 
REMARK    9  A    between atoms: C13_23  and  N3_24 
REMARK       I    between atoms: N3_24  and  C14_26 
REMARK   10  A    between atoms: C14_26  and  O7_28 
REMARK   11  A    between atoms: O7_28  and  C15_29 
ROOT
HETATM    1  C5  UNL     1      41.774  34.290  86.494  1.00  0.00     0.222 C 
HETATM    2  C6  UNL     1      40.594  33.477  86.933  1.00  0.00     0.287 C 
HETATM    3  O2  UNL     1      40.663  32.695  87.916  1.00  0.00    -0.263 OA
HETATM    4  O3  UNL     1      39.426  33.641  86.184  1.00  0.00    -0.282 OA
HETATM    5  C7  UNL     1      39.023  34.946  85.741  1.00  0.00     0.167 C 
HETATM    6  C8  UNL     1      37.670  35.209  86.344  1.00  0.00     0.079 C 
HETATM    7  C9  UNL     1      38.916  35.017  84.253  1.00  0.00     0.079 C 
HETATM    8  O4  UNL     1      39.965  35.851  86.236  1.00  0.00    -0.338 OA
HETATM    9  C10 UNL     1      41.240  35.538  85.824  1.00  0.00     0.249 C 
ENDROOT
BRANCH   9  10
HETATM   10  C11 UNL     1      42.139  36.691  86.109  1.00  0.00     0.249 C 
HETATM   11  O5  UNL     1      43.166  36.568  86.817  1.00  0.00    -0.271 OA
HETATM   12  N2  UNL     1      41.826  37.957  85.571  1.00  0.00    -0.357 N 
ATOM     13  H2  UNL     1      40.987  38.036  84.996  1.00  0.00     0.162 HD
BRANCH  12  14
HETATM   14  C12 UNL     1      42.612  39.144  85.780  1.00  0.00     0.142 C 
BRANCH  14  15
HETATM   15  C13 UNL     1      42.106  39.894  86.983  1.00  0.00     0.144 C 
BRANCH  15  16
HETATM   16  N3  UNL     1      42.538  39.297  88.222  1.00  0.00    -0.335 N 
HETATM   17  C14 UNL     1      43.687  39.776  88.869  1.00  0.00     0.361 C 
HETATM   18  O6  UNL     1      44.347  40.719  88.382  1.00  0.00    -0.238 OA
ATOM     19  H3  UNL     1      42.007  38.526  88.629  1.00  0.00     0.164 HD
BRANCH  17  20
HETATM   20  O7  UNL     1      44.107  39.210  90.056  1.00  0.00    -0.294 OA
BRANCH  20  21
HETATM   21  C15 UNL     1      45.218  38.375  90.169  1.00  0.00     0.061 C 
HETATM   22  C16 UNL     1      44.924  37.423  91.337  1.00  0.00     0.046 C 
HETATM   23  C17 UNL     1      45.489  37.532  88.967  1.00  0.00     0.046 C 
HETATM   24  C18 UNL     1      46.418  39.185  90.613  1.00  0.00     0.046 C 
ENDBRANCH  20  21
ENDBRANCH  17  20
ENDBRANCH  15  16
ENDBRANCH  14  15
ENDBRANCH  12  14
ENDBRANCH   9  10
BRANCH   1  25
HETATM   25  N1  UNL     1      42.552  33.516  85.498  1.00  0.00    -0.355 N 
ATOM     26  H1  UNL     1      42.063  33.017  84.754  1.00  0.00     0.162 HD
BRANCH  25  27
HETATM   27  C4  UNL     1      43.952  33.459  85.564  1.00  0.00     0.136 C 
BRANCH  27  28
HETATM   28  C3  UNL     1      44.894  33.060  84.577  1.00  0.00     0.051 C 
BRANCH  28  29
HETATM   29  C2  UNL     1      46.152  32.727  84.653  1.00  0.00    -0.027 C 
HETATM   30  C1  UNL     1      46.664  31.555  85.371  1.00  0.00     0.036 C 
ENDBRANCH  28  29
ENDBRANCH  27  28
BRANCH  27  31
HETATM   31  O1  UNL     1      44.465  33.828  86.703  1.00  0.00    -0.346 OA
ATOM     32  H1  UNL     1      44.674  33.120  87.300  1.00  0.00     0.219 HD
ENDBRANCH  27  31
ENDBRANCH  25  27
ENDBRANCH   1  25
TORSDOF 11
ENDMDL
MODEL 4
REMARK VINA RESULT: -6.237326116      1.228      1.445
REMARK  11 active torsions:
REMARK  status: ('A' for Active; 'I' for Inactive)
REMARK    1  A    between atoms: C2_2  and  C3_3 
REMARK    2  A    between atoms: C3_3  and  C4_4 
REMARK    3  A    between atoms: C4_4  and  O1_5 
REMARK    4  A    between atoms: C4_4  and  N1_7 
REMARK    5  A    between atoms: N1_7  and  C5_9 
REMARK    6  A    between atoms: C10_17  and  C11_18 
REMARK       I    between atoms: C11_18  and  N2_20 
REMARK    7  A    between atoms: N2_20  and  C12_22 
REMARK    8  A    between atoms: C12_22  and  C13_23 
REMARK    9  A    between atoms: C13_23  and  N3_24 
REMARK       I    between atoms: N3_24  and  C14_26 
REMARK   10  A    between atoms: C14_26  and  O7_28 
REMARK   11  A    between atoms: O7_28  and  C15_29 
ROOT
HETATM    1  C5  UNL     1      40.720  34.962  86.988  1.00  0.00     0.222 C 
HETATM    2  C6  UNL     1      40.269  33.534  87.058  1.00  0.00     0.287 C 
HETATM    3  O2  UNL     1      40.931  32.667  87.686  1.00  0.00    -0.263 OA
HETATM    4  O3  UNL     1      39.082  33.234  86.388  1.00  0.00    -0.282 OA
HETATM    5  C7  UNL     1      37.965  34.134  86.445  1.00  0.00     0.167 C 
HETATM    6  C8  UNL     1      36.825  33.371  87.060  1.00  0.00     0.079 C 
HETATM    7  C9  UNL     1      37.562  34.604  85.085  1.00  0.00     0.079 C 
HETATM    8  O4  UNL     1      38.344  35.198  87.268  1.00  0.00    -0.338 OA
HETATM    9  C10 UNL     1      39.484  35.819  86.810  1.00  0.00     0.249 C 
ENDROOT
BRANCH   9  10
HETATM   10  C11 UNL     1      39.654  37.112  87.528  1.00  0.00     0.249 C 
HETATM   11  O5  UNL     1      40.278  38.072  87.018  1.00  0.00    -0.271 OA
HETATM   12  N2  UNL     1      39.102  37.261  88.817  1.00  0.00    -0.357 N 
ATOM     13  H2  UNL     1      38.596  36.469  89.213  1.00  0.00     0.162 HD
BRANCH  12  14
HETATM   14  C12 UNL     1      39.204  38.458  89.611  1.00  0.00     0.142 C 
BRANCH  14  15
HETATM   15  C13 UNL     1      40.205  38.260  90.716  1.00  0.00     0.144 C 
BRANCH  15  16
HETATM   16  N3  UNL     1      41.498  38.810  90.391  1.00  0.00    -0.335 N 
HETATM   17  C14 UNL     1      42.490  37.987  89.838  1.00  0.00     0.361 C 
HETATM   18  O6  UNL     1      42.269  36.776  89.622  1.00  0.00    -0.238 OA
ATOM     19  H3  UNL     1      41.690  39.796  90.563  1.00  0.00     0.164 HD
BRANCH  17  20
HETATM   20  O7  UNL     1      43.730  38.505  89.523  1.00  0.00    -0.294 OA
BRANCH  20  21
HETATM   21  C15 UNL     1      44.937  37.943  89.941  1.00  0.00     0.061 C 
HETATM   22  C16 UNL     1      45.939  39.101  90.045  1.00  0.00     0.046 C 
HETATM   23  C17 UNL     1      44.885  37.280  91.278  1.00  0.00     0.046 C 
HETATM   24  C18 UNL     1      45.482  37.045  88.851  1.00  0.00     0.046 C 
ENDBRANCH  20  21
ENDBRANCH  17  20
ENDBRANCH  15  16
ENDBRANCH  14  15
ENDBRANCH  12  14
ENDBRANCH   9  10
BRANCH   1  25
HETATM   25  N1  UNL     1      41.590  35.137  85.801  1.00  0.00    -0.355 N 
ATOM     26  H1  UNL     1      41.237  35.641  84.988  1.00  0.00     0.162 HD
BRANCH  25  27
HETATM   27  C4  UNL     1      42.893  34.619  85.781  1.00  0.00     0.136 C 
BRANCH  27  28
HETATM   28  C3  UNL     1      43.586  33.939  84.742  1.00  0.00     0.051 C 
BRANCH  28  29
HETATM   29  C2  UNL     1      43.971  34.315  83.555  1.00  0.00    -0.027 C 
HETATM   30  C1  UNL     1      43.151  35.091  82.619  1.00  0.00     0.036 C 
ENDBRANCH  28  29
ENDBRANCH  27  28
BRANCH  27  31
HETATM   31  O1  UNL     1      43.570  34.787  86.881  1.00  0.00    -0.346 OA
ATOM     32  H1  UNL     1      43.766  35.691  87.101  1.00  0.00     0.219 HD
ENDBRANCH  27  31
ENDBRANCH  25  27
ENDBRANCH   1  25
TORSDOF 11
ENDMDL
MODEL 5
REMARK VINA RESULT: -6.109955619      2.046      6.570
REMARK  11 active torsions:
REMARK  status: ('A' for Active; 'I' for Inactive)
REMARK    1  A    between atoms: C2_2  and  C3_3 
REMARK    2  A    between atoms: C3_3  and  C4_4 
REMARK    3  A    between atoms: C4_4  and  O1_5 
REMARK    4  A    between atoms: C4_4  and  N1_7 
REMARK    5  A    between atoms: N1_7  and  C5_9 
REMARK    6  A    between atoms: C10_17  and  C11_18 
REMARK       I    between atoms: C11_18  and  N2_20 
REMARK    7  A    between atoms: N2_20  and  C12_22 
REMARK    8  A    between atoms: C12_22  and  C13_23 
REMARK    9  A    between atoms: C13_23  and  N3_24 
REMARK       I    between atoms: N3_24  and  C14_26 
REMARK   10  A    between atoms: C14_26  and  O7_28 
REMARK   11  A    between atoms: O7_28  and  C15_29 
ROOT
HETATM    1  C5  UNL     1      42.489  36.956  87.461  1.00  0.00     0.222 C 
HETATM    2  C6  UNL     1      42.999  38.188  86.775  1.00  0.00     0.287 C 
HETATM    3  O2  UNL     1      42.541  38.558  85.663  1.00  0.00    -0.263 OA
HETATM    4  O3  UNL     1      44.004  38.889  87.445  1.00  0.00    -0.282 OA
HETATM    5  C7  UNL     1      43.939  39.074  88.867  1.00  0.00     0.167 C 
HETATM    6  C8  UNL     1      43.909  40.558  89.108  1.00  0.00     0.079 C 
HETATM    7  C9  UNL     1      45.129  38.491  89.557  1.00  0.00     0.079 C 
HETATM    8  O4  UNL     1      42.750  38.482  89.299  1.00  0.00    -0.338 OA
HETATM    9  C10 UNL     1      42.683  37.153  88.949  1.00  0.00     0.249 C 
ENDROOT
BRANCH   9  10
HETATM   10  C11 UNL     1      41.567  36.510  89.697  1.00  0.00     0.249 C 
HETATM   11  O5  UNL     1      41.588  36.397  90.945  1.00  0.00    -0.271 OA
HETATM   12  N2  UNL     1      40.457  36.014  88.983  1.00  0.00    -0.357 N 
ATOM     13  H2  UNL     1      40.457  36.118  87.968  1.00  0.00     0.162 HD
BRANCH  12  14
HETATM   14  C12 UNL     1      39.322  35.370  89.591  1.00  0.00     0.142 C 
BRANCH  14  15
HETATM   15  C13 UNL     1      39.088  34.027  88.955  1.00  0.00     0.144 C 
BRANCH  15  16
HETATM   16  N3  UNL     1      38.305  34.120  87.748  1.00  0.00    -0.335 N 
HETATM   17  C14 UNL     1      38.657  33.360  86.623  1.00  0.00     0.361 C 
HETATM   18  O6  UNL     1      39.647  32.597  86.652  1.00  0.00    -0.238 OA
ATOM     19  H3  UNL     1      37.495  34.740  87.712  1.00  0.00     0.164 HD
BRANCH  17  20
HETATM   20  O7  UNL     1      37.913  33.443  85.463  1.00  0.00    -0.294 OA
BRANCH  20  21
HETATM   21  C15 UNL     1      37.849  34.581  84.660  1.00  0.00     0.061 C 
HETATM   22  C16 UNL     1      37.728  34.082  83.213  1.00  0.00     0.046 C 
HETATM   23  C17 UNL     1      36.675  35.465  84.924  1.00  0.00     0.046 C 
HETATM   24  C18 UNL     1      39.172  35.315  84.715  1.00  0.00     0.046 C 
ENDBRANCH  20  21
ENDBRANCH  17  20
ENDBRANCH  15  16
ENDBRANCH  14  15
ENDBRANCH  12  14
ENDBRANCH   9  10
BRANCH   1  25
HETATM   25  N1  UNL     1      43.298  35.792  87.029  1.00  0.00    -0.355 N 
ATOM     26  H1  UNL     1      44.301  35.779  87.217  1.00  0.00     0.162 HD
BRANCH  25  27
HETATM   27  C4  UNL     1      42.705  34.708  86.367  1.00  0.00     0.136 C 
BRANCH  27  28
HETATM   28  C3  UNL     1      42.621  34.427  84.975  1.00  0.00     0.051 C 
BRANCH  28  29
HETATM   29  C2  UNL     1      43.521  34.400  84.033  1.00  0.00    -0.027 C 
HETATM   30  C1  UNL     1      43.335  34.945  82.684  1.00  0.00     0.036 C 
ENDBRANCH  28  29
ENDBRANCH  27  28
BRANCH  27  31
HETATM   31  O1  UNL     1      42.145  33.826  87.144  1.00  0.00    -0.346 OA
ATOM     32  H1  UNL     1      42.629  33.620  87.935  1.00  0.00     0.219 HD
ENDBRANCH  27  31
ENDBRANCH  25  27
ENDBRANCH   1  25
TORSDOF 11
ENDMDL
