MODEL 1
REMARK VINA RESULT: -5.410770992      0.000      0.000
REMARK  6 active torsions:
REMARK  status: ('A' for Active; 'I' for Inactive)
REMARK    1  A    between atoms: C2_2  and  C3_3 
REMARK    2  A    between atoms: C3_3  and  C4_4 
REMARK    3  A    between atoms: C6_7  and  C7_8 
REMARK    4  A    between atoms: C9_12  and  O3_13 
REMARK    5  A    between atoms: C15_20  and  C16_21 
REMARK    6  A    between atoms: C16_21  and  O4_24 
ROOT
HETATM    1  C4  UNL     1     -10.513  12.667  51.154  1.00  0.00     0.035 C 
HETATM    2  C5  UNL     1     -11.708  11.770  51.017  1.00  0.00     0.149 C 
HETATM    3  O1  UNL     1     -11.625  10.563  51.172  1.00  0.00    -0.296 OA
HETATM    4  C6  UNL     1     -12.982  12.467  50.682  1.00  0.00     0.147 C 
HETATM    5  C8  UNL     1     -13.256  13.518  51.703  1.00  0.00     0.053 C 
HETATM    6  C9  UNL     1     -12.112  14.381  52.065  1.00  0.00     0.125 C 
HETATM    7  C10 UNL     1     -10.777  13.794  52.081  1.00  0.00     0.039 C 
HETATM    8  C11 UNL     1     -10.412  12.864  53.212  1.00  0.00     0.028 C 
HETATM    9  C12 UNL     1      -9.611  13.424  54.295  1.00  0.00    -0.070 C 
HETATM   10  C13 UNL     1      -9.733  14.443  55.116  1.00  0.00    -0.022 C 
HETATM   11  C14 UNL     1      -8.566  14.525  56.035  1.00  0.00     0.036 C 
HETATM   12  C15 UNL     1      -7.893  13.223  55.862  1.00  0.00     0.035 C 
HETATM   13  C19 UNL     1      -8.315  12.681  54.569  1.00  0.00    -0.014 C 
HETATM   14  C20 UNL     1      -8.596  11.195  54.702  1.00  0.00     0.020 C 
HETATM   15  C21 UNL     1      -7.482  12.992  53.369  1.00  0.00     0.014 C 
HETATM   16  C22 UNL     1      -8.157  12.548  52.104  1.00  0.00     0.007 C 
HETATM   17  C23 UNL     1      -9.561  12.119  52.191  1.00  0.00     0.011 C 
ENDROOT
BRANCH  12  18
HETATM   18  C16 UNL     1      -6.451  13.172  56.225  1.00  0.00     0.055 C 
HETATM   19  C17 UNL     1      -6.396  13.145  57.769  1.00  0.00     0.045 C 
HETATM   20  C18 UNL     1      -5.576  14.274  55.797  1.00  0.00     0.045 C 
BRANCH  18  21
HETATM   21  O4  UNL     1      -5.930  11.949  55.812  1.00  0.00    -0.390 OA
ATOM     22  H4  UNL     1      -5.030  12.079  55.535  1.00  0.00     0.210 HD
ENDBRANCH  18  21
ENDBRANCH  12  18
BRANCH   1  23
HETATM   23  C3  UNL     1      -9.938  13.002  49.806  1.00  0.00     0.044 C 
BRANCH  23  24
HETATM   24  C2  UNL     1      -9.753  11.805  48.954  1.00  0.00    -0.036 C 
HETATM   25  C1  UNL     1      -8.565  11.419  48.569  1.00  0.00     0.007 C 
ENDBRANCH  23  24
ENDBRANCH   1  23
BRANCH   6  26
HETATM   26  O3  UNL     1     -12.108  15.500  51.201  1.00  0.00    -0.395 OA
ATOM     27  H3  UNL     1     -11.418  16.091  51.480  1.00  0.00     0.210 HD
ENDBRANCH   6  26
BRANCH   4  28
HETATM   28  C7  UNL     1     -14.120  11.492  50.697  1.00  0.00     0.242 C 
HETATM   29  N1  UNL     1     -14.320  10.746  49.493  1.00  0.00    -0.061 NA
HETATM   30  O2  UNL     1     -14.862  11.322  51.684  1.00  0.00    -0.276 OA
ENDBRANCH   4  28
TORSDOF 6
ENDMDL
MODEL 2
REMARK VINA RESULT: -5.310049711     20.353     22.369
REMARK  6 active torsions:
REMARK  status: ('A' for Active; 'I' for Inactive)
REMARK    1  A    between atoms: C2_2  and  C3_3 
REMARK    2  A    between atoms: C3_3  and  C4_4 
REMARK    3  A    between atoms: C6_7  and  C7_8 
REMARK    4  A    between atoms: C9_12  and  O3_13 
REMARK    5  A    between atoms: C15_20  and  C16_21 
REMARK    6  A    between atoms: C16_21  and  O4_24 
ROOT
HETATM    1  C4  UNL     1     -10.238  -9.369  55.735  1.00  0.00     0.035 C 
HETATM    2  C5  UNL     1     -11.002  -8.601  56.774  1.00  0.00     0.149 C 
HETATM    3  O1  UNL     1     -10.655  -7.488  57.133  1.00  0.00    -0.296 OA
HETATM    4  C6  UNL     1     -12.199  -9.301  57.318  1.00  0.00     0.147 C 
HETATM    5  C8  UNL     1     -13.109  -9.674  56.198  1.00  0.00     0.053 C 
HETATM    6  C9  UNL     1     -12.465 -10.296  55.022  1.00  0.00     0.125 C 
HETATM    7  C10 UNL     1     -11.125  -9.855  54.650  1.00  0.00     0.039 C 
HETATM    8  C11 UNL     1     -10.965  -8.502  54.002  1.00  0.00     0.028 C 
HETATM    9  C12 UNL     1     -10.809  -8.480  52.551  1.00  0.00    -0.070 C 
HETATM   10  C13 UNL     1     -11.501  -8.934  51.531  1.00  0.00    -0.022 C 
HETATM   11  C14 UNL     1     -10.828  -8.604  50.246  1.00  0.00     0.036 C 
HETATM   12  C15 UNL     1      -9.810  -7.607  50.631  1.00  0.00     0.035 C 
HETATM   13  C19 UNL     1      -9.557  -7.772  52.063  1.00  0.00    -0.014 C 
HETATM   14  C20 UNL     1      -9.447  -6.410  52.726  1.00  0.00     0.020 C 
HETATM   15  C21 UNL     1      -8.458  -8.692  52.483  1.00  0.00     0.014 C 
HETATM   16  C22 UNL     1      -8.467  -8.914  53.968  1.00  0.00     0.007 C 
HETATM   17  C23 UNL     1      -9.627  -8.425  54.726  1.00  0.00     0.011 C 
ENDROOT
BRANCH  12  18
HETATM   18  C16 UNL     1      -8.651  -7.458  49.710  1.00  0.00     0.055 C 
HETATM   19  C17 UNL     1      -8.442  -8.841  49.052  1.00  0.00     0.045 C 
HETATM   20  C18 UNL     1      -7.349  -7.065  50.271  1.00  0.00     0.045 C 
BRANCH  18  21
HETATM   21  O4  UNL     1      -9.011  -6.602  48.673  1.00  0.00    -0.390 OA
ATOM     22  H4  UNL     1      -8.238  -6.132  48.383  1.00  0.00     0.210 HD
ENDBRANCH  18  21
ENDBRANCH  12  18
BRANCH   1  23
HETATM   23  C3  UNL     1      -9.320 -10.371  56.378  1.00  0.00     0.044 C 
BRANCH  23  24
HETATM   24  C2  UNL     1      -9.167 -11.602  55.570  1.00  0.00    -0.036 C 
HETATM   25  C1  UNL     1      -8.033 -12.249  55.520  1.00  0.00     0.007 C 
ENDBRANCH  23  24
ENDBRANCH   1  23
BRANCH   6  26
HETATM   26  O3  UNL     1     -12.447 -11.697  55.213  1.00  0.00    -0.395 OA
ATOM     27  H3  UNL     1     -13.262 -11.952  55.628  1.00  0.00     0.210 HD
ENDBRANCH   6  26
BRANCH   4  28
HETATM   28  C7  UNL     1     -12.947  -8.393  58.246  1.00  0.00     0.242 C 
HETATM   29  N1  UNL     1     -13.975  -7.598  57.650  1.00  0.00    -0.061 NA
HETATM   30  O2  UNL     1     -12.708  -8.316  59.467  1.00  0.00    -0.276 OA
ENDBRANCH   4  28
TORSDOF 6
ENDMDL
MODEL 3
REMARK VINA RESULT: -5.308677526      9.369     13.174
REMARK  6 active torsions:
REMARK  status: ('A' for Active; 'I' for Inactive)
REMARK    1  A    between atoms: C2_2  and  C3_3 
REMARK    2  A    between atoms: C3_3  and  C4_4 
REMARK    3  A    between atoms: C6_7  and  C7_8 
REMARK    4  A    between atoms: C9_12  and  O3_13 
REMARK    5  A    between atoms: C15_20  and  C16_21 
REMARK    6  A    between atoms: C16_21  and  O4_24 
ROOT
HETATM    1  C4  UNL     1     -18.935   4.683  45.788  1.00  0.00     0.035 C 
HETATM    2  C5  UNL     1     -19.247   3.681  44.715  1.00  0.00     0.149 C 
HETATM    3  O1  UNL     1     -19.075   3.931  43.534  1.00  0.00    -0.296 OA
HETATM    4  C6  UNL     1     -19.775   2.377  45.208  1.00  0.00     0.147 C 
HETATM    5  C8  UNL     1     -18.812   1.789  46.182  1.00  0.00     0.053 C 
HETATM    6  C9  UNL     1     -18.285   2.712  47.209  1.00  0.00     0.125 C 
HETATM    7  C10 UNL     1     -18.063   4.106  46.840  1.00  0.00     0.039 C 
HETATM    8  C11 UNL     1     -16.886   4.440  45.958  1.00  0.00     0.028 C 
HETATM    9  C12 UNL     1     -15.696   4.969  46.616  1.00  0.00    -0.070 C 
HETATM   10  C13 UNL     1     -14.908   4.563  47.586  1.00  0.00    -0.022 C 
HETATM   11  C14 UNL     1     -13.823   5.551  47.835  1.00  0.00     0.036 C 
HETATM   12  C15 UNL     1     -13.886   6.441  46.659  1.00  0.00     0.035 C 
HETATM   13  C19 UNL     1     -15.225   6.310  46.083  1.00  0.00    -0.014 C 
HETATM   14  C20 UNL     1     -15.129   6.254  44.569  1.00  0.00     0.020 C 
HETATM   15  C21 UNL     1     -16.286   7.254  46.545  1.00  0.00     0.014 C 
HETATM   16  C22 UNL     1     -17.637   6.857  46.025  1.00  0.00     0.007 C 
HETATM   17  C23 UNL     1     -17.762   5.543  45.378  1.00  0.00     0.011 C 
ENDROOT
BRANCH  12  18
HETATM   18  C16 UNL     1     -13.308   7.801  46.830  1.00  0.00     0.055 C 
HETATM   19  C17 UNL     1     -13.808   8.313  48.200  1.00  0.00     0.045 C 
HETATM   20  C18 UNL     1     -13.649   8.842  45.848  1.00  0.00     0.045 C 
BRANCH  18  21
HETATM   21  O4  UNL     1     -11.926   7.687  46.958  1.00  0.00    -0.390 OA
ATOM     22  H4  UNL     1     -11.536   8.543  46.827  1.00  0.00     0.210 HD
ENDBRANCH  18  21
ENDBRANCH  12  18
BRANCH   1  23
HETATM   23  C3  UNL     1     -20.181   5.393  46.236  1.00  0.00     0.044 C 
BRANCH  23  24
HETATM   24  C2  UNL     1     -21.015   5.849  45.101  1.00  0.00    -0.036 C 
HETATM   25  C1  UNL     1     -21.192   7.119  44.850  1.00  0.00     0.007 C 
ENDBRANCH  23  24
ENDBRANCH   1  23
BRANCH   6  26
HETATM   26  O3  UNL     1     -19.143   2.668  48.331  1.00  0.00    -0.395 OA
ATOM     27  H3  UNL     1     -18.611   2.711  49.117  1.00  0.00     0.210 HD
ENDBRANCH   6  26
BRANCH   4  28
HETATM   28  C7  UNL     1     -19.929   1.421  44.065  1.00  0.00     0.242 C 
HETATM   29  N1  UNL     1     -18.796   0.594  43.784  1.00  0.00    -0.061 NA
HETATM   30  O2  UNL     1     -20.970   1.330  43.385  1.00  0.00    -0.276 OA
ENDBRANCH   4  28
TORSDOF 6
ENDMDL
MODEL 4
REMARK VINA RESULT: -5.276133385      5.389      8.610
REMARK  6 active torsions:
REMARK  status: ('A' for Active; 'I' for Inactive)
REMARK    1  A    between atoms: C2_2  and  C3_3 
REMARK    2  A    between atoms: C3_3  and  C4_4 
REMARK    3  A    between atoms: C6_7  and  C7_8 
REMARK    4  A    between atoms: C9_12  and  O3_13 
REMARK    5  A    between atoms: C15_20  and  C16_21 
REMARK    6  A    between atoms: C16_21  and  O4_24 
ROOT
HETATM    1  C4  UNL     1     -14.176   7.498  46.878  1.00  0.00     0.035 C 
HETATM    2  C5  UNL     1     -15.296   7.142  45.945  1.00  0.00     0.149 C 
HETATM    3  O1  UNL     1     -16.441   7.001  46.341  1.00  0.00    -0.296 OA
HETATM    4  C6  UNL     1     -14.897   6.981  44.518  1.00  0.00     0.147 C 
HETATM    5  C8  UNL     1     -14.224   8.225  44.047  1.00  0.00     0.053 C 
HETATM    6  C9  UNL     1     -13.202   8.790  44.953  1.00  0.00     0.125 C 
HETATM    7  C10 UNL     1     -13.407   8.669  46.391  1.00  0.00     0.039 C 
HETATM    8  C11 UNL     1     -14.448   9.543  47.047  1.00  0.00     0.028 C 
HETATM    9  C12 UNL     1     -13.969  10.733  47.741  1.00  0.00    -0.070 C 
HETATM   10  C13 UNL     1     -13.240  11.776  47.413  1.00  0.00    -0.022 C 
HETATM   11  C14 UNL     1     -13.074  12.692  48.573  1.00  0.00     0.036 C 
HETATM   12  C15 UNL     1     -14.077  12.213  49.544  1.00  0.00     0.035 C 
HETATM   13  C19 UNL     1     -14.391  10.825  49.198  1.00  0.00    -0.014 C 
HETATM   14  C20 UNL     1     -15.887  10.593  49.313  1.00  0.00     0.020 C 
HETATM   15  C21 UNL     1     -13.601   9.740  49.852  1.00  0.00     0.014 C 
HETATM   16  C22 UNL     1     -13.896   8.402  49.239  1.00  0.00     0.007 C 
HETATM   17  C23 UNL     1     -14.683   8.376  47.998  1.00  0.00     0.011 C 
ENDROOT
BRANCH  12  18
HETATM   18  C16 UNL     1     -13.834  12.559  50.970  1.00  0.00     0.055 C 
HETATM   19  C17 UNL     1     -14.332  14.010  51.153  1.00  0.00     0.045 C 
HETATM   20  C18 UNL     1     -12.454  12.527  51.479  1.00  0.00     0.045 C 
BRANCH  18  21
HETATM   21  O4  UNL     1     -14.664  11.776  51.768  1.00  0.00    -0.390 OA
ATOM     22  H4  UNL     1     -14.304  11.748  52.647  1.00  0.00     0.210 HD
ENDBRANCH  18  21
ENDBRANCH  12  18
BRANCH   1  23
HETATM   23  C3  UNL     1     -13.395   6.274  47.269  1.00  0.00     0.044 C 
BRANCH  23  24
HETATM   24  C2  UNL     1     -14.267   5.164  47.718  1.00  0.00    -0.036 C 
HETATM   25  C1  UNL     1     -14.123   4.619  48.897  1.00  0.00     0.007 C 
ENDBRANCH  23  24
ENDBRANCH   1  23
BRANCH   6  26
HETATM   26  O3  UNL     1     -11.950   8.223  44.621  1.00  0.00    -0.395 OA
ATOM     27  H3  UNL     1     -11.269   8.842  44.858  1.00  0.00     0.210 HD
ENDBRANCH   6  26
BRANCH   4  28
HETATM   28  C7  UNL     1     -16.110   6.754  43.668  1.00  0.00     0.242 C 
HETATM   29  N1  UNL     1     -16.434   5.389  43.393  1.00  0.00    -0.061 NA
HETATM   30  O2  UNL     1     -16.811   7.680  43.217  1.00  0.00    -0.276 OA
ENDBRANCH   4  28
TORSDOF 6
ENDMDL
MODEL 5
REMARK VINA RESULT: -5.258436872      2.145      3.814
REMARK  6 active torsions:
REMARK  status: ('A' for Active; 'I' for Inactive)
REMARK    1  A    between atoms: C2_2  and  C3_3 
REMARK    2  A    between atoms: C3_3  and  C4_4 
REMARK    3  A    between atoms: C6_7  and  C7_8 
REMARK    4  A    between atoms: C9_12  and  O3_13 
REMARK    5  A    between atoms: C15_20  and  C16_21 
REMARK    6  A    between atoms: C16_21  and  O4_24 
ROOT
HETATM    1  C4  UNL     1      -9.994  13.524  51.508  1.00  0.00     0.035 C 
HETATM    2  C5  UNL     1      -9.341  13.526  50.157  1.00  0.00     0.149 C 
HETATM    3  O1  UNL     1      -8.496  14.353  49.854  1.00  0.00    -0.296 OA
HETATM    4  C6  UNL     1      -9.802  12.450  49.236  1.00  0.00     0.147 C 
HETATM    5  C8  UNL     1      -9.610  11.123  49.886  1.00  0.00     0.053 C 
HETATM    6  C9  UNL     1     -10.060  11.020  51.290  1.00  0.00     0.125 C 
HETATM    7  C10 UNL     1      -9.923  12.189  52.150  1.00  0.00     0.039 C 
HETATM    8  C11 UNL     1      -8.546  12.568  52.637  1.00  0.00     0.028 C 
HETATM    9  C12 UNL     1      -8.194  12.175  53.997  1.00  0.00    -0.070 C 
HETATM   10  C13 UNL     1      -8.163  11.042  54.662  1.00  0.00    -0.022 C 
HETATM   11  C14 UNL     1      -7.711  11.263  56.062  1.00  0.00     0.036 C 
HETATM   12  C15 UNL     1      -7.165  12.634  56.041  1.00  0.00     0.035 C 
HETATM   13  C19 UNL     1      -7.756  13.321  54.891  1.00  0.00    -0.014 C 
HETATM   14  C20 UNL     1      -6.694  14.145  54.184  1.00  0.00     0.020 C 
HETATM   15  C21 UNL     1      -9.018  14.092  55.103  1.00  0.00     0.014 C 
HETATM   16  C22 UNL     1      -9.602  14.554  53.801  1.00  0.00     0.007 C 
HETATM   17  C23 UNL     1      -9.027  14.012  52.561  1.00  0.00     0.011 C 
ENDROOT
BRANCH  12  18
HETATM   18  C16 UNL     1      -7.107  13.342  57.348  1.00  0.00     0.055 C 
HETATM   19  C17 UNL     1      -6.244  12.460  58.278  1.00  0.00     0.045 C 
HETATM   20  C18 UNL     1      -8.364  13.599  58.068  1.00  0.00     0.045 C 
BRANCH  18  21
HETATM   21  O4  UNL     1      -6.390  14.524  57.185  1.00  0.00    -0.390 OA
ATOM     22  H4  UNL     1      -6.607  15.113  57.898  1.00  0.00     0.210 HD
ENDBRANCH  18  21
ENDBRANCH  12  18
BRANCH   1  23
HETATM   23  C3  UNL     1     -11.340  14.193  51.453  1.00  0.00     0.044 C 
BRANCH  23  24
HETATM   24  C2  UNL     1     -12.377  13.445  52.198  1.00  0.00    -0.036 C 
HETATM   25  C1  UNL     1     -13.565  13.240  51.693  1.00  0.00     0.007 C 
ENDBRANCH  23  24
ENDBRANCH   1  23
BRANCH   6  26
HETATM   26  O3  UNL     1     -11.412  10.606  51.295  1.00  0.00    -0.395 OA
ATOM     27  H3  UNL     1     -11.960  11.375  51.404  1.00  0.00     0.210 HD
ENDBRANCH   6  26
BRANCH   4  28
HETATM   28  C7  UNL     1      -8.994  12.474  47.974  1.00  0.00     0.242 C 
HETATM   29  N1  UNL     1      -7.818  11.660  47.968  1.00  0.00    -0.061 NA
HETATM   30  O2  UNL     1      -9.306  13.153  46.975  1.00  0.00    -0.276 OA
ENDBRANCH   4  28
TORSDOF 6
ENDMDL
