MODEL 1
REMARK VINA RESULT: -5.836145899      0.000      0.000
REMARK  6 active torsions:
REMARK  status: ('A' for Active; 'I' for Inactive)
REMARK    1  A    between atoms: C2_2  and  O1_5 
REMARK    2  A    between atoms: O1_5  and  C5_6 
REMARK       I    between atoms: C5_6  and  N1_8 
REMARK    3  A    between atoms: N1_8  and  C6_10 
REMARK    4  A    between atoms: C6_10  and  C7_11 
REMARK    5  A    between atoms: C6_10  and  C15_26 
REMARK       I    between atoms: C7_11  and  N2_13 
REMARK    6  A    between atoms: N2_13  and  C8_15 
ROOT
HETATM    1  C6  UNL     1     -16.795   3.326  46.851  1.00  0.00     0.183 C 
ENDROOT
BRANCH   1   2
HETATM    2  N1  UNL     1     -15.731   4.182  46.449  1.00  0.00    -0.323 N 
HETATM    3  C5  UNL     1     -15.967   5.565  46.250  1.00  0.00     0.362 C 
HETATM    4  O2  UNL     1     -17.128   6.072  46.425  1.00  0.00    -0.238 OA
ATOM      5  H1  UNL     1     -14.797   3.798  46.305  1.00  0.00     0.165 HD
BRANCH   3   6
HETATM    6  O1  UNL     1     -14.974   6.451  45.859  1.00  0.00    -0.294 OA
BRANCH   6   7
HETATM    7  C2  UNL     1     -14.098   7.005  46.821  1.00  0.00     0.061 C 
HETATM    8  C1  UNL     1     -12.678   7.083  46.250  1.00  0.00     0.046 C 
HETATM    9  C3  UNL     1     -14.083   6.216  48.089  1.00  0.00     0.046 C 
HETATM   10  C4  UNL     1     -14.559   8.417  47.119  1.00  0.00     0.046 C 
ENDBRANCH   6   7
ENDBRANCH   3   6
ENDBRANCH   1   2
BRANCH   1  11
HETATM   11  C7  UNL     1     -17.545   2.750  45.713  1.00  0.00     0.241 C 
HETATM   12  O3  UNL     1     -18.580   3.372  45.340  1.00  0.00    -0.271 OA
HETATM   13  N2  UNL     1     -17.112   1.558  45.083  1.00  0.00    -0.340 N 
ATOM     14  H2  UNL     1     -16.271   1.091  45.422  1.00  0.00     0.163 HD
BRANCH  13  15
HETATM   15  C8  UNL     1     -17.851   0.978  43.950  1.00  0.00     0.246 C 
HETATM   16  C9  UNL     1     -18.060  -0.483  44.206  1.00  0.00     0.158 C 
HETATM   17  O4  UNL     1     -18.223  -0.627  45.422  1.00  0.00    -0.295 OA
HETATM   18  C10 UNL     1     -18.137  -1.773  43.535  1.00  0.00     0.081 C 
HETATM   19  C11 UNL     1     -17.183  -1.954  42.385  1.00  0.00     0.009 C 
HETATM   20  C12 UNL     1     -15.749  -2.058  42.825  1.00  0.00     0.020 C 
HETATM   21  C13 UNL     1     -15.050  -0.751  42.957  1.00  0.00     0.122 C 
HETATM   22  N3  UNL     1     -15.795   0.351  42.369  1.00  0.00    -0.359 N 
HETATM   23  C14 UNL     1     -16.944   1.098  42.778  1.00  0.00     0.247 C 
ATOM     24  H3  UNL     1     -15.417   0.658  41.473  1.00  0.00     0.162 HD
HETATM   25  O5  UNL     1     -17.232   2.033  41.986  1.00  0.00    -0.271 OA
ENDBRANCH  13  15
ENDBRANCH   1  11
BRANCH   1  26
HETATM   26  C15 UNL     1     -16.333   2.166  47.705  1.00  0.00     0.018 C 
HETATM   27  C16 UNL     1     -17.418   1.909  48.739  1.00  0.00     0.007 C 
HETATM   28  C17 UNL     1     -16.896   0.783  49.630  1.00  0.00     0.000 C 
HETATM   29  C18 UNL     1     -15.724   1.288  50.405  1.00  0.00     0.000 C 
HETATM   30  C19 UNL     1     -15.091   2.522  49.831  1.00  0.00     0.000 C 
HETATM   31  C20 UNL     1     -14.990   2.393  48.319  1.00  0.00     0.007 C 
ENDBRANCH   1  26
TORSDOF 6
ENDMDL
MODEL 2
REMARK VINA RESULT: -5.564433514      1.739      2.435
REMARK  6 active torsions:
REMARK  status: ('A' for Active; 'I' for Inactive)
REMARK    1  A    between atoms: C2_2  and  O1_5 
REMARK    2  A    between atoms: O1_5  and  C5_6 
REMARK       I    between atoms: C5_6  and  N1_8 
REMARK    3  A    between atoms: N1_8  and  C6_10 
REMARK    4  A    between atoms: C6_10  and  C7_11 
REMARK    5  A    between atoms: C6_10  and  C15_26 
REMARK       I    between atoms: C7_11  and  N2_13 
REMARK    6  A    between atoms: N2_13  and  C8_15 
ROOT
HETATM    1  C6  UNL     1     -16.775   3.406  46.801  1.00  0.00     0.183 C 
ENDROOT
BRANCH   1   2
HETATM    2  N1  UNL     1     -15.728   4.317  46.486  1.00  0.00    -0.323 N 
HETATM    3  C5  UNL     1     -16.018   5.688  46.271  1.00  0.00     0.362 C 
HETATM    4  O2  UNL     1     -17.214   6.134  46.355  1.00  0.00    -0.238 OA
ATOM      5  H1  UNL     1     -14.767   3.983  46.416  1.00  0.00     0.165 HD
BRANCH   3   6
HETATM    6  O1  UNL     1     -15.044   6.626  45.962  1.00  0.00    -0.294 OA
BRANCH   6   7
HETATM    7  C2  UNL     1     -14.210   7.145  46.978  1.00  0.00     0.061 C 
HETATM    8  C1  UNL     1     -12.797   7.372  46.429  1.00  0.00     0.046 C 
HETATM    9  C3  UNL     1     -14.144   6.243  48.167  1.00  0.00     0.046 C 
HETATM   10  C4  UNL     1     -14.766   8.489  47.404  1.00  0.00     0.046 C 
ENDBRANCH   6   7
ENDBRANCH   3   6
ENDBRANCH   1   2
BRANCH   1  11
HETATM   11  C7  UNL     1     -17.436   2.838  45.606  1.00  0.00     0.241 C 
HETATM   12  O3  UNL     1     -18.662   2.551  45.715  1.00  0.00    -0.271 OA
HETATM   13  N2  UNL     1     -16.717   2.631  44.404  1.00  0.00    -0.340 N 
ATOM     14  H2  UNL     1     -15.727   2.877  44.366  1.00  0.00     0.163 HD
BRANCH  13  15
HETATM   15  C8  UNL     1     -17.366   2.068  43.209  1.00  0.00     0.246 C 
HETATM   16  C9  UNL     1     -16.334   1.358  42.388  1.00  0.00     0.158 C 
HETATM   17  O4  UNL     1     -15.522   0.851  43.168  1.00  0.00    -0.295 OA
HETATM   18  C10 UNL     1     -15.958   1.062  41.012  1.00  0.00     0.081 C 
HETATM   19  C11 UNL     1     -16.198   2.177  40.028  1.00  0.00     0.009 C 
HETATM   20  C12 UNL     1     -15.271   3.343  40.228  1.00  0.00     0.020 C 
HETATM   21  C13 UNL     1     -15.756   4.353  41.208  1.00  0.00     0.122 C 
HETATM   22  N3  UNL     1     -17.151   4.164  41.573  1.00  0.00    -0.359 N 
HETATM   23  C14 UNL     1     -17.836   3.237  42.420  1.00  0.00     0.247 C 
ATOM     24  H3  UNL     1     -17.776   4.836  41.128  1.00  0.00     0.162 HD
HETATM   25  O5  UNL     1     -19.070   3.467  42.507  1.00  0.00    -0.271 OA
ENDBRANCH  13  15
ENDBRANCH   1  11
BRANCH   1  26
HETATM   26  C15 UNL     1     -16.312   2.238  47.644  1.00  0.00     0.018 C 
HETATM   27  C16 UNL     1     -17.384   1.987  48.692  1.00  0.00     0.007 C 
HETATM   28  C17 UNL     1     -16.859   0.853  49.571  1.00  0.00     0.000 C 
HETATM   29  C18 UNL     1     -15.671   1.343  50.330  1.00  0.00     0.000 C 
HETATM   30  C19 UNL     1     -15.036   2.573  49.752  1.00  0.00     0.000 C 
HETATM   31  C20 UNL     1     -14.957   2.450  48.239  1.00  0.00     0.007 C 
ENDBRANCH   1  26
TORSDOF 6
ENDMDL
MODEL 3
REMARK VINA RESULT: -5.399278889      6.518     12.641
REMARK  6 active torsions:
REMARK  status: ('A' for Active; 'I' for Inactive)
REMARK    1  A    between atoms: C2_2  and  O1_5 
REMARK    2  A    between atoms: O1_5  and  C5_6 
REMARK       I    between atoms: C5_6  and  N1_8 
REMARK    3  A    between atoms: N1_8  and  C6_10 
REMARK    4  A    between atoms: C6_10  and  C7_11 
REMARK    5  A    between atoms: C6_10  and  C15_26 
REMARK       I    between atoms: C7_11  and  N2_13 
REMARK    6  A    between atoms: N2_13  and  C8_15 
ROOT
HETATM    1  C6  UNL     1     -11.981  10.560  48.071  1.00  0.00     0.183 C 
ENDROOT
BRANCH   1   2
HETATM    2  N1  UNL     1     -12.456   9.290  48.502  1.00  0.00    -0.323 N 
HETATM    3  C5  UNL     1     -13.653   8.755  47.964  1.00  0.00     0.362 C 
HETATM    4  O2  UNL     1     -14.328   9.395  47.085  1.00  0.00    -0.238 OA
ATOM      5  H1  UNL     1     -11.932   8.763  49.201  1.00  0.00     0.165 HD
BRANCH   3   6
HETATM    6  O1  UNL     1     -14.167   7.524  48.342  1.00  0.00    -0.294 OA
BRANCH   6   7
HETATM    7  C2  UNL     1     -14.008   6.400  47.501  1.00  0.00     0.061 C 
HETATM    8  C1  UNL     1     -13.845   5.133  48.348  1.00  0.00     0.046 C 
HETATM    9  C3  UNL     1     -12.836   6.542  46.586  1.00  0.00     0.046 C 
HETATM   10  C4  UNL     1     -15.269   6.248  46.674  1.00  0.00     0.046 C 
ENDBRANCH   6   7
ENDBRANCH   3   6
ENDBRANCH   1   2
BRANCH   1  11
HETATM   11  C7  UNL     1     -12.307  11.657  49.009  1.00  0.00     0.241 C 
HETATM   12  O3  UNL     1     -13.471  12.142  48.937  1.00  0.00    -0.271 OA
HETATM   13  N2  UNL     1     -11.348  12.129  49.938  1.00  0.00    -0.340 N 
ATOM     14  H2  UNL     1     -10.420  11.706  49.957  1.00  0.00     0.163 HD
BRANCH  13  15
HETATM   15  C8  UNL     1     -11.662  13.218  50.877  1.00  0.00     0.246 C 
HETATM   16  C9  UNL     1     -10.418  14.013  51.129  1.00  0.00     0.158 C 
HETATM   17  O4  UNL     1      -9.766  14.027  50.079  1.00  0.00    -0.295 OA
HETATM   18  C10 UNL     1      -9.716  14.762  52.162  1.00  0.00     0.081 C 
HETATM   19  C11 UNL     1      -9.814  14.185  53.549  1.00  0.00     0.009 C 
HETATM   20  C12 UNL     1      -9.051  12.898  53.702  1.00  0.00     0.020 C 
HETATM   21  C13 UNL     1      -9.825  11.679  53.341  1.00  0.00     0.122 C 
HETATM   22  N3  UNL     1     -11.247  11.938  53.180  1.00  0.00    -0.359 N 
HETATM   23  C14 UNL     1     -12.031  12.552  52.154  1.00  0.00     0.247 C 
ATOM     24  H3  UNL     1     -11.806  11.611  53.968  1.00  0.00     0.162 HD
HETATM   25  O5  UNL     1     -13.267  12.516  52.388  1.00  0.00    -0.271 OA
ENDBRANCH  13  15
ENDBRANCH   1  11
BRANCH   1  26
HETATM   26  C15 UNL     1     -10.485  10.594  47.857  1.00  0.00     0.018 C 
HETATM   27  C16 UNL     1     -10.233  11.346  46.559  1.00  0.00     0.007 C 
HETATM   28  C17 UNL     1      -8.722  11.304  46.331  1.00  0.00     0.000 C 
HETATM   29  C18 UNL     1      -8.318   9.893  46.055  1.00  0.00     0.000 C 
HETATM   30  C19 UNL     1      -9.320   8.867  46.497  1.00  0.00     0.000 C 
HETATM   31  C20 UNL     1      -9.863   9.235  47.868  1.00  0.00     0.007 C 
ENDBRANCH   1  26
TORSDOF 6
ENDMDL
MODEL 4
REMARK VINA RESULT: -5.372658777      3.008      4.623
REMARK  6 active torsions:
REMARK  status: ('A' for Active; 'I' for Inactive)
REMARK    1  A    between atoms: C2_2  and  O1_5 
REMARK    2  A    between atoms: O1_5  and  C5_6 
REMARK       I    between atoms: C5_6  and  N1_8 
REMARK    3  A    between atoms: N1_8  and  C6_10 
REMARK    4  A    between atoms: C6_10  and  C7_11 
REMARK    5  A    between atoms: C6_10  and  C15_26 
REMARK       I    between atoms: C7_11  and  N2_13 
REMARK    6  A    between atoms: N2_13  and  C8_15 
ROOT
HETATM    1  C6  UNL     1     -16.746   3.609  47.013  1.00  0.00     0.183 C 
ENDROOT
BRANCH   1   2
HETATM    2  N1  UNL     1     -15.644   4.343  46.492  1.00  0.00    -0.323 N 
HETATM    3  C5  UNL     1     -15.793   5.712  46.158  1.00  0.00     0.362 C 
HETATM    4  O2  UNL     1     -16.910   6.316  46.317  1.00  0.00    -0.238 OA
ATOM      5  H1  UNL     1     -14.744   3.881  46.358  1.00  0.00     0.165 HD
BRANCH   3   6
HETATM    6  O1  UNL     1     -14.758   6.481  45.647  1.00  0.00    -0.294 OA
BRANCH   6   7
HETATM    7  C2  UNL     1     -13.914   7.206  46.519  1.00  0.00     0.061 C 
HETATM    8  C1  UNL     1     -12.450   7.011  46.109  1.00  0.00     0.046 C 
HETATM    9  C3  UNL     1     -14.092   6.796  47.944  1.00  0.00     0.046 C 
HETATM   10  C4  UNL     1     -14.245   8.678  46.379  1.00  0.00     0.046 C 
ENDBRANCH   6   7
ENDBRANCH   3   6
ENDBRANCH   1   2
BRANCH   1  11
HETATM   11  C7  UNL     1     -17.732   3.220  45.981  1.00  0.00     0.241 C 
HETATM   12  O3  UNL     1     -17.480   2.173  45.319  1.00  0.00    -0.271 OA
HETATM   13  N2  UNL     1     -18.896   3.994  45.756  1.00  0.00    -0.340 N 
ATOM     14  H2  UNL     1     -19.053   4.833  46.315  1.00  0.00     0.163 HD
BRANCH  13  15
HETATM   15  C8  UNL     1     -19.883   3.615  44.732  1.00  0.00     0.246 C 
HETATM   16  C9  UNL     1     -20.235   4.828  43.927  1.00  0.00     0.158 C 
HETATM   17  O4  UNL     1     -19.217   5.522  43.836  1.00  0.00    -0.295 OA
HETATM   18  C10 UNL     1     -21.340   5.467  43.226  1.00  0.00     0.081 C 
HETATM   19  C11 UNL     1     -22.685   5.326  43.888  1.00  0.00     0.009 C 
HETATM   20  C12 UNL     1     -22.794   6.112  45.165  1.00  0.00     0.020 C 
HETATM   21  C13 UNL     1     -22.329   5.385  46.377  1.00  0.00     0.122 C 
HETATM   22  N3  UNL     1     -22.122   3.965  46.140  1.00  0.00    -0.359 N 
HETATM   23  C14 UNL     1     -21.101   3.209  45.482  1.00  0.00     0.247 C 
ATOM     24  H3  UNL     1     -22.864   3.381  46.526  1.00  0.00     0.162 HD
HETATM   25  O5  UNL     1     -21.279   1.966  45.559  1.00  0.00    -0.271 OA
ENDBRANCH  13  15
ENDBRANCH   1  11
BRANCH   1  26
HETATM   26  C15 UNL     1     -16.332   2.342  47.726  1.00  0.00     0.018 C 
HETATM   27  C16 UNL     1     -17.422   2.016  48.735  1.00  0.00     0.007 C 
HETATM   28  C17 UNL     1     -16.945   0.775  49.488  1.00  0.00     0.000 C 
HETATM   29  C18 UNL     1     -15.748   1.138  50.303  1.00  0.00     0.000 C 
HETATM   30  C19 UNL     1     -15.064   2.400  49.865  1.00  0.00     0.000 C 
HETATM   31  C20 UNL     1     -14.977   2.439  48.348  1.00  0.00     0.007 C 
ENDBRANCH   1  26
TORSDOF 6
ENDMDL
MODEL 5
REMARK VINA RESULT: -5.313888111     11.682     16.191
REMARK  6 active torsions:
REMARK  status: ('A' for Active; 'I' for Inactive)
REMARK    1  A    between atoms: C2_2  and  O1_5 
REMARK    2  A    between atoms: O1_5  and  C5_6 
REMARK       I    between atoms: C5_6  and  N1_8 
REMARK    3  A    between atoms: N1_8  and  C6_10 
REMARK    4  A    between atoms: C6_10  and  C7_11 
REMARK    5  A    between atoms: C6_10  and  C15_26 
REMARK       I    between atoms: C7_11  and  N2_13 
REMARK    6  A    between atoms: N2_13  and  C8_15 
ROOT
HETATM    1  C6  UNL     1      -9.748  12.331  52.536  1.00  0.00     0.183 C 
ENDROOT
BRANCH   1   2
HETATM    2  N1  UNL     1     -11.110  11.922  52.486  1.00  0.00    -0.323 N 
HETATM    3  C5  UNL     1     -12.145  12.890  52.477  1.00  0.00     0.362 C 
HETATM    4  O2  UNL     1     -11.883  14.141  52.513  1.00  0.00    -0.238 OA
ATOM      5  H1  UNL     1     -11.341  10.929  52.455  1.00  0.00     0.165 HD
BRANCH   3   6
HETATM    6  O1  UNL     1     -13.490  12.555  52.428  1.00  0.00    -0.294 OA
BRANCH   6   7
HETATM    7  C2  UNL     1     -14.195  12.624  51.205  1.00  0.00     0.061 C 
HETATM    8  C1  UNL     1     -14.925  11.301  50.947  1.00  0.00     0.046 C 
HETATM    9  C3  UNL     1     -13.294  12.930  50.053  1.00  0.00     0.046 C 
HETATM   10  C4  UNL     1     -15.239  13.716  51.324  1.00  0.00     0.046 C 
ENDBRANCH   6   7
ENDBRANCH   3   6
ENDBRANCH   1   2
BRANCH   1  11
HETATM   11  C7  UNL     1      -9.071  11.959  53.798  1.00  0.00     0.241 C 
HETATM   12  O3  UNL     1      -8.871  10.727  53.995  1.00  0.00    -0.271 OA
HETATM   13  N2  UNL     1      -8.673  12.947  54.731  1.00  0.00    -0.340 N 
ATOM     14  H2  UNL     1      -8.859  13.930  54.527  1.00  0.00     0.163 HD
BRANCH  13  15
HETATM   15  C8  UNL     1      -7.998  12.587  55.988  1.00  0.00     0.246 C 
HETATM   16  C9  UNL     1      -8.123  13.731  56.948  1.00  0.00     0.158 C 
HETATM   17  O4  UNL     1      -9.223  14.259  56.756  1.00  0.00    -0.295 OA
HETATM   18  C10 UNL     1      -7.412  14.428  58.011  1.00  0.00     0.081 C 
HETATM   19  C11 UNL     1      -5.926  14.557  57.810  1.00  0.00     0.009 C 
HETATM   20  C12 UNL     1      -5.567  15.500  56.696  1.00  0.00     0.020 C 
HETATM   21  C13 UNL     1      -5.506  14.868  55.350  1.00  0.00     0.122 C 
HETATM   22  N3  UNL     1      -5.530  13.415  55.406  1.00  0.00    -0.359 N 
HETATM   23  C14 UNL     1      -6.559  12.450  55.644  1.00  0.00     0.247 C 
ATOM     24  H3  UNL     1      -4.617  12.992  55.239  1.00  0.00     0.162 HD
HETATM   25  O5  UNL     1      -6.155  11.263  55.540  1.00  0.00    -0.271 OA
ENDBRANCH  13  15
ENDBRANCH   1  11
BRANCH   1  26
HETATM   26  C15 UNL     1      -8.915  11.766  51.407  1.00  0.00     0.018 C 
HETATM   27  C16 UNL     1      -8.196  12.934  50.751  1.00  0.00     0.007 C 
HETATM   28  C17 UNL     1      -7.421  12.346  49.573  1.00  0.00     0.000 C 
HETATM   29  C18 UNL     1      -8.395  11.857  48.552  1.00  0.00     0.000 C 
HETATM   30  C19 UNL     1      -9.783  11.641  49.080  1.00  0.00     0.000 C 
HETATM   31  C20 UNL     1      -9.718  10.961  50.437  1.00  0.00     0.007 C 
ENDBRANCH   1  26
TORSDOF 6
ENDMDL
