MODEL 1
REMARK VINA RESULT: -5.648886639      0.000      0.000
REMARK  7 active torsions:
REMARK  status: ('A' for Active; 'I' for Inactive)
REMARK    1  A    between atoms: C2_2  and  C4_4 
REMARK    2  A    between atoms: C4_4  and  N1_5 
REMARK    3  A    between atoms: C4_4  and  C7_12 
REMARK       I    between atoms: N1_5  and  C5_7 
REMARK    4  A    between atoms: C5_7  and  C6_9 
REMARK    5  A    between atoms: C6_9  and  O2_10 
REMARK    6  A    between atoms: C7_12  and  C8_18 
REMARK    7  A    between atoms: N2_13  and  N3_15 
ROOT
HETATM    1  C7  UNL     1     -12.781   9.781  47.492  1.00  0.00     0.031 C 
HETATM    2  N2  UNL     1     -12.983  10.327  46.373  1.00  0.00    -0.313 N 
ATOM      3  H2  UNL     1     -13.832   9.968  45.935  1.00  0.00     0.185 HD
ENDROOT
BRANCH   1   4
HETATM    4  C4  UNL     1     -11.632  10.124  48.315  1.00  0.00     0.135 C 
BRANCH   4   5
HETATM    5  C2  UNL     1     -11.713  10.302  49.770  1.00  0.00     0.006 C 
HETATM    6  C1  UNL     1     -10.464  10.637  50.480  1.00  0.00     0.012 C 
HETATM    7  C3  UNL     1     -12.837  11.217  50.230  1.00  0.00     0.012 C 
ENDBRANCH   4   5
BRANCH   4   8
HETATM    8  N1  UNL     1     -10.553   9.123  48.129  1.00  0.00    -0.349 N 
HETATM    9  C5  UNL     1      -9.642   9.299  47.085  1.00  0.00     0.241 C 
HETATM   10  O1  UNL     1      -9.708  10.293  46.285  1.00  0.00    -0.271 OA
ATOM     11  H1  UNL     1     -10.478   8.320  48.753  1.00  0.00     0.163 HD
BRANCH   9  12
HETATM   12  C6  UNL     1      -8.518   8.341  46.819  1.00  0.00     0.266 C 
BRANCH  12  13
HETATM   13  O2  UNL     1      -8.938   7.217  46.126  1.00  0.00    -0.392 OA
ATOM     14  H2  UNL     1      -8.421   7.061  45.345  1.00  0.00     0.210 HD
ENDBRANCH  12  13
ENDBRANCH   9  12
ENDBRANCH   4   8
ENDBRANCH   1   4
BRANCH   1  15
HETATM   15  C8  UNL     1     -13.824   8.778  47.902  1.00  0.00     0.044 C 
HETATM   16  C9  UNL     1     -15.142   9.051  47.128  1.00  0.00     0.017 C 
HETATM   17  C10 UNL     1     -14.925   7.806  46.356  1.00  0.00     0.000 C 
HETATM   18  C11 UNL     1     -16.049   6.796  46.412  1.00  0.00     0.002 C 
HETATM   19  C21 UNL     1     -13.796   7.446  47.266  1.00  0.00    -0.025 C 
HETATM   20  C12 UNL     1     -17.064   7.079  45.299  1.00  0.00     0.006 C 
HETATM   21  C18 UNL     1     -15.523   5.384  46.280  1.00  0.00     0.067 C 
HETATM   22  C13 UNL     1     -18.248   6.187  45.513  1.00  0.00     0.001 C 
HETATM   23  C14 UNL     1     -17.984   5.084  46.505  1.00  0.00     0.010 C 
HETATM   24  C15 UNL     1     -16.649   4.391  46.238  1.00  0.00    -0.037 C 
HETATM   25  C16 UNL     1     -16.521   3.286  47.244  1.00  0.00     0.015 C 
HETATM   26  C17 UNL     1     -16.760   3.761  44.866  1.00  0.00     0.015 C 
HETATM   27  C19 UNL     1     -14.571   5.158  47.380  1.00  0.00     0.133 C 
HETATM   28  O3  UNL     1     -14.027   4.127  47.656  1.00  0.00    -0.298 OA
HETATM   29  C20 UNL     1     -14.248   6.353  48.246  1.00  0.00     0.089 C 
HETATM   30  C22 UNL     1     -12.554   6.988  46.541  1.00  0.00     0.016 C 
ENDBRANCH   1  15
BRANCH   2  31
HETATM   31  N3  UNL     1     -12.395  11.245  45.602  1.00  0.00    -0.345 N 
ATOM     32  H32 UNL     1     -12.217  12.089  46.146  1.00  0.00     0.176 HD
ATOM     33  H31 UNL     1     -12.081  11.328  44.635  1.00  0.00     0.176 HD
ENDBRANCH   2  31
TORSDOF 7
ENDMDL
MODEL 2
REMARK VINA RESULT: -5.514291614      6.292     11.570
REMARK  7 active torsions:
REMARK  status: ('A' for Active; 'I' for Inactive)
REMARK    1  A    between atoms: C2_2  and  C4_4 
REMARK    2  A    between atoms: C4_4  and  N1_5 
REMARK    3  A    between atoms: C4_4  and  C7_12 
REMARK       I    between atoms: N1_5  and  C5_7 
REMARK    4  A    between atoms: C5_7  and  C6_9 
REMARK    5  A    between atoms: C6_9  and  O2_10 
REMARK    6  A    between atoms: C7_12  and  C8_18 
REMARK    7  A    between atoms: N2_13  and  N3_15 
ROOT
HETATM    1  C7  UNL     1     -10.232  13.956  52.384  1.00  0.00     0.031 C 
HETATM    2  N2  UNL     1     -11.317  14.318  52.915  1.00  0.00    -0.313 N 
ATOM      3  H2  UNL     1     -11.170  14.636  53.874  1.00  0.00     0.185 HD
ENDROOT
BRANCH   1   4
HETATM    4  C4  UNL     1     -10.175  13.462  51.017  1.00  0.00     0.135 C 
BRANCH   4   5
HETATM    5  C2  UNL     1      -8.932  13.395  50.240  1.00  0.00     0.006 C 
HETATM    6  C1  UNL     1      -8.190  12.119  50.260  1.00  0.00     0.012 C 
HETATM    7  C3  UNL     1      -9.053  13.905  48.813  1.00  0.00     0.012 C 
ENDBRANCH   4   5
BRANCH   4   8
HETATM    8  N1  UNL     1     -10.724  12.085  50.949  1.00  0.00    -0.349 N 
HETATM    9  C5  UNL     1     -11.945  11.876  50.305  1.00  0.00     0.241 C 
HETATM   10  O1  UNL     1     -12.606  12.832  49.774  1.00  0.00    -0.271 OA
ATOM     11  H1  UNL     1     -10.217  11.304  51.366  1.00  0.00     0.163 HD
BRANCH   9  12
HETATM   12  C6  UNL     1     -12.578  10.521  50.186  1.00  0.00     0.266 C 
BRANCH  12  13
HETATM   13  O2  UNL     1     -11.642   9.501  50.183  1.00  0.00    -0.392 OA
ATOM     14  H2  UNL     1     -11.693   8.965  49.400  1.00  0.00     0.210 HD
ENDBRANCH  12  13
ENDBRANCH   9  12
ENDBRANCH   4   8
ENDBRANCH   1   4
BRANCH   1  15
HETATM   15  C8  UNL     1      -9.020  14.098  53.264  1.00  0.00     0.044 C 
HETATM   16  C9  UNL     1      -9.388  14.923  54.528  1.00  0.00     0.017 C 
HETATM   17  C10 UNL     1      -9.257  13.695  55.345  1.00  0.00     0.000 C 
HETATM   18  C11 UNL     1      -8.280  13.776  56.497  1.00  0.00     0.002 C 
HETATM   19  C21 UNL     1      -8.682  12.979  54.166  1.00  0.00    -0.025 C 
HETATM   20  C12 UNL     1      -8.989  14.301  57.750  1.00  0.00     0.006 C 
HETATM   21  C18 UNL     1      -7.660  12.427  56.786  1.00  0.00     0.067 C 
HETATM   22  C13 UNL     1      -7.951  14.552  58.800  1.00  0.00     0.001 C 
HETATM   23  C14 UNL     1      -6.617  13.933  58.470  1.00  0.00     0.010 C 
HETATM   24  C15 UNL     1      -6.765  12.491  57.990  1.00  0.00    -0.037 C 
HETATM   25  C16 UNL     1      -5.382  11.966  57.747  1.00  0.00     0.015 C 
HETATM   26  C17 UNL     1      -7.362  11.714  59.145  1.00  0.00     0.015 C 
HETATM   27  C19 UNL     1      -6.978  11.978  55.560  1.00  0.00     0.133 C 
HETATM   28  O3  UNL     1      -6.295  11.001  55.437  1.00  0.00    -0.298 OA
HETATM   29  C20 UNL     1      -7.161  12.841  54.334  1.00  0.00     0.089 C 
HETATM   30  C22 UNL     1      -9.287  11.616  53.929  1.00  0.00     0.016 C 
ENDBRANCH   1  15
BRANCH   2  31
HETATM   31  N3  UNL     1     -12.605  14.402  52.571  1.00  0.00    -0.345 N 
ATOM     32  H32 UNL     1     -12.984  13.465  52.431  1.00  0.00     0.176 HD
ATOM     33  H31 UNL     1     -13.297  15.134  52.414  1.00  0.00     0.176 HD
ENDBRANCH   2  31
TORSDOF 7
ENDMDL
MODEL 3
REMARK VINA RESULT: -5.361568173      2.353      3.974
REMARK  7 active torsions:
REMARK  status: ('A' for Active; 'I' for Inactive)
REMARK    1  A    between atoms: C2_2  and  C4_4 
REMARK    2  A    between atoms: C4_4  and  N1_5 
REMARK    3  A    between atoms: C4_4  and  C7_12 
REMARK       I    between atoms: N1_5  and  C5_7 
REMARK    4  A    between atoms: C5_7  and  C6_9 
REMARK    5  A    between atoms: C6_9  and  O2_10 
REMARK    6  A    between atoms: C7_12  and  C8_18 
REMARK    7  A    between atoms: N2_13  and  N3_15 
ROOT
HETATM    1  C7  UNL     1     -13.345   8.619  46.144  1.00  0.00     0.031 C 
HETATM    2  N2  UNL     1     -13.617   9.474  45.258  1.00  0.00    -0.313 N 
ATOM      3  H2  UNL     1     -14.014   9.031  44.429  1.00  0.00     0.185 HD
ENDROOT
BRANCH   1   4
HETATM    4  C4  UNL     1     -12.767   8.999  47.424  1.00  0.00     0.135 C 
BRANCH   4   5
HETATM    5  C2  UNL     1     -11.429   9.585  47.556  1.00  0.00     0.006 C 
HETATM    6  C1  UNL     1     -10.967   9.915  48.918  1.00  0.00     0.012 C 
HETATM    7  C3  UNL     1     -10.338   8.842  46.802  1.00  0.00     0.012 C 
ENDBRANCH   4   5
BRANCH   4   8
HETATM    8  N1  UNL     1     -13.658   9.959  48.122  1.00  0.00    -0.349 N 
HETATM    9  C5  UNL     1     -14.323   9.546  49.278  1.00  0.00     0.241 C 
HETATM   10  O1  UNL     1     -14.191   8.368  49.754  1.00  0.00    -0.271 OA
ATOM     11  H1  UNL     1     -13.782  10.906  47.763  1.00  0.00     0.163 HD
BRANCH   9  12
HETATM   12  C6  UNL     1     -15.243  10.445  50.051  1.00  0.00     0.266 C 
BRANCH  12  13
HETATM   13  O2  UNL     1     -16.460  10.625  49.414  1.00  0.00    -0.392 OA
ATOM     14  H2  UNL     1     -16.529  10.113  48.617  1.00  0.00     0.210 HD
ENDBRANCH  12  13
ENDBRANCH   9  12
ENDBRANCH   4   8
ENDBRANCH   1   4
BRANCH   1  15
HETATM   15  C8  UNL     1     -13.683   7.200  45.778  1.00  0.00     0.044 C 
HETATM   16  C9  UNL     1     -13.178   6.241  46.891  1.00  0.00     0.017 C 
HETATM   17  C10 UNL     1     -14.584   5.979  47.277  1.00  0.00     0.000 C 
HETATM   18  C11 UNL     1     -15.007   4.527  47.263  1.00  0.00     0.002 C 
HETATM   19  C21 UNL     1     -15.048   6.715  46.063  1.00  0.00    -0.025 C 
HETATM   20  C12 UNL     1     -14.717   3.884  48.623  1.00  0.00     0.006 C 
HETATM   21  C18 UNL     1     -16.477   4.389  46.934  1.00  0.00     0.067 C 
HETATM   22  C13 UNL     1     -14.965   2.412  48.502  1.00  0.00     0.001 C 
HETATM   23  C14 UNL     1     -15.715   2.041  47.248  1.00  0.00     0.010 C 
HETATM   24  C15 UNL     1     -16.916   2.955  47.015  1.00  0.00    -0.037 C 
HETATM   25  C16 UNL     1     -17.609   2.461  45.781  1.00  0.00     0.015 C 
HETATM   26  C17 UNL     1     -17.848   2.744  48.189  1.00  0.00     0.015 C 
HETATM   27  C19 UNL     1     -16.698   5.004  45.614  1.00  0.00     0.133 C 
HETATM   28  O3  UNL     1     -17.716   5.000  44.983  1.00  0.00    -0.298 OA
HETATM   29  C20 UNL     1     -15.515   5.713  44.996  1.00  0.00     0.089 C 
HETATM   30  C22 UNL     1     -16.153   7.706  46.338  1.00  0.00     0.016 C 
ENDBRANCH   1  15
BRANCH   2  31
HETATM   31  N3  UNL     1     -13.530  10.797  45.103  1.00  0.00    -0.345 N 
ATOM     32  H32 UNL     1     -13.154  11.011  44.179  1.00  0.00     0.176 HD
ATOM     33  H31 UNL     1     -13.734  11.635  45.648  1.00  0.00     0.176 HD
ENDBRANCH   2  31
TORSDOF 7
ENDMDL
MODEL 4
REMARK VINA RESULT: -5.305725843      2.249      3.091
REMARK  7 active torsions:
REMARK  status: ('A' for Active; 'I' for Inactive)
REMARK    1  A    between atoms: C2_2  and  C4_4 
REMARK    2  A    between atoms: C4_4  and  N1_5 
REMARK    3  A    between atoms: C4_4  and  C7_12 
REMARK       I    between atoms: N1_5  and  C5_7 
REMARK    4  A    between atoms: C5_7  and  C6_9 
REMARK    5  A    between atoms: C6_9  and  O2_10 
REMARK    6  A    between atoms: C7_12  and  C8_18 
REMARK    7  A    between atoms: N2_13  and  N3_15 
ROOT
HETATM    1  C7  UNL     1     -13.226  10.696  48.048  1.00  0.00     0.031 C 
HETATM    2  N2  UNL     1     -13.683  11.551  47.241  1.00  0.00    -0.313 N 
ATOM      3  H2  UNL     1     -14.603  11.277  46.896  1.00  0.00     0.185 HD
ENDROOT
BRANCH   1   4
HETATM    4  C4  UNL     1     -11.926  10.857  48.681  1.00  0.00     0.135 C 
BRANCH   4   5
HETATM    5  C2  UNL     1     -10.679  11.007  47.924  1.00  0.00     0.006 C 
HETATM    6  C1  UNL     1      -9.976  12.301  48.027  1.00  0.00     0.012 C 
HETATM    7  C3  UNL     1      -9.693   9.863  48.100  1.00  0.00     0.012 C 
ENDBRANCH   4   5
BRANCH   4   8
HETATM    8  N1  UNL     1     -11.944  12.028  49.593  1.00  0.00    -0.349 N 
HETATM    9  C5  UNL     1     -11.780  11.818  50.964  1.00  0.00     0.241 C 
HETATM   10  O1  UNL     1     -11.618  10.652  51.459  1.00  0.00    -0.271 OA
ATOM     11  H1  UNL     1     -12.073  12.970  49.224  1.00  0.00     0.163 HD
BRANCH   9  12
HETATM   12  C6  UNL     1     -11.784  12.939  51.962  1.00  0.00     0.266 C 
BRANCH  12  13
HETATM   13  O2  UNL     1     -12.362  12.569  53.166  1.00  0.00    -0.392 OA
ATOM     14  H2  UNL     1     -12.646  13.319  53.675  1.00  0.00     0.210 HD
ENDBRANCH  12  13
ENDBRANCH   9  12
ENDBRANCH   4   8
ENDBRANCH   1   4
BRANCH   1  15
HETATM   15  C8  UNL     1     -14.135   9.527  48.310  1.00  0.00     0.044 C 
HETATM   16  C9  UNL     1     -15.481   9.736  47.565  1.00  0.00     0.017 C 
HETATM   17  C10 UNL     1     -15.116   8.641  46.636  1.00  0.00     0.000 C 
HETATM   18  C11 UNL     1     -16.106   7.502  46.546  1.00  0.00     0.002 C 
HETATM   19  C21 UNL     1     -13.946   8.305  47.503  1.00  0.00    -0.025 C 
HETATM   20  C12 UNL     1     -17.154   7.804  45.469  1.00  0.00     0.006 C 
HETATM   21  C18 UNL     1     -15.411   6.196  46.232  1.00  0.00     0.067 C 
HETATM   22  C13 UNL     1     -18.218   6.753  45.550  1.00  0.00     0.001 C 
HETATM   23  C14 UNL     1     -17.814   5.568  46.389  1.00  0.00     0.010 C 
HETATM   24  C15 UNL     1     -16.406   5.086  46.047  1.00  0.00    -0.037 C 
HETATM   25  C16 UNL     1     -16.137   3.882  46.898  1.00  0.00     0.015 C 
HETATM   26  C17 UNL     1     -16.446   4.636  44.602  1.00  0.00     0.015 C 
HETATM   27  C19 UNL     1     -14.432   5.944  47.303  1.00  0.00     0.133 C 
HETATM   28  O3  UNL     1     -13.763   4.960  47.446  1.00  0.00    -0.298 OA
HETATM   29  C20 UNL     1     -14.254   7.044  48.324  1.00  0.00     0.089 C 
HETATM   30  C22 UNL     1     -12.660   8.104  46.737  1.00  0.00     0.016 C 
ENDBRANCH   1  15
BRANCH   2  31
HETATM   31  N3  UNL     1     -13.296  12.715  46.713  1.00  0.00    -0.345 N 
ATOM     32  H32 UNL     1     -12.460  13.049  47.192  1.00  0.00     0.176 HD
ATOM     33  H31 UNL     1     -13.605  13.348  45.975  1.00  0.00     0.176 HD
ENDBRANCH   2  31
TORSDOF 7
ENDMDL
MODEL 5
REMARK VINA RESULT: -5.303010477      5.442      8.273
REMARK  7 active torsions:
REMARK  status: ('A' for Active; 'I' for Inactive)
REMARK    1  A    between atoms: C2_2  and  C4_4 
REMARK    2  A    between atoms: C4_4  and  N1_5 
REMARK    3  A    between atoms: C4_4  and  C7_12 
REMARK       I    between atoms: N1_5  and  C5_7 
REMARK    4  A    between atoms: C5_7  and  C6_9 
REMARK    5  A    between atoms: C6_9  and  O2_10 
REMARK    6  A    between atoms: C7_12  and  C8_18 
REMARK    7  A    between atoms: N2_13  and  N3_15 
ROOT
HETATM    1  C7  UNL     1      -8.920  12.308  52.616  1.00  0.00     0.031 C 
HETATM    2  N2  UNL     1      -9.020  11.209  53.227  1.00  0.00    -0.313 N 
ATOM      3  H2  UNL     1      -9.670  10.582  52.752  1.00  0.00     0.185 HD
ENDROOT
BRANCH   1   4
HETATM    4  C4  UNL     1      -8.052  13.374  53.094  1.00  0.00     0.135 C 
BRANCH   4   5
HETATM    5  C2  UNL     1      -7.415  14.350  52.203  1.00  0.00     0.006 C 
HETATM    6  C1  UNL     1      -6.689  13.822  51.032  1.00  0.00     0.012 C 
HETATM    7  C3  UNL     1      -8.316  15.500  51.783  1.00  0.00     0.012 C 
ENDBRANCH   4   5
BRANCH   4   8
HETATM    8  N1  UNL     1      -8.766  14.204  54.095  1.00  0.00    -0.349 N 
HETATM    9  C5  UNL     1      -8.600  13.919  55.452  1.00  0.00     0.241 C 
HETATM   10  O1  UNL     1      -7.853  12.965  55.860  1.00  0.00    -0.271 OA
ATOM     11  H1  UNL     1      -9.369  14.970  53.797  1.00  0.00     0.163 HD
BRANCH   9  12
HETATM   12  C6  UNL     1      -9.280  14.702  56.536  1.00  0.00     0.266 C 
BRANCH  12  13
HETATM   13  O2  UNL     1      -9.279  14.033  57.749  1.00  0.00    -0.392 OA
ATOM     14  H2  UNL     1      -9.999  14.300  58.309  1.00  0.00     0.210 HD
ENDBRANCH  12  13
ENDBRANCH   9  12
ENDBRANCH   4   8
ENDBRANCH   1   4
BRANCH   1  15
HETATM   15  C8  UNL     1      -9.743  12.411  51.362  1.00  0.00     0.044 C 
HETATM   16  C9  UNL     1     -10.049  10.988  50.822  1.00  0.00     0.017 C 
HETATM   17  C10 UNL     1     -11.468  11.167  51.206  1.00  0.00     0.000 C 
HETATM   18  C11 UNL     1     -12.475  10.989  50.092  1.00  0.00     0.002 C 
HETATM   19  C21 UNL     1     -11.200  12.607  51.502  1.00  0.00    -0.025 C 
HETATM   20  C12 UNL     1     -12.890   9.518  49.991  1.00  0.00     0.006 C 
HETATM   21  C18 UNL     1     -13.697  11.852  50.317  1.00  0.00     0.067 C 
HETATM   22  C13 UNL     1     -13.728   9.356  48.760  1.00  0.00     0.001 C 
HETATM   23  C14 UNL     1     -14.188  10.670  48.182  1.00  0.00     0.010 C 
HETATM   24  C15 UNL     1     -14.736  11.601  49.261  1.00  0.00    -0.037 C 
HETATM   25  C16 UNL     1     -15.209  12.843  48.568  1.00  0.00     0.015 C 
HETATM   26  C17 UNL     1     -15.945  10.908  49.851  1.00  0.00     0.015 C 
HETATM   27  C19 UNL     1     -13.247  13.252  50.388  1.00  0.00     0.133 C 
HETATM   28  O3  UNL     1     -13.942  14.225  50.461  1.00  0.00    -0.298 OA
HETATM   29  C20 UNL     1     -11.754  13.480  50.366  1.00  0.00     0.089 C 
HETATM   30  C22 UNL     1     -11.771  13.073  52.819  1.00  0.00     0.016 C 
ENDBRANCH   1  15
BRANCH   2  31
HETATM   31  N3  UNL     1      -8.514  10.639  54.323  1.00  0.00    -0.345 N 
ATOM     32  H32 UNL     1      -7.966  11.323  54.845  1.00  0.00     0.176 HD
ATOM     33  H31 UNL     1      -8.525   9.722  54.770  1.00  0.00     0.176 HD
ENDBRANCH   2  31
TORSDOF 7
ENDMDL
