MODEL 1
REMARK VINA RESULT: -5.999501031      0.000      0.000
REMARK  2 active torsions:
REMARK  status: ('A' for Active; 'I' for Inactive)
REMARK    1  A    between atoms: C2_2  and  O1_4 
REMARK    2  A    between atoms: O1_4  and  C4_5 
ROOT
HETATM    1  C4  UNL     1      43.765  35.979  84.856  1.00  0.00     0.128 C 
HETATM    2  C5  UNL     1      42.740  36.445  83.809  1.00  0.00     0.039 C 
HETATM    3  C6  UNL     1      41.510  35.877  84.397  1.00  0.00     0.020 C 
HETATM    4  C7  UNL     1      40.222  36.303  83.822  1.00  0.00     0.049 C 
HETATM    5  C8  UNL     1      39.144  35.702  84.688  1.00  0.00    -0.013 A 
HETATM    6  C9  UNL     1      37.895  35.490  84.162  1.00  0.00     0.099 A 
HETATM    7  N1  UNL     1      36.903  34.961  84.883  1.00  0.00    -0.350 N 
ATOM      8  H1  UNL     1      35.985  34.817  84.461  1.00  0.00     0.166 HD
HETATM    9  C10 UNL     1      37.116  34.619  86.168  1.00  0.00     0.140 A 
HETATM   10  N2  UNL     1      36.189  34.109  86.894  1.00  0.00    -0.383 N 
ATOM     11  H21 UNL     1      36.350  33.850  87.867  1.00  0.00     0.157 HD
ATOM     12  H22 UNL     1      35.271  33.963  86.474  1.00  0.00     0.157 HD
HETATM   13  C11 UNL     1      38.358  34.817  86.737  1.00  0.00     0.186 A 
HETATM   14  F1  UNL     1      38.607  34.480  88.039  1.00  0.00    -0.200 F 
HETATM   15  C12 UNL     1      39.384  35.361  85.996  1.00  0.00     0.079 A 
HETATM   16  N3  UNL     1      40.687  35.567  86.597  1.00  0.00    -0.377 N 
ATOM     17  H3  UNL     1      40.947  35.157  87.493  1.00  0.00     0.160 HD
HETATM   18  C13 UNL     1      41.584  36.392  85.836  1.00  0.00     0.036 C 
HETATM   19  C14 UNL     1      41.127  37.816  85.947  1.00  0.00     0.039 C 
HETATM   20  C15 UNL     1      43.023  36.214  86.157  1.00  0.00     0.038 C 
HETATM   21  C16 UNL     1      43.636  37.483  86.763  1.00  0.00     0.015 C 
ENDROOT
BRANCH   1  22
HETATM   22  O1  UNL     1      43.954  34.604  84.752  1.00  0.00    -0.381 OA
BRANCH  22  23
HETATM   23  C2  UNL     1      45.167  34.248  84.219  1.00  0.00     0.113 C 
HETATM   24  C1  UNL     1      46.270  35.194  84.707  1.00  0.00     0.039 C 
HETATM   25  C3  UNL     1      45.527  32.869  84.733  1.00  0.00     0.039 C 
ENDBRANCH  22  23
ENDBRANCH   1  22
TORSDOF 2
ENDMDL
MODEL 2
REMARK VINA RESULT: -5.905296205      3.001      6.404
REMARK  2 active torsions:
REMARK  status: ('A' for Active; 'I' for Inactive)
REMARK    1  A    between atoms: C2_2  and  O1_4 
REMARK    2  A    between atoms: O1_4  and  C4_5 
ROOT
HETATM    1  C4  UNL     1      38.639  35.966  87.156  1.00  0.00     0.128 C 
HETATM    2  C5  UNL     1      39.606  37.127  87.442  1.00  0.00     0.039 C 
HETATM    3  C6  UNL     1      40.890  36.457  87.155  1.00  0.00     0.020 C 
HETATM    4  C7  UNL     1      42.094  37.302  87.071  1.00  0.00     0.049 C 
HETATM    5  C8  UNL     1      43.221  36.403  86.628  1.00  0.00    -0.013 A 
HETATM    6  C9  UNL     1      44.515  36.744  86.928  1.00  0.00     0.099 A 
HETATM    7  N1  UNL     1      45.551  35.986  86.561  1.00  0.00    -0.350 N 
ATOM      8  H1  UNL     1      46.502  36.268  86.801  1.00  0.00     0.166 HD
HETATM    9  C10 UNL     1      45.340  34.847  85.873  1.00  0.00     0.140 A 
HETATM   10  N2  UNL     1      46.308  34.092  85.502  1.00  0.00    -0.383 N 
ATOM     11  H21 UNL     1      46.147  33.229  84.981  1.00  0.00     0.157 HD
ATOM     12  H22 UNL     1      47.259  34.372  85.741  1.00  0.00     0.157 HD
HETATM   13  C11 UNL     1      44.052  34.468  85.549  1.00  0.00     0.186 A 
HETATM   14  F1  UNL     1      43.803  33.319  84.851  1.00  0.00    -0.200 F 
HETATM   15  C12 UNL     1      42.982  35.247  85.927  1.00  0.00     0.079 A 
HETATM   16  N3  UNL     1      41.631  34.846  85.584  1.00  0.00    -0.377 N 
ATOM     17  H3  UNL     1      41.409  33.914  85.236  1.00  0.00     0.160 HD
HETATM   18  C13 UNL     1      40.629  35.858  85.771  1.00  0.00     0.036 C 
HETATM   19  C14 UNL     1      40.777  36.877  84.681  1.00  0.00     0.039 C 
HETATM   20  C15 UNL     1      39.242  35.348  85.908  1.00  0.00     0.038 C 
HETATM   21  C16 UNL     1      38.347  35.799  84.747  1.00  0.00     0.015 C 
ENDROOT
BRANCH   1  22
HETATM   22  O1  UNL     1      38.743  35.008  88.161  1.00  0.00    -0.381 OA
BRANCH  22  23
HETATM   23  C2  UNL     1      37.869  35.196  89.201  1.00  0.00     0.113 C 
HETATM   24  C1  UNL     1      36.529  34.509  88.912  1.00  0.00     0.039 C 
HETATM   25  C3  UNL     1      38.439  34.522  90.431  1.00  0.00     0.039 C 
ENDBRANCH  22  23
ENDBRANCH   1  22
TORSDOF 2
ENDMDL
MODEL 3
REMARK VINA RESULT: -5.837520231      2.986      6.364
REMARK  2 active torsions:
REMARK  status: ('A' for Active; 'I' for Inactive)
REMARK    1  A    between atoms: C2_2  and  O1_4 
REMARK    2  A    between atoms: O1_4  and  C4_5 
ROOT
HETATM    1  C4  UNL     1      38.859  36.253  85.657  1.00  0.00     0.128 C 
HETATM    2  C5  UNL     1      39.779  36.926  86.688  1.00  0.00     0.039 C 
HETATM    3  C6  UNL     1      41.071  36.325  86.298  1.00  0.00     0.020 C 
HETATM    4  C7  UNL     1      42.293  36.894  86.892  1.00  0.00     0.049 C 
HETATM    5  C8  UNL     1      43.457  36.208  86.221  1.00  0.00    -0.013 A 
HETATM    6  C9  UNL     1      44.665  36.139  86.869  1.00  0.00     0.099 A 
HETATM    7  N1  UNL     1      45.728  35.545  86.322  1.00  0.00    -0.350 N 
ATOM      8  H1  UNL     1      46.612  35.510  86.831  1.00  0.00     0.166 HD
HETATM    9  C10 UNL     1      45.633  34.991  85.098  1.00  0.00     0.140 A 
HETATM   10  N2  UNL     1      46.632  34.412  84.539  1.00  0.00    -0.383 N 
ATOM     11  H21 UNL     1      46.559  33.991  83.612  1.00  0.00     0.157 HD
ATOM     12  H22 UNL     1      47.516  34.376  85.046  1.00  0.00     0.157 HD
HETATM   13  C11 UNL     1      44.436  35.040  84.412  1.00  0.00     0.186 A 
HETATM   14  F1  UNL     1      44.306  34.487  83.168  1.00  0.00    -0.200 F 
HETATM   15  C12 UNL     1      43.337  35.651  84.972  1.00  0.00     0.079 A 
HETATM   16  N3  UNL     1      42.082  35.700  84.248  1.00  0.00    -0.377 N 
ATOM     17  H3  UNL     1      41.909  35.140  83.414  1.00  0.00     0.160 HD
HETATM   18  C13 UNL     1      41.100  36.597  84.792  1.00  0.00     0.036 C 
HETATM   19  C14 UNL     1      41.521  38.003  84.484  1.00  0.00     0.039 C 
HETATM   20  C15 UNL     1      39.699  36.308  84.395  1.00  0.00     0.038 C 
HETATM   21  C16 UNL     1      39.100  37.434  83.544  1.00  0.00     0.015 C 
ENDROOT
BRANCH   1  22
HETATM   22  O1  UNL     1      38.704  34.906  85.971  1.00  0.00    -0.381 OA
BRANCH  22  23
HETATM   23  C2  UNL     1      37.431  34.566  86.352  1.00  0.00     0.113 C 
HETATM   24  C1  UNL     1      37.265  34.713  87.869  1.00  0.00     0.039 C 
HETATM   25  C3  UNL     1      36.466  35.546  85.719  1.00  0.00     0.039 C 
ENDBRANCH  22  23
ENDBRANCH   1  22
TORSDOF 2
ENDMDL
MODEL 4
REMARK VINA RESULT: -5.829221476      3.590      4.617
REMARK  2 active torsions:
REMARK  status: ('A' for Active; 'I' for Inactive)
REMARK    1  A    between atoms: C2_2  and  O1_4 
REMARK    2  A    between atoms: O1_4  and  C4_5 
ROOT
HETATM    1  C4  UNL     1      41.359  35.494  86.094  1.00  0.00     0.128 C 
HETATM    2  C5  UNL     1      40.061  34.750  86.449  1.00  0.00     0.039 C 
HETATM    3  C6  UNL     1      39.938  35.130  87.871  1.00  0.00     0.020 C 
HETATM    4  C7  UNL     1      38.669  34.818  88.551  1.00  0.00     0.049 C 
HETATM    5  C8  UNL     1      38.753  35.437  89.924  1.00  0.00    -0.013 A 
HETATM    6  C9  UNL     1      37.990  34.925  90.943  1.00  0.00     0.099 A 
HETATM    7  N1  UNL     1      38.025  35.433  92.178  1.00  0.00    -0.350 N 
ATOM      8  H1  UNL     1      37.445  35.029  92.913  1.00  0.00     0.166 HD
HETATM    9  C10 UNL     1      38.827  36.480  92.451  1.00  0.00     0.140 A 
HETATM   10  N2  UNL     1      38.888  36.996  93.624  1.00  0.00    -0.383 N 
ATOM     11  H21 UNL     1      39.496  37.789  93.831  1.00  0.00     0.157 HD
ATOM     12  H22 UNL     1      38.309  36.594  94.360  1.00  0.00     0.157 HD
HETATM   13  C11 UNL     1      39.611  37.025  91.454  1.00  0.00     0.186 A 
HETATM   14  F1  UNL     1      40.436  38.088  91.698  1.00  0.00    -0.200 F 
HETATM   15  C12 UNL     1      39.578  36.504  90.180  1.00  0.00     0.079 A 
HETATM   16  N3  UNL     1      40.402  37.080  89.135  1.00  0.00    -0.377 N 
ATOM     17  H3  UNL     1      41.154  37.739  89.332  1.00  0.00     0.160 HD
HETATM   18  C13 UNL     1      40.082  36.652  87.801  1.00  0.00     0.036 C 
HETATM   19  C14 UNL     1      38.804  37.318  87.385  1.00  0.00     0.039 C 
HETATM   20  C15 UNL     1      41.175  36.818  86.811  1.00  0.00     0.038 C 
HETATM   21  C16 UNL     1      40.812  37.834  85.721  1.00  0.00     0.015 C 
ENDROOT
BRANCH   1  22
HETATM   22  O1  UNL     1      42.444  34.865  86.699  1.00  0.00    -0.381 OA
BRANCH  22  23
HETATM   23  C2  UNL     1      43.520  34.690  85.867  1.00  0.00     0.113 C 
HETATM   24  C1  UNL     1      43.176  35.131  84.439  1.00  0.00     0.039 C 
HETATM   25  C3  UNL     1      44.638  35.596  86.337  1.00  0.00     0.039 C 
ENDBRANCH  22  23
ENDBRANCH   1  22
TORSDOF 2
ENDMDL
MODEL 5
REMARK VINA RESULT: -5.751388627      4.592      6.703
REMARK  2 active torsions:
REMARK  status: ('A' for Active; 'I' for Inactive)
REMARK    1  A    between atoms: C2_2  and  O1_4 
REMARK    2  A    between atoms: O1_4  and  C4_5 
ROOT
HETATM    1  C4  UNL     1      45.555  40.430  89.692  1.00  0.00     0.128 C 
HETATM    2  C5  UNL     1      44.467  40.739  88.651  1.00  0.00     0.039 C 
HETATM    3  C6  UNL     1      44.556  39.515  87.828  1.00  0.00     0.020 C 
HETATM    4  C7  UNL     1      43.494  39.285  86.833  1.00  0.00     0.049 C 
HETATM    5  C8  UNL     1      43.740  37.918  86.248  1.00  0.00    -0.013 A 
HETATM    6  C9  UNL     1      43.262  37.622  84.997  1.00  0.00     0.099 A 
HETATM    7  N1  UNL     1      43.450  36.427  84.431  1.00  0.00    -0.350 N 
ATOM      8  H1  UNL     1      43.082  36.240  83.498  1.00  0.00     0.166 HD
HETATM    9  C10 UNL     1      44.129  35.470  85.092  1.00  0.00     0.140 A 
HETATM   10  N2  UNL     1      44.330  34.310  84.583  1.00  0.00    -0.383 N 
ATOM     11  H21 UNL     1      44.845  33.585  85.084  1.00  0.00     0.157 HD
ATOM     12  H22 UNL     1      43.963  34.121  83.651  1.00  0.00     0.157 HD
HETATM   13  C11 UNL     1      44.626  35.726  86.354  1.00  0.00     0.186 A 
HETATM   14  F1  UNL     1      45.319  34.776  87.053  1.00  0.00    -0.200 F 
HETATM   15  C12 UNL     1      44.435  36.957  86.941  1.00  0.00     0.079 A 
HETATM   16  N3  UNL     1      44.958  37.222  88.267  1.00  0.00    -0.377 N 
ATOM     17  H3  UNL     1      45.630  36.605  88.723  1.00  0.00     0.160 HD
HETATM   18  C13 UNL     1      44.462  38.417  88.891  1.00  0.00     0.036 C 
HETATM   19  C14 UNL     1      43.046  38.173  89.321  1.00  0.00     0.039 C 
HETATM   20  C15 UNL     1      45.316  38.959  89.976  1.00  0.00     0.038 C 
HETATM   21  C16 UNL     1      44.614  38.907  91.339  1.00  0.00     0.015 C 
ENDROOT
BRANCH   1  22
HETATM   22  O1  UNL     1      46.812  40.519  89.102  1.00  0.00    -0.381 OA
BRANCH  22  23
HETATM   23  C2  UNL     1      47.600  41.516  89.620  1.00  0.00     0.113 C 
HETATM   24  C1  UNL     1      48.770  40.922  90.413  1.00  0.00     0.039 C 
HETATM   25  C3  UNL     1      48.210  42.288  88.469  1.00  0.00     0.039 C 
ENDBRANCH  22  23
ENDBRANCH   1  22
TORSDOF 2
ENDMDL
