MODEL 1
REMARK VINA RESULT: -7.555071831      0.000      0.000
REMARK  6 active torsions:
REMARK  status: ('A' for Active; 'I' for Inactive)
REMARK    1  A    between atoms: C2_2  and  O1_3 
REMARK    2  A    between atoms: O1_3  and  C3_4 
REMARK       I    between atoms: C3_4  and  N1_6 
REMARK       I    between atoms: N1_6  and  C4_8 
REMARK       I    between atoms: C4_8  and  N4_20 
REMARK    3  A    between atoms: N2_9  and  C5_11 
REMARK    4  A    between atoms: C5_11  and  C6_15 
REMARK    5  A    between atoms: C6_15  and  C7_16 
REMARK    6  A    between atoms: N4_20  and  C9_22 
ROOT
HETATM    1  C3  UNL     1      46.187  33.151  84.913  1.00  0.00     0.379 C 
HETATM    2  O2  UNL     1      45.146  32.514  84.716  1.00  0.00    -0.238 OA
HETATM    3  N1  UNL     1      46.314  34.419  85.521  1.00  0.00    -0.135 N 
ATOM      4  H1  UNL     1      47.249  34.815  85.621  1.00  0.00     0.189 HD
HETATM    5  C4  UNL     1      45.189  35.190  86.012  1.00  0.00     0.684 C 
HETATM    6  N2  UNL     1      45.445  36.297  86.567  1.00  0.00    -0.181 N 
ATOM      7  H2  UNL     1      46.439  36.521  86.599  1.00  0.00     0.185 HD
HETATM    8  N4  UNL     1      43.868  34.715  85.855  1.00  0.00    -0.221 N 
ATOM      9  H4  UNL     1      43.430  34.193  86.614  1.00  0.00     0.178 HD
ENDROOT
BRANCH   6  10
HETATM   10  C5  UNL     1      44.636  37.263  87.137  1.00  0.00     0.094 C 
HETATM   11  N3  UNL     1      43.782  38.012  86.483  1.00  0.00    -0.388 N 
ATOM     12  H32 UNL     1      43.738  37.853  85.477  1.00  0.00     0.157 HD
ATOM     13  H31 UNL     1      43.185  38.725  86.904  1.00  0.00     0.157 HD
BRANCH  10  14
HETATM   14  C6  UNL     1      44.700  37.495  88.612  1.00  0.00     0.109 C 
BRANCH  14  15
HETATM   15  C7  UNL     1      45.454  38.767  88.804  1.00  0.00     0.055 C 
HETATM   16  C8  UNL     1      45.617  39.292  90.004  1.00  0.00     0.263 C 
HETATM   17  F1  UNL     1      45.089  38.659  91.074  1.00  0.00    -0.173 F 
HETATM   18  F2  UNL     1      46.300  40.445  90.174  1.00  0.00    -0.173 F 
ENDBRANCH  14  15
ENDBRANCH  10  14
ENDBRANCH   6  10
BRANCH   8  19
HETATM   19  C9  UNL     1      43.141  34.951  84.661  1.00  0.00     0.099 C 
HETATM   20  C10 UNL     1      41.878  35.761  84.893  1.00  0.00     0.026 C 
HETATM   21  C11 UNL     1      41.489  36.168  83.490  1.00  0.00     0.002 C 
HETATM   22  C12 UNL     1      42.710  36.046  82.644  1.00  0.00     0.002 C 
HETATM   23  C13 UNL     1      43.842  35.880  83.664  1.00  0.00     0.026 C 
ENDBRANCH   8  19
BRANCH   1  24
HETATM   24  O1  UNL     1      47.382  32.544  84.484  1.00  0.00    -0.304 OA
BRANCH  24  25
HETATM   25  C2  UNL     1      48.166  31.787  85.410  1.00  0.00     0.176 C 
HETATM   26  C1  UNL     1      49.598  31.746  84.996  1.00  0.00     0.034 C 
ENDBRANCH  24  25
ENDBRANCH   1  24
TORSDOF 6
ENDMDL
MODEL 2
REMARK VINA RESULT: -7.193382401      0.890      1.097
REMARK  6 active torsions:
REMARK  status: ('A' for Active; 'I' for Inactive)
REMARK    1  A    between atoms: C2_2  and  O1_3 
REMARK    2  A    between atoms: O1_3  and  C3_4 
REMARK       I    between atoms: C3_4  and  N1_6 
REMARK       I    between atoms: N1_6  and  C4_8 
REMARK       I    between atoms: C4_8  and  N4_20 
REMARK    3  A    between atoms: N2_9  and  C5_11 
REMARK    4  A    between atoms: C5_11  and  C6_15 
REMARK    5  A    between atoms: C6_15  and  C7_16 
REMARK    6  A    between atoms: N4_20  and  C9_22 
ROOT
HETATM    1  C3  UNL     1      46.198  33.087  84.926  1.00  0.00     0.379 C 
HETATM    2  O2  UNL     1      45.150  32.463  84.718  1.00  0.00    -0.238 OA
HETATM    3  N1  UNL     1      46.338  34.342  85.558  1.00  0.00    -0.135 N 
ATOM      4  H1  UNL     1      47.277  34.726  85.663  1.00  0.00     0.189 HD
HETATM    5  C4  UNL     1      45.221  35.114  86.064  1.00  0.00     0.684 C 
HETATM    6  N2  UNL     1      45.489  36.208  86.639  1.00  0.00    -0.181 N 
ATOM      7  H2  UNL     1      46.486  36.422  86.674  1.00  0.00     0.185 HD
HETATM    8  N4  UNL     1      43.895  34.656  85.900  1.00  0.00    -0.221 N 
ATOM      9  H4  UNL     1      43.453  34.124  86.649  1.00  0.00     0.178 HD
ENDROOT
BRANCH   6  10
HETATM   10  C5  UNL     1      44.691  37.171  87.228  1.00  0.00     0.094 C 
HETATM   11  N3  UNL     1      43.563  37.621  86.733  1.00  0.00    -0.388 N 
ATOM     12  H32 UNL     1      43.283  37.217  85.840  1.00  0.00     0.157 HD
ATOM     13  H31 UNL     1      42.974  38.332  87.168  1.00  0.00     0.157 HD
BRANCH  10  14
HETATM   14  C6  UNL     1      45.101  37.763  88.538  1.00  0.00     0.109 C 
BRANCH  14  15
HETATM   15  C7  UNL     1      43.863  38.329  89.148  1.00  0.00     0.055 C 
HETATM   16  C8  UNL     1      43.727  38.419  90.458  1.00  0.00     0.263 C 
HETATM   17  F1  UNL     1      44.730  37.990  91.253  1.00  0.00    -0.173 F 
HETATM   18  F2  UNL     1      42.604  38.930  91.008  1.00  0.00    -0.173 F 
ENDBRANCH  14  15
ENDBRANCH  10  14
ENDBRANCH   6  10
BRANCH   8  19
HETATM   19  C9  UNL     1      43.170  34.922  84.711  1.00  0.00     0.099 C 
HETATM   20  C10 UNL     1      41.877  35.675  84.969  1.00  0.00     0.026 C 
HETATM   21  C11 UNL     1      41.485  36.133  83.583  1.00  0.00     0.002 C 
HETATM   22  C12 UNL     1      42.716  36.092  82.743  1.00  0.00     0.002 C 
HETATM   23  C13 UNL     1      43.845  35.919  83.764  1.00  0.00     0.026 C 
ENDBRANCH   8  19
BRANCH   1  24
HETATM   24  O1  UNL     1      47.386  32.476  84.484  1.00  0.00    -0.304 OA
BRANCH  24  25
HETATM   25  C2  UNL     1      48.197  31.747  85.410  1.00  0.00     0.176 C 
HETATM   26  C1  UNL     1      49.616  31.693  84.956  1.00  0.00     0.034 C 
ENDBRANCH  24  25
ENDBRANCH   1  24
TORSDOF 6
ENDMDL
MODEL 3
REMARK VINA RESULT: -7.129910433      2.528      2.845
REMARK  6 active torsions:
REMARK  status: ('A' for Active; 'I' for Inactive)
REMARK    1  A    between atoms: C2_2  and  O1_3 
REMARK    2  A    between atoms: O1_3  and  C3_4 
REMARK       I    between atoms: C3_4  and  N1_6 
REMARK       I    between atoms: N1_6  and  C4_8 
REMARK       I    between atoms: C4_8  and  N4_20 
REMARK    3  A    between atoms: N2_9  and  C5_11 
REMARK    4  A    between atoms: C5_11  and  C6_15 
REMARK    5  A    between atoms: C6_15  and  C7_16 
REMARK    6  A    between atoms: N4_20  and  C9_22 
ROOT
HETATM    1  C3  UNL     1      46.103  33.487  85.082  1.00  0.00     0.379 C 
HETATM    2  O2  UNL     1      45.155  32.767  84.747  1.00  0.00    -0.238 OA
HETATM    3  N1  UNL     1      46.041  34.742  85.726  1.00  0.00    -0.135 N 
ATOM      4  H1  UNL     1      46.917  35.214  85.947  1.00  0.00     0.189 HD
HETATM    5  C4  UNL     1      44.800  35.396  86.092  1.00  0.00     0.684 C 
HETATM    6  N2  UNL     1      44.886  36.504  86.695  1.00  0.00    -0.181 N 
ATOM      7  H2  UNL     1      45.845  36.813  86.853  1.00  0.00     0.185 HD
HETATM    8  N4  UNL     1      43.556  34.813  85.765  1.00  0.00    -0.221 N 
ATOM      9  H4  UNL     1      43.079  34.231  86.455  1.00  0.00     0.178 HD
ENDROOT
BRANCH   6  10
HETATM   10  C5  UNL     1      43.931  37.377  87.181  1.00  0.00     0.094 C 
HETATM   11  N3  UNL     1      42.921  37.040  87.946  1.00  0.00    -0.388 N 
ATOM     12  H32 UNL     1      42.858  36.048  88.178  1.00  0.00     0.157 HD
ATOM     13  H31 UNL     1      42.216  37.684  88.306  1.00  0.00     0.157 HD
BRANCH  10  14
HETATM   14  C6  UNL     1      44.025  38.830  86.843  1.00  0.00     0.109 C 
BRANCH  14  15
HETATM   15  C7  UNL     1      42.726  39.198  86.210  1.00  0.00     0.055 C 
HETATM   16  C8  UNL     1      42.614  39.325  84.901  1.00  0.00     0.263 C 
HETATM   17  F1  UNL     1      43.701  39.116  84.127  1.00  0.00    -0.173 F 
HETATM   18  F2  UNL     1      41.436  39.660  84.332  1.00  0.00    -0.173 F 
ENDBRANCH  14  15
ENDBRANCH  10  14
ENDBRANCH   6  10
BRANCH   8  19
HETATM   19  C9  UNL     1      42.958  35.020  84.496  1.00  0.00     0.099 C 
HETATM   20  C10 UNL     1      41.675  35.828  84.577  1.00  0.00     0.026 C 
HETATM   21  C11 UNL     1      41.436  36.204  83.133  1.00  0.00     0.002 C 
HETATM   22  C12 UNL     1      42.740  36.071  82.423  1.00  0.00     0.002 C 
HETATM   23  C13 UNL     1      43.758  35.932  83.559  1.00  0.00     0.026 C 
ENDBRANCH   8  19
BRANCH   1  24
HETATM   24  O1  UNL     1      47.391  33.000  84.789  1.00  0.00    -0.304 OA
BRANCH  24  25
HETATM   25  C2  UNL     1      47.896  31.863  85.494  1.00  0.00     0.176 C 
HETATM   26  C1  UNL     1      49.312  31.583  85.118  1.00  0.00     0.034 C 
ENDBRANCH  24  25
ENDBRANCH   1  24
TORSDOF 6
ENDMDL
MODEL 4
REMARK VINA RESULT: -6.835192970      1.999      2.263
REMARK  6 active torsions:
REMARK  status: ('A' for Active; 'I' for Inactive)
REMARK    1  A    between atoms: C2_2  and  O1_3 
REMARK    2  A    between atoms: O1_3  and  C3_4 
REMARK       I    between atoms: C3_4  and  N1_6 
REMARK       I    between atoms: N1_6  and  C4_8 
REMARK       I    between atoms: C4_8  and  N4_20 
REMARK    3  A    between atoms: N2_9  and  C5_11 
REMARK    4  A    between atoms: C5_11  and  C6_15 
REMARK    5  A    between atoms: C6_15  and  C7_16 
REMARK    6  A    between atoms: N4_20  and  C9_22 
ROOT
HETATM    1  C3  UNL     1      46.117  33.260  84.928  1.00  0.00     0.379 C 
HETATM    2  O2  UNL     1      45.099  32.593  84.710  1.00  0.00    -0.238 OA
HETATM    3  N1  UNL     1      46.195  34.531  85.538  1.00  0.00    -0.135 N 
ATOM      4  H1  UNL     1      47.116  34.953  85.656  1.00  0.00     0.189 HD
HETATM    5  C4  UNL     1      45.039  35.270  86.005  1.00  0.00     0.684 C 
HETATM    6  N2  UNL     1      45.251  36.384  86.563  1.00  0.00    -0.181 N 
ATOM      7  H2  UNL     1      46.238  36.636  86.616  1.00  0.00     0.185 HD
HETATM    8  N4  UNL     1      43.735  34.757  85.821  1.00  0.00    -0.221 N 
ATOM      9  H4  UNL     1      43.297  34.223  86.572  1.00  0.00     0.178 HD
ENDROOT
BRANCH   6  10
HETATM   10  C5  UNL     1      44.404  37.326  87.116  1.00  0.00     0.094 C 
HETATM   11  N3  UNL     1      44.199  37.494  88.400  1.00  0.00    -0.388 N 
ATOM     12  H32 UNL     1      44.713  36.861  89.014  1.00  0.00     0.157 HD
ATOM     13  H31 UNL     1      43.574  38.189  88.809  1.00  0.00     0.157 HD
BRANCH  10  14
HETATM   14  C6  UNL     1      43.652  38.254  86.218  1.00  0.00     0.109 C 
BRANCH  14  15
HETATM   15  C7  UNL     1      43.922  39.632  86.718  1.00  0.00     0.055 C 
HETATM   16  C8  UNL     1      44.112  40.638  85.884  1.00  0.00     0.263 C 
HETATM   17  F1  UNL     1      44.059  40.406  84.554  1.00  0.00    -0.173 F 
HETATM   18  F2  UNL     1      44.358  41.885  86.340  1.00  0.00    -0.173 F 
ENDBRANCH  14  15
ENDBRANCH  10  14
ENDBRANCH   6  10
BRANCH   8  19
HETATM   19  C9  UNL     1      43.026  34.972  84.613  1.00  0.00     0.099 C 
HETATM   20  C10 UNL     1      41.746  35.762  84.815  1.00  0.00     0.026 C 
HETATM   21  C11 UNL     1      41.377  36.152  83.402  1.00  0.00     0.002 C 
HETATM   22  C12 UNL     1      42.614  36.043  82.580  1.00  0.00     0.002 C 
HETATM   23  C13 UNL     1      43.730  35.903  83.620  1.00  0.00     0.026 C 
ENDBRANCH   8  19
BRANCH   1  24
HETATM   24  O1  UNL     1      47.337  32.687  84.523  1.00  0.00    -0.304 OA
BRANCH  24  25
HETATM   25  C2  UNL     1      48.047  31.824  85.416  1.00  0.00     0.176 C 
HETATM   26  C1  UNL     1      49.463  31.651  84.985  1.00  0.00     0.034 C 
ENDBRANCH  24  25
ENDBRANCH   1  24
TORSDOF 6
ENDMDL
MODEL 5
REMARK VINA RESULT: -6.399661029      2.492      2.849
REMARK  6 active torsions:
REMARK  status: ('A' for Active; 'I' for Inactive)
REMARK    1  A    between atoms: C2_2  and  O1_3 
REMARK    2  A    between atoms: O1_3  and  C3_4 
REMARK       I    between atoms: C3_4  and  N1_6 
REMARK       I    between atoms: N1_6  and  C4_8 
REMARK       I    between atoms: C4_8  and  N4_20 
REMARK    3  A    between atoms: N2_9  and  C5_11 
REMARK    4  A    between atoms: C5_11  and  C6_15 
REMARK    5  A    between atoms: C6_15  and  C7_16 
REMARK    6  A    between atoms: N4_20  and  C9_22 
ROOT
HETATM    1  C3  UNL     1      46.039  33.686  85.263  1.00  0.00     0.379 C 
HETATM    2  O2  UNL     1      45.129  32.939  84.882  1.00  0.00    -0.238 OA
HETATM    3  N1  UNL     1      45.912  34.973  85.828  1.00  0.00    -0.135 N 
ATOM      4  H1  UNL     1      46.763  35.465  86.102  1.00  0.00     0.189 HD
HETATM    5  C4  UNL     1      44.640  35.634  86.041  1.00  0.00     0.684 C 
HETATM    6  N2  UNL     1      44.665  36.774  86.588  1.00  0.00    -0.181 N 
ATOM      7  H2  UNL     1      45.605  37.100  86.817  1.00  0.00     0.185 HD
HETATM    8  N4  UNL     1      43.434  35.022  85.634  1.00  0.00    -0.221 N 
ATOM      9  H4  UNL     1      42.898  34.474  86.307  1.00  0.00     0.178 HD
ENDROOT
BRANCH   6  10
HETATM   10  C5  UNL     1      43.666  37.663  86.936  1.00  0.00     0.094 C 
HETATM   11  N3  UNL     1      43.299  38.701  86.223  1.00  0.00    -0.388 N 
ATOM     12  H32 UNL     1      43.815  38.842  85.355  1.00  0.00     0.157 HD
ATOM     13  H31 UNL     1      42.562  39.358  86.480  1.00  0.00     0.157 HD
BRANCH  10  14
HETATM   14  C6  UNL     1      42.910  37.456  88.208  1.00  0.00     0.109 C 
BRANCH  14  15
HETATM   15  C7  UNL     1      41.499  37.847  87.926  1.00  0.00     0.055 C 
HETATM   16  C8  UNL     1      40.590  36.944  87.607  1.00  0.00     0.263 C 
HETATM   17  F1  UNL     1      40.952  35.644  87.539  1.00  0.00    -0.173 F 
HETATM   18  F2  UNL     1      39.313  37.301  87.351  1.00  0.00    -0.173 F 
ENDBRANCH  14  15
ENDBRANCH  10  14
ENDBRANCH   6  10
BRANCH   8  19
HETATM   19  C9  UNL     1      42.956  35.155  84.306  1.00  0.00     0.099 C 
HETATM   20  C10 UNL     1      41.679  35.971  84.221  1.00  0.00     0.026 C 
HETATM   21  C11 UNL     1      41.575  36.261  82.741  1.00  0.00     0.002 C 
HETATM   22  C12 UNL     1      42.936  36.079  82.162  1.00  0.00     0.002 C 
HETATM   23  C13 UNL     1      43.846  36.005  83.393  1.00  0.00     0.026 C 
ENDBRANCH   8  19
BRANCH   1  24
HETATM   24  O1  UNL     1      47.351  33.195  85.117  1.00  0.00    -0.304 OA
BRANCH  24  25
HETATM   25  C2  UNL     1      47.663  31.865  85.541  1.00  0.00     0.176 C 
HETATM   26  C1  UNL     1      49.082  31.523  85.238  1.00  0.00     0.034 C 
ENDBRANCH  24  25
ENDBRANCH   1  24
TORSDOF 6
ENDMDL
