MODEL 1
REMARK VINA RESULT: -6.547587349      0.000      0.000
REMARK  5 active torsions:
REMARK  status: ('A' for Active; 'I' for Inactive)
REMARK    1  A    between atoms: C9_12  and  C10_13 
REMARK    2  A    between atoms: C10_13  and  C11_14 
REMARK    3  A    between atoms: C11_14  and  O1_15 
REMARK    4  A    between atoms: C11_14  and  C12_17 
REMARK    5  A    between atoms: C12_17  and  O2_18 
ROOT
HETATM    1  C1  UNL     1      38.731  34.382  86.562  1.00  0.00     0.016 C 
HETATM    2  C2  UNL     1      39.432  35.735  86.432  1.00  0.00     0.033 C 
HETATM    3  C3  UNL     1      38.508  36.613  85.650  1.00  0.00     0.030 C 
HETATM    4  C4  UNL     1      38.474  36.201  84.175  1.00  0.00     0.087 C 
HETATM    5 CL1  UNL     1      37.138  37.109  83.434  1.00  0.00    -0.125 Cl
HETATM    6  C5  UNL     1      39.799  36.551  83.547  1.00  0.00     0.063 C 
HETATM    7  C6  UNL     1      40.879  35.921  84.364  1.00  0.00     0.002 A 
HETATM    8  C7  UNL     1      40.723  35.553  85.665  1.00  0.00     0.022 A 
HETATM    9  N1  UNL     1      41.909  35.025  86.073  1.00  0.00    -0.356 N 
ATOM     10  H1  UNL     1      42.102  34.659  87.006  1.00  0.00     0.166 HD
HETATM   11  C8  UNL     1      42.786  35.058  85.060  1.00  0.00     0.075 A 
HETATM   12  C9  UNL     1      44.087  34.759  84.629  1.00  0.00    -0.004 A 
HETATM   13  C13 UNL     1      44.188  35.151  83.312  1.00  0.00     0.152 A 
HETATM   14  O3  UNL     1      43.040  35.649  82.963  1.00  0.00    -0.319 OA
HETATM   15  C14 UNL     1      42.178  35.615  83.964  1.00  0.00     0.110 A 
ENDROOT
BRANCH  12  16
HETATM   16  C10 UNL     1      45.086  34.131  85.521  1.00  0.00     0.076 C 
BRANCH  16  17
HETATM   17  C11 UNL     1      46.324  33.802  84.724  1.00  0.00     0.146 C 
BRANCH  17  18
HETATM   18  O1  UNL     1      47.156  34.921  84.755  1.00  0.00    -0.393 OA
ATOM     19  H1  UNL     1      47.872  34.763  84.152  1.00  0.00     0.210 HD
ENDBRANCH  17  18
BRANCH  17  20
HETATM   20  C12 UNL     1      47.034  32.572  85.226  1.00  0.00     0.196 C 
BRANCH  20  21
HETATM   21  O2  UNL     1      47.023  32.588  86.607  1.00  0.00    -0.398 OA
ATOM     22  H2  UNL     1      47.913  32.472  86.919  1.00  0.00     0.209 HD
ENDBRANCH  20  21
ENDBRANCH  17  20
ENDBRANCH  16  17
ENDBRANCH  12  16
TORSDOF 5
ENDMDL
MODEL 2
REMARK VINA RESULT: -6.191724598      2.986      3.401
REMARK  5 active torsions:
REMARK  status: ('A' for Active; 'I' for Inactive)
REMARK    1  A    between atoms: C9_12  and  C10_13 
REMARK    2  A    between atoms: C10_13  and  C11_14 
REMARK    3  A    between atoms: C11_14  and  O1_15 
REMARK    4  A    between atoms: C11_14  and  C12_17 
REMARK    5  A    between atoms: C12_17  and  O2_18 
ROOT
HETATM    1  C1  UNL     1      42.941  37.861  88.508  1.00  0.00     0.016 C 
HETATM    2  C2  UNL     1      43.872  38.303  87.379  1.00  0.00     0.033 C 
HETATM    3  C3  UNL     1      43.104  39.295  86.566  1.00  0.00     0.030 C 
HETATM    4  C4  UNL     1      42.013  38.606  85.740  1.00  0.00     0.087 C 
HETATM    5 CL1  UNL     1      41.001  39.903  85.069  1.00  0.00    -0.125 Cl
HETATM    6  C5  UNL     1      42.672  37.796  84.654  1.00  0.00     0.063 C 
HETATM    7  C6  UNL     1      43.666  36.883  85.294  1.00  0.00     0.002 A 
HETATM    8  C7  UNL     1      44.213  37.105  86.520  1.00  0.00     0.022 A 
HETATM    9  N1  UNL     1      45.068  36.075  86.765  1.00  0.00    -0.356 N 
ATOM     10  H1  UNL     1      45.629  35.963  87.610  1.00  0.00     0.166 HD
HETATM   11  C8  UNL     1      45.058  35.229  85.726  1.00  0.00     0.075 A 
HETATM   12  C9  UNL     1      45.567  34.040  85.181  1.00  0.00    -0.004 A 
HETATM   13  C13 UNL     1      44.981  33.865  83.947  1.00  0.00     0.152 A 
HETATM   14  O3  UNL     1      44.178  34.867  83.751  1.00  0.00    -0.319 OA
HETATM   15  C14 UNL     1      44.188  35.699  84.776  1.00  0.00     0.110 A 
ENDROOT
BRANCH  12  16
HETATM   16  C10 UNL     1      46.552  33.203  85.901  1.00  0.00     0.076 C 
BRANCH  16  17
HETATM   17  C11 UNL     1      47.575  32.688  84.920  1.00  0.00     0.146 C 
BRANCH  17  18
HETATM   18  O1  UNL     1      48.398  33.758  84.567  1.00  0.00    -0.393 OA
ATOM     19  H1  UNL     1      49.260  33.407  84.381  1.00  0.00     0.210 HD
ENDBRANCH  17  18
BRANCH  17  20
HETATM   20  C12 UNL     1      48.375  31.531  85.460  1.00  0.00     0.196 C 
BRANCH  20  21
HETATM   21  O2  UNL     1      47.533  30.448  85.620  1.00  0.00    -0.398 OA
ATOM     22  H2  UNL     1      48.026  29.653  85.456  1.00  0.00     0.209 HD
ENDBRANCH  20  21
ENDBRANCH  17  20
ENDBRANCH  16  17
ENDBRANCH  12  16
TORSDOF 5
ENDMDL
MODEL 3
REMARK VINA RESULT: -6.169901486      3.102      4.132
REMARK  5 active torsions:
REMARK  status: ('A' for Active; 'I' for Inactive)
REMARK    1  A    between atoms: C9_12  and  C10_13 
REMARK    2  A    between atoms: C10_13  and  C11_14 
REMARK    3  A    between atoms: C11_14  and  O1_15 
REMARK    4  A    between atoms: C11_14  and  C12_17 
REMARK    5  A    between atoms: C12_17  and  O2_18 
ROOT
HETATM    1  C1  UNL     1      45.171  37.768  88.830  1.00  0.00     0.016 C 
HETATM    2  C2  UNL     1      44.761  38.000  87.375  1.00  0.00     0.033 C 
HETATM    3  C3  UNL     1      43.356  38.510  87.412  1.00  0.00     0.030 C 
HETATM    4  C4  UNL     1      42.373  37.393  87.778  1.00  0.00     0.087 C 
HETATM    5 CL1  UNL     1      40.810  38.182  88.078  1.00  0.00    -0.125 Cl
HETATM    6  C5  UNL     1      42.295  36.424  86.627  1.00  0.00     0.063 C 
HETATM    7  C6  UNL     1      43.683  35.977  86.302  1.00  0.00     0.002 A 
HETATM    8  C7  UNL     1      44.799  36.682  86.633  1.00  0.00     0.022 A 
HETATM    9  N1  UNL     1      45.867  35.973  86.176  1.00  0.00    -0.356 N 
ATOM     10  H1  UNL     1      46.844  36.249  86.274  1.00  0.00     0.166 HD
HETATM   11  C8  UNL     1      45.436  34.854  85.575  1.00  0.00     0.075 A 
HETATM   12  C9  UNL     1      45.794  33.678  84.899  1.00  0.00    -0.004 A 
HETATM   13  C13 UNL     1      44.631  33.007  84.591  1.00  0.00     0.152 A 
HETATM   14  O3  UNL     1      43.640  33.715  85.041  1.00  0.00    -0.319 OA
HETATM   15  C14 UNL     1      44.067  34.817  85.633  1.00  0.00     0.110 A 
ENDROOT
BRANCH  12  16
HETATM   16  C10 UNL     1      47.205  33.325  84.628  1.00  0.00     0.076 C 
BRANCH  16  17
HETATM   17  C11 UNL     1      47.633  32.232  85.575  1.00  0.00     0.146 C 
BRANCH  17  18
HETATM   18  O1  UNL     1      46.739  31.171  85.427  1.00  0.00    -0.393 OA
ATOM     19  H1  UNL     1      46.837  30.834  84.545  1.00  0.00     0.210 HD
ENDBRANCH  17  18
BRANCH  17  20
HETATM   20  C12 UNL     1      49.055  31.789  85.355  1.00  0.00     0.196 C 
BRANCH  20  21
HETATM   21  O2  UNL     1      49.886  32.883  85.504  1.00  0.00    -0.398 OA
ATOM     22  H2  UNL     1      49.964  33.081  86.429  1.00  0.00     0.209 HD
ENDBRANCH  20  21
ENDBRANCH  17  20
ENDBRANCH  16  17
ENDBRANCH  12  16
TORSDOF 5
ENDMDL
MODEL 4
REMARK VINA RESULT: -6.159870365      1.926      2.589
REMARK  5 active torsions:
REMARK  status: ('A' for Active; 'I' for Inactive)
REMARK    1  A    between atoms: C9_12  and  C10_13 
REMARK    2  A    between atoms: C10_13  and  C11_14 
REMARK    3  A    between atoms: C11_14  and  O1_15 
REMARK    4  A    between atoms: C11_14  and  C12_17 
REMARK    5  A    between atoms: C12_17  and  O2_18 
ROOT
HETATM    1  C1  UNL     1      40.052  36.705  83.144  1.00  0.00     0.016 C 
HETATM    2  C2  UNL     1      40.087  35.736  84.326  1.00  0.00     0.033 C 
HETATM    3  C3  UNL     1      39.091  36.247  85.317  1.00  0.00     0.030 C 
HETATM    4  C4  UNL     1      39.603  37.513  86.011  1.00  0.00     0.087 C 
HETATM    5 CL1  UNL     1      38.228  38.174  86.922  1.00  0.00    -0.125 Cl
HETATM    6  C5  UNL     1      40.743  37.135  86.921  1.00  0.00     0.063 C 
HETATM    7  C6  UNL     1      41.755  36.392  86.112  1.00  0.00     0.002 A 
HETATM    8  C7  UNL     1      41.468  35.757  84.944  1.00  0.00     0.022 A 
HETATM    9  N1  UNL     1      42.626  35.195  84.502  1.00  0.00    -0.356 N 
ATOM     10  H1  UNL     1      42.727  34.650  83.646  1.00  0.00     0.166 HD
HETATM   11  C8  UNL     1      43.613  35.469  85.366  1.00  0.00     0.075 A 
HETATM   12  C9  UNL     1      44.973  35.314  85.675  1.00  0.00    -0.004 A 
HETATM   13  C13 UNL     1      45.207  35.974  86.861  1.00  0.00     0.152 A 
HETATM   14  O3  UNL     1      44.081  36.492  87.248  1.00  0.00    -0.319 OA
HETATM   15  C14 UNL     1      43.109  36.221  86.395  1.00  0.00     0.110 A 
ENDROOT
BRANCH  12  16
HETATM   16  C10 UNL     1      45.897  34.556  84.802  1.00  0.00     0.076 C 
BRANCH  16  17
HETATM   17  C11 UNL     1      45.965  33.126  85.276  1.00  0.00     0.146 C 
BRANCH  17  18
HETATM   18  O1  UNL     1      45.014  32.398  84.561  1.00  0.00    -0.393 OA
ATOM     19  H1  UNL     1      44.221  32.919  84.526  1.00  0.00     0.210 HD
ENDBRANCH  17  18
BRANCH  17  20
HETATM   20  C12 UNL     1      47.340  32.527  85.135  1.00  0.00     0.196 C 
BRANCH  20  21
HETATM   21  O2  UNL     1      47.275  31.189  85.470  1.00  0.00    -0.398 OA
ATOM     22  H2  UNL     1      47.567  30.675  84.726  1.00  0.00     0.209 HD
ENDBRANCH  20  21
ENDBRANCH  17  20
ENDBRANCH  16  17
ENDBRANCH  12  16
TORSDOF 5
ENDMDL
MODEL 5
REMARK VINA RESULT: -6.053804805      1.739      1.867
REMARK  5 active torsions:
REMARK  status: ('A' for Active; 'I' for Inactive)
REMARK    1  A    between atoms: C9_12  and  C10_13 
REMARK    2  A    between atoms: C10_13  and  C11_14 
REMARK    3  A    between atoms: C11_14  and  O1_15 
REMARK    4  A    between atoms: C11_14  and  C12_17 
REMARK    5  A    between atoms: C12_17  and  O2_18 
ROOT
HETATM    1  C1  UNL     1      39.344  34.604  86.141  1.00  0.00     0.016 C 
HETATM    2  C2  UNL     1      40.430  35.357  86.911  1.00  0.00     0.033 C 
HETATM    3  C3  UNL     1      39.974  36.779  86.996  1.00  0.00     0.030 C 
HETATM    4  C4  UNL     1      40.094  37.478  85.638  1.00  0.00     0.087 C 
HETATM    5 CL1  UNL     1      39.255  39.036  85.804  1.00  0.00    -0.125 Cl
HETATM    6  C5  UNL     1      41.556  37.665  85.321  1.00  0.00     0.063 C 
HETATM    7  C6  UNL     1      42.225  36.333  85.418  1.00  0.00     0.002 A 
HETATM    8  C7  UNL     1      41.726  35.289  86.134  1.00  0.00     0.022 A 
HETATM    9  N1  UNL     1      42.601  34.257  85.992  1.00  0.00    -0.356 N 
ATOM     10  H1  UNL     1      42.498  33.334  86.416  1.00  0.00     0.166 HD
HETATM   11  C8  UNL     1      43.620  34.638  85.209  1.00  0.00     0.075 A 
HETATM   12  C9  UNL     1      44.829  34.269  84.600  1.00  0.00    -0.004 A 
HETATM   13  C13 UNL     1      45.286  35.358  83.891  1.00  0.00     0.152 A 
HETATM   14  O3  UNL     1      44.427  36.319  84.054  1.00  0.00    -0.319 OA
HETATM   15  C14 UNL     1      43.423  35.940  84.825  1.00  0.00     0.110 A 
ENDROOT
BRANCH  12  16
HETATM   16  C10 UNL     1      45.408  32.917  84.758  1.00  0.00     0.076 C 
BRANCH  16  17
HETATM   17  C11 UNL     1      46.704  33.021  85.523  1.00  0.00     0.146 C 
BRANCH  17  18
HETATM   18  O1  UNL     1      46.396  32.975  86.883  1.00  0.00    -0.393 OA
ATOM     19  H1  UNL     1      45.465  32.807  86.961  1.00  0.00     0.210 HD
ENDBRANCH  17  18
BRANCH  17  20
HETATM   20  C12 UNL     1      47.696  31.952  85.146  1.00  0.00     0.196 C 
BRANCH  20  21
HETATM   21  O2  UNL     1      47.195  30.727  85.540  1.00  0.00    -0.398 OA
ATOM     22  H2  UNL     1      46.248  30.746  85.460  1.00  0.00     0.209 HD
ENDBRANCH  20  21
ENDBRANCH  17  20
ENDBRANCH  16  17
ENDBRANCH  12  16
TORSDOF 5
ENDMDL
