MODEL 1
REMARK VINA RESULT: -6.219456654      0.000      0.000
REMARK  6 active torsions:
REMARK  status: ('A' for Active; 'I' for Inactive)
REMARK    1  A    between atoms: C2_2  and  C4_5 
REMARK    2  A    between atoms: C6_12  and  C7_13 
REMARK    3  A    between atoms: C8_14  and  C9_15 
REMARK    4  A    between atoms: C9_15  and  C10_16 
REMARK    5  A    between atoms: C10_16  and  C11_17 
REMARK    6  A    between atoms: C11_17  and  C12_18 
ROOT
HETATM    1  C4  UNL     1      41.186  36.199  85.505  1.00  0.00     0.070 A 
HETATM    2  N1  UNL     1      40.072  36.312  86.281  1.00  0.00    -0.332 N 
ATOM      3  H1  UNL     1      39.411  37.088  86.243  1.00  0.00     0.168 HD
HETATM    4  C5  UNL     1      39.971  35.254  87.106  1.00  0.00     0.177 A 
HETATM    5  S1  UNL     1      38.786  35.001  88.198  1.00  0.00    -0.040 SA
HETATM    6  N2  UNL     1      41.029  34.463  86.851  1.00  0.00    -0.324 N 
ATOM      7  H2  UNL     1      41.229  33.580  87.321  1.00  0.00     0.169 HD
HETATM    8  C6  UNL     1      41.788  35.019  85.875  1.00  0.00     0.113 A 
ENDROOT
BRANCH   8   9
HETATM    9  C7  UNL     1      43.002  34.505  85.304  1.00  0.00    -0.047 C 
HETATM   10  C8  UNL     1      44.047  34.087  84.819  1.00  0.00    -0.100 C 
BRANCH  10  11
HETATM   11  C9  UNL     1      45.294  33.569  84.257  1.00  0.00     0.095 C 
BRANCH  11  12
HETATM   12  C10 UNL     1      46.281  33.198  85.349  1.00  0.00     0.021 C 
BRANCH  12  13
HETATM   13  C11 UNL     1      47.646  32.914  84.806  1.00  0.00     0.100 C 
BRANCH  13  14
HETATM   14  C12 UNL     1      48.075  31.571  85.251  1.00  0.00     0.231 C 
HETATM   15  N3  UNL     1      49.452  31.239  85.379  1.00  0.00    -0.062 NA
HETATM   16  O1  UNL     1      47.205  30.711  85.519  1.00  0.00    -0.277 OA
ENDBRANCH  13  14
ENDBRANCH  12  13
ENDBRANCH  11  12
ENDBRANCH  10  11
ENDBRANCH   8   9
BRANCH   1  17
HETATM   17  C2  UNL     1      41.692  37.113  84.472  1.00  0.00     0.075 C 
HETATM   18  C1  UNL     1      40.622  38.201  84.289  1.00  0.00     0.039 C 
HETATM   19  C3  UNL     1      42.958  37.834  84.877  1.00  0.00     0.039 C 
HETATM   20 CL1  UNL     1      41.887  36.320  82.897  1.00  0.00    -0.113 Cl
ENDBRANCH   1  17
TORSDOF 6
ENDMDL
MODEL 2
REMARK VINA RESULT: -6.199190762      1.295      1.430
REMARK  6 active torsions:
REMARK  status: ('A' for Active; 'I' for Inactive)
REMARK    1  A    between atoms: C2_2  and  C4_5 
REMARK    2  A    between atoms: C6_12  and  C7_13 
REMARK    3  A    between atoms: C8_14  and  C9_15 
REMARK    4  A    between atoms: C9_15  and  C10_16 
REMARK    5  A    between atoms: C10_16  and  C11_17 
REMARK    6  A    between atoms: C11_17  and  C12_18 
ROOT
HETATM    1  C4  UNL     1      42.013  36.443  86.554  1.00  0.00     0.070 A 
HETATM    2  N1  UNL     1      40.792  36.527  87.151  1.00  0.00    -0.332 N 
ATOM      3  H1  UNL     1      40.406  37.371  87.575  1.00  0.00     0.168 HD
HETATM    4  C5  UNL     1      40.167  35.336  87.103  1.00  0.00     0.177 A 
HETATM    5  S1  UNL     1      38.687  35.005  87.704  1.00  0.00    -0.040 SA
HETATM    6  N2  UNL     1      40.999  34.489  86.470  1.00  0.00    -0.324 N 
ATOM      7  H2  UNL     1      40.804  33.506  86.280  1.00  0.00     0.169 HD
HETATM    8  C6  UNL     1      42.136  35.142  86.124  1.00  0.00     0.113 A 
ENDROOT
BRANCH   8   9
HETATM    9  C7  UNL     1      43.280  34.612  85.435  1.00  0.00    -0.047 C 
HETATM   10  C8  UNL     1      44.269  34.176  84.857  1.00  0.00    -0.100 C 
BRANCH  10  11
HETATM   11  C9  UNL     1      45.444  33.632  84.176  1.00  0.00     0.095 C 
BRANCH  11  12
HETATM   12  C10 UNL     1      46.367  32.922  85.148  1.00  0.00     0.021 C 
BRANCH  12  13
HETATM   13  C11 UNL     1      47.799  32.981  84.716  1.00  0.00     0.100 C 
BRANCH  13  14
HETATM   14  C12 UNL     1      48.486  31.744  85.145  1.00  0.00     0.231 C 
HETATM   15  N3  UNL     1      49.905  31.667  85.200  1.00  0.00    -0.062 NA
HETATM   16  O1  UNL     1      47.801  30.746  85.466  1.00  0.00    -0.277 OA
ENDBRANCH  13  14
ENDBRANCH  12  13
ENDBRANCH  11  12
ENDBRANCH  10  11
ENDBRANCH   8   9
BRANCH   1  17
HETATM   17  C2  UNL     1      43.031  37.486  86.376  1.00  0.00     0.075 C 
HETATM   18  C1  UNL     1      42.475  38.757  87.037  1.00  0.00     0.039 C 
HETATM   19  C3  UNL     1      44.333  37.181  87.083  1.00  0.00     0.039 C 
HETATM   20 CL1  UNL     1      43.312  37.881  84.669  1.00  0.00    -0.113 Cl
ENDBRANCH   1  17
TORSDOF 6
ENDMDL
MODEL 3
REMARK VINA RESULT: -6.040815197      1.579      1.759
REMARK  6 active torsions:
REMARK  status: ('A' for Active; 'I' for Inactive)
REMARK    1  A    between atoms: C2_2  and  C4_5 
REMARK    2  A    between atoms: C6_12  and  C7_13 
REMARK    3  A    between atoms: C8_14  and  C9_15 
REMARK    4  A    between atoms: C9_15  and  C10_16 
REMARK    5  A    between atoms: C10_16  and  C11_17 
REMARK    6  A    between atoms: C11_17  and  C12_18 
ROOT
HETATM    1  C4  UNL     1      42.076  36.426  86.759  1.00  0.00     0.070 A 
HETATM    2  N1  UNL     1      40.846  36.508  87.339  1.00  0.00    -0.332 N 
ATOM      3  H1  UNL     1      40.488  37.325  87.834  1.00  0.00     0.168 HD
HETATM    4  C5  UNL     1      40.173  35.357  87.166  1.00  0.00     0.177 A 
HETATM    5  S1  UNL     1      38.667  35.037  87.706  1.00  0.00    -0.040 SA
HETATM    6  N2  UNL     1      40.981  34.536  86.470  1.00  0.00    -0.324 N 
ATOM      7  H2  UNL     1      40.749  33.586  86.184  1.00  0.00     0.169 HD
HETATM    8  C6  UNL     1      42.153  35.167  86.209  1.00  0.00     0.113 A 
ENDROOT
BRANCH   8   9
HETATM    9  C7  UNL     1      43.288  34.655  85.493  1.00  0.00    -0.047 C 
HETATM   10  C8  UNL     1      44.267  34.238  84.884  1.00  0.00    -0.100 C 
BRANCH  10  11
HETATM   11  C9  UNL     1      45.436  33.720  84.174  1.00  0.00     0.095 C 
BRANCH  11  12
HETATM   12  C10 UNL     1      46.332  32.915  85.097  1.00  0.00     0.021 C 
BRANCH  12  13
HETATM   13  C11 UNL     1      47.771  32.988  84.695  1.00  0.00     0.100 C 
BRANCH  13  14
HETATM   14  C12 UNL     1      48.462  31.760  85.142  1.00  0.00     0.231 C 
HETATM   15  N3  UNL     1      49.882  31.681  85.179  1.00  0.00    -0.062 NA
HETATM   16  O1  UNL     1      47.780  30.770  85.495  1.00  0.00    -0.277 OA
ENDBRANCH  13  14
ENDBRANCH  12  13
ENDBRANCH  11  12
ENDBRANCH  10  11
ENDBRANCH   8   9
BRANCH   1  17
HETATM   17  C2  UNL     1      43.142  37.435  86.700  1.00  0.00     0.075 C 
HETATM   18  C1  UNL     1      43.276  37.845  85.225  1.00  0.00     0.039 C 
HETATM   19  C3  UNL     1      42.811  38.701  87.459  1.00  0.00     0.039 C 
HETATM   20 CL1  UNL     1      44.719  36.790  87.196  1.00  0.00    -0.113 Cl
ENDBRANCH   1  17
TORSDOF 6
ENDMDL
MODEL 4
REMARK VINA RESULT: -6.000842195      2.386      2.979
REMARK  6 active torsions:
REMARK  status: ('A' for Active; 'I' for Inactive)
REMARK    1  A    between atoms: C2_2  and  C4_5 
REMARK    2  A    between atoms: C6_12  and  C7_13 
REMARK    3  A    between atoms: C8_14  and  C9_15 
REMARK    4  A    between atoms: C9_15  and  C10_16 
REMARK    5  A    between atoms: C10_16  and  C11_17 
REMARK    6  A    between atoms: C11_17  and  C12_18 
ROOT
HETATM    1  C4  UNL     1      40.541  36.301  84.971  1.00  0.00     0.070 A 
HETATM    2  N1  UNL     1      39.376  36.854  84.529  1.00  0.00    -0.332 N 
ATOM      3  H1  UNL     1      38.589  37.109  85.125  1.00  0.00     0.168 HD
HETATM    4  C5  UNL     1      39.414  37.013  83.194  1.00  0.00     0.177 A 
HETATM    5  S1  UNL     1      38.224  37.640  82.270  1.00  0.00    -0.040 SA
HETATM    6  N2  UNL     1      40.612  36.558  82.784  1.00  0.00    -0.324 N 
ATOM      7  H2  UNL     1      40.937  36.547  81.817  1.00  0.00     0.169 HD
HETATM    8  C6  UNL     1      41.320  36.116  83.852  1.00  0.00     0.113 A 
ENDROOT
BRANCH   8   9
HETATM    9  C7  UNL     1      42.642  35.555  83.860  1.00  0.00    -0.047 C 
HETATM   10  C8  UNL     1      43.779  35.094  83.857  1.00  0.00    -0.100 C 
BRANCH  10  11
HETATM   11  C9  UNL     1      45.132  34.540  83.878  1.00  0.00     0.095 C 
BRANCH  11  12
HETATM   12  C10 UNL     1      45.183  33.235  84.651  1.00  0.00     0.021 C 
BRANCH  12  13
HETATM   13  C11 UNL     1      46.237  33.248  85.714  1.00  0.00     0.100 C 
BRANCH  13  14
HETATM   14  C12 UNL     1      47.298  32.282  85.355  1.00  0.00     0.231 C 
HETATM   15  N3  UNL     1      48.573  32.718  84.903  1.00  0.00    -0.062 NA
HETATM   16  O1  UNL     1      47.064  31.055  85.453  1.00  0.00    -0.277 OA
ENDBRANCH  13  14
ENDBRANCH  12  13
ENDBRANCH  11  12
ENDBRANCH  10  11
ENDBRANCH   8   9
BRANCH   1  17
HETATM   17  C2  UNL     1      40.939  35.951  86.340  1.00  0.00     0.075 C 
HETATM   18  C1  UNL     1      39.834  36.481  87.266  1.00  0.00     0.039 C 
HETATM   19  C3  UNL     1      41.009  34.460  86.581  1.00  0.00     0.039 C 
HETATM   20 CL1  UNL     1      42.445  36.747  86.836  1.00  0.00    -0.113 Cl
ENDBRANCH   1  17
TORSDOF 6
ENDMDL
MODEL 5
REMARK VINA RESULT: -5.995889598      3.100      3.329
REMARK  6 active torsions:
REMARK  status: ('A' for Active; 'I' for Inactive)
REMARK    1  A    between atoms: C2_2  and  C4_5 
REMARK    2  A    between atoms: C6_12  and  C7_13 
REMARK    3  A    between atoms: C8_14  and  C9_15 
REMARK    4  A    between atoms: C9_15  and  C10_16 
REMARK    5  A    between atoms: C10_16  and  C11_17 
REMARK    6  A    between atoms: C11_17  and  C12_18 
ROOT
HETATM    1  C4  UNL     1      43.291  37.388  87.277  1.00  0.00     0.070 A 
HETATM    2  N1  UNL     1      43.351  38.270  88.313  1.00  0.00    -0.332 N 
ATOM      3  H1  UNL     1      42.571  38.841  88.639  1.00  0.00     0.168 HD
HETATM    4  C5  UNL     1      44.587  38.280  88.844  1.00  0.00     0.177 A 
HETATM    5  S1  UNL     1      45.083  39.196  90.101  1.00  0.00    -0.040 SA
HETATM    6  N2  UNL     1      45.318  37.397  88.140  1.00  0.00    -0.324 N 
ATOM      7  H2  UNL     1      46.301  37.182  88.306  1.00  0.00     0.169 HD
HETATM    8  C6  UNL     1      44.547  36.838  87.174  1.00  0.00     0.113 A 
ENDROOT
BRANCH   8   9
HETATM    9  C7  UNL     1      44.931  35.850  86.205  1.00  0.00    -0.047 C 
HETATM   10  C8  UNL     1      45.276  35.000  85.391  1.00  0.00    -0.100 C 
BRANCH  10  11
HETATM   11  C9  UNL     1      45.665  33.977  84.420  1.00  0.00     0.095 C 
BRANCH  11  12
HETATM   12  C10 UNL     1      46.432  32.849  85.083  1.00  0.00     0.021 C 
BRANCH  12  13
HETATM   13  C11 UNL     1      47.902  32.930  84.816  1.00  0.00     0.100 C 
BRANCH  13  14
HETATM   14  C12 UNL     1      48.532  31.642  85.179  1.00  0.00     0.231 C 
HETATM   15  N3  UNL     1      49.946  31.494  85.213  1.00  0.00    -0.062 NA
HETATM   16  O1  UNL     1      47.802  30.664  85.460  1.00  0.00    -0.277 OA
ENDBRANCH  13  14
ENDBRANCH  12  13
ENDBRANCH  11  12
ENDBRANCH  10  11
ENDBRANCH   8   9
BRANCH   1  17
HETATM   17  C2  UNL     1      42.152  37.052  86.412  1.00  0.00     0.075 C 
HETATM   18  C1  UNL     1      40.929  37.773  86.998  1.00  0.00     0.039 C 
HETATM   19  C3  UNL     1      42.303  37.563  84.997  1.00  0.00     0.039 C 
HETATM   20 CL1  UNL     1      41.776  35.318  86.425  1.00  0.00    -0.113 Cl
ENDBRANCH   1  17
TORSDOF 6
ENDMDL
