MODEL 1
REMARK VINA RESULT: -8.910067064      0.000      0.000
REMARK  9 active torsions:
REMARK  status: ('A' for Active; 'I' for Inactive)
REMARK    1  A    between atoms: C5_6  and  O2_7 
REMARK    2  A    between atoms: O2_7  and  C6_8 
REMARK    3  A    between atoms: C22_26  and  C23_27 
REMARK    4  A    between atoms: C23_27  and  O5_28 
REMARK    5  A    between atoms: O5_28  and  C24_29 
REMARK    6  A    between atoms: C24_29  and  C25_31 
REMARK    7  A    between atoms: C25_31  and  C26_32 
REMARK    8  A    between atoms: C26_32  and  C27_33 
REMARK    9  A    between atoms: C29_36  and  O8_37 
ROOT
HETATM    1  C1  UNL     1      15.280  13.025  80.538  1.00  0.00     0.017 C 
HETATM    2  C2  UNL     1      16.318  12.929  79.769  1.00  0.00    -0.056 C 
HETATM    3  C3  UNL     1      17.567  12.446  80.437  1.00  0.00     0.097 C 
HETATM    4  C4  UNL     1      18.145  11.230  79.676  1.00  0.00     0.268 C 
HETATM    5  O1  UNL     1      16.908  10.573  79.377  1.00  0.00    -0.330 OA
HETATM    6  C5  UNL     1      17.078  10.301  77.997  1.00  0.00     0.272 C 
HETATM    7  C16 UNL     1      17.178  11.466  77.153  1.00  0.00     0.019 C 
HETATM    8  C17 UNL     1      16.141  11.354  76.022  1.00  0.00     0.021 C 
HETATM    9  C18 UNL     1      17.150  12.855  77.558  1.00  0.00     0.032 C 
HETATM   10  C19 UNL     1      17.763  13.467  76.358  1.00  0.00     0.016 C 
HETATM   11  C20 UNL     1      19.093  12.660  76.504  1.00  0.00     0.031 A 
HETATM   12  C21 UNL     1      18.564  11.343  76.477  1.00  0.00     0.043 A 
HETATM   13  C22 UNL     1      19.447  11.846  77.674  1.00  0.00     0.095 A 
HETATM   14  O7  UNL     1      19.009  11.357  78.760  1.00  0.00    -0.347 OA
HETATM   15  C29 UNL     1      16.025  13.335  78.348  1.00  0.00     0.151 C 
ENDROOT
BRANCH   6  16
HETATM   16  O2  UNL     1      16.139   9.311  77.664  1.00  0.00    -0.352 OA
BRANCH  16  17
HETATM   17  C6  UNL     1      15.124   9.163  78.564  1.00  0.00     0.156 C 
HETATM   18  C7  UNL     1      13.742   9.407  77.946  1.00  0.00     0.035 C 
HETATM   19  C8  UNL     1      13.501   8.465  76.791  1.00  0.00     0.009 C 
HETATM   20  C9  UNL     1      13.538   7.032  77.283  1.00  0.00     0.013 C 
HETATM   21  C10 UNL     1      12.352   6.689  78.113  1.00  0.00     0.012 C 
HETATM   22  C11 UNL     1      14.866   6.829  77.949  1.00  0.00     0.160 C 
HETATM   23  O3  UNL     1      14.989   5.643  78.630  1.00  0.00    -0.348 OA
HETATM   24  C15 UNL     1      15.026   7.801  79.129  1.00  0.00     0.183 C 
HETATM   25  C12 UNL     1      15.876   5.881  79.667  1.00  0.00     0.158 C 
HETATM   26  C13 UNL     1      15.322   5.471  81.021  1.00  0.00     0.078 C 
HETATM   27  C14 UNL     1      17.171   5.116  79.460  1.00  0.00     0.078 C 
HETATM   28  O4  UNL     1      16.110   7.253  79.734  1.00  0.00    -0.345 OA
ENDBRANCH  16  17
ENDBRANCH   6  16
BRANCH  15  29
HETATM   29  O8  UNL     1      14.774  12.803  78.060  1.00  0.00    -0.391 OA
ATOM     30  H8  UNL     1      14.840  12.462  77.175  1.00  0.00     0.210 HD
ENDBRANCH  15  29
BRANCH  13  31
HETATM   31  C23 UNL     1      20.879  11.259  77.492  1.00  0.00     0.217 C 
BRANCH  31  32
HETATM   32  O5  UNL     1      21.255  10.531  78.643  1.00  0.00    -0.318 OA
BRANCH  32  33
HETATM   33  C24 UNL     1      21.926   9.333  78.549  1.00  0.00     0.258 C 
HETATM   34  O6  UNL     1      21.401   8.309  79.049  1.00  0.00    -0.265 OA
BRANCH  33  35
HETATM   35  C25 UNL     1      23.264   9.265  77.860  1.00  0.00     0.111 C 
BRANCH  35  36
HETATM   36  C26 UNL     1      24.352   9.173  78.938  1.00  0.00     0.009 C 
BRANCH  36  37
HETATM   37  C27 UNL     1      25.154  10.457  78.978  1.00  0.00    -0.004 C 
HETATM   38  C28 UNL     1      24.704  11.323  77.826  1.00  0.00     0.005 C 
ENDBRANCH  36  37
ENDBRANCH  35  36
ENDBRANCH  33  35
ENDBRANCH  32  33
ENDBRANCH  31  32
ENDBRANCH  13  31
TORSDOF 9
ENDMDL
MODEL 2
REMARK VINA RESULT: -8.516039897      0.898      1.379
REMARK  9 active torsions:
REMARK  status: ('A' for Active; 'I' for Inactive)
REMARK    1  A    between atoms: C5_6  and  O2_7 
REMARK    2  A    between atoms: O2_7  and  C6_8 
REMARK    3  A    between atoms: C22_26  and  C23_27 
REMARK    4  A    between atoms: C23_27  and  O5_28 
REMARK    5  A    between atoms: O5_28  and  C24_29 
REMARK    6  A    between atoms: C24_29  and  C25_31 
REMARK    7  A    between atoms: C25_31  and  C26_32 
REMARK    8  A    between atoms: C26_32  and  C27_33 
REMARK    9  A    between atoms: C29_36  and  O8_37 
ROOT
HETATM    1  C1  UNL     1      15.188  12.988  80.519  1.00  0.00     0.017 C 
HETATM    2  C2  UNL     1      16.225  12.945  79.744  1.00  0.00    -0.056 C 
HETATM    3  C3  UNL     1      17.499  12.517  80.403  1.00  0.00     0.097 C 
HETATM    4  C4  UNL     1      18.129  11.332  79.633  1.00  0.00     0.268 C 
HETATM    5  O1  UNL     1      16.923  10.621  79.337  1.00  0.00    -0.330 OA
HETATM    6  C5  UNL     1      17.097  10.364  77.954  1.00  0.00     0.272 C 
HETATM    7  C16 UNL     1      17.139  11.537  77.116  1.00  0.00     0.019 C 
HETATM    8  C17 UNL     1      16.102  11.383  75.989  1.00  0.00     0.021 C 
HETATM    9  C18 UNL     1      17.049  12.921  77.529  1.00  0.00     0.032 C 
HETATM   10  C19 UNL     1      17.626  13.567  76.330  1.00  0.00     0.016 C 
HETATM   11  C20 UNL     1      18.993  12.823  76.464  1.00  0.00     0.031 A 
HETATM   12  C21 UNL     1      18.526  11.482  76.432  1.00  0.00     0.043 A 
HETATM   13  C22 UNL     1      19.390  12.020  77.628  1.00  0.00     0.095 A 
HETATM   14  O7  UNL     1      18.981  11.505  78.713  1.00  0.00    -0.347 OA
HETATM   15  C29 UNL     1      15.906  13.344  78.327  1.00  0.00     0.151 C 
ENDROOT
BRANCH   6  16
HETATM   16  O2  UNL     1      16.204   9.333  77.620  1.00  0.00    -0.352 OA
BRANCH  16  17
HETATM   17  C6  UNL     1      15.158   9.184  78.484  1.00  0.00     0.156 C 
HETATM   18  C7  UNL     1      13.797   9.392  77.809  1.00  0.00     0.035 C 
HETATM   19  C8  UNL     1      13.616   8.425  76.664  1.00  0.00     0.009 C 
HETATM   20  C9  UNL     1      13.659   7.002  77.185  1.00  0.00     0.013 C 
HETATM   21  C10 UNL     1      12.448   6.654  77.977  1.00  0.00     0.012 C 
HETATM   22  C11 UNL     1      14.963   6.835  77.905  1.00  0.00     0.160 C 
HETATM   23  O3  UNL     1      15.080   5.664  78.613  1.00  0.00    -0.348 OA
HETATM   24  C15 UNL     1      15.061   7.832  79.071  1.00  0.00     0.183 C 
HETATM   25  C12 UNL     1      15.922   5.938  79.678  1.00  0.00     0.158 C 
HETATM   26  C13 UNL     1      15.324   5.544  81.018  1.00  0.00     0.078 C 
HETATM   27  C14 UNL     1      17.238   5.192  79.535  1.00  0.00     0.078 C 
HETATM   28  O4  UNL     1      16.131   7.315  79.727  1.00  0.00    -0.345 OA
ENDBRANCH  16  17
ENDBRANCH   6  16
BRANCH  15  29
HETATM   29  O8  UNL     1      14.680  12.756  78.042  1.00  0.00    -0.391 OA
ATOM     30  H8  UNL     1      14.181  13.419  77.579  1.00  0.00     0.210 HD
ENDBRANCH  15  29
BRANCH  13  31
HETATM   31  C23 UNL     1      20.847  11.500  77.436  1.00  0.00     0.217 C 
BRANCH  31  32
HETATM   32  O5  UNL     1      21.722  12.585  77.198  1.00  0.00    -0.318 OA
BRANCH  32  33
HETATM   33  C24 UNL     1      23.081  12.462  77.372  1.00  0.00     0.258 C 
HETATM   34  O6  UNL     1      23.748  13.491  77.637  1.00  0.00    -0.265 OA
BRANCH  33  35
HETATM   35  C25 UNL     1      23.745  11.115  77.241  1.00  0.00     0.111 C 
BRANCH  35  36
HETATM   36  C26 UNL     1      24.804  10.996  78.344  1.00  0.00     0.009 C 
BRANCH  36  37
HETATM   37  C27 UNL     1      24.780   9.604  78.939  1.00  0.00    -0.004 C 
HETATM   38  C28 UNL     1      23.481   8.948  78.535  1.00  0.00     0.005 C 
ENDBRANCH  36  37
ENDBRANCH  35  36
ENDBRANCH  33  35
ENDBRANCH  32  33
ENDBRANCH  31  32
ENDBRANCH  13  31
TORSDOF 9
ENDMDL
MODEL 3
REMARK VINA RESULT: -8.459195974      1.376      1.951
REMARK  9 active torsions:
REMARK  status: ('A' for Active; 'I' for Inactive)
REMARK    1  A    between atoms: C5_6  and  O2_7 
REMARK    2  A    between atoms: O2_7  and  C6_8 
REMARK    3  A    between atoms: C22_26  and  C23_27 
REMARK    4  A    between atoms: C23_27  and  O5_28 
REMARK    5  A    between atoms: O5_28  and  C24_29 
REMARK    6  A    between atoms: C24_29  and  C25_31 
REMARK    7  A    between atoms: C25_31  and  C26_32 
REMARK    8  A    between atoms: C26_32  and  C27_33 
REMARK    9  A    between atoms: C29_36  and  O8_37 
ROOT
HETATM    1  C1  UNL     1      15.398  12.872  80.610  1.00  0.00     0.017 C 
HETATM    2  C2  UNL     1      16.447  12.829  79.851  1.00  0.00    -0.056 C 
HETATM    3  C3  UNL     1      17.632  12.128  80.437  1.00  0.00     0.097 C 
HETATM    4  C4  UNL     1      18.131  11.024  79.475  1.00  0.00     0.268 C 
HETATM    5  O1  UNL     1      16.854  10.541  79.043  1.00  0.00    -0.330 OA
HETATM    6  C5  UNL     1      17.042  10.509  77.639  1.00  0.00     0.272 C 
HETATM    7  C16 UNL     1      17.262  11.795  77.024  1.00  0.00     0.019 C 
HETATM    8  C17 UNL     1      16.253  11.979  75.877  1.00  0.00     0.021 C 
HETATM    9  C18 UNL     1      17.336  13.085  77.676  1.00  0.00     0.032 C 
HETATM   10  C19 UNL     1      18.032  13.849  76.617  1.00  0.00     0.016 C 
HETATM   11  C20 UNL     1      19.286  12.918  76.632  1.00  0.00     0.031 A 
HETATM   12  C21 UNL     1      18.653  11.678  76.357  1.00  0.00     0.043 A 
HETATM   13  C22 UNL     1      19.538  11.879  77.639  1.00  0.00     0.095 A 
HETATM   14  O7  UNL     1      19.029  11.240  78.610  1.00  0.00    -0.347 OA
HETATM   15  C29 UNL     1      16.230  13.509  78.524  1.00  0.00     0.151 C 
ENDROOT
BRANCH   6  16
HETATM   16  O2  UNL     1      16.036   9.680  77.117  1.00  0.00    -0.352 OA
BRANCH  16  17
HETATM   17  C6  UNL     1      15.789   8.555  77.849  1.00  0.00     0.156 C 
HETATM   18  C7  UNL     1      14.781   8.793  78.981  1.00  0.00     0.035 C 
HETATM   19  C8  UNL     1      13.472   9.305  78.429  1.00  0.00     0.009 C 
HETATM   20  C9  UNL     1      12.875   8.276  77.490  1.00  0.00     0.013 C 
HETATM   21  C10 UNL     1      12.369   7.078  78.213  1.00  0.00     0.012 C 
HETATM   22  C11 UNL     1      13.899   8.000  76.431  1.00  0.00     0.160 C 
HETATM   23  O3  UNL     1      13.601   6.940  75.609  1.00  0.00    -0.348 OA
HETATM   24  C15 UNL     1      15.190   7.456  77.065  1.00  0.00     0.183 C 
HETATM   25  C12 UNL     1      14.814   6.411  75.203  1.00  0.00     0.158 C 
HETATM   26  C13 UNL     1      14.920   4.917  75.459  1.00  0.00     0.078 C 
HETATM   27  C14 UNL     1      15.031   6.629  73.716  1.00  0.00     0.078 C 
HETATM   28  O4  UNL     1      15.825   7.013  75.950  1.00  0.00    -0.345 OA
ENDBRANCH  16  17
ENDBRANCH   6  16
BRANCH  15  29
HETATM   29  O8  UNL     1      14.949  13.147  78.126  1.00  0.00    -0.391 OA
ATOM     30  H8  UNL     1      14.900  12.206  78.253  1.00  0.00     0.210 HD
ENDBRANCH  15  29
BRANCH  13  31
HETATM   31  C23 UNL     1      20.922  11.214  77.372  1.00  0.00     0.217 C 
BRANCH  31  32
HETATM   32  O5  UNL     1      21.383  10.566  78.541  1.00  0.00    -0.318 OA
BRANCH  32  33
HETATM   33  C24 UNL     1      22.010   9.343  78.486  1.00  0.00     0.258 C 
HETATM   34  O6  UNL     1      21.431   8.348  78.983  1.00  0.00    -0.265 OA
BRANCH  33  35
HETATM   35  C25 UNL     1      23.366   9.215  77.841  1.00  0.00     0.111 C 
BRANCH  35  36
HETATM   36  C26 UNL     1      24.424   9.217  78.951  1.00  0.00     0.009 C 
BRANCH  36  37
HETATM   37  C27 UNL     1      25.152  10.545  78.973  1.00  0.00    -0.004 C 
HETATM   38  C28 UNL     1      24.728  11.328  77.753  1.00  0.00     0.005 C 
ENDBRANCH  36  37
ENDBRANCH  35  36
ENDBRANCH  33  35
ENDBRANCH  32  33
ENDBRANCH  31  32
ENDBRANCH  13  31
TORSDOF 9
ENDMDL
MODEL 4
REMARK VINA RESULT: -8.330032413      2.480      6.381
REMARK  9 active torsions:
REMARK  status: ('A' for Active; 'I' for Inactive)
REMARK    1  A    between atoms: C5_6  and  O2_7 
REMARK    2  A    between atoms: O2_7  and  C6_8 
REMARK    3  A    between atoms: C22_26  and  C23_27 
REMARK    4  A    between atoms: C23_27  and  O5_28 
REMARK    5  A    between atoms: O5_28  and  C24_29 
REMARK    6  A    between atoms: C24_29  and  C25_31 
REMARK    7  A    between atoms: C25_31  and  C26_32 
REMARK    8  A    between atoms: C26_32  and  C27_33 
REMARK    9  A    between atoms: C29_36  and  O8_37 
ROOT
HETATM    1  C1  UNL     1      14.869   9.724  77.071  1.00  0.00     0.017 C 
HETATM    2  C2  UNL     1      16.140   9.869  77.275  1.00  0.00    -0.056 C 
HETATM    3  C3  UNL     1      16.939  10.261  76.072  1.00  0.00     0.097 C 
HETATM    4  C4  UNL     1      17.770  11.532  76.372  1.00  0.00     0.268 C 
HETATM    5  O1  UNL     1      16.787  12.239  77.136  1.00  0.00    -0.330 OA
HETATM    6  C5  UNL     1      17.556  12.636  78.258  1.00  0.00     0.272 C 
HETATM    7  C16 UNL     1      18.056  11.554  79.069  1.00  0.00     0.019 C 
HETATM    8  C17 UNL     1      17.641  11.792  80.531  1.00  0.00     0.021 C 
HETATM    9  C18 UNL     1      17.881  10.134  78.851  1.00  0.00     0.032 C 
HETATM   10  C19 UNL     1      18.985   9.624  79.695  1.00  0.00     0.016 C 
HETATM   11  C20 UNL     1      20.085  10.386  78.888  1.00  0.00     0.031 A 
HETATM   12  C21 UNL     1      19.595  11.711  79.029  1.00  0.00     0.043 A 
HETATM   13  C22 UNL     1      19.851  11.079  77.615  1.00  0.00     0.095 A 
HETATM   14  O7  UNL     1      18.957  11.473  76.805  1.00  0.00    -0.347 OA
HETATM   15  C29 UNL     1      16.532   9.605  78.706  1.00  0.00     0.151 C 
ENDROOT
BRANCH   6  16
HETATM   16  O2  UNL     1      16.847  13.672  78.886  1.00  0.00    -0.352 OA
BRANCH  16  17
HETATM   17  C6  UNL     1      16.280  14.573  78.032  1.00  0.00     0.156 C 
HETATM   18  C7  UNL     1      15.190  15.420  78.700  1.00  0.00     0.035 C 
HETATM   19  C8  UNL     1      15.748  16.168  79.887  1.00  0.00     0.009 C 
HETATM   20  C9  UNL     1      16.845  17.109  79.429  1.00  0.00     0.013 C 
HETATM   21  C10 UNL     1      16.312  18.263  78.656  1.00  0.00     0.012 C 
HETATM   22  C11 UNL     1      17.868  16.278  78.714  1.00  0.00     0.160 C 
HETATM   23  O3  UNL     1      18.835  17.000  78.058  1.00  0.00    -0.348 OA
HETATM   24  C15 UNL     1      17.233  15.572  77.505  1.00  0.00     0.183 C 
HETATM   25  C12 UNL     1      19.232  16.226  76.980  1.00  0.00     0.158 C 
HETATM   26  C13 UNL     1      19.162  16.976  75.660  1.00  0.00     0.078 C 
HETATM   27  C14 UNL     1      20.663  15.750  77.152  1.00  0.00     0.078 C 
HETATM   28  O4  UNL     1      18.356  15.149  76.870  1.00  0.00    -0.345 OA
ENDBRANCH  16  17
ENDBRANCH   6  16
BRANCH  15  29
HETATM   29  O8  UNL     1      15.535  10.187  79.478  1.00  0.00    -0.391 OA
ATOM     30  H8  UNL     1      15.645   9.827  80.350  1.00  0.00     0.210 HD
ENDBRANCH  15  29
BRANCH  13  31
HETATM   31  C23 UNL     1      21.196  11.651  77.073  1.00  0.00     0.217 C 
BRANCH  31  32
HETATM   32  O5  UNL     1      22.157  10.620  76.972  1.00  0.00    -0.318 OA
BRANCH  32  33
HETATM   33  C24 UNL     1      23.395  10.843  76.414  1.00  0.00     0.258 C 
HETATM   34  O6  UNL     1      23.681  10.267  75.337  1.00  0.00    -0.265 OA
BRANCH  33  35
HETATM   35  C25 UNL     1      24.379  11.761  77.092  1.00  0.00     0.111 C 
BRANCH  35  36
HETATM   36  C26 UNL     1      24.397  11.420  78.588  1.00  0.00     0.009 C 
BRANCH  36  37
HETATM   37  C27 UNL     1      25.210  10.164  78.825  1.00  0.00    -0.004 C 
HETATM   38  C28 UNL     1      24.290   9.119  79.410  1.00  0.00     0.005 C 
ENDBRANCH  36  37
ENDBRANCH  35  36
ENDBRANCH  33  35
ENDBRANCH  32  33
ENDBRANCH  31  32
ENDBRANCH  13  31
TORSDOF 9
ENDMDL
MODEL 5
REMARK VINA RESULT: -8.291412018      2.523      6.390
REMARK  9 active torsions:
REMARK  status: ('A' for Active; 'I' for Inactive)
REMARK    1  A    between atoms: C5_6  and  O2_7 
REMARK    2  A    between atoms: O2_7  and  C6_8 
REMARK    3  A    between atoms: C22_26  and  C23_27 
REMARK    4  A    between atoms: C23_27  and  O5_28 
REMARK    5  A    between atoms: O5_28  and  C24_29 
REMARK    6  A    between atoms: C24_29  and  C25_31 
REMARK    7  A    between atoms: C25_31  and  C26_32 
REMARK    8  A    between atoms: C26_32  and  C27_33 
REMARK    9  A    between atoms: C29_36  and  O8_37 
ROOT
HETATM    1  C1  UNL     1      15.151  10.697  76.280  1.00  0.00     0.017 C 
HETATM    2  C2  UNL     1      16.299  10.479  76.838  1.00  0.00    -0.056 C 
HETATM    3  C3  UNL     1      17.485  10.622  75.937  1.00  0.00     0.097 C 
HETATM    4  C4  UNL     1      18.508  11.608  76.550  1.00  0.00     0.268 C 
HETATM    5  O1  UNL     1      17.579  12.569  77.062  1.00  0.00    -0.330 OA
HETATM    6  C5  UNL     1      18.072  12.740  78.380  1.00  0.00     0.272 C 
HETATM    7  C16 UNL     1      18.003  11.565  79.214  1.00  0.00     0.019 C 
HETATM    8  C17 UNL     1      17.268  11.921  80.518  1.00  0.00     0.021 C 
HETATM    9  C18 UNL     1      17.518  10.251  78.850  1.00  0.00     0.032 C 
HETATM   10  C19 UNL     1      18.152   9.456  79.925  1.00  0.00     0.016 C 
HETATM   11  C20 UNL     1      19.601   9.871  79.515  1.00  0.00     0.031 A 
HETATM   12  C21 UNL     1      19.471  11.281  79.614  1.00  0.00     0.043 A 
HETATM   13  C22 UNL     1      19.940  10.594  78.282  1.00  0.00     0.095 A 
HETATM   14  O7  UNL     1      19.459  11.219  77.288  1.00  0.00    -0.347 OA
HETATM   15  C29 UNL     1      16.177  10.123  78.297  1.00  0.00     0.151 C 
ENDROOT
BRANCH   6  16
HETATM   16  O2  UNL     1      17.522  13.938  78.863  1.00  0.00    -0.352 OA
BRANCH  16  17
HETATM   17  C6  UNL     1      16.438  14.388  78.167  1.00  0.00     0.156 C 
HETATM   18  C7  UNL     1      15.231  14.675  79.068  1.00  0.00     0.035 C 
HETATM   19  C8  UNL     1      15.584  15.697  80.122  1.00  0.00     0.009 C 
HETATM   20  C9  UNL     1      15.983  17.000  79.458  1.00  0.00     0.013 C 
HETATM   21  C10 UNL     1      14.822  17.696  78.839  1.00  0.00     0.012 C 
HETATM   22  C11 UNL     1      17.115  16.691  78.525  1.00  0.00     0.160 C 
HETATM   23  O3  UNL     1      17.468  17.724  77.691  1.00  0.00    -0.348 OA
HETATM   24  C15 UNL     1      16.672  15.668  77.468  1.00  0.00     0.183 C 
HETATM   25  C12 UNL     1      17.966  17.138  76.539  1.00  0.00     0.158 C 
HETATM   26  C13 UNL     1      17.289  17.650  75.279  1.00  0.00     0.078 C 
HETATM   27  C14 UNL     1      19.453  17.409  76.393  1.00  0.00     0.078 C 
HETATM   28  O4  UNL     1      17.710  15.770  76.599  1.00  0.00    -0.345 OA
ENDBRANCH  16  17
ENDBRANCH   6  16
BRANCH  15  29
HETATM   29  O8  UNL     1      15.198  10.969  78.805  1.00  0.00    -0.391 OA
ATOM     30  H8  UNL     1      15.010  10.645  79.678  1.00  0.00     0.210 HD
ENDBRANCH  15  29
BRANCH  13  31
HETATM   31  C23 UNL     1      21.486  10.759  78.179  1.00  0.00     0.217 C 
BRANCH  31  32
HETATM   32  O5  UNL     1      22.083   9.531  77.816  1.00  0.00    -0.318 OA
BRANCH  32  33
HETATM   33  C24 UNL     1      23.134   9.004  78.531  1.00  0.00     0.258 C 
HETATM   34  O6  UNL     1      23.293   7.760  78.538  1.00  0.00    -0.265 OA
BRANCH  33  35
HETATM   35  C25 UNL     1      24.068   9.913  79.288  1.00  0.00     0.111 C 
BRANCH  35  36
HETATM   36  C26 UNL     1      25.100  10.468  78.299  1.00  0.00     0.009 C 
BRANCH  36  37
HETATM   37  C27 UNL     1      24.706  11.865  77.866  1.00  0.00    -0.004 C 
HETATM   38  C28 UNL     1      24.385  11.821  76.391  1.00  0.00     0.005 C 
ENDBRANCH  36  37
ENDBRANCH  35  36
ENDBRANCH  33  35
ENDBRANCH  32  33
ENDBRANCH  31  32
ENDBRANCH  13  31
TORSDOF 9
ENDMDL
