MODEL 1
REMARK VINA RESULT: -7.900496102      0.000      0.000
REMARK  9 active torsions:
REMARK  status: ('A' for Active; 'I' for Inactive)
REMARK    1  A    between atoms: C11_13  and  C12_14 
REMARK    2  A    between atoms: C12_14  and  C15_17 
REMARK    3  A    between atoms: C15_17  and  O3_18 
REMARK    4  A    between atoms: O3_18  and  C16_19 
REMARK    5  A    between atoms: C20_24  and  O5_25 
REMARK    6  A    between atoms: O5_25  and  C21_26 
REMARK    7  A    between atoms: C21_26  and  C22_28 
REMARK    8  A    between atoms: C28_34  and  O7_35 
REMARK    9  A    between atoms: O7_35  and  C29_36 
ROOT
HETATM    1  C1  UNL     1      13.897   6.031  80.446  1.00  0.00     0.025 C 
HETATM    2  C2  UNL     1      14.088   7.032  79.644  1.00  0.00     0.015 C 
HETATM    3  C3  UNL     1      13.414   7.300  78.393  1.00  0.00     0.289 C 
HETATM    4  O1  UNL     1      12.570   6.610  77.768  1.00  0.00    -0.260 OA
HETATM    5  O2  UNL     1      13.852   8.553  77.899  1.00  0.00    -0.309 OA
HETATM    6  C4  UNL     1      14.402   9.207  79.007  1.00  0.00     0.171 C 
HETATM    7  C5  UNL     1      15.057   8.140  79.837  1.00  0.00     0.056 C 
HETATM    8  C6  UNL     1      16.332   7.681  79.239  1.00  0.00     0.018 C 
HETATM    9  C7  UNL     1      17.241   8.766  78.857  1.00  0.00     0.004 C 
HETATM   10  C8  UNL     1      18.029   9.412  79.965  1.00  0.00     0.002 C 
HETATM   11  C9  UNL     1      19.181   8.529  80.343  1.00  0.00     0.006 C 
HETATM   12  C10 UNL     1      20.153   8.809  79.229  1.00  0.00     0.007 C 
HETATM   13  C11 UNL     1      20.044  10.330  79.187  1.00  0.00     0.006 C 
HETATM   14  C18 UNL     1      18.658  10.649  79.289  1.00  0.00    -0.008 C 
HETATM   15  C19 UNL     1      18.500  11.755  80.366  1.00  0.00     0.019 C 
HETATM   16  C20 UNL     1      17.769  10.894  78.138  1.00  0.00     0.152 C 
HETATM   17  C26 UNL     1      16.616   9.940  78.124  1.00  0.00     0.017 C 
HETATM   18  C27 UNL     1      16.338   9.374  76.713  1.00  0.00     0.021 C 
HETATM   19  C28 UNL     1      15.319  10.369  78.648  1.00  0.00     0.173 C 
ENDROOT
BRANCH  13  20
HETATM   20  C12 UNL     1      21.019  10.862  78.223  1.00  0.00    -0.021 C 
HETATM   21  C13 UNL     1      20.582  11.148  76.835  1.00  0.00     0.017 C 
HETATM   22  C14 UNL     1      22.007   9.663  78.053  1.00  0.00     0.017 C 
BRANCH  20  23
HETATM   23  C15 UNL     1      21.923  11.947  78.696  1.00  0.00     0.187 C 
BRANCH  23  24
HETATM   24  O3  UNL     1      22.332  12.761  77.594  1.00  0.00    -0.321 OA
BRANCH  24  25
HETATM   25  C16 UNL     1      23.655  13.095  77.384  1.00  0.00     0.254 C 
HETATM   26  C17 UNL     1      24.571  12.082  76.806  1.00  0.00     0.126 C 
HETATM   27  O4  UNL     1      24.053  14.246  77.687  1.00  0.00    -0.266 OA
ENDBRANCH  24  25
ENDBRANCH  23  24
ENDBRANCH  20  23
ENDBRANCH  13  20
BRANCH  16  28
HETATM   28  O5  UNL     1      17.381  12.252  78.136  1.00  0.00    -0.311 OA
BRANCH  28  29
HETATM   29  C21 UNL     1      17.367  13.055  77.034  1.00  0.00     0.289 C 
HETATM   30  O6  UNL     1      16.305  12.962  76.326  1.00  0.00    -0.260 OA
BRANCH  29  31
HETATM   31  C22 UNL     1      18.397  13.980  76.587  1.00  0.00     0.009 C 
HETATM   32  C23 UNL     1      18.628  14.343  75.169  1.00  0.00     0.054 C 
HETATM   33  C24 UNL     1      19.195  14.561  77.503  1.00  0.00    -0.018 C 
HETATM   34  C25 UNL     1      20.257  15.501  77.166  1.00  0.00     0.036 C 
ENDBRANCH  29  31
ENDBRANCH  28  29
ENDBRANCH  16  28
BRANCH  19  35
HETATM   35  O7  UNL     1      15.294  11.209  79.761  1.00  0.00    -0.313 OA
BRANCH  35  36
HETATM   36  C29 UNL     1      14.331  12.153  79.959  1.00  0.00     0.255 C 
HETATM   37  C30 UNL     1      13.424  12.151  81.161  1.00  0.00     0.126 C 
HETATM   38  O8  UNL     1      14.151  13.095  79.125  1.00  0.00    -0.266 OA
ENDBRANCH  35  36
ENDBRANCH  19  35
TORSDOF 9
ENDMDL
MODEL 2
REMARK VINA RESULT: -7.506021193      1.273      1.649
REMARK  9 active torsions:
REMARK  status: ('A' for Active; 'I' for Inactive)
REMARK    1  A    between atoms: C11_13  and  C12_14 
REMARK    2  A    between atoms: C12_14  and  C15_17 
REMARK    3  A    between atoms: C15_17  and  O3_18 
REMARK    4  A    between atoms: O3_18  and  C16_19 
REMARK    5  A    between atoms: C20_24  and  O5_25 
REMARK    6  A    between atoms: O5_25  and  C21_26 
REMARK    7  A    between atoms: C21_26  and  C22_28 
REMARK    8  A    between atoms: C28_34  and  O7_35 
REMARK    9  A    between atoms: O7_35  and  C29_36 
ROOT
HETATM    1  C1  UNL     1      13.751   6.515  80.560  1.00  0.00     0.025 C 
HETATM    2  C2  UNL     1      13.951   7.508  79.750  1.00  0.00     0.015 C 
HETATM    3  C3  UNL     1      13.248   7.796  78.519  1.00  0.00     0.289 C 
HETATM    4  O1  UNL     1      12.364   7.133  77.922  1.00  0.00    -0.260 OA
HETATM    5  O2  UNL     1      13.713   9.033  78.008  1.00  0.00    -0.309 OA
HETATM    6  C4  UNL     1      14.317   9.670  79.097  1.00  0.00     0.171 C 
HETATM    7  C5  UNL     1      14.962   8.584  79.910  1.00  0.00     0.056 C 
HETATM    8  C6  UNL     1      16.202   8.081  79.276  1.00  0.00     0.018 C 
HETATM    9  C7  UNL     1      17.135   9.134  78.862  1.00  0.00     0.004 C 
HETATM   10  C8  UNL     1      17.977   9.757  79.944  1.00  0.00     0.002 C 
HETATM   11  C9  UNL     1      19.110   8.836  80.290  1.00  0.00     0.006 C 
HETATM   12  C10 UNL     1      20.056   9.082  79.146  1.00  0.00     0.007 C 
HETATM   13  C11 UNL     1      19.997  10.605  79.102  1.00  0.00     0.006 C 
HETATM   14  C18 UNL     1      18.626  10.971  79.245  1.00  0.00    -0.008 C 
HETATM   15  C19 UNL     1      18.537  12.084  80.323  1.00  0.00     0.019 C 
HETATM   16  C20 UNL     1      17.711  11.242  78.121  1.00  0.00     0.152 C 
HETATM   17  C26 UNL     1      16.527  10.327  78.145  1.00  0.00     0.017 C 
HETATM   18  C27 UNL     1      16.188   9.768  76.745  1.00  0.00     0.021 C 
HETATM   19  C28 UNL     1      15.262  10.800  78.706  1.00  0.00     0.173 C 
ENDROOT
BRANCH  13  20
HETATM   20  C12 UNL     1      20.959  11.102  78.108  1.00  0.00    -0.021 C 
HETATM   21  C13 UNL     1      21.447  12.499  78.209  1.00  0.00     0.017 C 
HETATM   22  C14 UNL     1      20.108  11.109  76.797  1.00  0.00     0.017 C 
BRANCH  20  23
HETATM   23  C15 UNL     1      22.089  10.203  77.743  1.00  0.00     0.187 C 
BRANCH  23  24
HETATM   24  O3  UNL     1      23.226  10.485  78.562  1.00  0.00    -0.321 OA
BRANCH  24  25
HETATM   25  C16 UNL     1      24.136   9.508  78.910  1.00  0.00     0.254 C 
HETATM   26  C17 UNL     1      25.566   9.873  79.055  1.00  0.00     0.126 C 
HETATM   27  O4  UNL     1      23.736   8.333  79.094  1.00  0.00    -0.266 OA
ENDBRANCH  24  25
ENDBRANCH  23  24
ENDBRANCH  20  23
ENDBRANCH  13  20
BRANCH  16  28
HETATM   28  O5  UNL     1      17.369  12.613  78.127  1.00  0.00    -0.311 OA
BRANCH  28  29
HETATM   29  C21 UNL     1      17.422  13.432  77.038  1.00  0.00     0.289 C 
HETATM   30  O6  UNL     1      16.402  13.358  76.269  1.00  0.00    -0.260 OA
BRANCH  29  31
HETATM   31  C22 UNL     1      18.484  14.355  76.664  1.00  0.00     0.009 C 
HETATM   32  C23 UNL     1      19.016  14.494  75.289  1.00  0.00     0.054 C 
HETATM   33  C24 UNL     1      19.022  15.147  77.610  1.00  0.00    -0.018 C 
HETATM   34  C25 UNL     1      20.088  16.107  77.345  1.00  0.00     0.036 C 
ENDBRANCH  29  31
ENDBRANCH  28  29
ENDBRANCH  16  28
BRANCH  19  35
HETATM   35  O7  UNL     1      15.298  11.643  79.818  1.00  0.00    -0.313 OA
BRANCH  35  36
HETATM   36  C29 UNL     1      14.376  12.622  80.038  1.00  0.00     0.255 C 
HETATM   37  C30 UNL     1      14.230  13.820  79.135  1.00  0.00     0.126 C 
HETATM   38  O8  UNL     1      13.584  12.570  81.030  1.00  0.00    -0.266 OA
ENDBRANCH  35  36
ENDBRANCH  19  35
TORSDOF 9
ENDMDL
MODEL 3
REMARK VINA RESULT: -7.437070885      2.430      6.268
REMARK  9 active torsions:
REMARK  status: ('A' for Active; 'I' for Inactive)
REMARK    1  A    between atoms: C11_13  and  C12_14 
REMARK    2  A    between atoms: C12_14  and  C15_17 
REMARK    3  A    between atoms: C15_17  and  O3_18 
REMARK    4  A    between atoms: O3_18  and  C16_19 
REMARK    5  A    between atoms: C20_24  and  O5_25 
REMARK    6  A    between atoms: O5_25  and  C21_26 
REMARK    7  A    between atoms: C21_26  and  C22_28 
REMARK    8  A    between atoms: C28_34  and  O7_35 
REMARK    9  A    between atoms: O7_35  and  C29_36 
ROOT
HETATM    1  C1  UNL     1      15.876  18.308  76.300  1.00  0.00     0.025 C 
HETATM    2  C2  UNL     1      15.977  17.318  77.132  1.00  0.00     0.015 C 
HETATM    3  C3  UNL     1      15.526  17.272  78.506  1.00  0.00     0.289 C 
HETATM    4  O1  UNL     1      15.019  18.174  79.218  1.00  0.00    -0.260 OA
HETATM    5  O2  UNL     1      15.738  15.966  79.011  1.00  0.00    -0.309 OA
HETATM    6  C4  UNL     1      15.877  15.158  77.878  1.00  0.00     0.171 C 
HETATM    7  C5  UNL     1      16.589  15.994  76.854  1.00  0.00     0.056 C 
HETATM    8  C6  UNL     1      18.031  16.134  77.162  1.00  0.00     0.018 C 
HETATM    9  C7  UNL     1      18.709  14.868  77.456  1.00  0.00     0.004 C 
HETATM   10  C8  UNL     1      19.076  14.005  76.278  1.00  0.00     0.002 C 
HETATM   11  C9  UNL     1      20.305  14.555  75.618  1.00  0.00     0.006 C 
HETATM   12  C10 UNL     1      21.386  14.074  76.550  1.00  0.00     0.007 C 
HETATM   13  C11 UNL     1      20.923  12.633  76.738  1.00  0.00     0.006 C 
HETATM   14  C18 UNL     1      19.509  12.673  76.925  1.00  0.00    -0.008 C 
HETATM   15  C19 UNL     1      18.873  11.608  75.992  1.00  0.00     0.019 C 
HETATM   16  C20 UNL     1      18.840  12.701  78.238  1.00  0.00     0.152 C 
HETATM   17  C26 UNL     1      17.979  13.916  78.388  1.00  0.00     0.017 C 
HETATM   18  C27 UNL     1      18.138  14.581  79.774  1.00  0.00     0.021 C 
HETATM   19  C28 UNL     1      16.539  13.813  78.155  1.00  0.00     0.173 C 
ENDROOT
BRANCH  13  20
HETATM   20  C12 UNL     1      21.914  11.903  77.543  1.00  0.00    -0.021 C 
HETATM   21  C13 UNL     1      21.660  11.697  78.989  1.00  0.00     0.017 C 
HETATM   22  C14 UNL     1      23.137  12.875  77.523  1.00  0.00     0.017 C 
BRANCH  20  23
HETATM   23  C15 UNL     1      22.490  10.662  76.954  1.00  0.00     0.187 C 
BRANCH  23  24
HETATM   24  O3  UNL     1      22.317   9.565  77.854  1.00  0.00    -0.321 OA
BRANCH  24  25
HETATM   25  C16 UNL     1      23.390   8.861  78.362  1.00  0.00     0.254 C 
HETATM   26  C17 UNL     1      24.661   9.577  78.626  1.00  0.00     0.126 C 
HETATM   27  O4  UNL     1      23.267   7.633  78.588  1.00  0.00    -0.266 OA
ENDBRANCH  24  25
ENDBRANCH  23  24
ENDBRANCH  20  23
ENDBRANCH  13  20
BRANCH  16  28
HETATM   28  O5  UNL     1      18.143  11.486  78.425  1.00  0.00    -0.311 OA
BRANCH  28  29
HETATM   29  C21 UNL     1      18.233  10.702  79.536  1.00  0.00     0.289 C 
HETATM   30  O6  UNL     1      18.431  11.345  80.624  1.00  0.00    -0.260 OA
BRANCH  29  31
HETATM   31  C22 UNL     1      18.133   9.252  79.619  1.00  0.00     0.009 C 
HETATM   32  C23 UNL     1      19.229   8.369  80.083  1.00  0.00     0.054 C 
HETATM   33  C24 UNL     1      16.979   8.657  79.266  1.00  0.00    -0.018 C 
HETATM   34  C25 UNL     1      16.769   7.214  79.311  1.00  0.00     0.036 C 
ENDBRANCH  29  31
ENDBRANCH  28  29
ENDBRANCH  16  28
BRANCH  19  35
HETATM   35  O7  UNL     1      16.085  12.970  77.139  1.00  0.00    -0.313 OA
BRANCH  35  36
HETATM   36  C29 UNL     1      15.412  11.811  77.381  1.00  0.00     0.255 C 
HETATM   37  C30 UNL     1      15.445  10.639  76.435  1.00  0.00     0.126 C 
HETATM   38  O8  UNL     1      14.716  11.660  78.433  1.00  0.00    -0.266 OA
ENDBRANCH  35  36
ENDBRANCH  19  35
TORSDOF 9
ENDMDL
MODEL 4
REMARK VINA RESULT: -7.408526773      1.090      1.242
REMARK  9 active torsions:
REMARK  status: ('A' for Active; 'I' for Inactive)
REMARK    1  A    between atoms: C11_13  and  C12_14 
REMARK    2  A    between atoms: C12_14  and  C15_17 
REMARK    3  A    between atoms: C15_17  and  O3_18 
REMARK    4  A    between atoms: O3_18  and  C16_19 
REMARK    5  A    between atoms: C20_24  and  O5_25 
REMARK    6  A    between atoms: O5_25  and  C21_26 
REMARK    7  A    between atoms: C21_26  and  C22_28 
REMARK    8  A    between atoms: C28_34  and  O7_35 
REMARK    9  A    between atoms: O7_35  and  C29_36 
ROOT
HETATM    1  C1  UNL     1      14.217   6.185  80.766  1.00  0.00     0.025 C 
HETATM    2  C2  UNL     1      14.247   7.083  79.832  1.00  0.00     0.015 C 
HETATM    3  C3  UNL     1      13.522   7.078  78.580  1.00  0.00     0.289 C 
HETATM    4  O1  UNL     1      12.778   6.196  78.083  1.00  0.00    -0.260 OA
HETATM    5  O2  UNL     1      13.765   8.301  77.908  1.00  0.00    -0.309 OA
HETATM    6  C4  UNL     1      14.230   9.172  78.899  1.00  0.00     0.171 C 
HETATM    7  C5  UNL     1      15.047   8.334  79.840  1.00  0.00     0.056 C 
HETATM    8  C6  UNL     1      16.365   7.984  79.264  1.00  0.00     0.018 C 
HETATM    9  C7  UNL     1      17.101   9.124  78.708  1.00  0.00     0.004 C 
HETATM   10  C8  UNL     1      17.803  10.022  79.691  1.00  0.00     0.002 C 
HETATM   11  C9  UNL     1      19.077   9.372  80.144  1.00  0.00     0.006 C 
HETATM   12  C10 UNL     1      19.980   9.633  78.968  1.00  0.00     0.007 C 
HETATM   13  C11 UNL     1      19.650  11.102  78.727  1.00  0.00     0.006 C 
HETATM   14  C18 UNL     1      18.233  11.232  78.834  1.00  0.00    -0.008 C 
HETATM   15  C19 UNL     1      17.932  12.441  79.759  1.00  0.00     0.019 C 
HETATM   16  C20 UNL     1      17.301  11.186  77.693  1.00  0.00     0.152 C 
HETATM   17  C26 UNL     1      16.300  10.085  77.848  1.00  0.00     0.017 C 
HETATM   18  C27 UNL     1      16.085   9.297  76.535  1.00  0.00     0.021 C 
HETATM   19  C28 UNL     1      14.962  10.393  78.355  1.00  0.00     0.173 C 
ENDROOT
BRANCH  13  20
HETATM   20  C12 UNL     1      20.521  11.631  77.666  1.00  0.00    -0.021 C 
HETATM   21  C13 UNL     1      20.716  13.096  77.554  1.00  0.00     0.017 C 
HETATM   22  C14 UNL     1      19.725  11.269  76.372  1.00  0.00     0.017 C 
BRANCH  20  23
HETATM   23  C15 UNL     1      21.819  10.935  77.440  1.00  0.00     0.187 C 
BRANCH  23  24
HETATM   24  O3  UNL     1      22.851  11.559  78.206  1.00  0.00    -0.321 OA
BRANCH  24  25
HETATM   25  C16 UNL     1      24.186  11.421  77.884  1.00  0.00     0.254 C 
HETATM   26  C17 UNL     1      25.059  10.603  78.760  1.00  0.00     0.126 C 
HETATM   27  O4  UNL     1      24.632  11.990  76.858  1.00  0.00    -0.266 OA
ENDBRANCH  24  25
ENDBRANCH  23  24
ENDBRANCH  20  23
ENDBRANCH  13  20
BRANCH  16  28
HETATM   28  O5  UNL     1      16.719  12.463  77.524  1.00  0.00    -0.311 OA
BRANCH  28  29
HETATM   29  C21 UNL     1      16.834  13.226  76.400  1.00  0.00     0.289 C 
HETATM   30  O6  UNL     1      16.145  12.811  75.405  1.00  0.00    -0.260 OA
BRANCH  29  31
HETATM   31  C22 UNL     1      17.632  14.429  76.213  1.00  0.00     0.009 C 
HETATM   32  C23 UNL     1      18.387  14.740  74.977  1.00  0.00     0.054 C 
HETATM   33  C24 UNL     1      17.693  15.332  77.209  1.00  0.00    -0.018 C 
HETATM   34  C25 UNL     1      18.461  16.570  77.129  1.00  0.00     0.036 C 
ENDBRANCH  29  31
ENDBRANCH  28  29
ENDBRANCH  16  28
BRANCH  19  35
HETATM   35  O7  UNL     1      14.831  11.365  79.347  1.00  0.00    -0.313 OA
BRANCH  35  36
HETATM   36  C29 UNL     1      13.627  11.766  79.841  1.00  0.00     0.255 C 
HETATM   37  C30 UNL     1      13.301  11.740  81.312  1.00  0.00     0.126 C 
HETATM   38  O8  UNL     1      12.707  12.188  79.073  1.00  0.00    -0.266 OA
ENDBRANCH  35  36
ENDBRANCH  19  35
TORSDOF 9
ENDMDL
MODEL 5
REMARK VINA RESULT: -7.367950649      2.275      5.744
REMARK  9 active torsions:
REMARK  status: ('A' for Active; 'I' for Inactive)
REMARK    1  A    between atoms: C11_13  and  C12_14 
REMARK    2  A    between atoms: C12_14  and  C15_17 
REMARK    3  A    between atoms: C15_17  and  O3_18 
REMARK    4  A    between atoms: O3_18  and  C16_19 
REMARK    5  A    between atoms: C20_24  and  O5_25 
REMARK    6  A    between atoms: O5_25  and  C21_26 
REMARK    7  A    between atoms: C21_26  and  C22_28 
REMARK    8  A    between atoms: C28_34  and  O7_35 
REMARK    9  A    between atoms: O7_35  and  C29_36 
ROOT
HETATM    1  C1  UNL     1      13.069  17.062  77.599  1.00  0.00     0.025 C 
HETATM    2  C2  UNL     1      13.768  16.166  78.223  1.00  0.00     0.015 C 
HETATM    3  C3  UNL     1      13.702  15.815  79.625  1.00  0.00     0.289 C 
HETATM    4  O1  UNL     1      13.033  16.332  80.554  1.00  0.00    -0.260 OA
HETATM    5  O2  UNL     1      14.560  14.714  79.859  1.00  0.00    -0.309 OA
HETATM    6  C4  UNL     1      14.773  14.145  78.599  1.00  0.00     0.171 C 
HETATM    7  C5  UNL     1      14.808  15.289  77.627  1.00  0.00     0.056 C 
HETATM    8  C6  UNL     1      16.079  16.044  77.708  1.00  0.00     0.018 C 
HETATM    9  C7  UNL     1      17.281  15.205  77.666  1.00  0.00     0.004 C 
HETATM   10  C8  UNL     1      17.705  14.696  76.315  1.00  0.00     0.002 C 
HETATM   11  C9  UNL     1      18.398  15.792  75.561  1.00  0.00     0.006 C 
HETATM   12  C10 UNL     1      19.759  15.784  76.204  1.00  0.00     0.007 C 
HETATM   13  C11 UNL     1      20.013  14.280  76.221  1.00  0.00     0.006 C 
HETATM   14  C18 UNL     1      18.801  13.660  76.646  1.00  0.00    -0.008 C 
HETATM   15  C19 UNL     1      18.490  12.497  75.666  1.00  0.00     0.019 C 
HETATM   16  C20 UNL     1      18.499  13.281  78.038  1.00  0.00     0.152 C 
HETATM   17  C26 UNL     1      17.259  13.958  78.533  1.00  0.00     0.017 C 
HETATM   18  C27 UNL     1      17.426  14.514  79.965  1.00  0.00     0.021 C 
HETATM   19  C28 UNL     1      15.990  13.231  78.530  1.00  0.00     0.173 C 
ENDROOT
BRANCH  13  20
HETATM   20  C12 UNL     1      21.374  14.021  76.714  1.00  0.00    -0.021 C 
HETATM   21  C13 UNL     1      22.010  14.997  77.631  1.00  0.00     0.017 C 
HETATM   22  C14 UNL     1      22.227  14.138  75.410  1.00  0.00     0.017 C 
BRANCH  20  23
HETATM   23  C15 UNL     1      21.683  12.635  77.165  1.00  0.00     0.187 C 
BRANCH  23  24
HETATM   24  O3  UNL     1      22.975  12.594  77.776  1.00  0.00    -0.321 OA
BRANCH  24  25
HETATM   25  C16 UNL     1      23.902  11.622  77.461  1.00  0.00     0.254 C 
HETATM   26  C17 UNL     1      23.745  10.859  76.199  1.00  0.00     0.126 C 
HETATM   27  O4  UNL     1      24.855  11.404  78.248  1.00  0.00    -0.266 OA
ENDBRANCH  24  25
ENDBRANCH  23  24
ENDBRANCH  20  23
ENDBRANCH  13  20
BRANCH  16  28
HETATM   28  O5  UNL     1      18.450  11.872  78.131  1.00  0.00    -0.311 OA
BRANCH  28  29
HETATM   29  C21 UNL     1      18.819  11.153  79.229  1.00  0.00     0.289 C 
HETATM   30  O6  UNL     1      18.372  11.612  80.337  1.00  0.00    -0.260 OA
BRANCH  29  31
HETATM   31  C22 UNL     1      19.642   9.953  79.279  1.00  0.00     0.009 C 
HETATM   32  C23 UNL     1      19.227   8.689  79.930  1.00  0.00     0.054 C 
HETATM   33  C24 UNL     1      20.854   9.969  78.695  1.00  0.00    -0.018 C 
HETATM   34  C25 UNL     1      21.759   8.825  78.685  1.00  0.00     0.036 C 
ENDBRANCH  29  31
ENDBRANCH  28  29
ENDBRANCH  16  28
BRANCH  19  35
HETATM   35  O7  UNL     1      15.725  12.354  77.477  1.00  0.00    -0.313 OA
BRANCH  35  36
HETATM   36  C29 UNL     1      15.442  11.035  77.662  1.00  0.00     0.255 C 
HETATM   37  C30 UNL     1      15.794   9.977  76.648  1.00  0.00     0.126 C 
HETATM   38  O8  UNL     1      14.860  10.627  78.715  1.00  0.00    -0.266 OA
ENDBRANCH  35  36
ENDBRANCH  19  35
TORSDOF 9
ENDMDL
