MODEL 1
REMARK VINA RESULT: -8.107065198      0.000      0.000
REMARK  9 active torsions:
REMARK  status: ('A' for Active; 'I' for Inactive)
REMARK    1  A    between atoms: C2_2  and  C3_3 
REMARK    2  A    between atoms: C3_3  and  C5_5 
REMARK    3  A    between atoms: C3_3  and  C8_10 
REMARK    4  A    between atoms: C5_5  and  O1_6 
REMARK    5  A    between atoms: O1_6  and  C6_7 
REMARK    6  A    between atoms: C16_18  and  O3_19 
REMARK    7  A    between atoms: O3_19  and  C17_20 
REMARK    8  A    between atoms: C17_20  and  C18_22 
REMARK    9  A    between atoms: C25_33  and  O9_34 
ROOT
HETATM    1  C8  UNL     1      19.595  10.873  78.142  1.00  0.00     0.001 C 
HETATM    2  C9  UNL     1      19.360  10.416  79.593  1.00  0.00     0.006 C 
HETATM    3  C10 UNL     1      17.947  10.125  79.926  1.00  0.00     0.009 C 
HETATM    4  C11 UNL     1      17.126  11.343  79.685  1.00  0.00    -0.043 C 
HETATM    5  C12 UNL     1      15.671  10.968  79.849  1.00  0.00     0.015 C 
HETATM    6  C13 UNL     1      17.421  12.468  80.611  1.00  0.00     0.015 C 
HETATM    7  C14 UNL     1      17.335  11.711  78.210  1.00  0.00     0.003 C 
HETATM    8  C15 UNL     1      16.791  10.592  77.417  1.00  0.00     0.067 C 
HETATM    9  C16 UNL     1      16.716  10.851  75.910  1.00  0.00     0.273 C 
HETATM   10  O7  UNL     1      18.011  10.913  75.477  1.00  0.00    -0.330 OA
HETATM   11  C23 UNL     1      18.605  12.116  75.401  1.00  0.00     0.277 C 
HETATM   12  O8  UNL     1      17.712  13.099  74.925  1.00  0.00    -0.351 OA
HETATM   13  C24 UNL     1      17.794  13.674  76.161  1.00  0.00     0.171 A 
HETATM   14  C25 UNL     1      18.982  14.356  76.656  1.00  0.00     0.167 A 
HETATM   15  C27 UNL     1      18.885  12.833  76.662  1.00  0.00     0.071 A 
HETATM   16  C28 UNL     1      18.799  12.063  77.930  1.00  0.00     0.014 C 
ENDROOT
BRANCH   9  17
HETATM   17  O3  UNL     1      16.025   9.714  75.358  1.00  0.00    -0.287 OA
BRANCH  17  18
HETATM   18  C17 UNL     1      14.993   9.103  76.041  1.00  0.00     0.292 C 
HETATM   19  O4  UNL     1      14.106   9.833  76.545  1.00  0.00    -0.262 OA
BRANCH  18  20
HETATM   20  C18 UNL     1      14.870   7.637  76.213  1.00  0.00     0.248 C 
HETATM   21  C19 UNL     1      13.842   7.071  75.260  1.00  0.00     0.213 C 
HETATM   22  O5  UNL     1      14.590   6.498  74.266  1.00  0.00    -0.353 OA
HETATM   23  C20 UNL     1      15.883   6.351  74.696  1.00  0.00     0.158 C 
HETATM   24  C21 UNL     1      16.793   6.850  73.575  1.00  0.00     0.078 C 
HETATM   25  C22 UNL     1      16.258   4.888  74.916  1.00  0.00     0.078 C 
HETATM   26  O6  UNL     1      16.058   7.045  75.863  1.00  0.00    -0.339 OA
ENDBRANCH  18  20
ENDBRANCH  17  18
ENDBRANCH   9  17
BRANCH   1  27
HETATM   27  C3  UNL     1      21.049  10.777  77.986  1.00  0.00    -0.018 C 
HETATM   28  C4  UNL     1      21.634  11.716  79.065  1.00  0.00     0.018 C 
BRANCH  27  29
HETATM   29  C2  UNL     1      21.663  11.247  76.715  1.00  0.00     0.007 C 
HETATM   30  C1  UNL     1      22.447  12.487  76.708  1.00  0.00     0.006 C 
ENDBRANCH  27  29
BRANCH  27  31
HETATM   31  C5  UNL     1      21.677   9.444  78.315  1.00  0.00     0.188 C 
BRANCH  31  32
HETATM   32  O1  UNL     1      23.044   9.598  77.952  1.00  0.00    -0.321 OA
BRANCH  32  33
HETATM   33  C6  UNL     1      24.088   9.309  78.803  1.00  0.00     0.254 C 
HETATM   34  C7  UNL     1      25.216  10.252  78.912  1.00  0.00     0.126 C 
HETATM   35  O2  UNL     1      24.010   8.230  79.450  1.00  0.00    -0.266 OA
ENDBRANCH  32  33
ENDBRANCH  31  32
ENDBRANCH  27  31
ENDBRANCH   1  27
BRANCH  14  36
HETATM   36  O9  UNL     1      18.890  14.955  77.884  1.00  0.00    -0.387 OA
HETATM   37  C26 UNL     1      19.554  16.204  77.846  1.00  0.00     0.202 C 
ENDBRANCH  14  36
TORSDOF 9
ENDMDL
MODEL 2
REMARK VINA RESULT: -8.003065402      2.064      6.908
REMARK  9 active torsions:
REMARK  status: ('A' for Active; 'I' for Inactive)
REMARK    1  A    between atoms: C2_2  and  C3_3 
REMARK    2  A    between atoms: C3_3  and  C5_5 
REMARK    3  A    between atoms: C3_3  and  C8_10 
REMARK    4  A    between atoms: C5_5  and  O1_6 
REMARK    5  A    between atoms: O1_6  and  C6_7 
REMARK    6  A    between atoms: C16_18  and  O3_19 
REMARK    7  A    between atoms: O3_19  and  C17_20 
REMARK    8  A    between atoms: C17_20  and  C18_22 
REMARK    9  A    between atoms: C25_33  and  O9_34 
ROOT
HETATM    1  C8  UNL     1      17.130  13.060  79.050  1.00  0.00     0.001 C 
HETATM    2  C9  UNL     1      17.172  12.245  80.355  1.00  0.00     0.006 C 
HETATM    3  C10 UNL     1      18.343  11.349  80.484  1.00  0.00     0.009 C 
HETATM    4  C11 UNL     1      18.360  10.396  79.341  1.00  0.00    -0.043 C 
HETATM    5  C12 UNL     1      19.658   9.623  79.393  1.00  0.00     0.015 C 
HETATM    6  C13 UNL     1      17.240   9.418  79.349  1.00  0.00     0.015 C 
HETATM    7  C14 UNL     1      18.395  11.256  78.071  1.00  0.00     0.003 C 
HETATM    8  C15 UNL     1      19.668  12.000  78.103  1.00  0.00     0.067 C 
HETATM    9  C16 UNL     1      19.995  12.767  76.819  1.00  0.00     0.273 C 
HETATM   10  O7  UNL     1      19.071  13.772  76.740  1.00  0.00    -0.330 OA
HETATM   11  C23 UNL     1      17.950  13.559  76.030  1.00  0.00     0.277 C 
HETATM   12  O8  UNL     1      18.220  12.830  74.854  1.00  0.00    -0.351 OA
HETATM   13  C24 UNL     1      17.492  11.812  75.399  1.00  0.00     0.171 A 
HETATM   14  C25 UNL     1      16.046  11.857  75.573  1.00  0.00     0.167 A 
HETATM   15  C27 UNL     1      16.981  12.570  76.545  1.00  0.00     0.071 A 
HETATM   16  C28 UNL     1      17.134  12.117  77.952  1.00  0.00     0.014 C 
ENDROOT
BRANCH   9  17
HETATM   17  O3  UNL     1      21.327  13.283  77.006  1.00  0.00    -0.287 OA
BRANCH  17  18
HETATM   18  C17 UNL     1      22.421  12.443  77.040  1.00  0.00     0.292 C 
HETATM   19  O4  UNL     1      23.562  12.957  76.945  1.00  0.00    -0.262 OA
BRANCH  18  20
HETATM   20  C18 UNL     1      22.329  10.972  77.182  1.00  0.00     0.248 C 
HETATM   21  C19 UNL     1      23.276  10.282  76.226  1.00  0.00     0.213 C 
HETATM   22  O5  UNL     1      24.327   9.901  77.019  1.00  0.00    -0.353 OA
HETATM   23  C20 UNL     1      23.951   9.962  78.335  1.00  0.00     0.158 C 
HETATM   24  C21 UNL     1      25.072  10.668  79.095  1.00  0.00     0.078 C 
HETATM   25  C22 UNL     1      23.827   8.578  78.968  1.00  0.00     0.078 C 
HETATM   26  O6  UNL     1      22.752  10.617  78.437  1.00  0.00    -0.339 OA
ENDBRANCH  18  20
ENDBRANCH  17  18
ENDBRANCH   9  17
BRANCH   1  27
HETATM   27  C3  UNL     1      16.096  14.066  79.310  1.00  0.00    -0.018 C 
HETATM   28  C4  UNL     1      15.315  13.536  80.534  1.00  0.00     0.018 C 
BRANCH  27  29
HETATM   29  C2  UNL     1      15.050  14.298  78.277  1.00  0.00     0.007 C 
HETATM   30  C1  UNL     1      13.890  15.137  78.602  1.00  0.00     0.006 C 
ENDBRANCH  27  29
BRANCH  27  31
HETATM   31  C5  UNL     1      16.574  15.422  79.768  1.00  0.00     0.188 C 
BRANCH  31  32
HETATM   32  O1  UNL     1      17.609  15.760  78.853  1.00  0.00    -0.321 OA
BRANCH  32  33
HETATM   33  C6  UNL     1      17.575  16.881  78.054  1.00  0.00     0.254 C 
HETATM   34  C7  UNL     1      16.473  17.848  78.206  1.00  0.00     0.126 C 
HETATM   35  O2  UNL     1      18.514  17.012  77.222  1.00  0.00    -0.266 OA
ENDBRANCH  32  33
ENDBRANCH  31  32
ENDBRANCH  27  31
ENDBRANCH   1  27
BRANCH  14  36
HETATM   36  O9  UNL     1      15.441  10.729  76.059  1.00  0.00    -0.387 OA
HETATM   37  C26 UNL     1      16.125   9.588  75.578  1.00  0.00     0.202 C 
ENDBRANCH  14  36
TORSDOF 9
ENDMDL
MODEL 3
REMARK VINA RESULT: -7.980994451      2.104      7.157
REMARK  9 active torsions:
REMARK  status: ('A' for Active; 'I' for Inactive)
REMARK    1  A    between atoms: C2_2  and  C3_3 
REMARK    2  A    between atoms: C3_3  and  C5_5 
REMARK    3  A    between atoms: C3_3  and  C8_10 
REMARK    4  A    between atoms: C5_5  and  O1_6 
REMARK    5  A    between atoms: O1_6  and  C6_7 
REMARK    6  A    between atoms: C16_18  and  O3_19 
REMARK    7  A    between atoms: O3_19  and  C17_20 
REMARK    8  A    between atoms: C17_20  and  C18_22 
REMARK    9  A    between atoms: C25_33  and  O9_34 
ROOT
HETATM    1  C8  UNL     1      16.392  12.408  79.347  1.00  0.00     0.001 C 
HETATM    2  C9  UNL     1      16.844  11.714  80.643  1.00  0.00     0.006 C 
HETATM    3  C10 UNL     1      18.282  11.362  80.685  1.00  0.00     0.009 C 
HETATM    4  C11 UNL     1      18.600  10.463  79.542  1.00  0.00    -0.043 C 
HETATM    5  C12 UNL     1      20.099  10.273  79.497  1.00  0.00     0.015 C 
HETATM    6  C13 UNL     1      17.966   9.121  79.631  1.00  0.00     0.015 C 
HETATM    7  C14 UNL     1      18.201  11.230  78.274  1.00  0.00     0.003 C 
HETATM    8  C15 UNL     1      19.071  12.420  78.213  1.00  0.00     0.067 C 
HETATM    9  C16 UNL     1      18.976  13.218  76.909  1.00  0.00     0.273 C 
HETATM   10  O7  UNL     1      17.725  13.769  76.901  1.00  0.00    -0.330 OA
HETATM   11  C23 UNL     1      16.736  13.107  76.276  1.00  0.00     0.277 C 
HETATM   12  O8  UNL     1      17.193  12.513  75.081  1.00  0.00    -0.351 OA
HETATM   13  C24 UNL     1      16.971  11.305  75.677  1.00  0.00     0.171 A 
HETATM   14  C25 UNL     1      15.643  10.776  75.957  1.00  0.00     0.167 A 
HETATM   15  C27 UNL     1      16.279  11.829  76.859  1.00  0.00     0.071 A 
HETATM   16  C28 UNL     1      16.697  11.514  78.250  1.00  0.00     0.014 C 
ENDROOT
BRANCH   9  17
HETATM   17  O3  UNL     1      20.001  14.226  76.999  1.00  0.00    -0.287 OA
BRANCH  17  18
HETATM   18  C17 UNL     1      20.881  14.446  75.960  1.00  0.00     0.292 C 
HETATM   19  O4  UNL     1      20.405  14.736  74.836  1.00  0.00    -0.262 OA
BRANCH  18  20
HETATM   20  C18 UNL     1      22.353  14.360  76.092  1.00  0.00     0.248 C 
HETATM   21  C19 UNL     1      22.766  14.461  77.543  1.00  0.00     0.213 C 
HETATM   22  O5  UNL     1      23.050  13.169  77.898  1.00  0.00    -0.353 OA
HETATM   23  C20 UNL     1      23.197  12.408  76.768  1.00  0.00     0.158 C 
HETATM   24  C21 UNL     1      22.400  11.122  76.980  1.00  0.00     0.078 C 
HETATM   25  C22 UNL     1      24.643  11.970  76.547  1.00  0.00     0.078 C 
HETATM   26  O6  UNL     1      22.768  13.119  75.679  1.00  0.00    -0.339 OA
ENDBRANCH  18  20
ENDBRANCH  17  18
ENDBRANCH   9  17
BRANCH   1  27
HETATM   27  C3  UNL     1      15.062  12.926  79.684  1.00  0.00    -0.018 C 
HETATM   28  C4  UNL     1      14.902  12.670  81.200  1.00  0.00     0.018 C 
BRANCH  27  29
HETATM   29  C2  UNL     1      13.868  12.282  79.072  1.00  0.00     0.007 C 
HETATM   30  C1  UNL     1      13.352  11.033  79.643  1.00  0.00     0.006 C 
ENDBRANCH  27  29
BRANCH  27  31
HETATM   31  C5  UNL     1      14.870  14.418  79.566  1.00  0.00     0.188 C 
BRANCH  31  32
HETATM   32  O1  UNL     1      16.180  14.928  79.349  1.00  0.00    -0.321 OA
BRANCH  32  33
HETATM   33  C6  UNL     1      16.710  15.979  80.064  1.00  0.00     0.254 C 
HETATM   34  C7  UNL     1      18.158  16.246  79.994  1.00  0.00     0.126 C 
HETATM   35  O2  UNL     1      15.902  16.663  80.749  1.00  0.00    -0.266 OA
ENDBRANCH  32  33
ENDBRANCH  31  32
ENDBRANCH  27  31
ENDBRANCH   1  27
BRANCH  14  36
HETATM   36  O9  UNL     1      15.573   9.515  76.485  1.00  0.00    -0.387 OA
HETATM   37  C26 UNL     1      15.614   8.566  75.437  1.00  0.00     0.202 C 
ENDBRANCH  14  36
TORSDOF 9
ENDMDL
MODEL 4
REMARK VINA RESULT: -7.810300156      3.873      7.258
REMARK  9 active torsions:
REMARK  status: ('A' for Active; 'I' for Inactive)
REMARK    1  A    between atoms: C2_2  and  C3_3 
REMARK    2  A    between atoms: C3_3  and  C5_5 
REMARK    3  A    between atoms: C3_3  and  C8_10 
REMARK    4  A    between atoms: C5_5  and  O1_6 
REMARK    5  A    between atoms: O1_6  and  C6_7 
REMARK    6  A    between atoms: C16_18  and  O3_19 
REMARK    7  A    between atoms: O3_19  and  C17_20 
REMARK    8  A    between atoms: C17_20  and  C18_22 
REMARK    9  A    between atoms: C25_33  and  O9_34 
ROOT
HETATM    1  C8  UNL     1      17.866  14.393  78.371  1.00  0.00     0.001 C 
HETATM    2  C9  UNL     1      16.963  13.160  78.192  1.00  0.00     0.006 C 
HETATM    3  C10 UNL     1      17.543  12.088  77.351  1.00  0.00     0.009 C 
HETATM    4  C11 UNL     1      17.852  12.637  76.002  1.00  0.00    -0.043 C 
HETATM    5  C12 UNL     1      18.612  11.584  75.229  1.00  0.00     0.015 C 
HETATM    6  C13 UNL     1      16.651  13.015  75.210  1.00  0.00     0.015 C 
HETATM    7  C14 UNL     1      18.812  13.812  76.232  1.00  0.00     0.003 C 
HETATM    8  C15 UNL     1      20.039  13.242  76.818  1.00  0.00     0.067 C 
HETATM    9  C16 UNL     1      21.210  14.223  76.935  1.00  0.00     0.273 C 
HETATM   10  O7  UNL     1      20.834  15.140  77.878  1.00  0.00    -0.330 OA
HETATM   11  C23 UNL     1      20.247  16.277  77.468  1.00  0.00     0.277 C 
HETATM   12  O8  UNL     1      20.845  16.765  76.287  1.00  0.00    -0.351 OA
HETATM   13  C24 UNL     1      19.663  16.498  75.659  1.00  0.00     0.171 A 
HETATM   14  C25 UNL     1      18.439  17.256  75.885  1.00  0.00     0.167 A 
HETATM   15  C27 UNL     1      18.898  16.187  76.871  1.00  0.00     0.071 A 
HETATM   16  C28 UNL     1      18.145  14.919  77.052  1.00  0.00     0.014 C 
ENDROOT
BRANCH   9  17
HETATM   17  O3  UNL     1      22.331  13.434  77.378  1.00  0.00    -0.287 OA
BRANCH  17  18
HETATM   18  C17 UNL     1      23.125  12.752  76.480  1.00  0.00     0.292 C 
HETATM   19  O4  UNL     1      23.281  13.247  75.338  1.00  0.00    -0.262 OA
BRANCH  18  20
HETATM   20  C18 UNL     1      23.804  11.472  76.784  1.00  0.00     0.248 C 
HETATM   21  C19 UNL     1      24.380  11.491  78.182  1.00  0.00     0.213 C 
HETATM   22  O5  UNL     1      23.495  10.746  78.915  1.00  0.00    -0.353 OA
HETATM   23  C20 UNL     1      22.699  10.020  78.068  1.00  0.00     0.158 C 
HETATM   24  C21 UNL     1      21.259  10.179  78.552  1.00  0.00     0.078 C 
HETATM   25  C22 UNL     1      22.997   8.524  78.133  1.00  0.00     0.078 C 
HETATM   26  O6  UNL     1      22.875  10.463  76.785  1.00  0.00    -0.339 OA
ENDBRANCH  18  20
ENDBRANCH  17  18
ENDBRANCH   9  17
BRANCH   1  27
HETATM   27  C3  UNL     1      17.226  15.126  79.468  1.00  0.00    -0.018 C 
HETATM   28  C4  UNL     1      16.157  16.014  78.792  1.00  0.00     0.018 C 
BRANCH  27  29
HETATM   29  C2  UNL     1      18.047  16.078  80.264  1.00  0.00     0.007 C 
HETATM   30  C1  UNL     1      17.391  17.198  80.950  1.00  0.00     0.006 C 
ENDBRANCH  27  29
BRANCH  27  31
HETATM   31  C5  UNL     1      16.422  14.308  80.449  1.00  0.00     0.188 C 
BRANCH  31  32
HETATM   32  O1  UNL     1      15.074  14.698  80.215  1.00  0.00    -0.321 OA
BRANCH  32  33
HETATM   33  C6  UNL     1      13.992  13.911  80.538  1.00  0.00     0.254 C 
HETATM   34  C7  UNL     1      14.202  12.491  80.874  1.00  0.00     0.126 C 
HETATM   35  O2  UNL     1      12.862  14.470  80.527  1.00  0.00    -0.266 OA
ENDBRANCH  32  33
ENDBRANCH  31  32
ENDBRANCH  27  31
ENDBRANCH   1  27
BRANCH  14  36
HETATM   36  O9  UNL     1      17.351  16.924  75.123  1.00  0.00    -0.387 OA
HETATM   37  C26 UNL     1      16.528  18.064  74.961  1.00  0.00     0.202 C 
ENDBRANCH  14  36
TORSDOF 9
ENDMDL
MODEL 5
REMARK VINA RESULT: -7.768777122      2.203      7.154
REMARK  9 active torsions:
REMARK  status: ('A' for Active; 'I' for Inactive)
REMARK    1  A    between atoms: C2_2  and  C3_3 
REMARK    2  A    between atoms: C3_3  and  C5_5 
REMARK    3  A    between atoms: C3_3  and  C8_10 
REMARK    4  A    between atoms: C5_5  and  O1_6 
REMARK    5  A    between atoms: O1_6  and  C6_7 
REMARK    6  A    between atoms: C16_18  and  O3_19 
REMARK    7  A    between atoms: O3_19  and  C17_20 
REMARK    8  A    between atoms: C17_20  and  C18_22 
REMARK    9  A    between atoms: C25_33  and  O9_34 
ROOT
HETATM    1  C8  UNL     1      17.059  13.505  78.779  1.00  0.00     0.001 C 
HETATM    2  C9  UNL     1      16.983  12.817  80.153  1.00  0.00     0.006 C 
HETATM    3  C10 UNL     1      18.099  11.886  80.438  1.00  0.00     0.009 C 
HETATM    4  C11 UNL     1      18.134  10.829  79.391  1.00  0.00    -0.043 C 
HETATM    5  C12 UNL     1      19.386  10.007  79.595  1.00  0.00     0.015 C 
HETATM    6  C13 UNL     1      16.967   9.907  79.419  1.00  0.00     0.015 C 
HETATM    7  C14 UNL     1      18.286  11.562  78.052  1.00  0.00     0.003 C 
HETATM    8  C15 UNL     1      19.591  12.247  78.095  1.00  0.00     0.067 C 
HETATM    9  C16 UNL     1      20.031  12.875  76.769  1.00  0.00     0.273 C 
HETATM   10  O7  UNL     1      19.165  13.908  76.541  1.00  0.00    -0.330 OA
HETATM   11  C23 UNL     1      18.078  13.678  75.784  1.00  0.00     0.277 C 
HETATM   12  O8  UNL     1      18.379  12.830  74.699  1.00  0.00    -0.351 OA
HETATM   13  C24 UNL     1      17.570  11.902  75.289  1.00  0.00     0.171 A 
HETATM   14  C25 UNL     1      16.120  12.028  75.366  1.00  0.00     0.167 A 
HETATM   15  C27 UNL     1      17.031  12.787  76.326  1.00  0.00     0.071 A 
HETATM   16  C28 UNL     1      17.080  12.463  77.775  1.00  0.00     0.014 C 
ENDROOT
BRANCH   9  17
HETATM   17  O3  UNL     1      21.374  13.345  76.992  1.00  0.00    -0.287 OA
BRANCH  17  18
HETATM   18  C17 UNL     1      22.448  12.479  76.974  1.00  0.00     0.292 C 
HETATM   19  O4  UNL     1      23.594  12.965  76.817  1.00  0.00    -0.262 OA
BRANCH  18  20
HETATM   20  C18 UNL     1      22.328  11.012  77.128  1.00  0.00     0.248 C 
HETATM   21  C19 UNL     1      23.282  10.296  76.199  1.00  0.00     0.213 C 
HETATM   22  O5  UNL     1      24.310   9.906  77.016  1.00  0.00    -0.353 OA
HETATM   23  C20 UNL     1      23.909   9.987  78.324  1.00  0.00     0.158 C 
HETATM   24  C21 UNL     1      25.028  10.682  79.098  1.00  0.00     0.078 C 
HETATM   25  C22 UNL     1      23.750   8.612  78.968  1.00  0.00     0.078 C 
HETATM   26  O6  UNL     1      22.721  10.662  78.396  1.00  0.00    -0.339 OA
ENDBRANCH  18  20
ENDBRANCH  17  18
ENDBRANCH   9  17
BRANCH   1  27
HETATM   27  C3  UNL     1      16.064  14.577  78.880  1.00  0.00    -0.018 C 
HETATM   28  C4  UNL     1      16.668  15.765  78.098  1.00  0.00     0.018 C 
BRANCH  27  29
HETATM   29  C2  UNL     1      15.753  15.139  80.224  1.00  0.00     0.007 C 
HETATM   30  C1  UNL     1      16.289  16.453  80.596  1.00  0.00     0.006 C 
ENDBRANCH  27  29
BRANCH  27  31
HETATM   31  C5  UNL     1      14.746  14.343  78.184  1.00  0.00     0.188 C 
BRANCH  31  32
HETATM   32  O1  UNL     1      13.839  14.034  79.236  1.00  0.00    -0.321 OA
BRANCH  32  33
HETATM   33  C6  UNL     1      13.046  12.908  79.245  1.00  0.00     0.254 C 
HETATM   34  C7  UNL     1      13.658  11.588  79.010  1.00  0.00     0.126 C 
HETATM   35  O2  UNL     1      11.816  13.084  79.461  1.00  0.00    -0.266 OA
ENDBRANCH  32  33
ENDBRANCH  31  32
ENDBRANCH  27  31
ENDBRANCH   1  27
BRANCH  14  36
HETATM   36  O9  UNL     1      15.432  10.980  75.915  1.00  0.00    -0.387 OA
HETATM   37  C26 UNL     1      16.134   9.777  75.664  1.00  0.00     0.202 C 
ENDBRANCH  14  36
TORSDOF 9
ENDMDL
