MODEL 1
REMARK VINA RESULT: -8.240480931      0.000      0.000
REMARK  14 active torsions:
REMARK  status: ('A' for Active; 'I' for Inactive)
REMARK    1  A    between atoms: O1_2  and  C2_3 
REMARK    2  A    between atoms: C7_12  and  O3_13 
REMARK    3  A    between atoms: C8_16  and  C9_17 
REMARK    4  A    between atoms: C8_16  and  S1_22 
REMARK    5  A    between atoms: C9_17  and  O5_18 
REMARK    6  A    between atoms: C9_17  and  O6_20 
REMARK    7  A    between atoms: C11_31  and  N3_32 
REMARK    8  A    between atoms: N3_32  and  C12_34 
REMARK    9  A    between atoms: C12_34  and  O11_35 
REMARK   10  A    between atoms: C12_34  and  C13_37 
REMARK   11  A    between atoms: C13_37  and  O12_38 
REMARK   12  A    between atoms: C13_37  and  C14_40 
REMARK   13  A    between atoms: C14_40  and  O13_41 
REMARK   14  A    between atoms: C15_43  and  O14_44 
ROOT
HETATM    1  C2  UNL     1      36.773  35.777  51.941  1.00  0.00     0.177 C 
HETATM    2  C3  UNL     1      35.347  35.464  52.323  1.00  0.00     0.208 C 
HETATM    3  O2  UNL     1      34.720  36.704  52.587  1.00  0.00    -0.329 OA
HETATM    4  C4  UNL     1      33.936  37.070  51.494  1.00  0.00     0.369 C 
HETATM    5  N1  UNL     1      32.909  36.023  51.377  1.00  0.00    -0.014 N 
ATOM      6  H11 UNL     1      33.263  35.089  51.587  1.00  0.00     0.283 HD
ATOM      7  H12 UNL     1      32.629  35.841  50.413  1.00  0.00     0.283 HD
HETATM    8  C5  UNL     1      31.803  36.421  52.229  1.00  0.00     0.251 C 
HETATM    9  C6  UNL     1      32.198  37.689  52.891  1.00  0.00     0.105 C 
HETATM   10  C7  UNL     1      31.123  38.719  53.014  1.00  0.00     0.269 C 
HETATM   11  O4  UNL     1      31.569  39.988  53.204  1.00  0.00    -0.306 OA
HETATM   12  C8  UNL     1      32.793  40.344  52.825  1.00  0.00     0.400 C 
HETATM   13  N2  UNL     1      33.741  39.369  52.420  1.00  0.00    -0.008 N 
ATOM     14  H21 UNL     1      34.327  39.073  53.200  1.00  0.00     0.283 HD
ATOM     15  H22 UNL     1      34.463  39.777  51.825  1.00  0.00     0.283 HD
HETATM   16  C10 UNL     1      33.120  38.268  51.795  1.00  0.00     0.293 C 
HETATM   17  O10 UNL     1      34.655  37.116  50.320  1.00  0.00    -0.304 OA
HETATM   18  C11 UNL     1      35.965  37.566  50.497  1.00  0.00     0.255 C 
HETATM   19  C15 UNL     1      36.856  36.390  50.548  1.00  0.00     0.197 C 
ENDROOT
BRANCH  18  20
HETATM   20  N3  UNL     1      36.233  38.599  49.604  1.00  0.00    -0.367 N 
ATOM     21  H3  UNL     1      36.198  38.396  48.605  1.00  0.00     0.158 HD
BRANCH  20  22
HETATM   22  C12 UNL     1      36.546  39.888  50.000  1.00  0.00     0.246 C 
BRANCH  22  23
HETATM   23  O11 UNL     1      35.356  40.660  49.863  1.00  0.00    -0.374 OA
ATOM     24  H11 UNL     1      35.566  41.541  50.150  1.00  0.00     0.212 HD
ENDBRANCH  22  23
BRANCH  22  25
HETATM   25  C13 UNL     1      37.575  40.635  49.207  1.00  0.00     0.190 C 
BRANCH  25  26
HETATM   26  O12 UNL     1      37.754  41.924  49.750  1.00  0.00    -0.389 OA
ATOM     27  H12 UNL     1      38.157  42.493  49.104  1.00  0.00     0.210 HD
ENDBRANCH  25  26
BRANCH  25  28
HETATM   28  C14 UNL     1      38.904  39.894  49.420  1.00  0.00     0.200 C 
BRANCH  28  29
HETATM   29  O13 UNL     1      38.966  38.735  48.685  1.00  0.00    -0.398 OA
ATOM     30  H13 UNL     1      39.169  37.983  49.229  1.00  0.00     0.209 HD
ENDBRANCH  28  29
ENDBRANCH  25  28
ENDBRANCH  22  25
ENDBRANCH  20  22
ENDBRANCH  18  20
BRANCH   1  31
HETATM   31  O1  UNL     1      37.607  34.677  52.058  1.00  0.00    -0.386 OA
HETATM   32  C1  UNL     1      36.948  33.531  52.462  1.00  0.00     0.202 C 
ENDBRANCH   1  31
BRANCH  10  33
HETATM   33  O3  UNL     1      30.263  38.361  54.050  1.00  0.00    -0.371 OA
ATOM     34  H3  UNL     1      30.077  39.127  54.580  1.00  0.00     0.212 HD
ENDBRANCH  10  33
BRANCH  12  35
HETATM   35  C9  UNL     1      33.444  41.135  53.972  1.00  0.00     0.338 C 
BRANCH  35  36
HETATM   36  O5  UNL     1      32.695  42.263  54.275  1.00  0.00    -0.366 OA
ATOM     37  H5  UNL     1      32.615  42.369  55.215  1.00  0.00     0.212 HD
ENDBRANCH  35  36
BRANCH  35  38
HETATM   38  O6  UNL     1      33.446  40.320  55.099  1.00  0.00    -0.366 OA
ATOM     39  H6  UNL     1      33.335  40.878  55.859  1.00  0.00     0.212 HD
ENDBRANCH  35  38
ENDBRANCH  12  35
BRANCH  12  40
HETATM   40  S1  UNL     1      32.648  41.532  51.481  1.00  0.00     0.172 S 
HETATM   41  O7  UNL     1      31.406  42.328  51.688  1.00  0.00    -0.591 OA
HETATM   42  O8  UNL     1      32.533  40.822  50.164  1.00  0.00    -0.591 OA
HETATM   43  O9  UNL     1      33.967  42.569  51.476  1.00  0.00    -0.591 OA
ENDBRANCH  12  40
BRANCH  19  44
HETATM   44  O14 UNL     1      38.197  36.649  50.331  1.00  0.00    -0.389 OA
ATOM     45  H14 UNL     1      38.314  37.573  50.516  1.00  0.00     0.210 HD
ENDBRANCH  19  44
TORSDOF 14
ENDMDL
MODEL 2
REMARK VINA RESULT: -7.889489169      4.528      8.374
REMARK  14 active torsions:
REMARK  status: ('A' for Active; 'I' for Inactive)
REMARK    1  A    between atoms: O1_2  and  C2_3 
REMARK    2  A    between atoms: C7_12  and  O3_13 
REMARK    3  A    between atoms: C8_16  and  C9_17 
REMARK    4  A    between atoms: C8_16  and  S1_22 
REMARK    5  A    between atoms: C9_17  and  O5_18 
REMARK    6  A    between atoms: C9_17  and  O6_20 
REMARK    7  A    between atoms: C11_31  and  N3_32 
REMARK    8  A    between atoms: N3_32  and  C12_34 
REMARK    9  A    between atoms: C12_34  and  O11_35 
REMARK   10  A    between atoms: C12_34  and  C13_37 
REMARK   11  A    between atoms: C13_37  and  O12_38 
REMARK   12  A    between atoms: C13_37  and  C14_40 
REMARK   13  A    between atoms: C14_40  and  O13_41 
REMARK   14  A    between atoms: C15_43  and  O14_44 
ROOT
HETATM    1  C2  UNL     1      27.169  43.598  50.172  1.00  0.00     0.177 C 
HETATM    2  C3  UNL     1      28.421  43.975  49.416  1.00  0.00     0.208 C 
HETATM    3  O2  UNL     1      29.512  43.536  50.201  1.00  0.00    -0.329 OA
HETATM    4  C4  UNL     1      30.018  42.350  49.671  1.00  0.00     0.369 C 
HETATM    5  N1  UNL     1      30.498  42.695  48.323  1.00  0.00    -0.014 N 
ATOM      6  H11 UNL     1      29.901  43.370  47.845  1.00  0.00     0.283 HD
ATOM      7  H12 UNL     1      30.395  41.933  47.653  1.00  0.00     0.283 HD
HETATM    8  C5  UNL     1      31.870  43.147  48.468  1.00  0.00     0.251 C 
HETATM    9  C6  UNL     1      32.189  43.113  49.917  1.00  0.00     0.105 C 
HETATM   10  C7  UNL     1      33.555  42.623  50.270  1.00  0.00     0.269 C 
HETATM   11  O4  UNL     1      33.691  42.186  51.549  1.00  0.00    -0.306 OA
HETATM   12  C8  UNL     1      32.634  41.774  52.244  1.00  0.00     0.400 C 
HETATM   13  N2  UNL     1      31.317  41.984  51.758  1.00  0.00    -0.008 N 
ATOM     14  H21 UNL     1      30.920  42.850  52.123  1.00  0.00     0.283 HD
ATOM     15  H22 UNL     1      30.660  41.321  52.170  1.00  0.00     0.283 HD
HETATM   16  C10 UNL     1      31.271  41.948  50.350  1.00  0.00     0.293 C 
HETATM   17  O10 UNL     1      29.058  41.369  49.559  1.00  0.00    -0.304 OA
HETATM   18  C11 UNL     1      28.123  41.396  50.597  1.00  0.00     0.255 C 
HETATM   19  C15 UNL     1      26.917  42.096  50.115  1.00  0.00     0.197 C 
ENDROOT
BRANCH  18  20
HETATM   20  N3  UNL     1      28.010  40.129  51.162  1.00  0.00    -0.367 N 
ATOM     21  H3  UNL     1      27.075  39.747  51.308  1.00  0.00     0.158 HD
BRANCH  20  22
HETATM   22  C12 UNL     1      29.098  39.361  51.536  1.00  0.00     0.246 C 
BRANCH  22  23
HETATM   23  O11 UNL     1      29.654  38.825  50.339  1.00  0.00    -0.374 OA
ATOM     24  H11 UNL     1      30.528  39.189  50.256  1.00  0.00     0.212 HD
ENDBRANCH  22  23
BRANCH  22  25
HETATM   25  C13 UNL     1      28.846  38.166  52.405  1.00  0.00     0.190 C 
BRANCH  25  26
HETATM   26  O12 UNL     1      30.062  37.499  52.665  1.00  0.00    -0.389 OA
ATOM     27  H12 UNL     1      30.566  37.987  53.306  1.00  0.00     0.210 HD
ENDBRANCH  25  26
BRANCH  25  28
HETATM   28  C14 UNL     1      28.362  38.711  53.757  1.00  0.00     0.200 C 
BRANCH  28  29
HETATM   29  O13 UNL     1      29.161  38.293  54.793  1.00  0.00    -0.398 OA
ATOM     30  H13 UNL     1      30.083  38.343  54.570  1.00  0.00     0.209 HD
ENDBRANCH  28  29
ENDBRANCH  25  28
ENDBRANCH  22  25
ENDBRANCH  20  22
ENDBRANCH  18  20
BRANCH   1  31
HETATM   31  O1  UNL     1      26.061  44.312  49.750  1.00  0.00    -0.386 OA
HETATM   32  C1  UNL     1      26.345  45.627  49.429  1.00  0.00     0.202 C 
ENDBRANCH   1  31
BRANCH  10  33
HETATM   33  O3  UNL     1      34.483  43.630  50.015  1.00  0.00    -0.371 OA
ATOM     34  H3  UNL     1      34.691  44.076  50.828  1.00  0.00     0.212 HD
ENDBRANCH  10  33
BRANCH  12  35
HETATM   35  C9  UNL     1      32.692  42.416  53.640  1.00  0.00     0.338 C 
BRANCH  35  36
HETATM   36  O5  UNL     1      32.999  41.467  54.603  1.00  0.00    -0.366 OA
ATOM     37  H5  UNL     1      32.209  41.154  55.028  1.00  0.00     0.212 HD
ENDBRANCH  35  36
BRANCH  35  38
HETATM   38  O6  UNL     1      33.723  43.351  53.631  1.00  0.00    -0.366 OA
ATOM     39  H6  UNL     1      33.910  43.582  54.534  1.00  0.00     0.212 HD
ENDBRANCH  35  38
ENDBRANCH  12  35
BRANCH  12  40
HETATM   40  S1  UNL     1      32.809  40.009  52.551  1.00  0.00     0.172 S 
HETATM   41  O7  UNL     1      34.217  39.740  52.959  1.00  0.00    -0.591 OA
HETATM   42  O8  UNL     1      32.529  39.229  51.300  1.00  0.00    -0.591 OA
HETATM   43  O9  UNL     1      31.782  39.528  53.787  1.00  0.00    -0.591 OA
ENDBRANCH  12  40
BRANCH  19  44
HETATM   44  O14 UNL     1      25.768  41.881  50.856  1.00  0.00    -0.389 OA
ATOM     45  H14 UNL     1      25.985  42.132  51.746  1.00  0.00     0.210 HD
ENDBRANCH  19  44
TORSDOF 14
ENDMDL
MODEL 3
REMARK VINA RESULT: -7.853098838      4.597      8.480
REMARK  14 active torsions:
REMARK  status: ('A' for Active; 'I' for Inactive)
REMARK    1  A    between atoms: O1_2  and  C2_3 
REMARK    2  A    between atoms: C7_12  and  O3_13 
REMARK    3  A    between atoms: C8_16  and  C9_17 
REMARK    4  A    between atoms: C8_16  and  S1_22 
REMARK    5  A    between atoms: C9_17  and  O5_18 
REMARK    6  A    between atoms: C9_17  and  O6_20 
REMARK    7  A    between atoms: C11_31  and  N3_32 
REMARK    8  A    between atoms: N3_32  and  C12_34 
REMARK    9  A    between atoms: C12_34  and  O11_35 
REMARK   10  A    between atoms: C12_34  and  C13_37 
REMARK   11  A    between atoms: C13_37  and  O12_38 
REMARK   12  A    between atoms: C13_37  and  C14_40 
REMARK   13  A    between atoms: C14_40  and  O13_41 
REMARK   14  A    between atoms: C15_43  and  O14_44 
ROOT
HETATM    1  C2  UNL     1      27.173  43.493  49.628  1.00  0.00     0.177 C 
HETATM    2  C3  UNL     1      28.324  44.004  48.795  1.00  0.00     0.208 C 
HETATM    3  O2  UNL     1      29.506  43.679  49.501  1.00  0.00    -0.329 OA
HETATM    4  C4  UNL     1      30.097  42.555  48.925  1.00  0.00     0.369 C 
HETATM    5  N1  UNL     1      30.446  42.954  47.553  1.00  0.00    -0.014 N 
ATOM      6  H11 UNL     1      29.751  43.564  47.123  1.00  0.00     0.283 HD
ATOM      7  H12 UNL     1      30.379  42.188  46.882  1.00  0.00     0.283 HD
HETATM    8  C5  UNL     1      31.769  43.548  47.610  1.00  0.00     0.251 C 
HETATM    9  C6  UNL     1      32.187  43.543  49.035  1.00  0.00     0.105 C 
HETATM   10  C7  UNL     1      33.618  43.198  49.291  1.00  0.00     0.269 C 
HETATM   11  O4  UNL     1      33.885  42.773  50.553  1.00  0.00    -0.306 OA
HETATM   12  C8  UNL     1      32.927  42.249  51.312  1.00  0.00     0.400 C 
HETATM   13  N2  UNL     1      31.565  42.320  50.918  1.00  0.00    -0.008 N 
ATOM     14  H21 UNL     1      31.104  43.138  51.317  1.00  0.00     0.283 HD
ATOM     15  H22 UNL     1      31.010  41.591  51.365  1.00  0.00     0.283 HD
HETATM   16  C10 UNL     1      31.428  42.286  49.515  1.00  0.00     0.293 C 
HETATM   17  O10 UNL     1      29.240  41.478  48.867  1.00  0.00    -0.304 OA
HETATM   18  C11 UNL     1      28.380  41.402  49.965  1.00  0.00     0.255 C 
HETATM   19  C15 UNL     1      27.076  41.973  49.572  1.00  0.00     0.197 C 
ENDROOT
BRANCH  18  20
HETATM   20  N3  UNL     1      28.439  40.129  50.522  1.00  0.00    -0.367 N 
ATOM     21  H3  UNL     1      28.396  39.325  49.896  1.00  0.00     0.158 HD
BRANCH  20  22
HETATM   22  C12 UNL     1      28.552  39.896  51.882  1.00  0.00     0.246 C 
BRANCH  22  23
HETATM   23  O11 UNL     1      29.754  40.531  52.309  1.00  0.00    -0.374 OA
ATOM     24  H11 UNL     1      29.495  41.288  52.822  1.00  0.00     0.212 HD
ENDBRANCH  22  23
BRANCH  22  25
HETATM   25  C13 UNL     1      28.691  38.476  52.340  1.00  0.00     0.190 C 
BRANCH  25  26
HETATM   26  O12 UNL     1      30.012  38.031  52.125  1.00  0.00    -0.389 OA
ATOM     27  H12 UNL     1      30.254  38.167  51.216  1.00  0.00     0.210 HD
ENDBRANCH  25  26
BRANCH  25  28
HETATM   28  C14 UNL     1      28.490  38.494  53.863  1.00  0.00     0.200 C 
BRANCH  28  29
HETATM   29  O13 UNL     1      29.682  38.382  54.537  1.00  0.00    -0.398 OA
ATOM     30  H13 UNL     1      29.775  39.054  55.203  1.00  0.00     0.209 HD
ENDBRANCH  28  29
ENDBRANCH  25  28
ENDBRANCH  22  25
ENDBRANCH  20  22
ENDBRANCH  18  20
BRANCH   1  31
HETATM   31  O1  UNL     1      25.970  44.087  49.289  1.00  0.00    -0.386 OA
HETATM   32  C1  UNL     1      26.020  45.469  49.295  1.00  0.00     0.202 C 
ENDBRANCH   1  31
BRANCH  10  33
HETATM   33  O3  UNL     1      34.416  44.298  48.985  1.00  0.00    -0.371 OA
ATOM     34  H3  UNL     1      34.528  44.829  49.765  1.00  0.00     0.212 HD
ENDBRANCH  10  33
BRANCH  12  35
HETATM   35  C9  UNL     1      33.010  42.889  52.708  1.00  0.00     0.338 C 
BRANCH  35  36
HETATM   36  O5  UNL     1      32.912  44.270  52.620  1.00  0.00    -0.366 OA
ATOM     37  H5  UNL     1      33.734  44.646  52.330  1.00  0.00     0.212 HD
ENDBRANCH  35  36
BRANCH  35  38
HETATM   38  O6  UNL     1      31.919  42.438  53.445  1.00  0.00    -0.366 OA
ATOM     39  H6  UNL     1      31.958  42.851  54.299  1.00  0.00     0.212 HD
ENDBRANCH  35  38
ENDBRANCH  12  35
BRANCH  12  40
HETATM   40  S1  UNL     1      33.307  40.512  51.588  1.00  0.00     0.172 S 
HETATM   41  O7  UNL     1      34.474  40.145  50.738  1.00  0.00    -0.591 OA
HETATM   42  O8  UNL     1      32.146  39.651  51.183  1.00  0.00    -0.591 OA
HETATM   43  O9  UNL     1      33.700  40.249  53.197  1.00  0.00    -0.591 OA
ENDBRANCH  12  40
BRANCH  19  44
HETATM   44  O14 UNL     1      26.009  41.635  50.385  1.00  0.00    -0.389 OA
ATOM     45  H14 UNL     1      26.042  40.690  50.474  1.00  0.00     0.210 HD
ENDBRANCH  19  44
TORSDOF 14
ENDMDL
MODEL 4
REMARK VINA RESULT: -7.706471248      4.288      7.774
REMARK  14 active torsions:
REMARK  status: ('A' for Active; 'I' for Inactive)
REMARK    1  A    between atoms: O1_2  and  C2_3 
REMARK    2  A    between atoms: C7_12  and  O3_13 
REMARK    3  A    between atoms: C8_16  and  C9_17 
REMARK    4  A    between atoms: C8_16  and  S1_22 
REMARK    5  A    between atoms: C9_17  and  O5_18 
REMARK    6  A    between atoms: C9_17  and  O6_20 
REMARK    7  A    between atoms: C11_31  and  N3_32 
REMARK    8  A    between atoms: N3_32  and  C12_34 
REMARK    9  A    between atoms: C12_34  and  O11_35 
REMARK   10  A    between atoms: C12_34  and  C13_37 
REMARK   11  A    between atoms: C13_37  and  O12_38 
REMARK   12  A    between atoms: C13_37  and  C14_40 
REMARK   13  A    between atoms: C14_40  and  O13_41 
REMARK   14  A    between atoms: C15_43  and  O14_44 
ROOT
HETATM    1  C2  UNL     1      30.830  37.741  52.014  1.00  0.00     0.177 C 
HETATM    2  C3  UNL     1      31.903  38.793  51.874  1.00  0.00     0.208 C 
HETATM    3  O2  UNL     1      31.424  39.733  50.932  1.00  0.00    -0.329 OA
HETATM    4  C4  UNL     1      30.951  40.861  51.601  1.00  0.00     0.369 C 
HETATM    5  N1  UNL     1      32.119  41.424  52.296  1.00  0.00    -0.014 N 
ATOM      6  H11 UNL     1      32.745  40.712  52.671  1.00  0.00     0.283 HD
ATOM      7  H12 UNL     1      31.883  41.869  53.183  1.00  0.00     0.283 HD
HETATM    8  C5  UNL     1      32.773  42.324  51.362  1.00  0.00     0.251 C 
HETATM    9  C6  UNL     1      32.012  42.256  50.089  1.00  0.00     0.105 C 
HETATM   10  C7  UNL     1      31.817  43.557  49.380  1.00  0.00     0.269 C 
HETATM   11  O4  UNL     1      30.790  43.572  48.491  1.00  0.00    -0.306 OA
HETATM   12  C8  UNL     1      29.779  42.715  48.603  1.00  0.00     0.400 C 
HETATM   13  N2  UNL     1      29.847  41.625  49.508  1.00  0.00    -0.008 N 
ATOM     14  H21 UNL     1      30.197  40.783  49.051  1.00  0.00     0.283 HD
ATOM     15  H22 UNL     1      28.915  41.293  49.761  1.00  0.00     0.283 HD
HETATM   16  C10 UNL     1      30.607  41.944  50.651  1.00  0.00     0.293 C 
HETATM   17  O10 UNL     1      29.986  40.557  52.535  1.00  0.00    -0.304 OA
HETATM   18  C11 UNL     1      29.154  39.507  52.141  1.00  0.00     0.255 C 
HETATM   19  C15 UNL     1      29.630  38.270  52.792  1.00  0.00     0.197 C 
ENDROOT
BRANCH  18  20
HETATM   20  N3  UNL     1      27.822  39.888  52.268  1.00  0.00    -0.367 N 
ATOM     21  H3  UNL     1      27.215  39.801  51.453  1.00  0.00     0.158 HD
BRANCH  20  22
HETATM   22  C12 UNL     1      27.278  40.380  53.441  1.00  0.00     0.246 C 
BRANCH  22  23
HETATM   23  O11 UNL     1      26.030  39.716  53.625  1.00  0.00    -0.374 OA
ATOM     24  H11 UNL     1      25.805  39.804  54.544  1.00  0.00     0.212 HD
ENDBRANCH  22  23
BRANCH  22  25
HETATM   25  C13 UNL     1      26.943  41.839  53.501  1.00  0.00     0.190 C 
BRANCH  25  26
HETATM   26  O12 UNL     1      28.011  42.596  52.976  1.00  0.00    -0.389 OA
ATOM     27  H12 UNL     1      28.085  43.418  53.447  1.00  0.00     0.210 HD
ENDBRANCH  25  26
BRANCH  25  28
HETATM   28  C14 UNL     1      25.760  42.049  52.544  1.00  0.00     0.200 C 
BRANCH  28  29
HETATM   29  O13 UNL     1      26.125  41.865  51.232  1.00  0.00    -0.398 OA
ATOM     30  H13 UNL     1      25.413  41.508  50.714  1.00  0.00     0.209 HD
ENDBRANCH  28  29
ENDBRANCH  25  28
ENDBRANCH  22  25
ENDBRANCH  20  22
ENDBRANCH  18  20
BRANCH   1  31
HETATM   31  O1  UNL     1      31.309  36.566  52.567  1.00  0.00    -0.386 OA
HETATM   32  C1  UNL     1      32.418  36.063  51.910  1.00  0.00     0.202 C 
ENDBRANCH   1  31
BRANCH  10  33
HETATM   33  O3  UNL     1      33.001  43.911  48.738  1.00  0.00    -0.371 OA
ATOM     34  H3  UNL     1      33.536  43.135  48.619  1.00  0.00     0.212 HD
ENDBRANCH  10  33
BRANCH  12  35
HETATM   35  C9  UNL     1      29.498  42.114  47.216  1.00  0.00     0.338 C 
BRANCH  35  36
HETATM   36  O5  UNL     1      28.550  41.105  47.303  1.00  0.00    -0.366 OA
ATOM     37  H5  UNL     1      28.101  40.995  46.473  1.00  0.00     0.212 HD
ENDBRANCH  35  36
BRANCH  35  38
HETATM   38  O6  UNL     1      28.963  43.122  46.419  1.00  0.00    -0.366 OA
ATOM     39  H6  UNL     1      29.112  42.883  45.513  1.00  0.00     0.212 HD
ENDBRANCH  35  38
ENDBRANCH  12  35
BRANCH  12  40
HETATM   40  S1  UNL     1      28.289  43.643  49.003  1.00  0.00     0.172 S 
HETATM   41  O7  UNL     1      28.363  44.055  50.433  1.00  0.00    -0.591 OA
HETATM   42  O8  UNL     1      27.072  42.782  48.828  1.00  0.00    -0.591 OA
HETATM   43  O9  UNL     1      28.182  45.015  48.045  1.00  0.00    -0.591 OA
ENDBRANCH  12  40
BRANCH  19  44
HETATM   44  O14 UNL     1      28.719  37.229  52.829  1.00  0.00    -0.389 OA
ATOM     45  H14 UNL     1      28.123  37.434  53.540  1.00  0.00     0.210 HD
ENDBRANCH  19  44
TORSDOF 14
ENDMDL
MODEL 5
REMARK VINA RESULT: -7.686736318      6.633     10.591
REMARK  14 active torsions:
REMARK  status: ('A' for Active; 'I' for Inactive)
REMARK    1  A    between atoms: O1_2  and  C2_3 
REMARK    2  A    between atoms: C7_12  and  O3_13 
REMARK    3  A    between atoms: C8_16  and  C9_17 
REMARK    4  A    between atoms: C8_16  and  S1_22 
REMARK    5  A    between atoms: C9_17  and  O5_18 
REMARK    6  A    between atoms: C9_17  and  O6_20 
REMARK    7  A    between atoms: C11_31  and  N3_32 
REMARK    8  A    between atoms: N3_32  and  C12_34 
REMARK    9  A    between atoms: C12_34  and  O11_35 
REMARK   10  A    between atoms: C12_34  and  C13_37 
REMARK   11  A    between atoms: C13_37  and  O12_38 
REMARK   12  A    between atoms: C13_37  and  C14_40 
REMARK   13  A    between atoms: C14_40  and  O13_41 
REMARK   14  A    between atoms: C15_43  and  O14_44 
ROOT
HETATM    1  C2  UNL     1      27.967  47.609  48.190  1.00  0.00     0.177 C 
HETATM    2  C3  UNL     1      29.188  46.928  47.619  1.00  0.00     0.208 C 
HETATM    3  O2  UNL     1      29.619  45.995  48.590  1.00  0.00    -0.329 OA
HETATM    4  C4  UNL     1      29.211  44.715  48.217  1.00  0.00     0.369 C 
HETATM    5  N1  UNL     1      29.895  44.440  46.944  1.00  0.00    -0.014 N 
ATOM      6  H11 UNL     1      29.961  45.259  46.339  1.00  0.00     0.283 HD
ATOM      7  H12 UNL     1      29.347  43.856  46.312  1.00  0.00     0.283 HD
HETATM    8  C5  UNL     1      31.187  43.868  47.274  1.00  0.00     0.251 C 
HETATM    9  C6  UNL     1      31.288  43.848  48.755  1.00  0.00     0.105 C 
HETATM   10  C7  UNL     1      31.916  42.628  49.347  1.00  0.00     0.269 C 
HETATM   11  O4  UNL     1      31.620  42.413  50.655  1.00  0.00    -0.306 OA
HETATM   12  C8  UNL     1      30.521  42.928  51.199  1.00  0.00     0.400 C 
HETATM   13  N2  UNL     1      29.747  43.891  50.501  1.00  0.00    -0.008 N 
ATOM     14  H21 UNL     1      30.026  44.841  50.746  1.00  0.00     0.283 HD
ATOM     15  H22 UNL     1      28.786  43.915  50.843  1.00  0.00     0.283 HD
HETATM   16  C10 UNL     1      29.793  43.685  49.107  1.00  0.00     0.293 C 
HETATM   17  O10 UNL     1      27.851  44.631  48.015  1.00  0.00    -0.304 OA
HETATM   18  C11 UNL     1      27.117  45.435  48.890  1.00  0.00     0.255 C 
HETATM   19  C15 UNL     1      26.758  46.681  48.184  1.00  0.00     0.197 C 
ENDROOT
BRANCH  18  20
HETATM   20  N3  UNL     1      26.125  44.677  49.505  1.00  0.00    -0.367 N 
ATOM     21  H3  UNL     1      25.535  44.086  48.918  1.00  0.00     0.158 HD
BRANCH  20  22
HETATM   22  C12 UNL     1      25.895  44.683  50.869  1.00  0.00     0.246 C 
BRANCH  22  23
HETATM   23  O11 UNL     1      27.172  44.648  51.500  1.00  0.00    -0.374 OA
ATOM     24  H11 UNL     1      27.098  45.160  52.297  1.00  0.00     0.212 HD
ENDBRANCH  22  23
BRANCH  22  25
HETATM   25  C13 UNL     1      25.149  43.526  51.460  1.00  0.00     0.190 C 
BRANCH  25  26
HETATM   26  O12 UNL     1      23.810  43.895  51.705  1.00  0.00    -0.389 OA
ATOM     27  H12 UNL     1      23.784  44.733  52.154  1.00  0.00     0.210 HD
ENDBRANCH  25  26
BRANCH  25  28
HETATM   28  C14 UNL     1      25.100  42.444  50.369  1.00  0.00     0.200 C 
BRANCH  28  29
HETATM   29  O13 UNL     1      26.328  41.862  50.171  1.00  0.00    -0.398 OA
ATOM     30  H13 UNL     1      27.030  42.384  50.542  1.00  0.00     0.209 HD
ENDBRANCH  28  29
ENDBRANCH  25  28
ENDBRANCH  22  25
ENDBRANCH  20  22
ENDBRANCH  18  20
BRANCH   1  31
HETATM   31  O1  UNL     1      27.685  48.808  47.557  1.00  0.00    -0.386 OA
HETATM   32  C1  UNL     1      28.584  49.124  46.556  1.00  0.00     0.202 C 
ENDBRANCH   1  31
BRANCH  10  33
HETATM   33  O3  UNL     1      33.297  42.697  49.181  1.00  0.00    -0.371 OA
ATOM     34  H3  UNL     1      33.521  42.400  48.307  1.00  0.00     0.212 HD
ENDBRANCH  10  33
BRANCH  12  35
HETATM   35  C9  UNL     1      30.900  43.566  52.546  1.00  0.00     0.338 C 
BRANCH  35  36
HETATM   36  O5  UNL     1      32.132  44.197  52.458  1.00  0.00    -0.366 OA
ATOM     37  H5  UNL     1      32.521  44.292  53.319  1.00  0.00     0.212 HD
ENDBRANCH  35  36
BRANCH  35  38
HETATM   38  O6  UNL     1      29.950  44.541  52.833  1.00  0.00    -0.366 OA
ATOM     39  H6  UNL     1      29.092  44.148  52.725  1.00  0.00     0.212 HD
ENDBRANCH  35  38
ENDBRANCH  12  35
BRANCH  12  40
HETATM   40  S1  UNL     1      29.415  41.576  51.634  1.00  0.00     0.172 S 
HETATM   41  O7  UNL     1      30.192  40.561  52.398  1.00  0.00    -0.591 OA
HETATM   42  O8  UNL     1      28.878  40.919  50.396  1.00  0.00    -0.591 OA
HETATM   43  O9  UNL     1      28.159  42.137  52.594  1.00  0.00    -0.591 OA
ENDBRANCH  12  40
BRANCH  19  44
HETATM   44  O14 UNL     1      25.725  47.408  48.747  1.00  0.00    -0.389 OA
ATOM     45  H14 UNL     1      25.166  47.663  48.023  1.00  0.00     0.210 HD
ENDBRANCH  19  44
TORSDOF 14
ENDMDL
