MODEL 1
REMARK VINA RESULT: -9.152647617      0.000      0.000
REMARK  17 active torsions:
REMARK  status: ('A' for Active; 'I' for Inactive)
REMARK    1  A    between atoms: N1_1  and  C1_4 
REMARK    2  A    between atoms: C2_7  and  N3_8 
REMARK    3  A    between atoms: N3_8  and  C3_10 
REMARK    4  A    between atoms: C6_15  and  O3_16 
REMARK    5  A    between atoms: C6_15  and  C7_18 
REMARK    6  A    between atoms: C7_18  and  O4_19 
REMARK    7  A    between atoms: N6_26  and  C9_27 
REMARK    8  A    between atoms: C10_29  and  C11_30 
REMARK    9  A    between atoms: C11_30  and  N7_31 
REMARK   10  A    between atoms: C11_30  and  C12_35 
REMARK   11  A    between atoms: C12_35  and  O6_36 
REMARK   12  A    between atoms: C12_35  and  C13_38 
REMARK   13  A    between atoms: C13_38  and  O7_39 
REMARK   14  A    between atoms: C13_38  and  C14_41 
REMARK   15  A    between atoms: C14_41  and  O8_42 
REMARK   16  A    between atoms: C15_44  and  O9_45 
REMARK   17  A    between atoms: C16_47  and  O10_48 
ROOT
HETATM    1  C1  UNL     1      34.090  36.535  51.735  1.00  0.00     0.679 A 
HETATM    2  N2  UNL     1      33.622  37.794  51.702  1.00  0.00    -0.175 N 
ATOM      3  H2  UNL     1      32.717  37.975  52.136  1.00  0.00     0.186 HD
HETATM    4  C2  UNL     1      34.257  38.824  51.142  1.00  0.00     0.150 A 
HETATM    5  C8  UNL     1      35.496  38.575  50.549  1.00  0.00     0.140 A 
HETATM    6  N4  UNL     1      36.400  39.316  49.911  1.00  0.00    -0.279 N 
ATOM      7  H4  UNL     1      36.332  40.317  49.724  1.00  0.00     0.189 HD
HETATM    8  N5  UNL     1      37.398  38.526  49.563  1.00  0.00    -0.236 N 
ATOM      9  H5  UNL     1      38.228  38.838  49.059  1.00  0.00     0.208 HD
HETATM   10  N6  UNL     1      37.191  37.287  49.946  1.00  0.00    -0.227 N 
HETATM   11  C17 UNL     1      35.982  37.293  50.578  1.00  0.00     0.173 A 
HETATM   12  N8  UNL     1      35.284  36.301  51.163  1.00  0.00    -0.173 N 
ATOM     13  H8  UNL     1      35.667  35.355  51.171  1.00  0.00     0.186 HD
ENDROOT
BRANCH  10  14
HETATM   14  C9  UNL     1      37.988  36.105  49.790  1.00  0.00     0.279 C 
HETATM   15  O5  UNL     1      38.032  35.308  50.902  1.00  0.00    -0.352 OA
HETATM   16  C10 UNL     1      39.280  34.716  50.978  1.00  0.00     0.188 C 
HETATM   17  C15 UNL     1      40.084  35.111  49.810  1.00  0.00     0.182 C 
HETATM   18  C16 UNL     1      39.432  36.440  49.422  1.00  0.00     0.200 C 
BRANCH  16  19
HETATM   19  C11 UNL     1      39.107  33.259  51.218  1.00  0.00     0.246 C 
BRANCH  19  20
HETATM   20  N7  UNL     1      40.381  32.604  50.901  1.00  0.00    -0.070 N 
ATOM     21  H73 UNL     1      40.557  32.542  49.898  1.00  0.00     0.274 HD
ATOM     22  H72 UNL     1      41.191  33.174  51.144  1.00  0.00     0.274 HD
ATOM     23  H71 UNL     1      40.383  31.694  51.361  1.00  0.00     0.274 HD
ENDBRANCH  19  20
BRANCH  19  24
HETATM   24  C12 UNL     1      38.053  32.590  50.403  1.00  0.00     0.181 C 
BRANCH  24  25
HETATM   25  O6  UNL     1      38.605  31.662  49.523  1.00  0.00    -0.391 OA
ATOM     26  H6  UNL     1      37.955  31.335  48.912  1.00  0.00     0.210 HD
ENDBRANCH  24  25
BRANCH  24  27
HETATM   27  C13 UNL     1      37.152  31.818  51.344  1.00  0.00     0.172 C 
BRANCH  27  28
HETATM   28  O7  UNL     1      37.842  31.417  52.501  1.00  0.00    -0.391 OA
ATOM     29  H7  UNL     1      37.250  31.308  53.236  1.00  0.00     0.210 HD
ENDBRANCH  27  28
BRANCH  27  30
HETATM   30  C14 UNL     1      35.985  32.662  51.813  1.00  0.00     0.198 C 
BRANCH  30  31
HETATM   31  O8  UNL     1      35.603  33.538  50.770  1.00  0.00    -0.398 OA
ATOM     32  H8  UNL     1      34.982  34.171  51.111  1.00  0.00     0.209 HD
ENDBRANCH  30  31
ENDBRANCH  27  30
ENDBRANCH  24  27
ENDBRANCH  19  24
ENDBRANCH  16  19
BRANCH  17  33
HETATM   33  O9  UNL     1      39.997  34.302  48.708  1.00  0.00    -0.390 OA
ATOM     34  H9  UNL     1      40.818  33.989  48.348  1.00  0.00     0.210 HD
ENDBRANCH  17  33
BRANCH  18  35
HETATM   35  O10 UNL     1      39.872  37.451  50.267  1.00  0.00    -0.388 OA
ATOM     36  H10 UNL     1      40.822  37.450  50.263  1.00  0.00     0.210 HD
ENDBRANCH  18  35
ENDBRANCH  10  14
BRANCH   4  37
HETATM   37  N3  UNL     1      33.840  40.020  51.096  1.00  0.00    -0.357 N 
ATOM     38  H3  UNL     1      33.369  40.293  50.233  1.00  0.00     0.162 HD
BRANCH  37  39
HETATM   39  C3  UNL     1      33.943  41.033  52.092  1.00  0.00     0.222 C 
HETATM   40  C4  UNL     1      32.828  40.969  53.090  1.00  0.00     0.285 C 
HETATM   41  O1  UNL     1      32.285  39.901  53.465  1.00  0.00    -0.263 OA
HETATM   42  O2  UNL     1      32.550  42.255  53.478  1.00  0.00    -0.317 OA
HETATM   43  C5  UNL     1      33.194  43.194  52.618  1.00  0.00     0.221 C 
HETATM   44  C6  UNL     1      33.626  42.375  51.421  1.00  0.00     0.130 C 
BRANCH  44  45
HETATM   45  O3  UNL     1      32.579  42.210  50.548  1.00  0.00    -0.383 OA
ATOM     46  H3  UNL     1      32.320  43.057  50.205  1.00  0.00     0.210 HD
ENDBRANCH  44  45
BRANCH  44  47
HETATM   47  C7  UNL     1      34.867  42.950  50.774  1.00  0.00     0.206 C 
BRANCH  47  48
HETATM   48  O4  UNL     1      35.223  42.119  49.726  1.00  0.00    -0.398 OA
ATOM     49  H4  UNL     1      34.936  42.530  48.919  1.00  0.00     0.209 HD
ENDBRANCH  47  48
ENDBRANCH  44  47
ENDBRANCH  37  39
ENDBRANCH   4  37
BRANCH   1  50
HETATM   50  N1  UNL     1      33.399  35.604  52.303  1.00  0.00    -0.234 N 
ATOM     51  H12 UNL     1      32.587  35.175  51.858  1.00  0.00     0.174 HD
ATOM     52  H11 UNL     1      33.659  35.270  53.231  1.00  0.00     0.174 HD
ENDBRANCH   1  50
TORSDOF 17
ENDMDL
MODEL 2
REMARK VINA RESULT: -9.145441343      1.108      3.313
REMARK  17 active torsions:
REMARK  status: ('A' for Active; 'I' for Inactive)
REMARK    1  A    between atoms: N1_1  and  C1_4 
REMARK    2  A    between atoms: C2_7  and  N3_8 
REMARK    3  A    between atoms: N3_8  and  C3_10 
REMARK    4  A    between atoms: C6_15  and  O3_16 
REMARK    5  A    between atoms: C6_15  and  C7_18 
REMARK    6  A    between atoms: C7_18  and  O4_19 
REMARK    7  A    between atoms: N6_26  and  C9_27 
REMARK    8  A    between atoms: C10_29  and  C11_30 
REMARK    9  A    between atoms: C11_30  and  N7_31 
REMARK   10  A    between atoms: C11_30  and  C12_35 
REMARK   11  A    between atoms: C12_35  and  O6_36 
REMARK   12  A    between atoms: C12_35  and  C13_38 
REMARK   13  A    between atoms: C13_38  and  O7_39 
REMARK   14  A    between atoms: C13_38  and  C14_41 
REMARK   15  A    between atoms: C14_41  and  O8_42 
REMARK   16  A    between atoms: C15_44  and  O9_45 
REMARK   17  A    between atoms: C16_47  and  O10_48 
ROOT
HETATM    1  C1  UNL     1      36.915  38.645  49.791  1.00  0.00     0.679 A 
HETATM    2  N2  UNL     1      35.911  39.509  50.022  1.00  0.00    -0.175 N 
ATOM      3  H2  UNL     1      35.964  40.426  49.579  1.00  0.00     0.186 HD
HETATM    4  C2  UNL     1      34.852  39.252  50.788  1.00  0.00     0.150 A 
HETATM    5  C8  UNL     1      34.780  37.996  51.393  1.00  0.00     0.140 A 
HETATM    6  N4  UNL     1      33.913  37.388  52.200  1.00  0.00    -0.279 N 
ATOM      7  H4  UNL     1      33.044  37.786  52.557  1.00  0.00     0.189 HD
HETATM    8  N5  UNL     1      34.377  36.178  52.455  1.00  0.00    -0.236 N 
ATOM      9  H5  UNL     1      33.905  35.497  53.050  1.00  0.00     0.208 HD
HETATM   10  N6  UNL     1      35.521  35.961  51.847  1.00  0.00    -0.227 N 
HETATM   11  C17 UNL     1      35.799  37.108  51.164  1.00  0.00     0.173 A 
HETATM   12  N8  UNL     1      36.841  37.437  50.376  1.00  0.00    -0.173 N 
ATOM     13  H8  UNL     1      37.587  36.759  50.220  1.00  0.00     0.186 HD
ENDROOT
BRANCH  10  14
HETATM   14  C9  UNL     1      36.378  34.812  51.834  1.00  0.00     0.279 C 
HETATM   15  O5  UNL     1      37.071  34.643  50.665  1.00  0.00    -0.352 OA
HETATM   16  C10 UNL     1      37.214  33.289  50.423  1.00  0.00     0.188 C 
HETATM   17  C15 UNL     1      36.622  32.524  51.533  1.00  0.00     0.182 C 
HETATM   18  C16 UNL     1      35.601  33.522  52.084  1.00  0.00     0.200 C 
BRANCH  16  19
HETATM   19  C11 UNL     1      38.635  33.007  50.090  1.00  0.00     0.246 C 
BRANCH  19  20
HETATM   20  N7  UNL     1      38.779  31.553  49.957  1.00  0.00    -0.070 N 
ATOM     21  H73 UNL     1      38.085  31.141  49.333  1.00  0.00     0.274 HD
ATOM     22  H72 UNL     1      39.609  31.283  49.431  1.00  0.00     0.274 HD
ATOM     23  H71 UNL     1      38.755  31.154  50.895  1.00  0.00     0.274 HD
ENDBRANCH  19  20
BRANCH  19  24
HETATM   24  C12 UNL     1      39.636  33.459  51.097  1.00  0.00     0.181 C 
BRANCH  24  25
HETATM   25  O6  UNL     1      40.358  32.385  51.612  1.00  0.00    -0.391 OA
ATOM     26  H6  UNL     1      41.274  32.609  51.733  1.00  0.00     0.210 HD
ENDBRANCH  24  25
BRANCH  24  27
HETATM   27  C13 UNL     1      40.632  34.361  50.397  1.00  0.00     0.172 C 
BRANCH  27  28
HETATM   28  O7  UNL     1      40.477  34.309  49.001  1.00  0.00    -0.391 OA
ATOM     29  H7  UNL     1      41.099  34.878  48.563  1.00  0.00     0.210 HD
ENDBRANCH  27  28
BRANCH  27  30
HETATM   30  C14 UNL     1      40.446  35.810  50.795  1.00  0.00     0.198 C 
BRANCH  30  31
HETATM   31  O8  UNL     1      39.570  36.430  49.873  1.00  0.00    -0.398 OA
ATOM     32  H8  UNL     1      39.675  37.373  49.934  1.00  0.00     0.209 HD
ENDBRANCH  30  31
ENDBRANCH  27  30
ENDBRANCH  24  27
ENDBRANCH  19  24
ENDBRANCH  16  19
BRANCH  17  33
HETATM   33  O9  UNL     1      37.459  32.215  52.573  1.00  0.00    -0.390 OA
ATOM     34  H9  UNL     1      37.656  32.919  53.180  1.00  0.00     0.210 HD
ENDBRANCH  17  33
BRANCH  18  35
HETATM   35  O10 UNL     1      34.467  33.535  51.280  1.00  0.00    -0.388 OA
ATOM     36  H10 UNL     1      33.926  32.791  51.516  1.00  0.00     0.210 HD
ENDBRANCH  18  35
ENDBRANCH  10  14
BRANCH   4  37
HETATM   37  N3  UNL     1      33.892  40.047  51.023  1.00  0.00    -0.357 N 
ATOM     38  H3  UNL     1      33.072  39.942  50.425  1.00  0.00     0.162 HD
BRANCH  37  39
HETATM   39  C3  UNL     1      33.809  41.066  52.013  1.00  0.00     0.222 C 
HETATM   40  C4  UNL     1      32.624  40.895  52.912  1.00  0.00     0.285 C 
HETATM   41  O1  UNL     1      32.156  39.780  53.251  1.00  0.00    -0.263 OA
HETATM   42  O2  UNL     1      32.189  42.148  53.262  1.00  0.00    -0.317 OA
HETATM   43  C5  UNL     1      32.810  43.145  52.451  1.00  0.00     0.221 C 
HETATM   44  C6  UNL     1      33.422  42.370  51.304  1.00  0.00     0.130 C 
BRANCH  44  45
HETATM   45  O3  UNL     1      32.476  42.102  50.346  1.00  0.00    -0.383 OA
ATOM     46  H3  UNL     1      32.602  42.686  49.608  1.00  0.00     0.210 HD
ENDBRANCH  44  45
BRANCH  44  47
HETATM   47  C7  UNL     1      34.653  43.062  50.761  1.00  0.00     0.206 C 
BRANCH  47  48
HETATM   48  O4  UNL     1      34.997  42.446  49.571  1.00  0.00    -0.398 OA
ATOM     49  H4  UNL     1      35.887  42.699  49.358  1.00  0.00     0.209 HD
ENDBRANCH  47  48
ENDBRANCH  44  47
ENDBRANCH  37  39
ENDBRANCH   4  37
BRANCH   1  50
HETATM   50  N1  UNL     1      37.900  38.989  49.031  1.00  0.00    -0.234 N 
ATOM     51  H12 UNL     1      38.082  39.959  48.773  1.00  0.00     0.174 HD
ATOM     52  H11 UNL     1      38.533  38.278  48.664  1.00  0.00     0.174 HD
ENDBRANCH   1  50
TORSDOF 17
ENDMDL
MODEL 3
REMARK VINA RESULT: -8.918665584      0.831      1.922
REMARK  17 active torsions:
REMARK  status: ('A' for Active; 'I' for Inactive)
REMARK    1  A    between atoms: N1_1  and  C1_4 
REMARK    2  A    between atoms: C2_7  and  N3_8 
REMARK    3  A    between atoms: N3_8  and  C3_10 
REMARK    4  A    between atoms: C6_15  and  O3_16 
REMARK    5  A    between atoms: C6_15  and  C7_18 
REMARK    6  A    between atoms: C7_18  and  O4_19 
REMARK    7  A    between atoms: N6_26  and  C9_27 
REMARK    8  A    between atoms: C10_29  and  C11_30 
REMARK    9  A    between atoms: C11_30  and  N7_31 
REMARK   10  A    between atoms: C11_30  and  C12_35 
REMARK   11  A    between atoms: C12_35  and  O6_36 
REMARK   12  A    between atoms: C12_35  and  C13_38 
REMARK   13  A    between atoms: C13_38  and  O7_39 
REMARK   14  A    between atoms: C13_38  and  C14_41 
REMARK   15  A    between atoms: C14_41  and  O8_42 
REMARK   16  A    between atoms: C15_44  and  O9_45 
REMARK   17  A    between atoms: C16_47  and  O10_48 
ROOT
HETATM    1  C1  UNL     1      34.163  36.531  51.772  1.00  0.00     0.679 A 
HETATM    2  N2  UNL     1      33.748  37.810  51.779  1.00  0.00    -0.175 N 
ATOM      3  H2  UNL     1      32.848  38.014  52.213  1.00  0.00     0.186 HD
HETATM    4  C2  UNL     1      34.430  38.830  51.259  1.00  0.00     0.150 A 
HETATM    5  C8  UNL     1      35.663  38.550  50.667  1.00  0.00     0.140 A 
HETATM    6  N4  UNL     1      36.602  39.274  50.061  1.00  0.00    -0.279 N 
ATOM      7  H4  UNL     1      36.578  40.282  49.909  1.00  0.00     0.189 HD
HETATM    8  N5  UNL     1      37.570  38.454  49.693  1.00  0.00    -0.236 N 
ATOM      9  H5  UNL     1      38.416  38.749  49.206  1.00  0.00     0.208 HD
HETATM   10  N6  UNL     1      37.307  37.213  50.032  1.00  0.00    -0.227 N 
HETATM   11  C17 UNL     1      36.094  37.249  50.655  1.00  0.00     0.173 A 
HETATM   12  N8  UNL     1      35.350  36.267  51.200  1.00  0.00    -0.173 N 
ATOM     13  H8  UNL     1      35.693  35.307  51.179  1.00  0.00     0.186 HD
ENDROOT
BRANCH  10  14
HETATM   14  C9  UNL     1      38.055  36.004  49.840  1.00  0.00     0.279 C 
HETATM   15  O5  UNL     1      38.049  35.165  50.922  1.00  0.00    -0.352 OA
HETATM   16  C10 UNL     1      39.270  34.517  50.991  1.00  0.00     0.188 C 
HETATM   17  C15 UNL     1      40.107  34.921  49.849  1.00  0.00     0.182 C 
HETATM   18  C16 UNL     1      39.517  36.290  49.504  1.00  0.00     0.200 C 
BRANCH  16  19
HETATM   19  C11 UNL     1      39.032  33.061  51.173  1.00  0.00     0.246 C 
BRANCH  19  20
HETATM   20  N7  UNL     1      40.302  32.370  50.923  1.00  0.00    -0.070 N 
ATOM     21  H73 UNL     1      41.025  32.989  50.555  1.00  0.00     0.274 HD
ATOM     22  H72 UNL     1      40.782  32.100  51.781  1.00  0.00     0.274 HD
ATOM     23  H71 UNL     1      40.107  31.579  50.309  1.00  0.00     0.274 HD
ENDBRANCH  19  20
BRANCH  19  24
HETATM   24  C12 UNL     1      38.015  32.454  50.267  1.00  0.00     0.181 C 
BRANCH  24  25
HETATM   25  O6  UNL     1      38.599  31.554  49.380  1.00  0.00    -0.391 OA
ATOM     26  H6  UNL     1      39.452  31.268  49.687  1.00  0.00     0.210 HD
ENDBRANCH  24  25
BRANCH  24  27
HETATM   27  C13 UNL     1      37.043  31.663  51.118  1.00  0.00     0.172 C 
BRANCH  27  28
HETATM   28  O7  UNL     1      37.708  30.958  52.136  1.00  0.00    -0.391 OA
ATOM     29  H7  UNL     1      37.223  30.989  52.952  1.00  0.00     0.210 HD
ENDBRANCH  27  28
BRANCH  27  30
HETATM   30  C14 UNL     1      36.042  32.567  51.807  1.00  0.00     0.198 C 
BRANCH  30  31
HETATM   31  O8  UNL     1      35.532  33.490  50.863  1.00  0.00    -0.398 OA
ATOM     32  H8  UNL     1      36.012  33.396  50.049  1.00  0.00     0.209 HD
ENDBRANCH  30  31
ENDBRANCH  27  30
ENDBRANCH  24  27
ENDBRANCH  19  24
ENDBRANCH  16  19
BRANCH  17  33
HETATM   33  O9  UNL     1      40.000  34.158  48.716  1.00  0.00    -0.390 OA
ATOM     34  H9  UNL     1      40.234  34.581  47.898  1.00  0.00     0.210 HD
ENDBRANCH  17  33
BRANCH  18  35
HETATM   35  O10 UNL     1      39.988  37.249  50.392  1.00  0.00    -0.388 OA
ATOM     36  H10 UNL     1      39.276  37.847  50.589  1.00  0.00     0.210 HD
ENDBRANCH  18  35
ENDBRANCH  10  14
BRANCH   4  37
HETATM   37  N3  UNL     1      34.064  40.044  51.252  1.00  0.00    -0.357 N 
ATOM     38  H3  UNL     1      34.727  40.711  51.648  1.00  0.00     0.162 HD
BRANCH  37  39
HETATM   39  C3  UNL     1      32.848  40.599  50.762  1.00  0.00     0.222 C 
HETATM   40  C4  UNL     1      33.027  41.984  50.223  1.00  0.00     0.285 C 
HETATM   41  O1  UNL     1      34.069  42.381  49.645  1.00  0.00    -0.263 OA
HETATM   42  O2  UNL     1      31.874  42.680  50.485  1.00  0.00    -0.317 OA
HETATM   43  C5  UNL     1      31.046  41.962  51.399  1.00  0.00     0.221 C 
HETATM   44  C6  UNL     1      31.954  40.896  51.973  1.00  0.00     0.130 C 
BRANCH  44  45
HETATM   45  O3  UNL     1      32.721  41.412  52.988  1.00  0.00    -0.383 OA
ATOM     46  H3  UNL     1      32.249  42.119  53.410  1.00  0.00     0.210 HD
ENDBRANCH  44  45
BRANCH  44  47
HETATM   47  C7  UNL     1      31.176  39.660  52.372  1.00  0.00     0.206 C 
BRANCH  47  48
HETATM   48  O4  UNL     1      31.727  39.171  53.543  1.00  0.00    -0.398 OA
ATOM     49  H4  UNL     1      32.583  38.815  53.335  1.00  0.00     0.209 HD
ENDBRANCH  47  48
ENDBRANCH  44  47
ENDBRANCH  37  39
ENDBRANCH   4  37
BRANCH   1  50
HETATM   50  N1  UNL     1      33.429  35.612  52.303  1.00  0.00    -0.234 N 
ATOM     51  H12 UNL     1      33.749  35.035  53.081  1.00  0.00     0.174 HD
ATOM     52  H11 UNL     1      32.489  35.440  51.945  1.00  0.00     0.174 HD
ENDBRANCH   1  50
TORSDOF 17
ENDMDL
MODEL 4
REMARK VINA RESULT: -8.883685689      1.495      3.875
REMARK  17 active torsions:
REMARK  status: ('A' for Active; 'I' for Inactive)
REMARK    1  A    between atoms: N1_1  and  C1_4 
REMARK    2  A    between atoms: C2_7  and  N3_8 
REMARK    3  A    between atoms: N3_8  and  C3_10 
REMARK    4  A    between atoms: C6_15  and  O3_16 
REMARK    5  A    between atoms: C6_15  and  C7_18 
REMARK    6  A    between atoms: C7_18  and  O4_19 
REMARK    7  A    between atoms: N6_26  and  C9_27 
REMARK    8  A    between atoms: C10_29  and  C11_30 
REMARK    9  A    between atoms: C11_30  and  N7_31 
REMARK   10  A    between atoms: C11_30  and  C12_35 
REMARK   11  A    between atoms: C12_35  and  O6_36 
REMARK   12  A    between atoms: C12_35  and  C13_38 
REMARK   13  A    between atoms: C13_38  and  O7_39 
REMARK   14  A    between atoms: C13_38  and  C14_41 
REMARK   15  A    between atoms: C14_41  and  O8_42 
REMARK   16  A    between atoms: C15_44  and  O9_45 
REMARK   17  A    between atoms: C16_47  and  O10_48 
ROOT
HETATM    1  C1  UNL     1      36.513  38.833  49.827  1.00  0.00     0.679 A 
HETATM    2  N2  UNL     1      35.576  39.732  50.178  1.00  0.00    -0.175 N 
ATOM      3  H2  UNL     1      35.617  40.653  49.743  1.00  0.00     0.186 HD
HETATM    4  C2  UNL     1      34.599  39.504  51.054  1.00  0.00     0.150 A 
HETATM    5  C8  UNL     1      34.543  38.242  51.649  1.00  0.00     0.140 A 
HETATM    6  N4  UNL     1      33.746  37.656  52.539  1.00  0.00    -0.279 N 
ATOM      7  H4  UNL     1      32.939  38.082  52.995  1.00  0.00     0.189 HD
HETATM    8  N5  UNL     1      34.186  36.425  52.727  1.00  0.00    -0.236 N 
ATOM      9  H5  UNL     1      33.755  35.754  53.363  1.00  0.00     0.208 HD
HETATM   10  N6  UNL     1      35.246  36.173  51.995  1.00  0.00    -0.227 N 
HETATM   11  C17 UNL     1      35.494  37.319  51.298  1.00  0.00     0.173 A 
HETATM   12  N8  UNL     1      36.455  37.620  50.403  1.00  0.00    -0.173 N 
ATOM     13  H8  UNL     1      37.151  36.915  50.158  1.00  0.00     0.186 HD
ENDROOT
BRANCH  10  14
HETATM   14  C9  UNL     1      36.050  34.992  51.873  1.00  0.00     0.279 C 
HETATM   15  O5  UNL     1      36.754  34.911  50.702  1.00  0.00    -0.352 OA
HETATM   16  C10 UNL     1      36.839  33.584  50.322  1.00  0.00     0.188 C 
HETATM   17  C15 UNL     1      36.193  32.738  51.340  1.00  0.00     0.182 C 
HETATM   18  C16 UNL     1      35.209  33.721  51.978  1.00  0.00     0.200 C 
BRANCH  16  19
HETATM   19  C11 UNL     1      38.251  33.270  49.980  1.00  0.00     0.246 C 
BRANCH  19  20
HETATM   20  N7  UNL     1      38.347  31.820  49.779  1.00  0.00    -0.070 N 
ATOM     21  H73 UNL     1      38.162  31.289  50.630  1.00  0.00     0.274 HD
ATOM     22  H72 UNL     1      37.581  31.446  49.219  1.00  0.00     0.274 HD
ATOM     23  H71 UNL     1      39.264  31.625  49.380  1.00  0.00     0.274 HD
ENDBRANCH  19  20
BRANCH  19  24
HETATM   24  C12 UNL     1      39.263  33.640  51.011  1.00  0.00     0.181 C 
BRANCH  24  25
HETATM   25  O6  UNL     1      39.800  32.510  51.623  1.00  0.00    -0.391 OA
ATOM     26  H6  UNL     1      40.029  32.683  52.529  1.00  0.00     0.210 HD
ENDBRANCH  24  25
BRANCH  24  27
HETATM   27  C13 UNL     1      40.407  34.346  50.312  1.00  0.00     0.172 C 
BRANCH  27  28
HETATM   28  O7  UNL     1      40.200  34.408  48.924  1.00  0.00    -0.391 OA
ATOM     29  H7  UNL     1      39.667  35.158  48.686  1.00  0.00     0.210 HD
ENDBRANCH  27  28
BRANCH  27  30
HETATM   30  C14 UNL     1      40.552  35.776  50.788  1.00  0.00     0.198 C 
BRANCH  30  31
HETATM   31  O8  UNL     1      39.277  36.389  50.795  1.00  0.00    -0.398 OA
ATOM     32  H8  UNL     1      39.172  36.873  51.606  1.00  0.00     0.209 HD
ENDBRANCH  30  31
ENDBRANCH  27  30
ENDBRANCH  24  27
ENDBRANCH  19  24
ENDBRANCH  16  19
BRANCH  17  33
HETATM   33  O9  UNL     1      36.996  32.284  52.353  1.00  0.00    -0.390 OA
ATOM     34  H9  UNL     1      36.637  31.596  52.900  1.00  0.00     0.210 HD
ENDBRANCH  17  33
BRANCH  18  35
HETATM   35  O10 UNL     1      34.092  33.872  51.165  1.00  0.00    -0.388 OA
ATOM     36  H10 UNL     1      33.631  33.042  51.138  1.00  0.00     0.210 HD
ENDBRANCH  18  35
ENDBRANCH  10  14
BRANCH   4  37
HETATM   37  N3  UNL     1      33.703  40.332  51.403  1.00  0.00    -0.357 N 
ATOM     38  H3  UNL     1      33.815  40.741  52.331  1.00  0.00     0.162 HD
BRANCH  37  39
HETATM   39  C3  UNL     1      32.563  40.765  50.669  1.00  0.00     0.222 C 
HETATM   40  C4  UNL     1      32.740  42.136  50.095  1.00  0.00     0.285 C 
HETATM   41  O1  UNL     1      33.840  42.592  49.696  1.00  0.00    -0.263 OA
HETATM   42  O2  UNL     1      31.511  42.746  50.102  1.00  0.00    -0.317 OA
HETATM   43  C5  UNL     1      30.581  42.002  50.888  1.00  0.00     0.221 C 
HETATM   44  C6  UNL     1      31.440  41.038  51.677  1.00  0.00     0.130 C 
BRANCH  44  45
HETATM   45  O3  UNL     1      31.965  41.657  52.785  1.00  0.00    -0.383 OA
ATOM     46  H3  UNL     1      32.804  41.265  52.995  1.00  0.00     0.210 HD
ENDBRANCH  44  45
BRANCH  44  47
HETATM   47  C7  UNL     1      30.693  39.761  51.995  1.00  0.00     0.206 C 
BRANCH  47  48
HETATM   48  O4  UNL     1      31.246  39.220  53.142  1.00  0.00    -0.398 OA
ATOM     49  H4  UNL     1      31.005  39.776  53.873  1.00  0.00     0.209 HD
ENDBRANCH  47  48
ENDBRANCH  44  47
ENDBRANCH  37  39
ENDBRANCH   4  37
BRANCH   1  50
HETATM   50  N1  UNL     1      37.421  39.150  48.967  1.00  0.00    -0.234 N 
ATOM     51  H12 UNL     1      37.994  39.990  49.059  1.00  0.00     0.174 HD
ATOM     52  H11 UNL     1      37.589  38.552  48.159  1.00  0.00     0.174 HD
ENDBRANCH   1  50
TORSDOF 17
ENDMDL
MODEL 5
REMARK VINA RESULT: -8.781979021      2.604      4.524
REMARK  17 active torsions:
REMARK  status: ('A' for Active; 'I' for Inactive)
REMARK    1  A    between atoms: N1_1  and  C1_4 
REMARK    2  A    between atoms: C2_7  and  N3_8 
REMARK    3  A    between atoms: N3_8  and  C3_10 
REMARK    4  A    between atoms: C6_15  and  O3_16 
REMARK    5  A    between atoms: C6_15  and  C7_18 
REMARK    6  A    between atoms: C7_18  and  O4_19 
REMARK    7  A    between atoms: N6_26  and  C9_27 
REMARK    8  A    between atoms: C10_29  and  C11_30 
REMARK    9  A    between atoms: C11_30  and  N7_31 
REMARK   10  A    between atoms: C11_30  and  C12_35 
REMARK   11  A    between atoms: C12_35  and  O6_36 
REMARK   12  A    between atoms: C12_35  and  C13_38 
REMARK   13  A    between atoms: C13_38  and  O7_39 
REMARK   14  A    between atoms: C13_38  and  C14_41 
REMARK   15  A    between atoms: C14_41  and  O8_42 
REMARK   16  A    between atoms: C15_44  and  O9_45 
REMARK   17  A    between atoms: C16_47  and  O10_48 
ROOT
HETATM    1  C1  UNL     1      33.907  39.751  50.899  1.00  0.00     0.679 A 
HETATM    2  N2  UNL     1      32.567  39.810  50.978  1.00  0.00    -0.175 N 
ATOM      3  H2  UNL     1      32.119  40.702  50.767  1.00  0.00     0.186 HD
HETATM    4  C2  UNL     1      31.782  38.787  51.313  1.00  0.00     0.150 A 
HETATM    5  C8  UNL     1      32.396  37.567  51.601  1.00  0.00     0.140 A 
HETATM    6  N4  UNL     1      31.967  36.359  51.962  1.00  0.00    -0.279 N 
ATOM      7  H4  UNL     1      30.995  36.085  52.107  1.00  0.00     0.189 HD
HETATM    8  N5  UNL     1      33.023  35.579  52.099  1.00  0.00    -0.236 N 
ATOM      9  H5  UNL     1      32.979  34.597  52.370  1.00  0.00     0.208 HD
HETATM   10  N6  UNL     1      34.138  36.225  51.843  1.00  0.00    -0.227 N 
HETATM   11  C17 UNL     1      33.763  37.496  51.523  1.00  0.00     0.173 A 
HETATM   12  N8  UNL     1      34.494  38.574  51.177  1.00  0.00    -0.173 N 
ATOM     13  H8  UNL     1      35.510  38.495  51.126  1.00  0.00     0.186 HD
ENDROOT
BRANCH  10  14
HETATM   14  C9  UNL     1      35.505  35.791  51.863  1.00  0.00     0.279 C 
HETATM   15  O5  UNL     1      36.254  36.252  50.814  1.00  0.00    -0.352 OA
HETATM   16  C10 UNL     1      37.184  35.287  50.472  1.00  0.00     0.188 C 
HETATM   17  C15 UNL     1      37.069  34.143  51.393  1.00  0.00     0.182 C 
HETATM   18  C16 UNL     1      35.617  34.268  51.859  1.00  0.00     0.200 C 
BRANCH  16  19
HETATM   19  C11 UNL     1      38.521  35.927  50.354  1.00  0.00     0.246 C 
BRANCH  19  20
HETATM   20  N7  UNL     1      38.338  37.212  49.671  1.00  0.00    -0.070 N 
ATOM     21  H73 UNL     1      37.488  37.245  49.108  1.00  0.00     0.274 HD
ATOM     22  H72 UNL     1      38.105  37.971  50.310  1.00  0.00     0.274 HD
ATOM     23  H71 UNL     1      39.181  37.394  49.127  1.00  0.00     0.274 HD
ENDBRANCH  19  20
BRANCH  19  24
HETATM   24  C12 UNL     1      39.539  35.158  49.582  1.00  0.00     0.181 C 
BRANCH  24  25
HETATM   25  O6  UNL     1      39.661  35.642  48.282  1.00  0.00    -0.391 OA
ATOM     26  H6  UNL     1      39.956  34.963  47.686  1.00  0.00     0.210 HD
ENDBRANCH  24  25
BRANCH  24  27
HETATM   27  C13 UNL     1      40.883  35.357  50.252  1.00  0.00     0.172 C 
BRANCH  27  28
HETATM   28  O7  UNL     1      40.870  36.472  51.108  1.00  0.00    -0.391 OA
ATOM     29  H7  UNL     1      40.030  36.564  51.543  1.00  0.00     0.210 HD
ENDBRANCH  27  28
BRANCH  27  30
HETATM   30  C14 UNL     1      41.261  34.165  51.106  1.00  0.00     0.198 C 
BRANCH  30  31
HETATM   31  O8  UNL     1      40.368  33.103  50.832  1.00  0.00    -0.398 OA
ATOM     32  H8  UNL     1      40.394  32.485  51.554  1.00  0.00     0.209 HD
ENDBRANCH  30  31
ENDBRANCH  27  30
ENDBRANCH  24  27
ENDBRANCH  19  24
ENDBRANCH  16  19
BRANCH  17  33
HETATM   33  O9  UNL     1      37.842  34.192  52.523  1.00  0.00    -0.390 OA
ATOM     34  H9  UNL     1      38.776  34.304  52.391  1.00  0.00     0.210 HD
ENDBRANCH  17  33
BRANCH  18  35
HETATM   35  O10 UNL     1      34.760  33.773  50.883  1.00  0.00    -0.388 OA
ATOM     36  H10 UNL     1      35.077  32.918  50.616  1.00  0.00     0.210 HD
ENDBRANCH  18  35
ENDBRANCH  10  14
BRANCH   4  37
HETATM   37  N3  UNL     1      30.517  38.815  51.396  1.00  0.00    -0.357 N 
ATOM     38  H3  UNL     1      30.012  38.345  50.644  1.00  0.00     0.162 HD
BRANCH  37  39
HETATM   39  C3  UNL     1      29.708  39.416  52.402  1.00  0.00     0.222 C 
HETATM   40  C4  UNL     1      28.738  38.450  53.008  1.00  0.00     0.285 C 
HETATM   41  O1  UNL     1      28.974  37.228  53.170  1.00  0.00    -0.263 OA
HETATM   42  O2  UNL     1      27.604  39.153  53.327  1.00  0.00    -0.317 OA
HETATM   43  C5  UNL     1      27.627  40.450  52.731  1.00  0.00     0.221 C 
HETATM   44  C6  UNL     1      28.734  40.373  51.703  1.00  0.00     0.130 C 
BRANCH  44  45
HETATM   45  O3  UNL     1      28.277  39.790  50.547  1.00  0.00    -0.383 OA
ATOM     46  H3  UNL     1      28.929  39.893  49.864  1.00  0.00     0.210 HD
ENDBRANCH  44  45
BRANCH  44  47
HETATM   47  C7  UNL     1      29.384  41.722  51.484  1.00  0.00     0.206 C 
BRANCH  47  48
HETATM   48  O4  UNL     1      30.525  41.775  52.265  1.00  0.00    -0.398 OA
ATOM     49  H4  UNL     1      30.274  41.582  53.161  1.00  0.00     0.209 HD
ENDBRANCH  47  48
ENDBRANCH  44  47
ENDBRANCH  37  39
ENDBRANCH   4  37
BRANCH   1  50
HETATM   50  N1  UNL     1      34.581  40.799  50.565  1.00  0.00    -0.234 N 
ATOM     51  H12 UNL     1      35.515  40.990  50.930  1.00  0.00     0.174 HD
ATOM     52  H11 UNL     1      34.184  41.475  49.913  1.00  0.00     0.174 HD
ENDBRANCH   1  50
TORSDOF 17
ENDMDL
