MODEL 1
REMARK VINA RESULT: -8.976982140      0.000      0.000
REMARK  18 active torsions:
REMARK  status: ('A' for Active; 'I' for Inactive)
REMARK    1  A    between atoms: N1_2  and  C3_4 
REMARK    2  A    between atoms: C3_4  and  C4_5 
REMARK    3  A    between atoms: C5_7  and  N2_8 
REMARK    4  A    between atoms: C7_13  and  N4_14 
REMARK    5  A    between atoms: N4_14  and  C8_16 
REMARK    6  A    between atoms: C8_16  and  O3_17 
REMARK    7  A    between atoms: C8_16  and  C9_20 
REMARK    8  A    between atoms: C8_16  and  C10_25 
REMARK    9  A    between atoms: O3_17  and  O4_18 
REMARK   10  A    between atoms: C9_20  and  O5_21 
REMARK   11  A    between atoms: C9_20  and  O6_23 
REMARK   12  A    between atoms: C10_25  and  O7_26 
REMARK   13  A    between atoms: C10_25  and  C11_28 
REMARK   14  A    between atoms: C11_28  and  O8_29 
REMARK   15  A    between atoms: C11_28  and  O9_31 
REMARK   16  A    between atoms: C13_34  and  N5_35 
REMARK   17  A    between atoms: C16_44  and  O10_45 
REMARK   18  A    between atoms: C17_47  and  O11_48 
ROOT
HETATM    1  N2  UNL     1      34.865  37.444  51.245  1.00  0.00    -0.254 N 
HETATM    2  C6  UNL     1      34.893  36.149  51.585  1.00  0.00     0.332 A 
HETATM    3  O2  UNL     1      33.975  35.642  52.281  1.00  0.00    -0.246 OA
HETATM    4  N3  UNL     1      35.910  35.332  51.196  1.00  0.00    -0.293 N 
ATOM      5  H3  UNL     1      35.921  34.347  51.460  1.00  0.00     0.172 HD
HETATM    6  C7  UNL     1      36.895  35.857  50.456  1.00  0.00     0.125 A 
HETATM    7  C12 UNL     1      36.902  37.207  50.078  1.00  0.00     0.096 A 
HETATM    8  C13 UNL     1      37.902  37.770  49.316  1.00  0.00     0.117 A 
HETATM    9  N6  UNL     1      37.831  39.070  48.999  1.00  0.00    -0.338 N 
ATOM     10  H6  UNL     1      38.561  39.506  48.436  1.00  0.00     0.168 HD
HETATM   11  C14 UNL     1      36.778  39.796  49.436  1.00  0.00     0.183 A 
HETATM   12  N7  UNL     1      35.797  39.265  50.177  1.00  0.00    -0.337 N 
ATOM     13  H7  UNL     1      35.018  39.847  50.487  1.00  0.00     0.168 HD
HETATM   14  C15 UNL     1      35.838  37.982  50.507  1.00  0.00     0.132 A 
ENDROOT
BRANCH   6  15
HETATM   15  N4  UNL     1      37.885  35.186  50.055  1.00  0.00    -0.335 N 
ATOM     16  H4  UNL     1      38.242  35.438  49.133  1.00  0.00     0.164 HD
BRANCH  15  17
HETATM   17  C8  UNL     1      38.593  34.095  50.727  1.00  0.00     0.249 C 
BRANCH  17  18
HETATM   18  O3  UNL     1      38.861  34.417  52.025  1.00  0.00    -0.202 OA
BRANCH  18  19
HETATM   19  O4  UNL     1      39.795  35.218  52.315  1.00  0.00    -0.248 OA
ATOM     20  H4  UNL     1      40.256  35.151  53.143  1.00  0.00     0.253 HD
ENDBRANCH  18  19
ENDBRANCH  17  18
BRANCH  17  21
HETATM   21  C9  UNL     1      39.971  33.863  50.078  1.00  0.00     0.316 C 
BRANCH  21  22
HETATM   22  O5  UNL     1      40.628  35.014  49.751  1.00  0.00    -0.367 OA
ATOM     23  H5  UNL     1      41.235  34.917  49.027  1.00  0.00     0.212 HD
ENDBRANCH  21  22
BRANCH  21  24
HETATM   24  O6  UNL     1      40.733  33.042  50.899  1.00  0.00    -0.367 OA
ATOM     25  H6  UNL     1      41.296  32.498  50.363  1.00  0.00     0.212 HD
ENDBRANCH  21  24
ENDBRANCH  17  21
BRANCH  17  26
HETATM   26  C10 UNL     1      37.738  32.887  50.455  1.00  0.00     0.236 C 
BRANCH  26  27
HETATM   27  O7  UNL     1      38.440  32.171  49.429  1.00  0.00    -0.385 OA
ATOM     28  H7  UNL     1      39.294  31.991  49.804  1.00  0.00     0.210 HD
ENDBRANCH  26  27
BRANCH  26  29
HETATM   29  C11 UNL     1      37.505  31.932  51.554  1.00  0.00     0.287 C 
BRANCH  29  30
HETATM   30  O8  UNL     1      38.576  31.623  52.365  1.00  0.00    -0.369 OA
ATOM     31  H8  UNL     1      38.394  31.430  53.277  1.00  0.00     0.212 HD
ENDBRANCH  29  30
BRANCH  29  32
HETATM   32  O9  UNL     1      36.519  32.515  52.396  1.00  0.00    -0.369 OA
ATOM     33  H9  UNL     1      36.695  32.202  53.276  1.00  0.00     0.212 HD
ENDBRANCH  29  32
ENDBRANCH  26  29
ENDBRANCH  17  26
ENDBRANCH  15  17
ENDBRANCH   6  15
BRANCH   8  34
HETATM   34  N5  UNL     1      38.878  37.040  48.930  1.00  0.00    -0.385 N 
ATOM     35  H52 UNL     1      39.455  36.525  49.595  1.00  0.00     0.157 HD
ATOM     36  H51 UNL     1      39.083  36.969  47.933  1.00  0.00     0.157 HD
ENDBRANCH   8  34
BRANCH   1  37
HETATM   37  C5  UNL     1      33.750  38.256  51.709  1.00  0.00     0.266 C 
HETATM   38  O1  UNL     1      33.714  39.480  51.066  1.00  0.00    -0.354 OA
HETATM   39  C4  UNL     1      33.049  40.307  51.984  1.00  0.00     0.183 C 
HETATM   40  C17 UNL     1      33.765  40.028  53.261  1.00  0.00     0.182 C 
HETATM   41  C16 UNL     1      33.799  38.479  53.186  1.00  0.00     0.198 C 
BRANCH  39  42
HETATM   42  C3  UNL     1      32.951  41.708  51.521  1.00  0.00     0.305 C 
BRANCH  42  43
HETATM   43  N1  UNL     1      33.814  42.675  52.108  1.00  0.00     0.082 N 
HETATM   44  C1  UNL     1      34.482  43.345  50.961  1.00  0.00     0.309 C 
HETATM   45  C2  UNL     1      33.073  43.745  52.740  1.00  0.00     0.309 C 
ENDBRANCH  42  43
ENDBRANCH  39  42
BRANCH  40  46
HETATM   46  O11 UNL     1      33.041  40.399  54.404  1.00  0.00    -0.390 OA
ATOM     47  H11 UNL     1      32.890  39.682  55.009  1.00  0.00     0.210 HD
ENDBRANCH  40  46
BRANCH  41  48
HETATM   48  O10 UNL     1      32.609  38.049  53.749  1.00  0.00    -0.388 OA
ATOM     49  H10 UNL     1      32.490  38.475  54.589  1.00  0.00     0.210 HD
ENDBRANCH  41  48
ENDBRANCH   1  37
TORSDOF 18
ENDMDL
MODEL 2
REMARK VINA RESULT: -8.862233851      0.752      1.384
REMARK  18 active torsions:
REMARK  status: ('A' for Active; 'I' for Inactive)
REMARK    1  A    between atoms: N1_2  and  C3_4 
REMARK    2  A    between atoms: C3_4  and  C4_5 
REMARK    3  A    between atoms: C5_7  and  N2_8 
REMARK    4  A    between atoms: C7_13  and  N4_14 
REMARK    5  A    between atoms: N4_14  and  C8_16 
REMARK    6  A    between atoms: C8_16  and  O3_17 
REMARK    7  A    between atoms: C8_16  and  C9_20 
REMARK    8  A    between atoms: C8_16  and  C10_25 
REMARK    9  A    between atoms: O3_17  and  O4_18 
REMARK   10  A    between atoms: C9_20  and  O5_21 
REMARK   11  A    between atoms: C9_20  and  O6_23 
REMARK   12  A    between atoms: C10_25  and  O7_26 
REMARK   13  A    between atoms: C10_25  and  C11_28 
REMARK   14  A    between atoms: C11_28  and  O8_29 
REMARK   15  A    between atoms: C11_28  and  O9_31 
REMARK   16  A    between atoms: C13_34  and  N5_35 
REMARK   17  A    between atoms: C16_44  and  O10_45 
REMARK   18  A    between atoms: C17_47  and  O11_48 
ROOT
HETATM    1  N2  UNL     1      34.898  37.700  51.224  1.00  0.00    -0.254 N 
HETATM    2  C6  UNL     1      35.011  36.426  51.623  1.00  0.00     0.332 A 
HETATM    3  O2  UNL     1      34.117  35.887  52.326  1.00  0.00    -0.246 OA
HETATM    4  N3  UNL     1      36.089  35.667  51.287  1.00  0.00    -0.293 N 
ATOM      5  H3  UNL     1      36.165  34.697  51.596  1.00  0.00     0.172 HD
HETATM    6  C7  UNL     1      37.049  36.227  50.541  1.00  0.00     0.125 A 
HETATM    7  C12 UNL     1      36.969  37.557  50.102  1.00  0.00     0.096 A 
HETATM    8  C13 UNL     1      37.942  38.155  49.333  1.00  0.00     0.117 A 
HETATM    9  N6  UNL     1      37.786  39.432  48.956  1.00  0.00    -0.338 N 
ATOM     10  H6  UNL     1      38.495  39.893  48.386  1.00  0.00     0.168 HD
HETATM   11  C14 UNL     1      36.676  40.099  49.343  1.00  0.00     0.183 A 
HETATM   12  N7  UNL     1      35.721  39.533  50.090  1.00  0.00    -0.337 N 
ATOM     13  H7  UNL     1      34.897  40.072  50.361  1.00  0.00     0.168 HD
HETATM   14  C15 UNL     1      35.845  38.272  50.479  1.00  0.00     0.132 A 
ENDROOT
BRANCH   6  15
HETATM   15  N4  UNL     1      38.091  35.611  50.187  1.00  0.00    -0.335 N 
ATOM     16  H4  UNL     1      38.266  35.586  49.182  1.00  0.00     0.164 HD
BRANCH  15  17
HETATM   17  C8  UNL     1      39.084  34.927  51.016  1.00  0.00     0.249 C 
BRANCH  17  18
HETATM   18  O3  UNL     1      38.664  34.845  52.311  1.00  0.00    -0.202 OA
BRANCH  18  19
HETATM   19  O4  UNL     1      37.921  33.895  52.693  1.00  0.00    -0.248 OA
ATOM     20  H4  UNL     1      37.667  33.812  53.604  1.00  0.00     0.253 HD
ENDBRANCH  18  19
ENDBRANCH  17  18
BRANCH  17  21
HETATM   21  C9  UNL     1      40.395  35.736  51.070  1.00  0.00     0.316 C 
BRANCH  21  22
HETATM   22  O5  UNL     1      41.086  35.589  52.238  1.00  0.00    -0.367 OA
ATOM     23  H5  UNL     1      41.943  35.195  52.130  1.00  0.00     0.212 HD
ENDBRANCH  21  22
BRANCH  21  24
HETATM   24  O6  UNL     1      41.172  35.427  49.962  1.00  0.00    -0.367 OA
ATOM     25  H6  UNL     1      41.562  36.223  49.620  1.00  0.00     0.212 HD
ENDBRANCH  21  24
ENDBRANCH  17  21
BRANCH  17  26
HETATM   26  C10 UNL     1      39.356  33.647  50.273  1.00  0.00     0.236 C 
BRANCH  26  27
HETATM   27  O7  UNL     1      40.461  33.053  50.967  1.00  0.00    -0.385 OA
ATOM     28  H7  UNL     1      40.338  32.117  50.858  1.00  0.00     0.210 HD
ENDBRANCH  26  27
BRANCH  26  29
HETATM   29  C11 UNL     1      38.291  32.628  50.221  1.00  0.00     0.287 C 
BRANCH  29  30
HETATM   30  O8  UNL     1      37.052  33.026  49.766  1.00  0.00    -0.369 OA
ATOM     31  H8  UNL     1      36.293  32.565  50.104  1.00  0.00     0.212 HD
ENDBRANCH  29  30
BRANCH  29  32
HETATM   32  O9  UNL     1      38.740  31.617  49.329  1.00  0.00    -0.369 OA
ATOM     33  H9  UNL     1      38.097  30.918  49.364  1.00  0.00     0.212 HD
ENDBRANCH  29  32
ENDBRANCH  26  29
ENDBRANCH  17  26
ENDBRANCH  15  17
ENDBRANCH   6  15
BRANCH   8  34
HETATM   34  N5  UNL     1      38.974  37.480  48.995  1.00  0.00    -0.385 N 
ATOM     35  H52 UNL     1      39.652  37.161  49.688  1.00  0.00     0.157 HD
ATOM     36  H51 UNL     1      39.121  37.253  48.012  1.00  0.00     0.157 HD
ENDBRANCH   8  34
BRANCH   1  37
HETATM   37  C5  UNL     1      33.720  38.450  51.633  1.00  0.00     0.266 C 
HETATM   38  O1  UNL     1      33.738  39.736  51.123  1.00  0.00    -0.354 OA
HETATM   39  C4  UNL     1      32.952  40.455  52.036  1.00  0.00     0.183 C 
HETATM   40  C17 UNL     1      33.514  40.045  53.355  1.00  0.00     0.182 C 
HETATM   41  C16 UNL     1      33.587  38.513  53.120  1.00  0.00     0.198 C 
BRANCH  39  42
HETATM   42  C3  UNL     1      32.883  41.897  51.717  1.00  0.00     0.305 C 
BRANCH  42  43
HETATM   43  N1  UNL     1      33.795  42.777  52.363  1.00  0.00     0.082 N 
HETATM   44  C1  UNL     1      34.534  43.448  51.261  1.00  0.00     0.309 C 
HETATM   45  C2  UNL     1      33.113  43.867  53.026  1.00  0.00     0.309 C 
ENDBRANCH  42  43
ENDBRANCH  39  42
BRANCH  40  46
HETATM   46  O11 UNL     1      32.651  40.286  54.434  1.00  0.00    -0.390 OA
ATOM     47  H11 UNL     1      32.173  39.517  54.718  1.00  0.00     0.210 HD
ENDBRANCH  40  46
BRANCH  41  48
HETATM   48  O10 UNL     1      32.347  38.018  53.485  1.00  0.00    -0.388 OA
ATOM     49  H10 UNL     1      32.168  38.259  54.387  1.00  0.00     0.210 HD
ENDBRANCH  41  48
ENDBRANCH   1  37
TORSDOF 18
ENDMDL
MODEL 3
REMARK VINA RESULT: -8.571970001      1.397      2.502
REMARK  18 active torsions:
REMARK  status: ('A' for Active; 'I' for Inactive)
REMARK    1  A    between atoms: N1_2  and  C3_4 
REMARK    2  A    between atoms: C3_4  and  C4_5 
REMARK    3  A    between atoms: C5_7  and  N2_8 
REMARK    4  A    between atoms: C7_13  and  N4_14 
REMARK    5  A    between atoms: N4_14  and  C8_16 
REMARK    6  A    between atoms: C8_16  and  O3_17 
REMARK    7  A    between atoms: C8_16  and  C9_20 
REMARK    8  A    between atoms: C8_16  and  C10_25 
REMARK    9  A    between atoms: O3_17  and  O4_18 
REMARK   10  A    between atoms: C9_20  and  O5_21 
REMARK   11  A    between atoms: C9_20  and  O6_23 
REMARK   12  A    between atoms: C10_25  and  O7_26 
REMARK   13  A    between atoms: C10_25  and  C11_28 
REMARK   14  A    between atoms: C11_28  and  O8_29 
REMARK   15  A    between atoms: C11_28  and  O9_31 
REMARK   16  A    between atoms: C13_34  and  N5_35 
REMARK   17  A    between atoms: C16_44  and  O10_45 
REMARK   18  A    between atoms: C17_47  and  O11_48 
ROOT
HETATM    1  N2  UNL     1      35.152  36.906  51.260  1.00  0.00    -0.254 N 
HETATM    2  C6  UNL     1      35.040  35.681  51.789  1.00  0.00     0.332 A 
HETATM    3  O2  UNL     1      33.983  35.321  52.370  1.00  0.00    -0.246 OA
HETATM    4  N3  UNL     1      36.058  34.780  51.721  1.00  0.00    -0.293 N 
ATOM      5  H3  UNL     1      35.961  33.848  52.127  1.00  0.00     0.172 HD
HETATM    6  C7  UNL     1      37.189  35.148  51.107  1.00  0.00     0.125 A 
HETATM    7  C12 UNL     1      37.347  36.422  50.541  1.00  0.00     0.096 A 
HETATM    8  C13 UNL     1      38.499  36.824  49.904  1.00  0.00     0.117 A 
HETATM    9  N6  UNL     1      38.566  38.060  49.389  1.00  0.00    -0.338 N 
ATOM     10  H6  UNL     1      39.410  38.377  48.913  1.00  0.00     0.168 HD
HETATM   11  C14 UNL     1      37.498  38.879  49.509  1.00  0.00     0.183 A 
HETATM   12  N7  UNL     1      36.370  38.504  50.125  1.00  0.00    -0.337 N 
ATOM     13  H7  UNL     1      35.585  39.153  50.195  1.00  0.00     0.168 HD
HETATM   14  C15 UNL     1      36.273  37.289  50.644  1.00  0.00     0.132 A 
ENDROOT
BRANCH   6  15
HETATM   15  N4  UNL     1      38.191  34.391  51.002  1.00  0.00    -0.335 N 
ATOM     16  H4  UNL     1      39.093  34.863  50.936  1.00  0.00     0.164 HD
BRANCH  15  17
HETATM   17  C8  UNL     1      38.242  32.929  50.962  1.00  0.00     0.249 C 
BRANCH  17  18
HETATM   18  O3  UNL     1      38.180  32.475  49.677  1.00  0.00    -0.202 OA
BRANCH  18  19
HETATM   19  O4  UNL     1      38.732  31.387  49.346  1.00  0.00    -0.248 OA
ATOM     20  H4  UNL     1      38.552  30.584  49.822  1.00  0.00     0.253 HD
ENDBRANCH  18  19
ENDBRANCH  17  18
BRANCH  17  21
HETATM   21  C9  UNL     1      37.009  32.324  51.661  1.00  0.00     0.316 C 
BRANCH  21  22
HETATM   22  O5  UNL     1      36.736  31.040  51.286  1.00  0.00    -0.367 OA
ATOM     23  H5  UNL     1      36.012  30.964  50.676  1.00  0.00     0.212 HD
ENDBRANCH  21  22
BRANCH  21  24
HETATM   24  O6  UNL     1      37.155  32.446  53.036  1.00  0.00    -0.367 OA
ATOM     25  H6  UNL     1      36.316  32.298  53.456  1.00  0.00     0.212 HD
ENDBRANCH  21  24
ENDBRANCH  17  21
BRANCH  17  26
HETATM   26  C10 UNL     1      39.458  32.586  51.780  1.00  0.00     0.236 C 
BRANCH  26  27
HETATM   27  O7  UNL     1      39.334  31.182  52.042  1.00  0.00    -0.385 OA
ATOM     28  H7  UNL     1      39.672  30.761  51.260  1.00  0.00     0.210 HD
ENDBRANCH  26  27
BRANCH  26  29
HETATM   29  C11 UNL     1      40.788  32.788  51.176  1.00  0.00     0.287 C 
BRANCH  29  30
HETATM   30  O8  UNL     1      41.520  31.664  50.860  1.00  0.00    -0.369 OA
ATOM     31  H8  UNL     1      42.294  31.485  51.380  1.00  0.00     0.212 HD
ENDBRANCH  29  30
BRANCH  29  32
HETATM   32  O9  UNL     1      40.578  33.486  49.955  1.00  0.00    -0.369 OA
ATOM     33  H9  UNL     1      39.656  33.717  49.930  1.00  0.00     0.212 HD
ENDBRANCH  29  32
ENDBRANCH  26  29
ENDBRANCH  17  26
ENDBRANCH  15  17
ENDBRANCH   6  15
BRANCH   8  34
HETATM   34  N5  UNL     1      39.482  36.010  49.818  1.00  0.00    -0.385 N 
ATOM     35  H52 UNL     1      39.336  35.013  49.662  1.00  0.00     0.157 HD
ATOM     36  H51 UNL     1      40.433  36.367  49.906  1.00  0.00     0.157 HD
ENDBRANCH   8  34
BRANCH   1  37
HETATM   37  C5  UNL     1      34.024  37.818  51.382  1.00  0.00     0.266 C 
HETATM   38  O1  UNL     1      34.370  38.959  52.083  1.00  0.00    -0.354 OA
HETATM   39  C4  UNL     1      33.147  39.391  52.618  1.00  0.00     0.183 C 
HETATM   40  C17 UNL     1      32.591  38.147  53.223  1.00  0.00     0.182 C 
HETATM   41  C16 UNL     1      32.853  37.169  52.048  1.00  0.00     0.198 C 
BRANCH  39  42
HETATM   42  C3  UNL     1      33.291  40.589  53.474  1.00  0.00     0.305 C 
BRANCH  42  43
HETATM   43  N1  UNL     1      33.312  41.867  52.850  1.00  0.00     0.082 N 
HETATM   44  C1  UNL     1      32.223  41.824  51.839  1.00  0.00     0.309 C 
HETATM   45  C2  UNL     1      32.894  42.915  53.755  1.00  0.00     0.309 C 
ENDBRANCH  42  43
ENDBRANCH  39  42
BRANCH  40  46
HETATM   46  O11 UNL     1      31.207  38.203  53.451  1.00  0.00    -0.390 OA
ATOM     47  H11 UNL     1      30.741  37.433  53.149  1.00  0.00     0.210 HD
ENDBRANCH  40  46
BRANCH  41  48
HETATM   48  O10 UNL     1      31.748  37.271  51.220  1.00  0.00    -0.388 OA
ATOM     49  H10 UNL     1      31.134  37.891  51.595  1.00  0.00     0.210 HD
ENDBRANCH  41  48
ENDBRANCH   1  37
TORSDOF 18
ENDMDL
MODEL 4
REMARK VINA RESULT: -8.461631578      1.626      2.705
REMARK  18 active torsions:
REMARK  status: ('A' for Active; 'I' for Inactive)
REMARK    1  A    between atoms: N1_2  and  C3_4 
REMARK    2  A    between atoms: C3_4  and  C4_5 
REMARK    3  A    between atoms: C5_7  and  N2_8 
REMARK    4  A    between atoms: C7_13  and  N4_14 
REMARK    5  A    between atoms: N4_14  and  C8_16 
REMARK    6  A    between atoms: C8_16  and  O3_17 
REMARK    7  A    between atoms: C8_16  and  C9_20 
REMARK    8  A    between atoms: C8_16  and  C10_25 
REMARK    9  A    between atoms: O3_17  and  O4_18 
REMARK   10  A    between atoms: C9_20  and  O5_21 
REMARK   11  A    between atoms: C9_20  and  O6_23 
REMARK   12  A    between atoms: C10_25  and  O7_26 
REMARK   13  A    between atoms: C10_25  and  C11_28 
REMARK   14  A    between atoms: C11_28  and  O8_29 
REMARK   15  A    between atoms: C11_28  and  O9_31 
REMARK   16  A    between atoms: C13_34  and  N5_35 
REMARK   17  A    between atoms: C16_44  and  O10_45 
REMARK   18  A    between atoms: C17_47  and  O11_48 
ROOT
HETATM    1  N2  UNL     1      34.479  38.704  51.396  1.00  0.00    -0.254 N 
HETATM    2  C6  UNL     1      34.593  37.455  51.865  1.00  0.00     0.332 A 
HETATM    3  O2  UNL     1      33.702  36.956  52.601  1.00  0.00    -0.246 OA
HETATM    4  N3  UNL     1      35.671  36.678  51.570  1.00  0.00    -0.293 N 
ATOM      5  H3  UNL     1      35.748  35.728  51.932  1.00  0.00     0.172 HD
HETATM    6  C7  UNL     1      36.628  37.196  50.789  1.00  0.00     0.125 A 
HETATM    7  C12 UNL     1      36.546  38.499  50.276  1.00  0.00     0.096 A 
HETATM    8  C13 UNL     1      37.515  39.052  49.471  1.00  0.00     0.117 A 
HETATM    9  N6  UNL     1      37.358  40.306  49.023  1.00  0.00    -0.338 N 
ATOM     10  H6  UNL     1      38.065  40.734  48.425  1.00  0.00     0.168 HD
HETATM   11  C14 UNL     1      36.249  40.994  49.375  1.00  0.00     0.183 A 
HETATM   12  N7  UNL     1      35.297  40.471  50.157  1.00  0.00    -0.337 N 
ATOM     13  H7  UNL     1      34.474  41.024  50.400  1.00  0.00     0.168 HD
HETATM   14  C15 UNL     1      35.423  39.234  50.615  1.00  0.00     0.132 A 
ENDROOT
BRANCH   6  15
HETATM   15  N4  UNL     1      37.669  36.561  50.467  1.00  0.00    -0.335 N 
ATOM     16  H4  UNL     1      38.454  37.134  50.158  1.00  0.00     0.164 HD
BRANCH  15  17
HETATM   17  C8  UNL     1      37.908  35.117  50.475  1.00  0.00     0.249 C 
BRANCH  17  18
HETATM   18  O3  UNL     1      36.856  34.446  49.925  1.00  0.00    -0.202 OA
BRANCH  18  19
HETATM   19  O4  UNL     1      36.893  33.191  49.777  1.00  0.00    -0.248 OA
ATOM     20  H4  UNL     1      36.547  32.783  48.992  1.00  0.00     0.253 HD
ENDBRANCH  18  19
ENDBRANCH  17  18
BRANCH  17  21
HETATM   21  C9  UNL     1      38.008  34.592  51.920  1.00  0.00     0.316 C 
BRANCH  21  22
HETATM   22  O5  UNL     1      36.799  34.329  52.496  1.00  0.00    -0.367 OA
ATOM     23  H5  UNL     1      36.254  33.736  51.992  1.00  0.00     0.212 HD
ENDBRANCH  21  22
BRANCH  21  24
HETATM   24  O6  UNL     1      38.852  33.490  51.952  1.00  0.00    -0.367 OA
ATOM     25  H6  UNL     1      38.955  33.199  52.850  1.00  0.00     0.212 HD
ENDBRANCH  21  24
ENDBRANCH  17  21
BRANCH  17  26
HETATM   26  C10 UNL     1      39.260  34.971  49.831  1.00  0.00     0.236 C 
BRANCH  26  27
HETATM   27  O7  UNL     1      39.192  35.790  48.655  1.00  0.00    -0.385 OA
ATOM     28  H7  UNL     1      39.715  36.555  48.864  1.00  0.00     0.210 HD
ENDBRANCH  26  27
BRANCH  26  29
HETATM   29  C11 UNL     1      40.448  35.415  50.586  1.00  0.00     0.287 C 
BRANCH  29  30
HETATM   30  O8  UNL     1      41.682  35.009  50.126  1.00  0.00    -0.369 OA
ATOM     31  H8  UNL     1      42.195  35.641  49.635  1.00  0.00     0.212 HD
ENDBRANCH  29  30
BRANCH  29  32
HETATM   32  O9  UNL     1      40.449  36.835  50.542  1.00  0.00    -0.369 OA
ATOM     33  H9  UNL     1      40.830  37.132  51.361  1.00  0.00     0.212 HD
ENDBRANCH  29  32
ENDBRANCH  26  29
ENDBRANCH  17  26
ENDBRANCH  15  17
ENDBRANCH   6  15
BRANCH   8  34
HETATM   34  N5  UNL     1      38.547  38.359  49.168  1.00  0.00    -0.385 N 
ATOM     35  H52 UNL     1      38.797  37.519  49.691  1.00  0.00     0.157 HD
ATOM     36  H51 UNL     1      39.132  38.652  48.386  1.00  0.00     0.157 HD
ENDBRANCH   8  34
BRANCH   1  37
HETATM   37  C5  UNL     1      33.302  39.476  51.765  1.00  0.00     0.266 C 
HETATM   38  O1  UNL     1      33.070  40.504  50.869  1.00  0.00    -0.354 OA
HETATM   39  C4  UNL     1      32.365  41.446  51.634  1.00  0.00     0.183 C 
HETATM   40  C17 UNL     1      33.192  41.555  52.870  1.00  0.00     0.182 C 
HETATM   41  C16 UNL     1      33.417  40.044  53.143  1.00  0.00     0.198 C 
BRANCH  39  42
HETATM   42  C3  UNL     1      32.060  42.680  50.878  1.00  0.00     0.305 C 
BRANCH  42  43
HETATM   43  N1  UNL     1      30.712  43.134  50.841  1.00  0.00     0.082 N 
HETATM   44  C1  UNL     1      29.888  41.927  51.114  1.00  0.00     0.309 C 
HETATM   45  C2  UNL     1      30.409  44.010  51.951  1.00  0.00     0.309 C 
ENDBRANCH  42  43
ENDBRANCH  39  42
BRANCH  40  46
HETATM   46  O11 UNL     1      32.501  42.103  53.961  1.00  0.00    -0.390 OA
ATOM     47  H11 UNL     1      32.636  41.629  54.773  1.00  0.00     0.210 HD
ENDBRANCH  40  46
BRANCH  41  48
HETATM   48  O10 UNL     1      32.331  39.632  53.896  1.00  0.00    -0.388 OA
ATOM     49  H10 UNL     1      32.051  40.346  54.456  1.00  0.00     0.210 HD
ENDBRANCH  41  48
ENDBRANCH   1  37
TORSDOF 18
ENDMDL
MODEL 5
REMARK VINA RESULT: -8.454039017      1.538      2.533
REMARK  18 active torsions:
REMARK  status: ('A' for Active; 'I' for Inactive)
REMARK    1  A    between atoms: N1_2  and  C3_4 
REMARK    2  A    between atoms: C3_4  and  C4_5 
REMARK    3  A    between atoms: C5_7  and  N2_8 
REMARK    4  A    between atoms: C7_13  and  N4_14 
REMARK    5  A    between atoms: N4_14  and  C8_16 
REMARK    6  A    between atoms: C8_16  and  O3_17 
REMARK    7  A    between atoms: C8_16  and  C9_20 
REMARK    8  A    between atoms: C8_16  and  C10_25 
REMARK    9  A    between atoms: O3_17  and  O4_18 
REMARK   10  A    between atoms: C9_20  and  O5_21 
REMARK   11  A    between atoms: C9_20  and  O6_23 
REMARK   12  A    between atoms: C10_25  and  O7_26 
REMARK   13  A    between atoms: C10_25  and  C11_28 
REMARK   14  A    between atoms: C11_28  and  O8_29 
REMARK   15  A    between atoms: C11_28  and  O9_31 
REMARK   16  A    between atoms: C13_34  and  N5_35 
REMARK   17  A    between atoms: C16_44  and  O10_45 
REMARK   18  A    between atoms: C17_47  and  O11_48 
ROOT
HETATM    1  N2  UNL     1      34.401  38.290  51.451  1.00  0.00    -0.254 N 
HETATM    2  C6  UNL     1      34.250  37.128  52.100  1.00  0.00     0.332 A 
HETATM    3  O2  UNL     1      33.213  36.894  52.775  1.00  0.00    -0.246 OA
HETATM    4  N3  UNL     1      35.205  36.159  52.058  1.00  0.00    -0.293 N 
ATOM      5  H3  UNL     1      35.079  35.277  52.556  1.00  0.00     0.172 HD
HETATM    6  C7  UNL     1      36.313  36.394  51.346  1.00  0.00     0.125 A 
HETATM    7  C12 UNL     1      36.510  37.597  50.651  1.00  0.00     0.096 A 
HETATM    8  C13 UNL     1      37.640  37.862  49.911  1.00  0.00     0.117 A 
HETATM    9  N6  UNL     1      37.747  39.038  49.277  1.00  0.00    -0.338 N 
ATOM     10  H6  UNL     1      38.576  39.254  48.723  1.00  0.00     0.168 HD
HETATM   11  C14 UNL     1      36.741  39.934  49.383  1.00  0.00     0.183 A 
HETATM   12  N7  UNL     1      35.635  39.693  50.098  1.00  0.00    -0.337 N 
ATOM     13  H7  UNL     1      34.898  40.396  50.152  1.00  0.00     0.168 HD
HETATM   14  C15 UNL     1      35.499  38.539  50.736  1.00  0.00     0.132 A 
ENDROOT
BRANCH   6  15
HETATM   15  N4  UNL     1      37.259  35.565  51.254  1.00  0.00    -0.335 N 
ATOM     16  H4  UNL     1      38.189  35.937  51.448  1.00  0.00     0.164 HD
BRANCH  15  17
HETATM   17  C8  UNL     1      37.209  34.144  50.907  1.00  0.00     0.249 C 
BRANCH  17  18
HETATM   18  O3  UNL     1      36.273  33.911  49.943  1.00  0.00    -0.202 OA
BRANCH  18  19
HETATM   19  O4  UNL     1      36.290  32.842  49.268  1.00  0.00    -0.248 OA
ATOM     20  H4  UNL     1      35.612  32.185  49.378  1.00  0.00     0.253 HD
ENDBRANCH  18  19
ENDBRANCH  17  18
BRANCH  17  21
HETATM   21  C9  UNL     1      36.756  33.306  52.118  1.00  0.00     0.316 C 
BRANCH  21  22
HETATM   22  O5  UNL     1      36.962  33.918  53.321  1.00  0.00    -0.367 OA
ATOM     23  H5  UNL     1      36.383  34.653  53.482  1.00  0.00     0.212 HD
ENDBRANCH  21  22
BRANCH  21  24
HETATM   24  O6  UNL     1      35.431  32.929  51.946  1.00  0.00    -0.367 OA
ATOM     25  H6  UNL     1      34.884  33.705  51.924  1.00  0.00     0.212 HD
ENDBRANCH  21  24
ENDBRANCH  17  21
BRANCH  17  26
HETATM   26  C10 UNL     1      38.642  33.795  50.608  1.00  0.00     0.236 C 
BRANCH  26  27
HETATM   27  O7  UNL     1      39.397  34.450  51.636  1.00  0.00    -0.385 OA
ATOM     28  H7  UNL     1      40.071  33.823  51.875  1.00  0.00     0.210 HD
ENDBRANCH  26  27
BRANCH  26  29
HETATM   29  C11 UNL     1      39.036  32.373  50.633  1.00  0.00     0.287 C 
BRANCH  29  30
HETATM   30  O8  UNL     1      38.834  31.637  49.485  1.00  0.00    -0.369 OA
ATOM     31  H8  UNL     1      37.936  31.511  49.199  1.00  0.00     0.212 HD
ENDBRANCH  29  30
BRANCH  29  32
HETATM   32  O9  UNL     1      40.435  32.345  50.887  1.00  0.00    -0.369 OA
ATOM     33  H9  UNL     1      40.781  33.179  50.593  1.00  0.00     0.212 HD
ENDBRANCH  29  32
ENDBRANCH  26  29
ENDBRANCH  17  26
ENDBRANCH  15  17
ENDBRANCH   6  15
BRANCH   8  34
HETATM   34  N5  UNL     1      38.564  36.980  49.845  1.00  0.00    -0.385 N 
ATOM     35  H52 UNL     1      38.787  36.381  50.640  1.00  0.00     0.157 HD
ATOM     36  H51 UNL     1      39.089  36.873  48.977  1.00  0.00     0.157 HD
ENDBRANCH   8  34
BRANCH   1  37
HETATM   37  C5  UNL     1      33.340  39.281  51.553  1.00  0.00     0.266 C 
HETATM   38  O1  UNL     1      33.471  40.263  50.587  1.00  0.00    -0.354 OA
HETATM   39  C4  UNL     1      32.826  41.368  51.162  1.00  0.00     0.183 C 
HETATM   40  C17 UNL     1      33.417  41.424  52.529  1.00  0.00     0.182 C 
HETATM   41  C16 UNL     1      33.304  39.923  52.903  1.00  0.00     0.198 C 
BRANCH  39  42
HETATM   42  C3  UNL     1      32.899  42.576  50.311  1.00  0.00     0.305 C 
BRANCH  42  43
HETATM   43  N1  UNL     1      31.682  43.174  49.881  1.00  0.00     0.082 N 
HETATM   44  C1  UNL     1      31.745  43.156  48.395  1.00  0.00     0.309 C 
HETATM   45  C2  UNL     1      30.537  42.343  50.182  1.00  0.00     0.309 C 
ENDBRANCH  42  43
ENDBRANCH  39  42
BRANCH  40  46
HETATM   46  O11 UNL     1      32.652  42.165  53.442  1.00  0.00    -0.390 OA
ATOM     47  H11 UNL     1      32.667  41.814  54.324  1.00  0.00     0.210 HD
ENDBRANCH  40  46
BRANCH  41  48
HETATM   48  O10 UNL     1      32.041  39.764  53.446  1.00  0.00    -0.388 OA
ATOM     49  H10 UNL     1      31.392  40.059  52.817  1.00  0.00     0.210 HD
ENDBRANCH  41  48
ENDBRANCH   1  37
TORSDOF 18
ENDMDL
