MODEL 1
REMARK VINA RESULT: -9.506258267      0.000      0.000
REMARK  14 active torsions:
REMARK  status: ('A' for Active; 'I' for Inactive)
REMARK    1  A    between atoms: C2_3  and  C3_4 
REMARK       I    between atoms: C3_4  and  N2_6 
REMARK    2  A    between atoms: N2_6  and  N3_8 
REMARK    3  A    between atoms: N3_8  and  C4_9 
REMARK    4  A    between atoms: C7_15  and  O2_16 
REMARK    5  A    between atoms: O2_16  and  C8_17 
REMARK    6  A    between atoms: C9_20  and  C10_21 
REMARK    7  A    between atoms: C10_21  and  O3_22 
REMARK    8  A    between atoms: C11_24  and  N6_25 
REMARK    9  A    between atoms: C12_29  and  O4_30 
REMARK   10  A    between atoms: C13_32  and  O5_33 
REMARK   11  A    between atoms: N7_38  and  N8_39 
REMARK   12  A    between atoms: N9_44  and  C16_45 
REMARK   13  A    between atoms: C16_45  and  C17_46 
REMARK   14  A    between atoms: C17_46  and  O9_47 
ROOT
HETATM    1  C4  UNL     1      34.559  38.029  51.390  1.00  0.00     0.440 C 
HETATM    2  N4  UNL     1      34.248  36.685  51.847  1.00  0.00    -0.032 N 
ATOM      3  H41 UNL     1      34.787  36.394  52.663  1.00  0.00     0.281 HD
ATOM      4  H42 UNL     1      34.576  35.951  51.219  1.00  0.00     0.281 HD
HETATM    5  C5  UNL     1      32.793  36.676  52.062  1.00  0.00     0.242 C 
HETATM    6  C6  UNL     1      32.518  37.659  53.175  1.00  0.00     0.088 C 
HETATM    7  C7  UNL     1      33.020  39.030  52.791  1.00  0.00     0.268 C 
HETATM    8  O6  UNL     1      34.336  39.005  52.350  1.00  0.00    -0.315 OA
ENDROOT
BRANCH   1   9
HETATM    9  N3  UNL     1      35.801  38.143  50.699  1.00  0.00    -0.077 NA
BRANCH   9  10
HETATM   10  N2  UNL     1      36.621  37.046  51.035  1.00  0.00    -0.265 N 
HETATM   11  C3  UNL     1      37.716  36.697  50.241  1.00  0.00     0.276 C 
HETATM   12  O1  UNL     1      37.911  37.445  49.198  1.00  0.00    -0.266 OA
ATOM     13  H2  UNL     1      36.411  36.498  51.870  1.00  0.00     0.185 HD
BRANCH  11  14
HETATM   14  C2  UNL     1      38.633  35.604  50.471  1.00  0.00     0.144 A 
HETATM   15  C1  UNL     1      38.155  34.287  50.357  1.00  0.00     0.144 A 
HETATM   16  N1  UNL     1      36.779  34.130  50.019  1.00  0.00    -0.081 NA
HETATM   17  N9  UNL     1      38.917  33.202  50.547  1.00  0.00    -0.283 N 
HETATM   18  C15 UNL     1      40.197  33.389  50.862  1.00  0.00     0.351 A 
HETATM   19  N7  UNL     1      40.718  34.620  50.987  1.00  0.00    -0.174 N 
HETATM   20  O8  UNL     1      40.951  32.385  51.050  1.00  0.00    -0.244 OA
HETATM   21  C14 UNL     1      39.959  35.750  50.797  1.00  0.00     0.289 A 
HETATM   22  O7  UNL     1      40.494  36.876  50.926  1.00  0.00    -0.265 OA
BRANCH  17  23
HETATM   23  C16 UNL     1      38.329  31.869  50.406  1.00  0.00     0.161 C 
BRANCH  23  24
HETATM   24  C17 UNL     1      37.713  31.425  51.741  1.00  0.00     0.184 C 
BRANCH  24  25
HETATM   25  O9  UNL     1      36.339  31.411  51.572  1.00  0.00    -0.399 OA
ATOM     26  H9  UNL     1      35.957  31.795  52.353  1.00  0.00     0.209 HD
ENDBRANCH  24  25
ENDBRANCH  23  24
ENDBRANCH  17  23
BRANCH  19  27
HETATM   27  N8  UNL     1      42.057  34.838  51.315  1.00  0.00    -0.332 N 
ATOM     28  H82 UNL     1      42.775  35.004  50.609  1.00  0.00     0.177 HD
ATOM     29  H81 UNL     1      42.277  34.822  52.312  1.00  0.00     0.177 HD
ENDBRANCH  19  27
ENDBRANCH  11  14
ENDBRANCH   9  10
ENDBRANCH   1   9
BRANCH   7  30
HETATM   30  O2  UNL     1      32.250  39.661  51.863  1.00  0.00    -0.335 OA
BRANCH  30  31
HETATM   31  C8  UNL     1      32.211  41.043  51.915  1.00  0.00     0.251 C 
HETATM   32  N5  UNL     1      33.187  41.440  52.903  1.00  0.00    -0.386 N 
HETATM   33  C9  UNL     1      33.299  42.842  53.125  1.00  0.00     0.135 C 
ATOM     34  H5  UNL     1      33.758  40.762  53.407  1.00  0.00     0.156 HD
HETATM   35  C11 UNL     1      33.601  43.591  51.862  1.00  0.00     0.238 C 
HETATM   36  C12 UNL     1      32.608  43.194  50.805  1.00  0.00     0.183 C 
HETATM   37  C13 UNL     1      32.557  41.694  50.608  1.00  0.00     0.197 C 
BRANCH  33  38
HETATM   38  C10 UNL     1      32.151  43.452  53.891  1.00  0.00     0.191 C 
BRANCH  38  39
HETATM   39  O3  UNL     1      32.169  44.833  53.812  1.00  0.00    -0.399 OA
ATOM     40  H3  UNL     1      31.357  45.209  54.131  1.00  0.00     0.209 HD
ENDBRANCH  38  39
ENDBRANCH  33  38
BRANCH  35  41
HETATM   41  N6  UNL     1      34.927  43.291  51.368  1.00  0.00    -0.070 N 
ATOM     42  H63 UNL     1      35.229  43.972  50.671  1.00  0.00     0.274 HD
ATOM     43  H62 UNL     1      35.638  43.466  52.078  1.00  0.00     0.274 HD
ATOM     44  H61 UNL     1      34.988  42.338  51.008  1.00  0.00     0.274 HD
ENDBRANCH  35  41
BRANCH  36  45
HETATM   45  O4  UNL     1      31.368  43.777  50.942  1.00  0.00    -0.391 OA
ATOM     46  H4  UNL     1      31.014  44.138  50.138  1.00  0.00     0.210 HD
ENDBRANCH  36  45
BRANCH  37  47
HETATM   47  O5  UNL     1      33.842  41.300  50.225  1.00  0.00    -0.389 OA
ATOM     48  H5  UNL     1      33.987  41.545  49.318  1.00  0.00     0.210 HD
ENDBRANCH  37  47
ENDBRANCH  30  31
ENDBRANCH   7  30
TORSDOF 14
ENDMDL
MODEL 2
REMARK VINA RESULT: -9.312960876      1.927      2.439
REMARK  14 active torsions:
REMARK  status: ('A' for Active; 'I' for Inactive)
REMARK    1  A    between atoms: C2_3  and  C3_4 
REMARK       I    between atoms: C3_4  and  N2_6 
REMARK    2  A    between atoms: N2_6  and  N3_8 
REMARK    3  A    between atoms: N3_8  and  C4_9 
REMARK    4  A    between atoms: C7_15  and  O2_16 
REMARK    5  A    between atoms: O2_16  and  C8_17 
REMARK    6  A    between atoms: C9_20  and  C10_21 
REMARK    7  A    between atoms: C10_21  and  O3_22 
REMARK    8  A    between atoms: C11_24  and  N6_25 
REMARK    9  A    between atoms: C12_29  and  O4_30 
REMARK   10  A    between atoms: C13_32  and  O5_33 
REMARK   11  A    between atoms: N7_38  and  N8_39 
REMARK   12  A    between atoms: N9_44  and  C16_45 
REMARK   13  A    between atoms: C16_45  and  C17_46 
REMARK   14  A    between atoms: C17_46  and  O9_47 
ROOT
HETATM    1  C4  UNL     1      34.642  38.096  51.359  1.00  0.00     0.440 C 
HETATM    2  N4  UNL     1      34.459  36.869  52.116  1.00  0.00    -0.032 N 
ATOM      3  H41 UNL     1      34.937  36.867  53.017  1.00  0.00     0.281 HD
ATOM      4  H42 UNL     1      34.946  36.065  51.721  1.00  0.00     0.281 HD
HETATM    5  C5  UNL     1      33.002  36.690  52.217  1.00  0.00     0.242 C 
HETATM    6  C6  UNL     1      32.482  37.857  53.022  1.00  0.00     0.088 C 
HETATM    7  C7  UNL     1      32.842  39.156  52.342  1.00  0.00     0.268 C 
HETATM    8  O6  UNL     1      34.191  39.228  52.022  1.00  0.00    -0.315 OA
ENDROOT
BRANCH   1   9
HETATM    9  N3  UNL     1      35.928  38.229  50.756  1.00  0.00    -0.077 NA
BRANCH   9  10
HETATM   10  N2  UNL     1      36.710  37.100  51.079  1.00  0.00    -0.265 N 
HETATM   11  C3  UNL     1      37.811  36.742  50.297  1.00  0.00     0.276 C 
HETATM   12  O1  UNL     1      38.047  37.511  49.279  1.00  0.00    -0.266 OA
ATOM     13  H2  UNL     1      36.468  36.538  51.895  1.00  0.00     0.185 HD
BRANCH  11  14
HETATM   14  C2  UNL     1      38.692  35.617  50.516  1.00  0.00     0.144 A 
HETATM   15  C1  UNL     1      38.176  34.318  50.377  1.00  0.00     0.144 A 
HETATM   16  N1  UNL     1      36.799  34.208  50.026  1.00  0.00    -0.081 NA
HETATM   17  N9  UNL     1      38.903  33.208  50.555  1.00  0.00    -0.283 N 
HETATM   18  C15 UNL     1      40.186  33.351  50.882  1.00  0.00     0.351 A 
HETATM   19  N7  UNL     1      40.742  34.563  51.031  1.00  0.00    -0.174 N 
HETATM   20  O8  UNL     1      40.907  32.321  51.059  1.00  0.00    -0.244 OA
HETATM   21  C14 UNL     1      40.020  35.719  50.855  1.00  0.00     0.289 A 
HETATM   22  O7  UNL     1      40.587  36.825  51.006  1.00  0.00    -0.265 OA
BRANCH  17  23
HETATM   23  C16 UNL     1      38.277  31.896  50.388  1.00  0.00     0.161 C 
BRANCH  23  24
HETATM   24  C17 UNL     1      37.671  31.431  51.720  1.00  0.00     0.184 C 
BRANCH  24  25
HETATM   25  O9  UNL     1      36.294  31.454  51.574  1.00  0.00    -0.399 OA
ATOM     26  H9  UNL     1      35.925  31.006  52.325  1.00  0.00     0.209 HD
ENDBRANCH  24  25
ENDBRANCH  23  24
ENDBRANCH  17  23
BRANCH  19  27
HETATM   27  N8  UNL     1      42.085  34.735  51.374  1.00  0.00    -0.332 N 
ATOM     28  H82 UNL     1      42.379  35.290  52.177  1.00  0.00     0.177 HD
ATOM     29  H81 UNL     1      42.760  34.268  50.767  1.00  0.00     0.177 HD
ENDBRANCH  19  27
ENDBRANCH  11  14
ENDBRANCH   9  10
ENDBRANCH   1   9
BRANCH   7  30
HETATM   30  O2  UNL     1      32.104  39.422  51.231  1.00  0.00    -0.335 OA
BRANCH  30  31
HETATM   31  C8  UNL     1      31.041  40.295  51.376  1.00  0.00     0.251 C 
HETATM   32  N5  UNL     1      31.204  41.306  50.357  1.00  0.00    -0.386 N 
HETATM   33  C9  UNL     1      30.210  42.325  50.339  1.00  0.00     0.135 C 
ATOM     34  H5  UNL     1      31.979  41.290  49.694  1.00  0.00     0.156 HD
HETATM   35  C11 UNL     1      28.826  41.761  50.202  1.00  0.00     0.238 C 
HETATM   36  C12 UNL     1      28.625  40.696  51.244  1.00  0.00     0.183 C 
HETATM   37  C13 UNL     1      29.705  39.637  51.191  1.00  0.00     0.197 C 
BRANCH  33  38
HETATM   38  C10 UNL     1      30.312  43.324  51.465  1.00  0.00     0.191 C 
BRANCH  38  39
HETATM   39  O3  UNL     1      30.058  44.610  51.023  1.00  0.00    -0.399 OA
ATOM     40  H3  UNL     1      29.132  44.742  50.855  1.00  0.00     0.209 HD
ENDBRANCH  38  39
ENDBRANCH  33  38
BRANCH  35  41
HETATM   41  N6  UNL     1      28.621  41.162  48.901  1.00  0.00    -0.070 N 
ATOM     42  H63 UNL     1      27.648  40.890  48.765  1.00  0.00     0.274 HD
ATOM     43  H62 UNL     1      28.697  41.854  48.156  1.00  0.00     0.274 HD
ATOM     44  H61 UNL     1      29.253  40.377  48.745  1.00  0.00     0.274 HD
ENDBRANCH  35  41
BRANCH  36  45
HETATM   45  O4  UNL     1      28.383  41.179  52.510  1.00  0.00    -0.391 OA
ATOM     46  H4  UNL     1      27.804  40.636  53.032  1.00  0.00     0.210 HD
ENDBRANCH  36  45
BRANCH  37  47
HETATM   47  O5  UNL     1      29.645  39.071  49.915  1.00  0.00    -0.389 OA
ATOM     48  H5  UNL     1      29.823  38.140  49.977  1.00  0.00     0.210 HD
ENDBRANCH  37  47
ENDBRANCH  30  31
ENDBRANCH   7  30
TORSDOF 14
ENDMDL
MODEL 3
REMARK VINA RESULT: -9.228708492      1.157      1.197
REMARK  14 active torsions:
REMARK  status: ('A' for Active; 'I' for Inactive)
REMARK    1  A    between atoms: C2_3  and  C3_4 
REMARK       I    between atoms: C3_4  and  N2_6 
REMARK    2  A    between atoms: N2_6  and  N3_8 
REMARK    3  A    between atoms: N3_8  and  C4_9 
REMARK    4  A    between atoms: C7_15  and  O2_16 
REMARK    5  A    between atoms: O2_16  and  C8_17 
REMARK    6  A    between atoms: C9_20  and  C10_21 
REMARK    7  A    between atoms: C10_21  and  O3_22 
REMARK    8  A    between atoms: C11_24  and  N6_25 
REMARK    9  A    between atoms: C12_29  and  O4_30 
REMARK   10  A    between atoms: C13_32  and  O5_33 
REMARK   11  A    between atoms: N7_38  and  N8_39 
REMARK   12  A    between atoms: N9_44  and  C16_45 
REMARK   13  A    between atoms: C16_45  and  C17_46 
REMARK   14  A    between atoms: C17_46  and  O9_47 
ROOT
HETATM    1  C4  UNL     1      34.437  37.856  51.358  1.00  0.00     0.440 C 
HETATM    2  N4  UNL     1      34.160  36.441  51.541  1.00  0.00    -0.032 N 
ATOM      3  H41 UNL     1      34.575  36.047  52.385  1.00  0.00     0.281 HD
ATOM      4  H42 UNL     1      34.645  35.838  50.876  1.00  0.00     0.281 HD
HETATM    5  C5  UNL     1      32.694  36.323  51.489  1.00  0.00     0.242 C 
HETATM    6  C6  UNL     1      32.160  37.094  52.673  1.00  0.00     0.088 C 
HETATM    7  C7  UNL     1      32.611  38.533  52.599  1.00  0.00     0.268 C 
HETATM    8  O6  UNL     1      33.980  38.648  52.402  1.00  0.00    -0.315 OA
ENDROOT
BRANCH   1   9
HETATM    9  N3  UNL     1      35.765  38.145  50.926  1.00  0.00    -0.077 NA
BRANCH   9  10
HETATM   10  N2  UNL     1      36.595  37.041  51.210  1.00  0.00    -0.265 N 
HETATM   11  C3  UNL     1      37.642  36.691  50.353  1.00  0.00     0.276 C 
HETATM   12  O1  UNL     1      37.782  37.443  49.306  1.00  0.00    -0.266 OA
ATOM     13  H2  UNL     1      36.429  36.490  52.053  1.00  0.00     0.185 HD
BRANCH  11  14
HETATM   14  C2  UNL     1      38.563  35.590  50.526  1.00  0.00     0.144 A 
HETATM   15  C1  UNL     1      38.079  34.278  50.394  1.00  0.00     0.144 A 
HETATM   16  N1  UNL     1      36.692  34.131  50.098  1.00  0.00    -0.081 NA
HETATM   17  N9  UNL     1      38.843  33.187  50.533  1.00  0.00    -0.283 N 
HETATM   18  C15 UNL     1      40.134  33.365  50.809  1.00  0.00     0.351 A 
HETATM   19  N7  UNL     1      40.661  34.591  50.948  1.00  0.00    -0.174 N 
HETATM   20  O8  UNL     1      40.891  32.354  50.947  1.00  0.00    -0.244 OA
HETATM   21  C14 UNL     1      39.900  35.726  50.811  1.00  0.00     0.289 A 
HETATM   22  O7  UNL     1      40.441  36.848  50.950  1.00  0.00    -0.265 OA
BRANCH  17  23
HETATM   23  C16 UNL     1      38.249  31.859  50.378  1.00  0.00     0.161 C 
BRANCH  23  24
HETATM   24  C17 UNL     1      37.668  31.386  51.718  1.00  0.00     0.184 C 
BRANCH  24  25
HETATM   25  O9  UNL     1      36.289  31.411  51.598  1.00  0.00    -0.399 OA
ATOM     26  H9  UNL     1      36.015  32.315  51.701  1.00  0.00     0.209 HD
ENDBRANCH  24  25
ENDBRANCH  23  24
ENDBRANCH  17  23
BRANCH  19  27
HETATM   27  N8  UNL     1      42.012  34.799  51.237  1.00  0.00    -0.332 N 
ATOM     28  H82 UNL     1      42.757  34.539  50.591  1.00  0.00     0.177 HD
ATOM     29  H81 UNL     1      42.209  35.230  52.140  1.00  0.00     0.177 HD
ENDBRANCH  19  27
ENDBRANCH  11  14
ENDBRANCH   9  10
ENDBRANCH   1   9
BRANCH   7  30
HETATM   30  O2  UNL     1      31.961  39.269  51.658  1.00  0.00    -0.335 OA
BRANCH  30  31
HETATM   31  C8  UNL     1      31.632  40.570  51.993  1.00  0.00     0.251 C 
HETATM   32  N5  UNL     1      32.867  41.320  51.966  1.00  0.00    -0.386 N 
HETATM   33  C9  UNL     1      32.754  42.699  52.301  1.00  0.00     0.135 C 
ATOM     34  H5  UNL     1      33.759  40.890  51.724  1.00  0.00     0.156 HD
HETATM   35  C11 UNL     1      31.770  43.414  51.423  1.00  0.00     0.238 C 
HETATM   36  C12 UNL     1      30.473  42.654  51.419  1.00  0.00     0.183 C 
HETATM   37  C13 UNL     1      30.665  41.202  51.036  1.00  0.00     0.197 C 
BRANCH  33  38
HETATM   38  C10 UNL     1      32.520  42.975  53.765  1.00  0.00     0.191 C 
BRANCH  38  39
HETATM   39  O3  UNL     1      33.059  41.977  54.559  1.00  0.00    -0.399 OA
ATOM     40  H3  UNL     1      33.587  42.340  55.260  1.00  0.00     0.209 HD
ENDBRANCH  38  39
ENDBRANCH  33  38
BRANCH  35  41
HETATM   41  N6  UNL     1      32.241  43.505  50.058  1.00  0.00    -0.070 N 
ATOM     42  H63 UNL     1      33.103  44.047  49.997  1.00  0.00     0.274 HD
ATOM     43  H62 UNL     1      32.594  42.609  49.724  1.00  0.00     0.274 HD
ATOM     44  H61 UNL     1      31.523  43.877  49.436  1.00  0.00     0.274 HD
ENDBRANCH  35  41
BRANCH  36  45
HETATM   45  O4  UNL     1      29.707  42.832  52.549  1.00  0.00    -0.391 OA
ATOM     46  H4  UNL     1      30.107  43.384  53.211  1.00  0.00     0.210 HD
ENDBRANCH  36  45
BRANCH  37  47
HETATM   47  O5  UNL     1      31.221  41.200  49.754  1.00  0.00    -0.389 OA
ATOM     48  H5  UNL     1      30.648  40.723  49.165  1.00  0.00     0.210 HD
ENDBRANCH  37  47
ENDBRANCH  30  31
ENDBRANCH   7  30
TORSDOF 14
ENDMDL
MODEL 4
REMARK VINA RESULT: -9.165902006      1.557      2.287
REMARK  14 active torsions:
REMARK  status: ('A' for Active; 'I' for Inactive)
REMARK    1  A    between atoms: C2_3  and  C3_4 
REMARK       I    between atoms: C3_4  and  N2_6 
REMARK    2  A    between atoms: N2_6  and  N3_8 
REMARK    3  A    between atoms: N3_8  and  C4_9 
REMARK    4  A    between atoms: C7_15  and  O2_16 
REMARK    5  A    between atoms: O2_16  and  C8_17 
REMARK    6  A    between atoms: C9_20  and  C10_21 
REMARK    7  A    between atoms: C10_21  and  O3_22 
REMARK    8  A    between atoms: C11_24  and  N6_25 
REMARK    9  A    between atoms: C12_29  and  O4_30 
REMARK   10  A    between atoms: C13_32  and  O5_33 
REMARK   11  A    between atoms: N7_38  and  N8_39 
REMARK   12  A    between atoms: N9_44  and  C16_45 
REMARK   13  A    between atoms: C16_45  and  C17_46 
REMARK   14  A    between atoms: C17_46  and  O9_47 
ROOT
HETATM    1  C4  UNL     1      34.634  38.175  51.326  1.00  0.00     0.440 C 
HETATM    2  N4  UNL     1      34.432  36.954  52.088  1.00  0.00    -0.032 N 
ATOM      3  H41 UNL     1      34.908  36.948  52.990  1.00  0.00     0.281 HD
ATOM      4  H42 UNL     1      34.909  36.141  51.697  1.00  0.00     0.281 HD
HETATM    5  C5  UNL     1      32.972  36.795  52.186  1.00  0.00     0.242 C 
HETATM    6  C6  UNL     1      32.467  37.973  52.985  1.00  0.00     0.088 C 
HETATM    7  C7  UNL     1      32.847  39.264  52.302  1.00  0.00     0.268 C 
HETATM    8  O6  UNL     1      34.197  39.315  51.984  1.00  0.00    -0.315 OA
ENDROOT
BRANCH   1   9
HETATM    9  N3  UNL     1      35.923  38.288  50.726  1.00  0.00    -0.077 NA
BRANCH   9  10
HETATM   10  N2  UNL     1      36.686  37.147  51.051  1.00  0.00    -0.265 N 
HETATM   11  C3  UNL     1      37.796  36.782  50.283  1.00  0.00     0.276 C 
HETATM   12  O1  UNL     1      38.057  37.558  49.276  1.00  0.00    -0.266 OA
ATOM     13  H2  UNL     1      36.425  36.579  51.857  1.00  0.00     0.185 HD
BRANCH  11  14
HETATM   14  C2  UNL     1      38.660  35.645  50.504  1.00  0.00     0.144 A 
HETATM   15  C1  UNL     1      38.124  34.353  50.365  1.00  0.00     0.144 A 
HETATM   16  N1  UNL     1      36.746  34.264  50.011  1.00  0.00    -0.081 NA
HETATM   17  N9  UNL     1      38.834  33.233  50.546  1.00  0.00    -0.283 N 
HETATM   18  C15 UNL     1      40.119  33.357  50.875  1.00  0.00     0.351 A 
HETATM   19  N7  UNL     1      40.693  34.561  51.025  1.00  0.00    -0.174 N 
HETATM   20  O8  UNL     1      40.824  32.316  51.055  1.00  0.00    -0.244 OA
HETATM   21  C14 UNL     1      39.988  35.727  50.845  1.00  0.00     0.289 A 
HETATM   22  O7  UNL     1      40.571  36.825  50.997  1.00  0.00    -0.265 OA
BRANCH  17  23
HETATM   23  C16 UNL     1      38.189  31.930  50.378  1.00  0.00     0.161 C 
BRANCH  23  24
HETATM   24  C17 UNL     1      37.598  31.462  51.716  1.00  0.00     0.184 C 
BRANCH  24  25
HETATM   25  O9  UNL     1      36.220  31.514  51.595  1.00  0.00    -0.399 OA
ATOM     26  H9  UNL     1      35.856  31.030  52.327  1.00  0.00     0.209 HD
ENDBRANCH  24  25
ENDBRANCH  23  24
ENDBRANCH  17  23
BRANCH  19  27
HETATM   27  N8  UNL     1      42.037  34.713  51.369  1.00  0.00    -0.332 N 
ATOM     28  H82 UNL     1      42.356  35.420  52.032  1.00  0.00     0.177 HD
ATOM     29  H81 UNL     1      42.686  34.070  50.915  1.00  0.00     0.177 HD
ENDBRANCH  19  27
ENDBRANCH  11  14
ENDBRANCH   9  10
ENDBRANCH   1   9
BRANCH   7  30
HETATM   30  O2  UNL     1      32.116  39.536  51.187  1.00  0.00    -0.335 OA
BRANCH  30  31
HETATM   31  C8  UNL     1      31.850  40.867  50.919  1.00  0.00     0.251 C 
HETATM   32  N5  UNL     1      31.059  40.887  49.710  1.00  0.00    -0.386 N 
HETATM   33  C9  UNL     1      30.685  42.179  49.244  1.00  0.00     0.135 C 
ATOM     34  H5  UNL     1      30.788  40.033  49.223  1.00  0.00     0.156 HD
HETATM   35  C11 UNL     1      29.941  42.961  50.285  1.00  0.00     0.238 C 
HETATM   36  C12 UNL     1      30.731  42.952  51.564  1.00  0.00     0.183 C 
HETATM   37  C13 UNL     1      31.077  41.548  52.010  1.00  0.00     0.197 C 
BRANCH  33  38
HETATM   38  C10 UNL     1      31.807  42.975  48.624  1.00  0.00     0.191 C 
BRANCH  38  39
HETATM   39  O3  UNL     1      31.479  44.316  48.526  1.00  0.00    -0.399 OA
ATOM     40  H3  UNL     1      31.403  44.588  47.619  1.00  0.00     0.209 HD
ENDBRANCH  38  39
ENDBRANCH  33  38
BRANCH  35  41
HETATM   41  N6  UNL     1      28.641  42.385  50.557  1.00  0.00    -0.070 N 
ATOM     42  H63 UNL     1      27.946  42.699  49.880  1.00  0.00     0.274 HD
ATOM     43  H62 UNL     1      28.625  41.387  50.348  1.00  0.00     0.274 HD
ATOM     44  H61 UNL     1      28.340  42.570  51.513  1.00  0.00     0.274 HD
ENDBRANCH  35  41
BRANCH  36  45
HETATM   45  O4  UNL     1      31.803  43.817  51.575  1.00  0.00    -0.391 OA
ATOM     46  H4  UNL     1      32.631  43.416  51.339  1.00  0.00     0.210 HD
ENDBRANCH  36  45
BRANCH  37  47
HETATM   47  O5  UNL     1      29.863  40.881  52.197  1.00  0.00    -0.389 OA
ATOM     48  H5  UNL     1      30.020  39.944  52.215  1.00  0.00     0.210 HD
ENDBRANCH  37  47
ENDBRANCH  30  31
ENDBRANCH   7  30
TORSDOF 14
ENDMDL
MODEL 5
REMARK VINA RESULT: -9.160497278      2.774     10.374
REMARK  14 active torsions:
REMARK  status: ('A' for Active; 'I' for Inactive)
REMARK    1  A    between atoms: C2_3  and  C3_4 
REMARK       I    between atoms: C3_4  and  N2_6 
REMARK    2  A    between atoms: N2_6  and  N3_8 
REMARK    3  A    between atoms: N3_8  and  C4_9 
REMARK    4  A    between atoms: C7_15  and  O2_16 
REMARK    5  A    between atoms: O2_16  and  C8_17 
REMARK    6  A    between atoms: C9_20  and  C10_21 
REMARK    7  A    between atoms: C10_21  and  O3_22 
REMARK    8  A    between atoms: C11_24  and  N6_25 
REMARK    9  A    between atoms: C12_29  and  O4_30 
REMARK   10  A    between atoms: C13_32  and  O5_33 
REMARK   11  A    between atoms: N7_38  and  N8_39 
REMARK   12  A    between atoms: N9_44  and  C16_45 
REMARK   13  A    between atoms: C16_45  and  C17_46 
REMARK   14  A    between atoms: C17_46  and  O9_47 
ROOT
HETATM    1  C4  UNL     1      34.705  36.752  51.565  1.00  0.00     0.440 C 
HETATM    2  N4  UNL     1      34.755  38.169  51.245  1.00  0.00    -0.032 N 
ATOM      3  H41 UNL     1      35.055  38.756  52.024  1.00  0.00     0.281 HD
ATOM      4  H42 UNL     1      33.837  38.595  51.121  1.00  0.00     0.281 HD
HETATM    5  C5  UNL     1      35.621  38.269  50.060  1.00  0.00     0.242 C 
HETATM    6  C6  UNL     1      36.992  37.805  50.491  1.00  0.00     0.088 C 
HETATM    7  C7  UNL     1      36.919  36.391  51.015  1.00  0.00     0.268 C 
HETATM    8  O6  UNL     1      35.926  36.234  51.972  1.00  0.00    -0.315 OA
ENDROOT
BRANCH   1   9
HETATM    9  N3  UNL     1      33.594  36.369  52.372  1.00  0.00    -0.077 NA
BRANCH   9  10
HETATM   10  N2  UNL     1      32.447  37.069  51.943  1.00  0.00    -0.265 N 
HETATM   11  C3  UNL     1      31.929  38.128  52.694  1.00  0.00     0.276 C 
HETATM   12  O1  UNL     1      32.571  38.405  53.786  1.00  0.00    -0.266 OA
ATOM     13  H2  UNL     1      31.989  36.799  51.072  1.00  0.00     0.185 HD
BRANCH  11  14
HETATM   14  C2  UNL     1      30.768  38.925  52.370  1.00  0.00     0.144 A 
HETATM   15  C1  UNL     1      30.898  39.954  51.421  1.00  0.00     0.144 A 
HETATM   16  N1  UNL     1      32.189  40.135  50.844  1.00  0.00    -0.081 NA
HETATM   17  N9  UNL     1      29.889  40.750  51.046  1.00  0.00    -0.283 N 
HETATM   18  C15 UNL     1      28.698  40.550  51.608  1.00  0.00     0.351 A 
HETATM   19  N7  UNL     1      28.505  39.586  52.521  1.00  0.00    -0.174 N 
HETATM   20  O8  UNL     1      27.717  41.286  51.277  1.00  0.00    -0.244 OA
HETATM   21  C14 UNL     1      29.522  38.755  52.924  1.00  0.00     0.289 A 
HETATM   22  O7  UNL     1      29.288  37.870  53.779  1.00  0.00    -0.265 OA
BRANCH  17  23
HETATM   23  C16 UNL     1      30.122  41.796  50.049  1.00  0.00     0.161 C 
BRANCH  23  24
HETATM   24  C17 UNL     1      29.669  41.310  48.665  1.00  0.00     0.184 C 
BRANCH  24  25
HETATM   25  O9  UNL     1      28.501  41.986  48.356  1.00  0.00    -0.399 OA
ATOM     26  H9  UNL     1      27.821  41.333  48.237  1.00  0.00     0.209 HD
ENDBRANCH  24  25
ENDBRANCH  23  24
ENDBRANCH  17  23
BRANCH  19  27
HETATM   27  N8  UNL     1      27.264  39.359  53.121  1.00  0.00    -0.332 N 
ATOM     28  H82 UNL     1      26.909  38.422  53.307  1.00  0.00     0.177 HD
ATOM     29  H81 UNL     1      26.731  40.195  53.364  1.00  0.00     0.177 HD
ENDBRANCH  19  27
ENDBRANCH  11  14
ENDBRANCH   9  10
ENDBRANCH   1   9
BRANCH   7  30
HETATM   30  O2  UNL     1      36.758  35.449  50.046  1.00  0.00    -0.335 OA
BRANCH  30  31
HETATM   31  C8  UNL     1      37.542  34.313  50.138  1.00  0.00     0.251 C 
HETATM   32  N5  UNL     1      38.250  34.409  51.394  1.00  0.00    -0.386 N 
HETATM   33  C9  UNL     1      39.136  33.333  51.682  1.00  0.00     0.135 C 
ATOM     34  H5  UNL     1      38.124  35.196  52.030  1.00  0.00     0.156 HD
HETATM   35  C11 UNL     1      38.438  32.005  51.655  1.00  0.00     0.238 C 
HETATM   36  C12 UNL     1      37.681  31.874  50.363  1.00  0.00     0.183 C 
HETATM   37  C13 UNL     1      36.745  33.042  50.132  1.00  0.00     0.197 C 
BRANCH  33  38
HETATM   38  C10 UNL     1      40.407  33.328  50.868  1.00  0.00     0.191 C 
BRANCH  38  39
HETATM   39  O3  UNL     1      41.110  32.148  51.039  1.00  0.00    -0.399 OA
ATOM     40  H3  UNL     1      42.032  32.262  50.837  1.00  0.00     0.209 HD
ENDBRANCH  38  39
ENDBRANCH  33  38
BRANCH  35  41
HETATM   41  N6  UNL     1      37.495  31.877  52.745  1.00  0.00    -0.070 N 
ATOM     42  H63 UNL     1      37.101  30.938  52.787  1.00  0.00     0.274 HD
ATOM     43  H62 UNL     1      37.966  31.891  53.649  1.00  0.00     0.274 HD
ATOM     44  H61 UNL     1      36.764  32.586  52.695  1.00  0.00     0.274 HD
ENDBRANCH  35  41
BRANCH  36  45
HETATM   45  O4  UNL     1      38.464  31.568  49.274  1.00  0.00    -0.391 OA
ATOM     46  H4  UNL     1      39.343  31.926  49.310  1.00  0.00     0.210 HD
ENDBRANCH  36  45
BRANCH  37  47
HETATM   47  O5  UNL     1      35.852  33.054  51.208  1.00  0.00    -0.389 OA
ATOM     48  H5  UNL     1      35.417  33.898  51.243  1.00  0.00     0.210 HD
ENDBRANCH  37  47
ENDBRANCH  30  31
ENDBRANCH   7  30
TORSDOF 14
ENDMDL
