MODEL 1
REMARK VINA RESULT: -8.680717360      0.000      0.000
REMARK  15 active torsions:
REMARK  status: ('A' for Active; 'I' for Inactive)
REMARK       I    between atoms: C2_2  and  N1_4 
REMARK    1  A    between atoms: N1_4  and  C3_6 
REMARK    2  A    between atoms: C4_7  and  N2_8 
REMARK       I    between atoms: N2_8  and  C5_10 
REMARK    3  A    between atoms: C5_10  and  C6_12 
REMARK    4  A    between atoms: C6_12  and  O3_13 
REMARK    5  A    between atoms: C6_12  and  C7_15 
REMARK    6  A    between atoms: C6_12  and  C8_18 
REMARK    7  A    between atoms: C7_15  and  O4_16 
REMARK    8  A    between atoms: C8_18  and  O5_19 
REMARK    9  A    between atoms: C8_18  and  C9_21 
REMARK   10  A    between atoms: C10_24  and  O6_25 
REMARK   11  A    between atoms: C11_27  and  O7_28 
REMARK   12  A    between atoms: O7_28  and  C12_29 
REMARK   13  A    between atoms: C16_38  and  N7_39 
REMARK   14  A    between atoms: C17_43  and  O9_44 
REMARK   15  A    between atoms: C18_46  and  O10_47 
ROOT
HETATM    1  C6  UNL     1      38.893  36.112  50.406  1.00  0.00     0.187 C 
ENDROOT
BRANCH   1   2
HETATM    2  C5  UNL     1      37.458  36.384  50.234  1.00  0.00     0.257 C 
HETATM    3  N2  UNL     1      36.904  37.546  50.832  1.00  0.00    -0.352 N 
ATOM      4  H2  UNL     1      37.517  38.162  51.365  1.00  0.00     0.163 HD
HETATM    5  O2  UNL     1      36.687  35.646  49.588  1.00  0.00    -0.270 OA
BRANCH   3   6
HETATM    6  C4  UNL     1      35.496  37.893  50.713  1.00  0.00     0.111 C 
HETATM    7  C3  UNL     1      34.754  37.421  51.932  1.00  0.00     0.138 C 
HETATM    8  C18 UNL     1      34.261  38.550  52.800  1.00  0.00     0.173 C 
HETATM    9  C17 UNL     1      33.461  39.571  52.062  1.00  0.00     0.179 C 
HETATM   10  C16 UNL     1      33.971  39.872  50.687  1.00  0.00     0.216 C 
HETATM   11  C15 UNL     1      35.374  39.362  50.462  1.00  0.00     0.062 C 
BRANCH   7  12
HETATM   12  N1  UNL     1      33.644  36.561  51.603  1.00  0.00    -0.352 N 
HETATM   13  C2  UNL     1      33.719  35.136  51.703  1.00  0.00     0.214 C 
HETATM   14  C1  UNL     1      32.584  34.267  51.366  1.00  0.00     0.117 C 
HETATM   15  O1  UNL     1      34.815  34.653  52.097  1.00  0.00    -0.274 OA
ATOM     16  H1  UNL     1      32.772  36.985  51.287  1.00  0.00     0.163 HD
ENDBRANCH   7  12
BRANCH   8  17
HETATM   17  O10 UNL     1      33.402  37.967  53.758  1.00  0.00    -0.391 OA
ATOM     18  H10 UNL     1      32.746  37.484  53.269  1.00  0.00     0.210 HD
ENDBRANCH   8  17
BRANCH   9  19
HETATM   19  O9  UNL     1      33.548  40.775  52.799  1.00  0.00    -0.391 OA
ATOM     20  H9  UNL     1      32.858  40.745  53.452  1.00  0.00     0.210 HD
ENDBRANCH   9  19
BRANCH  10  21
HETATM   21  N7  UNL     1      33.994  41.308  50.421  1.00  0.00    -0.072 N 
ATOM     22  H73 UNL     1      33.624  41.552  49.502  1.00  0.00     0.274 HD
ATOM     23  H72 UNL     1      33.317  41.830  50.977  1.00  0.00     0.274 HD
ATOM     24  H71 UNL     1      34.956  41.620  50.563  1.00  0.00     0.274 HD
ENDBRANCH  10  21
ENDBRANCH   3   6
ENDBRANCH   1   2
BRANCH   1  25
HETATM   25  O3  UNL     1      39.613  37.296  50.473  1.00  0.00    -0.376 OA
ATOM     26  H3  UNL     1      40.460  37.199  50.053  1.00  0.00     0.211 HD
ENDBRANCH   1  25
BRANCH   1  27
HETATM   27  C7  UNL     1      39.357  35.415  49.121  1.00  0.00     0.215 C 
BRANCH  27  28
HETATM   28  O4  UNL     1      39.142  36.252  48.033  1.00  0.00    -0.397 OA
ATOM     29  H4  UNL     1      39.926  36.761  47.864  1.00  0.00     0.209 HD
ENDBRANCH  27  28
ENDBRANCH   1  27
BRANCH   1  30
HETATM   30  C8  UNL     1      39.176  35.167  51.550  1.00  0.00     0.187 C 
BRANCH  30  31
HETATM   31  O5  UNL     1      40.440  35.304  52.053  1.00  0.00    -0.390 OA
ATOM     32  H5  UNL     1      40.471  35.839  52.837  1.00  0.00     0.210 HD
ENDBRANCH  30  31
BRANCH  30  33
HETATM   33  C9  UNL     1      38.903  33.767  51.144  1.00  0.00     0.160 C 
HETATM   34  N3  UNL     1      37.915  33.131  52.049  1.00  0.00    -0.135 NA
HETATM   35  N4  UNL     1      37.874  31.823  51.573  1.00  0.00    -0.113 NA
HETATM   36  C10 UNL     1      39.210  31.482  51.152  1.00  0.00     0.257 C 
HETATM   37  C11 UNL     1      40.027  32.796  51.358  1.00  0.00     0.195 C 
BRANCH  36  38
HETATM   38  O6  UNL     1      39.176  31.236  49.780  1.00  0.00    -0.376 OA
ATOM     39  H6  UNL     1      39.692  30.457  49.611  1.00  0.00     0.211 HD
ENDBRANCH  36  38
BRANCH  37  40
HETATM   40  O7  UNL     1      41.065  32.839  50.478  1.00  0.00    -0.333 OA
BRANCH  40  41
HETATM   41  C12 UNL     1      42.232  32.326  51.085  1.00  0.00     0.378 A 
HETATM   42  N5  UNL     1      42.818  33.347  51.888  1.00  0.00    -0.338 N 
HETATM   43  C13 UNL     1      44.018  33.787  51.766  1.00  0.00     0.180 A 
ATOM     44  H5  UNL     1      42.239  33.762  52.617  1.00  0.00     0.165 HD
HETATM   45  N6  UNL     1      44.836  33.218  50.756  1.00  0.00    -0.343 N 
HETATM   46  C14 UNL     1      44.389  32.299  49.992  1.00  0.00     0.232 A 
ATOM     47  H6  UNL     1      45.794  33.550  50.638  1.00  0.00     0.167 HD
HETATM   48  O8  UNL     1      43.117  31.826  50.114  1.00  0.00    -0.298 OA
ENDBRANCH  40  41
ENDBRANCH  37  40
ENDBRANCH  30  33
ENDBRANCH   1  30
TORSDOF 15
ENDMDL
MODEL 2
REMARK VINA RESULT: -8.526533440      3.975      7.912
REMARK  15 active torsions:
REMARK  status: ('A' for Active; 'I' for Inactive)
REMARK       I    between atoms: C2_2  and  N1_4 
REMARK    1  A    between atoms: N1_4  and  C3_6 
REMARK    2  A    between atoms: C4_7  and  N2_8 
REMARK       I    between atoms: N2_8  and  C5_10 
REMARK    3  A    between atoms: C5_10  and  C6_12 
REMARK    4  A    between atoms: C6_12  and  O3_13 
REMARK    5  A    between atoms: C6_12  and  C7_15 
REMARK    6  A    between atoms: C6_12  and  C8_18 
REMARK    7  A    between atoms: C7_15  and  O4_16 
REMARK    8  A    between atoms: C8_18  and  O5_19 
REMARK    9  A    between atoms: C8_18  and  C9_21 
REMARK   10  A    between atoms: C10_24  and  O6_25 
REMARK   11  A    between atoms: C11_27  and  O7_28 
REMARK   12  A    between atoms: O7_28  and  C12_29 
REMARK   13  A    between atoms: C16_38  and  N7_39 
REMARK   14  A    between atoms: C17_43  and  O9_44 
REMARK   15  A    between atoms: C18_46  and  O10_47 
ROOT
HETATM    1  C6  UNL     1      32.613  40.266  53.071  1.00  0.00     0.187 C 
ENDROOT
BRANCH   1   2
HETATM    2  C5  UNL     1      31.457  40.585  52.220  1.00  0.00     0.257 C 
HETATM    3  N2  UNL     1      31.647  41.420  51.089  1.00  0.00    -0.352 N 
ATOM      4  H2  UNL     1      32.583  41.777  50.896  1.00  0.00     0.163 HD
HETATM    5  O2  UNL     1      30.303  40.162  52.435  1.00  0.00    -0.270 OA
BRANCH   3   6
HETATM    6  C4  UNL     1      30.561  41.787  50.194  1.00  0.00     0.111 C 
HETATM    7  C3  UNL     1      29.674  42.802  50.862  1.00  0.00     0.138 C 
HETATM    8  C18 UNL     1      29.754  44.166  50.228  1.00  0.00     0.173 C 
HETATM    9  C17 UNL     1      29.523  44.159  48.754  1.00  0.00     0.179 C 
HETATM   10  C16 UNL     1      30.125  42.986  48.045  1.00  0.00     0.216 C 
HETATM   11  C15 UNL     1      31.134  42.249  48.892  1.00  0.00     0.062 C 
BRANCH   7  12
HETATM   12  N1  UNL     1      28.296  42.383  50.909  1.00  0.00    -0.352 N 
HETATM   13  C2  UNL     1      27.517  42.431  52.108  1.00  0.00     0.214 C 
HETATM   14  C1  UNL     1      26.112  42.003  52.147  1.00  0.00     0.117 C 
HETATM   15  O1  UNL     1      28.095  42.862  53.142  1.00  0.00    -0.274 OA
ATOM     16  H1  UNL     1      27.858  42.039  50.054  1.00  0.00     0.163 HD
ENDBRANCH   7  12
BRANCH   8  17
HETATM   17  O10 UNL     1      28.714  44.931  50.804  1.00  0.00    -0.391 OA
ATOM     18  H10 UNL     1      28.493  45.600  50.168  1.00  0.00     0.210 HD
ENDBRANCH   8  17
BRANCH   9  19
HETATM   19  O9  UNL     1      30.151  45.313  48.232  1.00  0.00    -0.391 OA
ATOM     20  H9  UNL     1      31.053  45.290  48.530  1.00  0.00     0.210 HD
ENDBRANCH   9  19
BRANCH  10  21
HETATM   21  N7  UNL     1      30.812  43.387  46.821  1.00  0.00    -0.072 N 
ATOM     22  H73 UNL     1      30.902  42.630  46.143  1.00  0.00     0.274 HD
ATOM     23  H72 UNL     1      30.259  44.016  46.238  1.00  0.00     0.274 HD
ATOM     24  H71 UNL     1      31.709  43.784  47.101  1.00  0.00     0.274 HD
ENDBRANCH  10  21
ENDBRANCH   3   6
ENDBRANCH   1   2
BRANCH   1  25
HETATM   25  O3  UNL     1      32.200  39.822  54.318  1.00  0.00    -0.376 OA
ATOM     26  H3  UNL     1      32.877  39.966  54.969  1.00  0.00     0.211 HD
ENDBRANCH   1  25
BRANCH   1  27
HETATM   27  C7  UNL     1      33.343  41.593  53.322  1.00  0.00     0.215 C 
BRANCH  27  28
HETATM   28  O4  UNL     1      32.920  42.134  54.530  1.00  0.00    -0.397 OA
ATOM     29  H4  UNL     1      32.648  43.034  54.397  1.00  0.00     0.209 HD
ENDBRANCH  27  28
ENDBRANCH   1  27
BRANCH   1  30
HETATM   30  C8  UNL     1      33.597  39.340  52.396  1.00  0.00     0.187 C 
BRANCH  30  31
HETATM   31  O5  UNL     1      34.253  39.930  51.351  1.00  0.00    -0.390 OA
ATOM     32  H5  UNL     1      34.004  39.572  50.507  1.00  0.00     0.210 HD
ENDBRANCH  30  31
BRANCH  30  33
HETATM   33  C9  UNL     1      32.924  38.087  51.976  1.00  0.00     0.160 C 
HETATM   34  N3  UNL     1      32.070  37.549  53.062  1.00  0.00    -0.135 NA
HETATM   35  N4  UNL     1      31.619  36.348  52.519  1.00  0.00    -0.113 NA
HETATM   36  C10 UNL     1      32.700  35.805  51.734  1.00  0.00     0.257 C 
HETATM   37  C11 UNL     1      33.817  36.892  51.811  1.00  0.00     0.195 C 
BRANCH  36  38
HETATM   38  O6  UNL     1      32.278  35.751  50.406  1.00  0.00    -0.376 OA
ATOM     39  H6  UNL     1      32.124  36.642  50.113  1.00  0.00     0.211 HD
ENDBRANCH  36  38
BRANCH  37  40
HETATM   40  O7  UNL     1      34.591  36.841  50.693  1.00  0.00    -0.333 OA
BRANCH  40  41
HETATM   41  C12 UNL     1      35.957  36.867  51.050  1.00  0.00     0.378 A 
HETATM   42  N5  UNL     1      36.571  37.996  50.433  1.00  0.00    -0.338 N 
HETATM   43  C13 UNL     1      37.584  37.950  49.647  1.00  0.00     0.180 A 
ATOM     44  H5  UNL     1      36.174  38.914  50.633  1.00  0.00     0.165 HD
HETATM   45  N6  UNL     1      38.147  36.679  49.361  1.00  0.00    -0.343 N 
HETATM   46  C14 UNL     1      37.658  35.616  49.872  1.00  0.00     0.232 A 
ATOM     47  H6  UNL     1      38.953  36.614  48.739  1.00  0.00     0.167 HD
HETATM   48  O8  UNL     1      36.583  35.657  50.708  1.00  0.00    -0.298 OA
ENDBRANCH  40  41
ENDBRANCH  37  40
ENDBRANCH  30  33
ENDBRANCH   1  30
TORSDOF 15
ENDMDL
MODEL 3
REMARK VINA RESULT: -8.521061319      5.901      9.763
REMARK  15 active torsions:
REMARK  status: ('A' for Active; 'I' for Inactive)
REMARK       I    between atoms: C2_2  and  N1_4 
REMARK    1  A    between atoms: N1_4  and  C3_6 
REMARK    2  A    between atoms: C4_7  and  N2_8 
REMARK       I    between atoms: N2_8  and  C5_10 
REMARK    3  A    between atoms: C5_10  and  C6_12 
REMARK    4  A    between atoms: C6_12  and  O3_13 
REMARK    5  A    between atoms: C6_12  and  C7_15 
REMARK    6  A    between atoms: C6_12  and  C8_18 
REMARK    7  A    between atoms: C7_15  and  O4_16 
REMARK    8  A    between atoms: C8_18  and  O5_19 
REMARK    9  A    between atoms: C8_18  and  C9_21 
REMARK   10  A    between atoms: C10_24  and  O6_25 
REMARK   11  A    between atoms: C11_27  and  O7_28 
REMARK   12  A    between atoms: O7_28  and  C12_29 
REMARK   13  A    between atoms: C16_38  and  N7_39 
REMARK   14  A    between atoms: C17_43  and  O9_44 
REMARK   15  A    between atoms: C18_46  and  O10_47 
ROOT
HETATM    1  C6  UNL     1      33.312  42.640  52.623  1.00  0.00     0.187 C 
ENDROOT
BRANCH   1   2
HETATM    2  C5  UNL     1      31.972  43.209  52.420  1.00  0.00     0.257 C 
HETATM    3  N2  UNL     1      31.132  42.645  51.424  1.00  0.00    -0.352 N 
ATOM      4  H2  UNL     1      31.482  41.859  50.876  1.00  0.00     0.163 HD
HETATM    5  O2  UNL     1      31.521  44.169  53.076  1.00  0.00    -0.270 OA
BRANCH   3   6
HETATM    6  C4  UNL     1      29.792  43.143  51.155  1.00  0.00     0.111 C 
HETATM    7  C3  UNL     1      29.638  43.415  49.684  1.00  0.00     0.138 C 
HETATM    8  C18 UNL     1      28.688  42.464  49.003  1.00  0.00     0.173 C 
HETATM    9  C17 UNL     1      27.352  42.373  49.661  1.00  0.00     0.179 C 
HETATM   10  C16 UNL     1      27.403  42.412  51.157  1.00  0.00     0.216 C 
HETATM   11  C15 UNL     1      28.791  42.174  51.699  1.00  0.00     0.062 C 
BRANCH   7  12
HETATM   12  N1  UNL     1      29.224  44.769  49.414  1.00  0.00    -0.352 N 
HETATM   13  C2  UNL     1      29.824  45.567  48.390  1.00  0.00     0.214 C 
HETATM   14  C1  UNL     1      29.396  46.946  48.120  1.00  0.00     0.117 C 
HETATM   15  O1  UNL     1      30.747  45.029  47.720  1.00  0.00    -0.274 OA
ATOM     16  H1  UNL     1      28.474  45.174  49.975  1.00  0.00     0.163 HD
ENDBRANCH   7  12
BRANCH   8  17
HETATM   17  O10 UNL     1      28.475  42.981  47.705  1.00  0.00    -0.391 OA
ATOM     18  H10 UNL     1      27.662  43.471  47.745  1.00  0.00     0.210 HD
ENDBRANCH   8  17
BRANCH   9  19
HETATM   19  O9  UNL     1      26.802  41.119  49.307  1.00  0.00    -0.391 OA
ATOM     20  H9  UNL     1      26.010  41.015  49.822  1.00  0.00     0.210 HD
ENDBRANCH   9  19
BRANCH  10  21
HETATM   21  N7  UNL     1      26.535  41.400  51.754  1.00  0.00    -0.072 N 
ATOM     22  H73 UNL     1      26.538  40.516  51.243  1.00  0.00     0.274 HD
ATOM     23  H72 UNL     1      26.891  41.039  52.639  1.00  0.00     0.274 HD
ATOM     24  H71 UNL     1      25.607  41.815  51.833  1.00  0.00     0.274 HD
ENDBRANCH  10  21
ENDBRANCH   3   6
ENDBRANCH   1   2
BRANCH   1  25
HETATM   25  O3  UNL     1      33.785  42.935  53.894  1.00  0.00    -0.376 OA
ATOM     26  H3  UNL     1      34.560  42.423  54.093  1.00  0.00     0.211 HD
ENDBRANCH   1  25
BRANCH   1  27
HETATM   27  C7  UNL     1      34.245  43.375  51.652  1.00  0.00     0.215 C 
BRANCH  27  28
HETATM   28  O4  UNL     1      33.523  43.795  50.542  1.00  0.00    -0.397 OA
ATOM     29  H4  UNL     1      33.054  44.594  50.751  1.00  0.00     0.209 HD
ENDBRANCH  27  28
ENDBRANCH   1  27
BRANCH   1  30
HETATM   30  C8  UNL     1      33.383  41.171  52.279  1.00  0.00     0.187 C 
BRANCH  30  31
HETATM   31  O5  UNL     1      33.101  40.918  50.966  1.00  0.00    -0.390 OA
ATOM     32  H5  UNL     1      33.630  41.433  50.367  1.00  0.00     0.210 HD
ENDBRANCH  30  31
BRANCH  30  33
HETATM   33  C9  UNL     1      32.508  40.385  53.184  1.00  0.00     0.160 C 
HETATM   34  N3  UNL     1      33.062  40.341  54.558  1.00  0.00    -0.135 NA
HETATM   35  N4  UNL     1      32.171  39.493  55.211  1.00  0.00    -0.113 NA
HETATM   36  C10 UNL     1      31.771  38.485  54.261  1.00  0.00     0.257 C 
HETATM   37  C11 UNL     1      32.474  38.906  52.932  1.00  0.00     0.195 C 
BRANCH  36  38
HETATM   38  O6  UNL     1      30.398  38.616  54.053  1.00  0.00    -0.376 OA
ATOM     39  H6  UNL     1      30.256  38.746  53.123  1.00  0.00     0.211 HD
ENDBRANCH  36  38
BRANCH  37  40
HETATM   40  O7  UNL     1      31.748  38.471  51.867  1.00  0.00    -0.333 OA
BRANCH  40  41
HETATM   41  C12 UNL     1      32.508  37.553  51.109  1.00  0.00     0.378 A 
HETATM   42  N5  UNL     1      32.120  36.229  51.469  1.00  0.00    -0.338 N 
HETATM   43  C13 UNL     1      32.911  35.320  51.910  1.00  0.00     0.180 A 
ATOM     44  H5  UNL     1      31.135  35.985  51.368  1.00  0.00     0.165 HD
HETATM   45  N6  UNL     1      34.284  35.647  52.055  1.00  0.00    -0.343 N 
HETATM   46  C14 UNL     1      34.716  36.810  51.755  1.00  0.00     0.232 A 
ATOM     47  H6  UNL     1      34.935  34.942  52.403  1.00  0.00     0.167 HD
HETATM   48  O8  UNL     1      33.882  37.781  51.286  1.00  0.00    -0.298 OA
ENDBRANCH  40  41
ENDBRANCH  37  40
ENDBRANCH  30  33
ENDBRANCH   1  30
TORSDOF 15
ENDMDL
MODEL 4
REMARK VINA RESULT: -8.403922088      6.593     11.163
REMARK  15 active torsions:
REMARK  status: ('A' for Active; 'I' for Inactive)
REMARK       I    between atoms: C2_2  and  N1_4 
REMARK    1  A    between atoms: N1_4  and  C3_6 
REMARK    2  A    between atoms: C4_7  and  N2_8 
REMARK       I    between atoms: N2_8  and  C5_10 
REMARK    3  A    between atoms: C5_10  and  C6_12 
REMARK    4  A    between atoms: C6_12  and  O3_13 
REMARK    5  A    between atoms: C6_12  and  C7_15 
REMARK    6  A    between atoms: C6_12  and  C8_18 
REMARK    7  A    between atoms: C7_15  and  O4_16 
REMARK    8  A    between atoms: C8_18  and  O5_19 
REMARK    9  A    between atoms: C8_18  and  C9_21 
REMARK   10  A    between atoms: C10_24  and  O6_25 
REMARK   11  A    between atoms: C11_27  and  O7_28 
REMARK   12  A    between atoms: O7_28  and  C12_29 
REMARK   13  A    between atoms: C16_38  and  N7_39 
REMARK   14  A    between atoms: C17_43  and  O9_44 
REMARK   15  A    between atoms: C18_46  and  O10_47 
ROOT
HETATM    1  C6  UNL     1      29.681  42.339  48.424  1.00  0.00     0.187 C 
ENDROOT
BRANCH   1   2
HETATM    2  C5  UNL     1      29.947  41.039  49.058  1.00  0.00     0.257 C 
HETATM    3  N2  UNL     1      31.056  40.918  49.935  1.00  0.00    -0.352 N 
ATOM      4  H2  UNL     1      31.640  41.738  50.103  1.00  0.00     0.163 HD
HETATM    5  O2  UNL     1      29.251  40.022  48.869  1.00  0.00    -0.270 OA
BRANCH   3   6
HETATM    6  C4  UNL     1      31.394  39.672  50.604  1.00  0.00     0.111 C 
HETATM    7  C3  UNL     1      32.542  39.899  51.549  1.00  0.00     0.138 C 
HETATM    8  C18 UNL     1      32.149  39.783  52.998  1.00  0.00     0.173 C 
HETATM    9  C17 UNL     1      31.441  38.511  53.330  1.00  0.00     0.179 C 
HETATM   10  C16 UNL     1      30.488  38.047  52.273  1.00  0.00     0.216 C 
HETATM   11  C15 UNL     1      30.169  39.123  51.264  1.00  0.00     0.062 C 
BRANCH   7  12
HETATM   12  N1  UNL     1      33.652  39.015  51.289  1.00  0.00    -0.352 N 
HETATM   13  C2  UNL     1      34.836  39.445  50.613  1.00  0.00     0.214 C 
HETATM   14  C1  UNL     1      35.963  38.538  50.354  1.00  0.00     0.117 C 
HETATM   15  O1  UNL     1      34.873  40.651  50.247  1.00  0.00    -0.274 OA
ATOM     16  H1  UNL     1      33.589  38.045  51.600  1.00  0.00     0.163 HD
ENDBRANCH   7  12
BRANCH   8  17
HETATM   17  O10 UNL     1      33.354  39.789  53.737  1.00  0.00    -0.391 OA
ATOM     18  H10 UNL     1      33.969  39.258  53.245  1.00  0.00     0.210 HD
ENDBRANCH   8  17
BRANCH   9  19
HETATM   19  O9  UNL     1      30.670  38.759  54.490  1.00  0.00    -0.391 OA
ATOM     20  H9  UNL     1      30.718  39.694  54.653  1.00  0.00     0.210 HD
ENDBRANCH   9  19
BRANCH  10  21
HETATM   21  N7  UNL     1      29.217  37.611  52.844  1.00  0.00    -0.072 N 
ATOM     22  H73 UNL     1      29.293  37.322  53.820  1.00  0.00     0.274 HD
ATOM     23  H72 UNL     1      28.558  38.376  52.987  1.00  0.00     0.274 HD
ATOM     24  H71 UNL     1      28.855  36.877  52.235  1.00  0.00     0.274 HD
ENDBRANCH  10  21
ENDBRANCH   3   6
ENDBRANCH   1   2
BRANCH   1  25
HETATM   25  O3  UNL     1      28.828  42.192  47.340  1.00  0.00    -0.376 OA
ATOM     26  H3  UNL     1      29.271  42.417  46.530  1.00  0.00     0.211 HD
ENDBRANCH   1  25
BRANCH   1  27
HETATM   27  C7  UNL     1      31.017  42.817  47.841  1.00  0.00     0.215 C 
BRANCH  27  28
HETATM   28  O4  UNL     1      30.779  43.683  46.781  1.00  0.00    -0.397 OA
ATOM     29  H4  UNL     1      31.098  44.550  47.001  1.00  0.00     0.209 HD
ENDBRANCH  27  28
ENDBRANCH   1  27
BRANCH   1  30
HETATM   30  C8  UNL     1      29.228  43.388  49.411  1.00  0.00     0.187 C 
BRANCH  30  31
HETATM   31  O5  UNL     1      30.247  44.195  49.836  1.00  0.00    -0.390 OA
ATOM     32  H5  UNL     1      30.467  44.875  49.210  1.00  0.00     0.210 HD
ENDBRANCH  30  31
BRANCH  30  33
HETATM   33  C9  UNL     1      28.525  42.755  50.554  1.00  0.00     0.160 C 
HETATM   34  N3  UNL     1      27.158  43.305  50.712  1.00  0.00    -0.135 NA
HETATM   35  N4  UNL     1      26.714  42.672  51.871  1.00  0.00    -0.113 NA
HETATM   36  C10 UNL     1      27.851  42.550  52.749  1.00  0.00     0.257 C 
HETATM   37  C11 UNL     1      29.045  43.112  51.916  1.00  0.00     0.195 C 
BRANCH  36  38
HETATM   38  O6  UNL     1      28.095  41.191  52.943  1.00  0.00    -0.376 OA
ATOM     39  H6  UNL     1      28.961  41.103  53.326  1.00  0.00     0.211 HD
ENDBRANCH  36  38
BRANCH  37  40
HETATM   40  O7  UNL     1      30.206  42.523  52.315  1.00  0.00    -0.333 OA
BRANCH  40  41
HETATM   41  C12 UNL     1      31.142  43.511  52.692  1.00  0.00     0.378 A 
HETATM   42  N5  UNL     1      32.193  43.538  51.730  1.00  0.00    -0.338 N 
HETATM   43  C13 UNL     1      33.439  43.373  51.990  1.00  0.00     0.180 A 
ATOM     44  H5  UNL     1      31.934  43.702  50.757  1.00  0.00     0.165 HD
HETATM   45  N6  UNL     1      33.812  43.145  53.339  1.00  0.00    -0.343 N 
HETATM   46  C14 UNL     1      32.933  43.105  54.264  1.00  0.00     0.232 A 
ATOM     47  H6  UNL     1      34.796  43.011  53.574  1.00  0.00     0.167 HD
HETATM   48  O8  UNL     1      31.609  43.279  53.997  1.00  0.00    -0.298 OA
ENDBRANCH  40  41
ENDBRANCH  37  40
ENDBRANCH  30  33
ENDBRANCH   1  30
TORSDOF 15
ENDMDL
MODEL 5
REMARK VINA RESULT: -8.391583598      6.349     10.470
REMARK  15 active torsions:
REMARK  status: ('A' for Active; 'I' for Inactive)
REMARK       I    between atoms: C2_2  and  N1_4 
REMARK    1  A    between atoms: N1_4  and  C3_6 
REMARK    2  A    between atoms: C4_7  and  N2_8 
REMARK       I    between atoms: N2_8  and  C5_10 
REMARK    3  A    between atoms: C5_10  and  C6_12 
REMARK    4  A    between atoms: C6_12  and  O3_13 
REMARK    5  A    between atoms: C6_12  and  C7_15 
REMARK    6  A    between atoms: C6_12  and  C8_18 
REMARK    7  A    between atoms: C7_15  and  O4_16 
REMARK    8  A    between atoms: C8_18  and  O5_19 
REMARK    9  A    between atoms: C8_18  and  C9_21 
REMARK   10  A    between atoms: C10_24  and  O6_25 
REMARK   11  A    between atoms: C11_27  and  O7_28 
REMARK   12  A    between atoms: O7_28  and  C12_29 
REMARK   13  A    between atoms: C16_38  and  N7_39 
REMARK   14  A    between atoms: C17_43  and  O9_44 
REMARK   15  A    between atoms: C18_46  and  O10_47 
ROOT
HETATM    1  C6  UNL     1      33.091  42.073  52.273  1.00  0.00     0.187 C 
ENDROOT
BRANCH   1   2
HETATM    2  C5  UNL     1      31.675  42.452  52.159  1.00  0.00     0.257 C 
HETATM    3  N2  UNL     1      31.349  43.776  51.762  1.00  0.00    -0.352 N 
ATOM      4  H2  UNL     1      32.108  44.428  51.565  1.00  0.00     0.163 HD
HETATM    5  O2  UNL     1      30.729  41.674  52.394  1.00  0.00    -0.270 OA
BRANCH   3   6
HETATM    6  C4  UNL     1      29.977  44.237  51.623  1.00  0.00     0.111 C 
HETATM    7  C3  UNL     1      29.558  44.153  50.181  1.00  0.00     0.138 C 
HETATM    8  C18 UNL     1      28.513  43.098  49.929  1.00  0.00     0.173 C 
HETATM    9  C17 UNL     1      27.318  43.209  50.816  1.00  0.00     0.179 C 
HETATM   10  C16 UNL     1      27.636  43.602  52.225  1.00  0.00     0.216 C 
HETATM   11  C15 UNL     1      29.102  43.458  52.553  1.00  0.00     0.062 C 
BRANCH   7  12
HETATM   12  N1  UNL     1      29.085  45.416  49.671  1.00  0.00    -0.352 N 
HETATM   13  C2  UNL     1      29.568  45.982  48.450  1.00  0.00     0.214 C 
HETATM   14  C1  UNL     1      29.080  47.270  47.936  1.00  0.00     0.117 C 
HETATM   15  O1  UNL     1      30.441  45.320  47.825  1.00  0.00    -0.274 OA
ATOM     16  H1  UNL     1      28.378  45.926  50.201  1.00  0.00     0.163 HD
ENDBRANCH   7  12
BRANCH   8  17
HETATM   17  O10 UNL     1      28.062  43.296  48.604  1.00  0.00    -0.391 OA
ATOM     18  H10 UNL     1      28.436  42.592  48.088  1.00  0.00     0.210 HD
ENDBRANCH   8  17
BRANCH   9  19
HETATM   19  O9  UNL     1      26.729  41.925  50.877  1.00  0.00    -0.391 OA
ATOM     20  H9  UNL     1      27.403  41.304  50.623  1.00  0.00     0.210 HD
ENDBRANCH   9  19
BRANCH  10  21
HETATM   21  N7  UNL     1      26.904  42.790  53.192  1.00  0.00    -0.072 N 
ATOM     22  H73 UNL     1      25.940  42.603  52.912  1.00  0.00     0.274 HD
ATOM     23  H72 UNL     1      27.220  41.820  53.223  1.00  0.00     0.274 HD
ATOM     24  H71 UNL     1      26.975  43.265  54.092  1.00  0.00     0.274 HD
ENDBRANCH  10  21
ENDBRANCH   3   6
ENDBRANCH   1   2
BRANCH   1  25
HETATM   25  O3  UNL     1      33.352  41.513  53.515  1.00  0.00    -0.376 OA
ATOM     26  H3  UNL     1      34.260  41.648  53.762  1.00  0.00     0.211 HD
ENDBRANCH   1  25
BRANCH   1  27
HETATM   27  C7  UNL     1      33.893  43.381  52.229  1.00  0.00     0.215 C 
BRANCH  27  28
HETATM   28  O4  UNL     1      34.124  43.740  50.907  1.00  0.00    -0.397 OA
ATOM     29  H4  UNL     1      33.759  44.602  50.743  1.00  0.00     0.209 HD
ENDBRANCH  27  28
ENDBRANCH   1  27
BRANCH   1  30
HETATM   30  C8  UNL     1      33.564  41.224  51.117  1.00  0.00     0.187 C 
BRANCH  30  31
HETATM   31  O5  UNL     1      32.637  41.124  50.116  1.00  0.00    -0.390 OA
ATOM     32  H5  UNL     1      32.449  41.957  49.701  1.00  0.00     0.210 HD
ENDBRANCH  30  31
BRANCH  30  33
HETATM   33  C9  UNL     1      33.990  39.887  51.598  1.00  0.00     0.160 C 
HETATM   34  N3  UNL     1      34.993  39.286  50.686  1.00  0.00    -0.135 NA
HETATM   35  N4  UNL     1      35.183  38.024  51.242  1.00  0.00    -0.113 NA
HETATM   36  C10 UNL     1      33.907  37.588  51.752  1.00  0.00     0.257 C 
HETATM   37  C11 UNL     1      32.957  38.802  51.504  1.00  0.00     0.195 C 
BRANCH  36  38
HETATM   38  O6  UNL     1      34.026  37.442  53.134  1.00  0.00    -0.376 OA
ATOM     39  H6  UNL     1      33.157  37.518  53.511  1.00  0.00     0.211 HD
ENDBRANCH  36  38
BRANCH  37  40
HETATM   40  O7  UNL     1      31.961  38.808  52.432  1.00  0.00    -0.333 OA
BRANCH  40  41
HETATM   41  C12 UNL     1      30.782  38.266  51.876  1.00  0.00     0.378 A 
HETATM   42  N5  UNL     1      30.504  38.935  50.648  1.00  0.00    -0.338 N 
HETATM   43  C13 UNL     1      29.414  39.556  50.374  1.00  0.00     0.180 A 
ATOM     44  H5  UNL     1      31.228  38.920  49.931  1.00  0.00     0.165 HD
HETATM   45  N6  UNL     1      28.398  39.584  51.363  1.00  0.00    -0.343 N 
HETATM   46  C14 UNL     1      28.565  39.010  52.491  1.00  0.00     0.232 A 
ATOM     47  H6  UNL     1      27.521  40.070  51.170  1.00  0.00     0.167 HD
HETATM   48  O8  UNL     1      29.718  38.349  52.790  1.00  0.00    -0.298 OA
ENDBRANCH  40  41
ENDBRANCH  37  40
ENDBRANCH  30  33
ENDBRANCH   1  30
TORSDOF 15
ENDMDL
