MODEL 1
REMARK VINA RESULT: -8.821534171      0.000      0.000
REMARK  14 active torsions:
REMARK  status: ('A' for Active; 'I' for Inactive)
REMARK    1  A    between atoms: N1_1  and  C1_5 
REMARK    2  A    between atoms: C1_5  and  C2_6 
REMARK    3  A    between atoms: C3_8  and  O2_9 
REMARK    4  A    between atoms: O2_9  and  C4_10 
REMARK    5  A    between atoms: C5_11  and  O3_12 
REMARK    6  A    between atoms: C6_14  and  N2_15 
REMARK    7  A    between atoms: C7_19  and  O4_20 
REMARK    8  A    between atoms: N3_23  and  N4_24 
REMARK    9  A    between atoms: C10_26  and  C11_27 
REMARK       I    between atoms: C11_27  and  N5_29 
REMARK       I    between atoms: N5_29  and  C12_31 
REMARK       I    between atoms: C12_31  and  N6_32 
REMARK       I    between atoms: C12_31  and  N7_36 
REMARK   10  A    between atoms: C13_40  and  N8_41 
REMARK   11  A    between atoms: N8_41  and  O6_43 
REMARK   12  A    between atoms: C14_45  and  O7_46 
REMARK   13  A    between atoms: C15_48  and  O8_49 
REMARK   14  A    between atoms: C16_51  and  O9_52 
ROOT
HETATM    1  C4  UNL     1      29.890  42.129  50.953  1.00  0.00     0.205 C 
HETATM    2  C5  UNL     1      29.840  42.129  49.455  1.00  0.00     0.184 C 
HETATM    3  C6  UNL     1      28.539  42.361  48.801  1.00  0.00     0.244 C 
HETATM    4  C7  UNL     1      27.386  41.636  49.448  1.00  0.00     0.170 C 
HETATM    5  C8  UNL     1      26.726  42.458  50.515  1.00  0.00     0.180 C 
HETATM    6  N3  UNL     1      27.631  42.526  51.671  1.00  0.00    -0.286 N 
HETATM    7  C15 UNL     1      28.973  43.044  51.646  1.00  0.00     0.267 C 
ENDROOT
BRANCH   6   8
HETATM    8  N4  UNL     1      27.019  42.067  52.835  1.00  0.00    -0.242 N 
HETATM    9  C9  UNL     1      26.287  42.886  53.663  1.00  0.00     0.138 A 
HETATM   10  C10 UNL     1      25.767  42.163  54.709  1.00  0.00     0.082 A 
HETATM   11  C13 UNL     1      26.202  40.881  54.501  1.00  0.00     0.123 A 
HETATM   12  C14 UNL     1      26.976  40.832  53.339  1.00  0.00     0.191 A 
BRANCH  10  13
HETATM   13  C11 UNL     1      24.892  42.657  55.778  1.00  0.00     0.258 C 
HETATM   14  O5  UNL     1      24.454  41.854  56.634  1.00  0.00    -0.267 OA
HETATM   15  N5  UNL     1      24.543  44.018  55.856  1.00  0.00    -0.307 N 
HETATM   16  C12 UNL     1      23.693  44.506  56.905  1.00  0.00     0.483 C 
ATOM     17  H5  UNL     1      24.899  44.669  55.156  1.00  0.00     0.166 HD
HETATM   18  N6  UNL     1      22.507  45.166  56.364  1.00  0.00    -0.033 N 
HETATM   19  N7  UNL     1      24.349  45.477  57.759  1.00  0.00    -0.033 N 
ATOM     20  H63 UNL     1      22.757  45.908  55.711  1.00  0.00     0.278 HD
ATOM     21  H62 UNL     1      21.999  44.556  55.724  1.00  0.00     0.278 HD
ATOM     22  H61 UNL     1      21.902  45.512  57.110  1.00  0.00     0.278 HD
ATOM     23  H73 UNL     1      25.217  45.100  58.139  1.00  0.00     0.278 HD
ATOM     24  H72 UNL     1      24.729  46.248  57.210  1.00  0.00     0.278 HD
ATOM     25  H71 UNL     1      23.744  45.823  58.505  1.00  0.00     0.278 HD
ENDBRANCH  10  13
BRANCH  11  26
HETATM   26  N8  UNL     1      25.920  39.755  55.353  1.00  0.00    -0.264 N 
ATOM     27  H8  UNL     1      24.964  39.581  55.662  1.00  0.00     0.194 HD
BRANCH  26  28
HETATM   28  O6  UNL     1      26.830  38.996  55.712  1.00  0.00    -0.289 OA
ATOM     29  H6  UNL     1      26.687  38.372  56.414  1.00  0.00     0.244 HD
ENDBRANCH  26  28
ENDBRANCH  11  26
BRANCH  12  30
HETATM   30  O7  UNL     1      27.544  39.646  52.893  1.00  0.00    -0.343 OA
ATOM     31  H7  UNL     1      27.169  38.915  52.416  1.00  0.00     0.219 HD
ENDBRANCH  12  30
ENDBRANCH   6   8
BRANCH   7  32
HETATM   32  O8  UNL     1      29.412  43.256  52.958  1.00  0.00    -0.373 OA
ATOM     33  H8  UNL     1      29.422  44.187  53.150  1.00  0.00     0.212 HD
ENDBRANCH   7  32
BRANCH   4  34
HETATM   34  O4  UNL     1      27.836  40.434  49.924  1.00  0.00    -0.392 OA
ATOM     35  H4  UNL     1      28.334  40.002  49.239  1.00  0.00     0.210 HD
ENDBRANCH   4  34
BRANCH   1  36
HETATM   36  O2  UNL     1      31.228  42.506  51.251  1.00  0.00    -0.346 OA
BRANCH  36  37
HETATM   37  C3  UNL     1      31.759  41.832  52.327  1.00  0.00     0.297 C 
HETATM   38  O1  UNL     1      31.026  40.673  52.622  1.00  0.00    -0.344 OA
HETATM   39  C2  UNL     1      31.767  39.572  52.336  1.00  0.00     0.222 C 
HETATM   40  C17 UNL     1      33.174  39.967  52.249  1.00  0.00     0.190 C 
HETATM   41  C16 UNL     1      33.157  41.473  52.128  1.00  0.00     0.245 C 
HETATM   42  O10 UNL     1      34.149  39.249  52.267  1.00  0.00    -0.292 OA
BRANCH  39  43
HETATM   43  C1  UNL     1      31.304  38.866  51.074  1.00  0.00     0.269 C 
BRANCH  43  44
HETATM   44  N1  UNL     1      29.910  38.614  51.039  1.00  0.00    -0.076 N 
ATOM     45  H13 UNL     1      29.726  37.635  50.823  1.00  0.00     0.274 HD
ATOM     46  H12 UNL     1      29.514  38.659  51.978  1.00  0.00     0.274 HD
ATOM     47  H11 UNL     1      29.398  39.226  50.403  1.00  0.00     0.274 HD
ENDBRANCH  43  44
ENDBRANCH  39  43
BRANCH  41  48
HETATM   48  O9  UNL     1      33.682  41.705  50.849  1.00  0.00    -0.383 OA
ATOM     49  H9  UNL     1      33.485  41.053  50.188  1.00  0.00     0.210 HD
ENDBRANCH  41  48
ENDBRANCH  36  37
ENDBRANCH   1  36
BRANCH   3  50
HETATM   50  N2  UNL     1      28.222  43.791  48.649  1.00  0.00    -0.070 N 
ATOM     51  H23 UNL     1      27.244  43.922  48.390  1.00  0.00     0.274 HD
ATOM     52  H22 UNL     1      28.219  44.262  49.553  1.00  0.00     0.274 HD
ATOM     53  H21 UNL     1      28.841  44.266  47.992  1.00  0.00     0.274 HD
ENDBRANCH   3  50
BRANCH   2  54
HETATM   54  O3  UNL     1      30.364  40.929  48.978  1.00  0.00    -0.391 OA
ATOM     55  H3  UNL     1      30.457  40.981  48.034  1.00  0.00     0.210 HD
ENDBRANCH   2  54
TORSDOF 14
ENDMDL
MODEL 2
REMARK VINA RESULT: -8.724549017      1.626      2.134
REMARK  14 active torsions:
REMARK  status: ('A' for Active; 'I' for Inactive)
REMARK    1  A    between atoms: N1_1  and  C1_5 
REMARK    2  A    between atoms: C1_5  and  C2_6 
REMARK    3  A    between atoms: C3_8  and  O2_9 
REMARK    4  A    between atoms: O2_9  and  C4_10 
REMARK    5  A    between atoms: C5_11  and  O3_12 
REMARK    6  A    between atoms: C6_14  and  N2_15 
REMARK    7  A    between atoms: C7_19  and  O4_20 
REMARK    8  A    between atoms: N3_23  and  N4_24 
REMARK    9  A    between atoms: C10_26  and  C11_27 
REMARK       I    between atoms: C11_27  and  N5_29 
REMARK       I    between atoms: N5_29  and  C12_31 
REMARK       I    between atoms: C12_31  and  N6_32 
REMARK       I    between atoms: C12_31  and  N7_36 
REMARK   10  A    between atoms: C13_40  and  N8_41 
REMARK   11  A    between atoms: N8_41  and  O6_43 
REMARK   12  A    between atoms: C14_45  and  O7_46 
REMARK   13  A    between atoms: C15_48  and  O8_49 
REMARK   14  A    between atoms: C16_51  and  O9_52 
ROOT
HETATM    1  C4  UNL     1      29.542  42.884  51.231  1.00  0.00     0.205 C 
HETATM    2  C5  UNL     1      29.575  42.749  49.738  1.00  0.00     0.184 C 
HETATM    3  C6  UNL     1      28.292  42.625  49.021  1.00  0.00     0.244 C 
HETATM    4  C7  UNL     1      27.298  41.711  49.693  1.00  0.00     0.170 C 
HETATM    5  C8  UNL     1      26.414  42.446  50.656  1.00  0.00     0.180 C 
HETATM    6  N3  UNL     1      27.215  42.813  51.831  1.00  0.00    -0.286 N 
HETATM    7  C15 UNL     1      28.407  43.619  51.804  1.00  0.00     0.267 C 
ENDROOT
BRANCH   6   8
HETATM    8  N4  UNL     1      26.660  42.324  53.011  1.00  0.00    -0.242 N 
HETATM    9  C9  UNL     1      25.946  43.116  53.880  1.00  0.00     0.138 A 
HETATM   10  C10 UNL     1      25.483  42.365  54.934  1.00  0.00     0.082 A 
HETATM   11  C13 UNL     1      25.932  41.097  54.688  1.00  0.00     0.123 A 
HETATM   12  C14 UNL     1      26.660  41.080  53.495  1.00  0.00     0.191 A 
BRANCH  10  13
HETATM   13  C11 UNL     1      24.641  42.826  56.045  1.00  0.00     0.258 C 
HETATM   14  O5  UNL     1      24.264  42.003  56.911  1.00  0.00    -0.267 OA
HETATM   15  N5  UNL     1      24.258  44.176  56.152  1.00  0.00    -0.307 N 
HETATM   16  C12 UNL     1      23.442  44.630  57.241  1.00  0.00     0.483 C 
ATOM     17  H5  UNL     1      24.566  44.842  55.443  1.00  0.00     0.166 HD
HETATM   18  N6  UNL     1      22.216  45.261  56.760  1.00  0.00    -0.033 N 
HETATM   19  N7  UNL     1      24.108  45.612  58.076  1.00  0.00    -0.033 N 
ATOM     20  H63 UNL     1      22.417  46.016  56.103  1.00  0.00     0.278 HD
ATOM     21  H62 UNL     1      21.698  44.643  56.136  1.00  0.00     0.278 HD
ATOM     22  H61 UNL     1      21.635  45.584  57.534  1.00  0.00     0.278 HD
ATOM     23  H73 UNL     1      25.002  45.256  58.414  1.00  0.00     0.278 HD
ATOM     24  H72 UNL     1      24.442  46.398  57.517  1.00  0.00     0.278 HD
ATOM     25  H71 UNL     1      23.527  45.935  58.850  1.00  0.00     0.278 HD
ENDBRANCH  10  13
BRANCH  11  26
HETATM   26  N8  UNL     1      25.706  39.951  55.531  1.00  0.00    -0.264 N 
ATOM     27  H8  UNL     1      24.780  39.790  55.928  1.00  0.00     0.194 HD
BRANCH  26  28
HETATM   28  O6  UNL     1      26.626  39.161  55.778  1.00  0.00    -0.289 OA
ATOM     29  H6  UNL     1      26.558  38.247  55.526  1.00  0.00     0.244 HD
ENDBRANCH  26  28
ENDBRANCH  11  26
BRANCH  12  30
HETATM   30  O7  UNL     1      27.232  39.913  53.007  1.00  0.00    -0.343 OA
ATOM     31  H7  UNL     1      26.840  39.148  52.601  1.00  0.00     0.219 HD
ENDBRANCH  12  30
ENDBRANCH   6   8
BRANCH   7  32
HETATM   32  O8  UNL     1      28.715  44.033  53.106  1.00  0.00    -0.373 OA
ATOM     33  H8  UNL     1      28.820  43.276  53.670  1.00  0.00     0.212 HD
ENDBRANCH   7  32
BRANCH   4  34
HETATM   34  O4  UNL     1      27.979  40.686  50.292  1.00  0.00    -0.392 OA
ATOM     35  H4  UNL     1      28.532  40.266  49.643  1.00  0.00     0.210 HD
ENDBRANCH   4  34
BRANCH   1  36
HETATM   36  O2  UNL     1      30.744  43.579  51.538  1.00  0.00    -0.346 OA
BRANCH  36  37
HETATM   37  C3  UNL     1      31.595  42.865  52.350  1.00  0.00     0.297 C 
HETATM   38  O1  UNL     1      32.526  42.130  51.600  1.00  0.00    -0.344 OA
HETATM   39  C2  UNL     1      33.769  42.649  51.771  1.00  0.00     0.222 C 
HETATM   40  C17 UNL     1      33.767  43.476  52.978  1.00  0.00     0.190 C 
HETATM   41  C16 UNL     1      32.310  43.712  53.295  1.00  0.00     0.245 C 
HETATM   42  O10 UNL     1      34.724  43.889  53.596  1.00  0.00    -0.292 OA
BRANCH  39  43
HETATM   43  C1  UNL     1      34.251  43.426  50.559  1.00  0.00     0.269 C 
BRANCH  43  44
HETATM   44  N1  UNL     1      33.316  43.462  49.495  1.00  0.00    -0.076 N 
ATOM     45  H13 UNL     1      32.782  42.594  49.455  1.00  0.00     0.274 HD
ATOM     46  H12 UNL     1      32.561  44.117  49.702  1.00  0.00     0.274 HD
ATOM     47  H11 UNL     1      33.733  43.671  48.587  1.00  0.00     0.274 HD
ENDBRANCH  43  44
ENDBRANCH  39  43
BRANCH  41  48
HETATM   48  O9  UNL     1      32.158  45.097  53.126  1.00  0.00    -0.383 OA
ATOM     49  H9  UNL     1      32.540  45.470  52.341  1.00  0.00     0.210 HD
ENDBRANCH  41  48
ENDBRANCH  36  37
ENDBRANCH   1  36
BRANCH   3  50
HETATM   50  N2  UNL     1      27.672  43.927  48.727  1.00  0.00    -0.070 N 
ATOM     51  H23 UNL     1      28.102  44.669  49.280  1.00  0.00     0.274 HD
ATOM     52  H22 UNL     1      27.925  44.248  47.793  1.00  0.00     0.274 HD
ATOM     53  H21 UNL     1      26.659  43.920  48.849  1.00  0.00     0.274 HD
ENDBRANCH   3  50
BRANCH   2  54
HETATM   54  O3  UNL     1      30.380  41.666  49.392  1.00  0.00    -0.391 OA
ATOM     55  H3  UNL     1      29.881  41.064  48.854  1.00  0.00     0.210 HD
ENDBRANCH   2  54
TORSDOF 14
ENDMDL
MODEL 3
REMARK VINA RESULT: -8.607926922      3.512      6.246
REMARK  14 active torsions:
REMARK  status: ('A' for Active; 'I' for Inactive)
REMARK    1  A    between atoms: N1_1  and  C1_5 
REMARK    2  A    between atoms: C1_5  and  C2_6 
REMARK    3  A    between atoms: C3_8  and  O2_9 
REMARK    4  A    between atoms: O2_9  and  C4_10 
REMARK    5  A    between atoms: C5_11  and  O3_12 
REMARK    6  A    between atoms: C6_14  and  N2_15 
REMARK    7  A    between atoms: C7_19  and  O4_20 
REMARK    8  A    between atoms: N3_23  and  N4_24 
REMARK    9  A    between atoms: C10_26  and  C11_27 
REMARK       I    between atoms: C11_27  and  N5_29 
REMARK       I    between atoms: N5_29  and  C12_31 
REMARK       I    between atoms: C12_31  and  N6_32 
REMARK       I    between atoms: C12_31  and  N7_36 
REMARK   10  A    between atoms: C13_40  and  N8_41 
REMARK   11  A    between atoms: N8_41  and  O6_43 
REMARK   12  A    between atoms: C14_45  and  O7_46 
REMARK   13  A    between atoms: C15_48  and  O8_49 
REMARK   14  A    between atoms: C16_51  and  O9_52 
ROOT
HETATM    1  C4  UNL     1      26.020  44.106  50.351  1.00  0.00     0.205 C 
HETATM    2  C5  UNL     1      27.201  44.608  49.577  1.00  0.00     0.184 C 
HETATM    3  C6  UNL     1      28.509  43.966  49.807  1.00  0.00     0.244 C 
HETATM    4  C7  UNL     1      28.809  43.682  51.257  1.00  0.00     0.170 C 
HETATM    5  C8  UNL     1      28.337  42.322  51.678  1.00  0.00     0.180 C 
HETATM    6  N3  UNL     1      26.870  42.344  51.748  1.00  0.00    -0.286 N 
HETATM    7  C15 UNL     1      25.990  42.669  50.657  1.00  0.00     0.267 C 
ENDROOT
BRANCH   6   8
HETATM    8  N4  UNL     1      26.406  41.960  53.004  1.00  0.00    -0.242 N 
HETATM    9  C9  UNL     1      25.742  42.822  53.846  1.00  0.00     0.138 A 
HETATM   10  C10 UNL     1      25.366  42.168  54.995  1.00  0.00     0.082 A 
HETATM   11  C13 UNL     1      25.817  40.886  54.834  1.00  0.00     0.123 A 
HETATM   12  C14 UNL     1      26.460  40.766  53.599  1.00  0.00     0.191 A 
BRANCH  10  13
HETATM   13  C11 UNL     1      24.597  42.721  56.116  1.00  0.00     0.258 C 
HETATM   14  O5  UNL     1      24.258  41.968  57.058  1.00  0.00    -0.267 OA
HETATM   15  N5  UNL     1      24.242  44.082  56.148  1.00  0.00    -0.307 N 
HETATM   16  C12 UNL     1      23.497  44.627  57.247  1.00  0.00     0.483 C 
ATOM     17  H5  UNL     1      24.518  44.691  55.378  1.00  0.00     0.166 HD
HETATM   18  N6  UNL     1      22.255  45.247  56.792  1.00  0.00    -0.033 N 
HETATM   19  N7  UNL     1      24.225  45.652  57.971  1.00  0.00    -0.033 N 
ATOM     20  H63 UNL     1      22.429  45.950  56.073  1.00  0.00     0.278 HD
ATOM     21  H62 UNL     1      21.692  44.597  56.244  1.00  0.00     0.278 HD
ATOM     22  H61 UNL     1      21.725  45.634  57.573  1.00  0.00     0.278 HD
ATOM     23  H73 UNL     1      25.131  45.303  58.283  1.00  0.00     0.278 HD
ATOM     24  H72 UNL     1      24.538  46.390  57.341  1.00  0.00     0.278 HD
ATOM     25  H71 UNL     1      23.695  46.039  58.752  1.00  0.00     0.278 HD
ENDBRANCH  10  13
BRANCH  11  26
HETATM   26  N8  UNL     1      25.669  39.821  55.792  1.00  0.00    -0.264 N 
ATOM     27  H8  UNL     1      24.776  39.688  56.267  1.00  0.00     0.194 HD
BRANCH  26  28
HETATM   28  O6  UNL     1      26.618  39.067  56.045  1.00  0.00    -0.289 OA
ATOM     29  H6  UNL     1      26.838  38.355  55.455  1.00  0.00     0.244 HD
ENDBRANCH  26  28
ENDBRANCH  11  26
BRANCH  12  30
HETATM   30  O7  UNL     1      27.015  39.564  53.181  1.00  0.00    -0.343 OA
ATOM     31  H7  UNL     1      26.675  38.885  52.610  1.00  0.00     0.219 HD
ENDBRANCH  12  30
ENDBRANCH   6   8
BRANCH   7  32
HETATM   32  O8  UNL     1      24.686  42.277  50.980  1.00  0.00    -0.373 OA
ATOM     33  H8  UNL     1      24.063  42.740  50.431  1.00  0.00     0.212 HD
ENDBRANCH   7  32
BRANCH   4  34
HETATM   34  O4  UNL     1      28.265  44.679  52.021  1.00  0.00    -0.392 OA
ATOM     35  H4  UNL     1      27.528  44.324  52.505  1.00  0.00     0.210 HD
ENDBRANCH   4  34
BRANCH   1  36
HETATM   36  O2  UNL     1      24.908  44.424  49.524  1.00  0.00    -0.346 OA
BRANCH  36  37
HETATM   37  C3  UNL     1      23.884  45.046  50.201  1.00  0.00     0.297 C 
HETATM   38  O1  UNL     1      24.367  46.033  51.072  1.00  0.00    -0.344 OA
HETATM   39  C2  UNL     1      24.009  47.263  50.622  1.00  0.00     0.222 C 
HETATM   40  C17 UNL     1      22.908  47.108  49.670  1.00  0.00     0.190 C 
HETATM   41  C16 UNL     1      22.902  45.642  49.305  1.00  0.00     0.245 C 
HETATM   42  O10 UNL     1      22.157  47.964  49.256  1.00  0.00    -0.292 OA
BRANCH  39  43
HETATM   43  C1  UNL     1      25.172  48.026  50.014  1.00  0.00     0.269 C 
BRANCH  43  44
HETATM   44  N1  UNL     1      25.210  47.978  48.598  1.00  0.00    -0.076 N 
ATOM     45  H13 UNL     1      25.796  47.206  48.280  1.00  0.00     0.274 HD
ATOM     46  H12 UNL     1      24.310  47.674  48.225  1.00  0.00     0.274 HD
ATOM     47  H11 UNL     1      25.501  48.854  48.164  1.00  0.00     0.274 HD
ENDBRANCH  43  44
ENDBRANCH  39  43
BRANCH  41  48
HETATM   48  O9  UNL     1      23.226  45.643  47.940  1.00  0.00    -0.383 OA
ATOM     49  H9  UNL     1      22.563  45.306  47.350  1.00  0.00     0.210 HD
ENDBRANCH  41  48
ENDBRANCH  36  37
ENDBRANCH   1  36
BRANCH   3  50
HETATM   50  N2  UNL     1      28.701  42.751  48.998  1.00  0.00    -0.070 N 
ATOM     51  H23 UNL     1      28.031  42.028  49.262  1.00  0.00     0.274 HD
ATOM     52  H22 UNL     1      28.407  42.905  48.034  1.00  0.00     0.274 HD
ATOM     53  H21 UNL     1      29.657  42.396  49.036  1.00  0.00     0.274 HD
ENDBRANCH   3  50
BRANCH   2  54
HETATM   54  O3  UNL     1      27.340  45.978  49.787  1.00  0.00    -0.391 OA
ATOM     55  H3  UNL     1      28.218  46.160  50.101  1.00  0.00     0.210 HD
ENDBRANCH   2  54
TORSDOF 14
ENDMDL
MODEL 4
REMARK VINA RESULT: -8.487744233      1.497      1.847
REMARK  14 active torsions:
REMARK  status: ('A' for Active; 'I' for Inactive)
REMARK    1  A    between atoms: N1_1  and  C1_5 
REMARK    2  A    between atoms: C1_5  and  C2_6 
REMARK    3  A    between atoms: C3_8  and  O2_9 
REMARK    4  A    between atoms: O2_9  and  C4_10 
REMARK    5  A    between atoms: C5_11  and  O3_12 
REMARK    6  A    between atoms: C6_14  and  N2_15 
REMARK    7  A    between atoms: C7_19  and  O4_20 
REMARK    8  A    between atoms: N3_23  and  N4_24 
REMARK    9  A    between atoms: C10_26  and  C11_27 
REMARK       I    between atoms: C11_27  and  N5_29 
REMARK       I    between atoms: N5_29  and  C12_31 
REMARK       I    between atoms: C12_31  and  N6_32 
REMARK       I    between atoms: C12_31  and  N7_36 
REMARK   10  A    between atoms: C13_40  and  N8_41 
REMARK   11  A    between atoms: N8_41  and  O6_43 
REMARK   12  A    between atoms: C14_45  and  O7_46 
REMARK   13  A    between atoms: C15_48  and  O8_49 
REMARK   14  A    between atoms: C16_51  and  O9_52 
ROOT
HETATM    1  C4  UNL     1      29.169  42.584  50.934  1.00  0.00     0.205 C 
HETATM    2  C5  UNL     1      28.967  42.874  49.477  1.00  0.00     0.184 C 
HETATM    3  C6  UNL     1      27.672  43.438  49.051  1.00  0.00     0.244 C 
HETATM    4  C7  UNL     1      26.477  42.804  49.717  1.00  0.00     0.170 C 
HETATM    5  C8  UNL     1      26.094  43.509  50.985  1.00  0.00     0.180 C 
HETATM    6  N3  UNL     1      27.109  43.208  52.004  1.00  0.00    -0.286 N 
HETATM    7  C15 UNL     1      28.515  43.492  51.886  1.00  0.00     0.267 C 
ENDROOT
BRANCH   6   8
HETATM    8  N4  UNL     1      26.544  42.646  53.147  1.00  0.00    -0.242 N 
HETATM    9  C9  UNL     1      25.818  43.381  54.055  1.00  0.00     0.138 A 
HETATM   10  C10 UNL     1      25.348  42.566  55.057  1.00  0.00     0.082 A 
HETATM   11  C13 UNL     1      25.807  41.317  54.740  1.00  0.00     0.123 A 
HETATM   12  C14 UNL     1      26.547  41.375  53.555  1.00  0.00     0.191 A 
BRANCH  10  13
HETATM   13  C11 UNL     1      24.494  42.955  56.185  1.00  0.00     0.258 C 
HETATM   14  O5  UNL     1      24.109  42.079  56.994  1.00  0.00    -0.267 OA
HETATM   15  N5  UNL     1      24.106  44.295  56.371  1.00  0.00    -0.307 N 
HETATM   16  C12 UNL     1      23.276  44.679  57.478  1.00  0.00     0.483 C 
ATOM     17  H5  UNL     1      24.419  45.005  55.709  1.00  0.00     0.166 HD
HETATM   18  N6  UNL     1      22.054  45.336  57.023  1.00  0.00    -0.033 N 
HETATM   19  N7  UNL     1      23.930  45.608  58.379  1.00  0.00    -0.033 N 
ATOM     20  H63 UNL     1      22.259  46.130  56.416  1.00  0.00     0.278 HD
ATOM     21  H62 UNL     1      21.544  44.757  56.356  1.00  0.00     0.278 HD
ATOM     22  H61 UNL     1      21.464  45.609  57.809  1.00  0.00     0.278 HD
ATOM     23  H73 UNL     1      24.821  45.235  58.704  1.00  0.00     0.278 HD
ATOM     24  H72 UNL     1      24.268  46.428  57.874  1.00  0.00     0.278 HD
ATOM     25  H71 UNL     1      23.340  45.881  59.165  1.00  0.00     0.278 HD
ENDBRANCH  10  13
BRANCH  11  26
HETATM   26  N8  UNL     1      25.579  40.122  55.510  1.00  0.00    -0.264 N 
ATOM     27  H8  UNL     1      24.636  39.895  55.826  1.00  0.00     0.194 HD
BRANCH  26  28
HETATM   28  O6  UNL     1      26.519  39.367  55.793  1.00  0.00    -0.289 OA
ATOM     29  H6  UNL     1      26.881  39.357  56.671  1.00  0.00     0.244 HD
ENDBRANCH  26  28
ENDBRANCH  11  26
BRANCH  12  30
HETATM   30  O7  UNL     1      27.130  40.242  53.004  1.00  0.00    -0.343 OA
ATOM     31  H7  UNL     1      27.992  39.862  53.127  1.00  0.00     0.219 HD
ENDBRANCH  12  30
ENDBRANCH   6   8
BRANCH   7  32
HETATM   32  O8  UNL     1      29.117  43.378  53.145  1.00  0.00    -0.373 OA
ATOM     33  H8  UNL     1      29.937  43.857  53.156  1.00  0.00     0.212 HD
ENDBRANCH   7  32
BRANCH   4  34
HETATM   34  O4  UNL     1      26.740  41.477  49.921  1.00  0.00    -0.392 OA
ATOM     35  H4  UNL     1      26.538  41.261  50.824  1.00  0.00     0.210 HD
ENDBRANCH   4  34
BRANCH   1  36
HETATM   36  O2  UNL     1      30.577  42.672  51.108  1.00  0.00    -0.346 OA
BRANCH  36  37
HETATM   37  C3  UNL     1      31.205  41.448  51.104  1.00  0.00     0.297 C 
HETATM   38  O1  UNL     1      32.155  41.358  50.076  1.00  0.00    -0.344 OA
HETATM   39  C2  UNL     1      33.405  41.322  50.604  1.00  0.00     0.222 C 
HETATM   40  C17 UNL     1      33.304  40.950  52.015  1.00  0.00     0.190 C 
HETATM   41  C16 UNL     1      31.851  41.145  52.374  1.00  0.00     0.245 C 
HETATM   42  O10 UNL     1      34.191  40.568  52.748  1.00  0.00    -0.292 OA
BRANCH  39  43
HETATM   43  C1  UNL     1      34.157  42.629  50.421  1.00  0.00     0.269 C 
BRANCH  43  44
HETATM   44  N1  UNL     1      33.803  43.628  51.362  1.00  0.00    -0.076 N 
ATOM     45  H13 UNL     1      33.540  43.206  52.253  1.00  0.00     0.274 HD
ATOM     46  H12 UNL     1      34.628  44.151  51.657  1.00  0.00     0.274 HD
ATOM     47  H11 UNL     1      33.074  44.261  51.034  1.00  0.00     0.274 HD
ENDBRANCH  43  44
ENDBRANCH  39  43
BRANCH  41  48
HETATM   48  O9  UNL     1      31.882  42.183  53.318  1.00  0.00    -0.383 OA
ATOM     49  H9  UNL     1      31.232  42.867  53.213  1.00  0.00     0.210 HD
ENDBRANCH  41  48
ENDBRANCH  36  37
ENDBRANCH   1  36
BRANCH   3  50
HETATM   50  N2  UNL     1      27.615  44.903  49.184  1.00  0.00    -0.070 N 
ATOM     51  H23 UNL     1      28.248  45.228  49.914  1.00  0.00     0.274 HD
ATOM     52  H22 UNL     1      28.042  45.359  48.378  1.00  0.00     0.274 HD
ATOM     53  H21 UNL     1      26.668  45.250  49.340  1.00  0.00     0.274 HD
ENDBRANCH   3  50
BRANCH   2  54
HETATM   54  O3  UNL     1      29.207  41.716  48.741  1.00  0.00    -0.391 OA
ATOM     55  H3  UNL     1      29.838  41.904  48.057  1.00  0.00     0.210 HD
ENDBRANCH   2  54
TORSDOF 14
ENDMDL
MODEL 5
REMARK VINA RESULT: -8.353363159      1.456      1.956
REMARK  14 active torsions:
REMARK  status: ('A' for Active; 'I' for Inactive)
REMARK    1  A    between atoms: N1_1  and  C1_5 
REMARK    2  A    between atoms: C1_5  and  C2_6 
REMARK    3  A    between atoms: C3_8  and  O2_9 
REMARK    4  A    between atoms: O2_9  and  C4_10 
REMARK    5  A    between atoms: C5_11  and  O3_12 
REMARK    6  A    between atoms: C6_14  and  N2_15 
REMARK    7  A    between atoms: C7_19  and  O4_20 
REMARK    8  A    between atoms: N3_23  and  N4_24 
REMARK    9  A    between atoms: C10_26  and  C11_27 
REMARK       I    between atoms: C11_27  and  N5_29 
REMARK       I    between atoms: N5_29  and  C12_31 
REMARK       I    between atoms: C12_31  and  N6_32 
REMARK       I    between atoms: C12_31  and  N7_36 
REMARK   10  A    between atoms: C13_40  and  N8_41 
REMARK   11  A    between atoms: N8_41  and  O6_43 
REMARK   12  A    between atoms: C14_45  and  O7_46 
REMARK   13  A    between atoms: C15_48  and  O8_49 
REMARK   14  A    between atoms: C16_51  and  O9_52 
ROOT
HETATM    1  C4  UNL     1      29.820  41.593  50.821  1.00  0.00     0.205 C 
HETATM    2  C5  UNL     1      29.738  41.809  49.339  1.00  0.00     0.184 C 
HETATM    3  C6  UNL     1      28.522  42.440  48.793  1.00  0.00     0.244 C 
HETATM    4  C7  UNL     1      27.239  41.938  49.406  1.00  0.00     0.170 C 
HETATM    5  C8  UNL     1      26.830  42.743  50.604  1.00  0.00     0.180 C 
HETATM    6  N3  UNL     1      27.748  42.430  51.707  1.00  0.00    -0.286 N 
HETATM    7  C15 UNL     1      29.176  42.601  51.673  1.00  0.00     0.267 C 
ENDROOT
BRANCH   6   8
HETATM    8  N4  UNL     1      27.067  41.981  52.836  1.00  0.00    -0.242 N 
HETATM    9  C9  UNL     1      26.385  42.827  53.679  1.00  0.00     0.138 A 
HETATM   10  C10 UNL     1      25.776  42.111  54.681  1.00  0.00     0.082 A 
HETATM   11  C13 UNL     1      26.105  40.806  54.431  1.00  0.00     0.123 A 
HETATM   12  C14 UNL     1      26.904  40.735  53.287  1.00  0.00     0.191 A 
BRANCH  10  13
HETATM   13  C11 UNL     1      24.917  42.638  55.748  1.00  0.00     0.258 C 
HETATM   14  O5  UNL     1      24.484  41.859  56.628  1.00  0.00    -0.267 OA
HETATM   15  N5  UNL     1      24.577  44.003  55.796  1.00  0.00    -0.307 N 
HETATM   16  C12 UNL     1      23.743  44.522  56.843  1.00  0.00     0.483 C 
ATOM     17  H5  UNL     1      24.930  44.634  55.076  1.00  0.00     0.166 HD
HETATM   18  N6  UNL     1      22.556  45.176  56.300  1.00  0.00    -0.033 N 
HETATM   19  N7  UNL     1      24.416  45.509  57.665  1.00  0.00    -0.033 N 
ATOM     20  H63 UNL     1      22.802  45.900  55.625  1.00  0.00     0.278 HD
ATOM     21  H62 UNL     1      22.036  44.554  55.681  1.00  0.00     0.278 HD
ATOM     22  H61 UNL     1      21.962  45.545  57.044  1.00  0.00     0.278 HD
ATOM     23  H73 UNL     1      25.286  45.136  58.044  1.00  0.00     0.278 HD
ATOM     24  H72 UNL     1      24.794  46.264  57.091  1.00  0.00     0.278 HD
ATOM     25  H71 UNL     1      23.823  45.878  58.408  1.00  0.00     0.278 HD
ENDBRANCH  10  13
BRANCH  11  26
HETATM   26  N8  UNL     1      25.703  39.676  55.228  1.00  0.00    -0.264 N 
ATOM     27  H8  UNL     1      24.973  39.051  54.889  1.00  0.00     0.194 HD
BRANCH  26  28
HETATM   28  O6  UNL     1      26.239  39.458  56.323  1.00  0.00    -0.289 OA
ATOM     29  H6  UNL     1      26.713  38.648  56.474  1.00  0.00     0.244 HD
ENDBRANCH  26  28
ENDBRANCH  11  26
BRANCH  12  30
HETATM   30  O7  UNL     1      27.380  39.523  52.806  1.00  0.00    -0.343 OA
ATOM     31  H7  UNL     1      26.933  38.703  52.627  1.00  0.00     0.219 HD
ENDBRANCH  12  30
ENDBRANCH   6   8
BRANCH   7  32
HETATM   32  O8  UNL     1      29.683  42.519  52.976  1.00  0.00    -0.373 OA
ATOM     33  H8  UNL     1      29.808  43.391  53.330  1.00  0.00     0.212 HD
ENDBRANCH   7  32
BRANCH   4  34
HETATM   34  O4  UNL     1      27.384  40.609  49.701  1.00  0.00    -0.392 OA
ATOM     35  H4  UNL     1      26.534  40.254  49.935  1.00  0.00     0.210 HD
ENDBRANCH   4  34
BRANCH   1  36
HETATM   36  O2  UNL     1      31.216  41.586  51.089  1.00  0.00    -0.346 OA
BRANCH  36  37
HETATM   37  C3  UNL     1      31.840  42.769  50.764  1.00  0.00     0.297 C 
HETATM   38  O1  UNL     1      31.877  43.650  51.855  1.00  0.00    -0.344 OA
HETATM   39  C2  UNL     1      33.155  43.794  52.289  1.00  0.00     0.222 C 
HETATM   40  C17 UNL     1      34.060  43.352  51.227  1.00  0.00     0.190 C 
HETATM   41  C16 UNL     1      33.195  42.569  50.268  1.00  0.00     0.245 C 
HETATM   42  O10 UNL     1      35.249  43.561  51.130  1.00  0.00    -0.292 OA
BRANCH  39  43
HETATM   43  C1  UNL     1      33.419  43.060  53.592  1.00  0.00     0.269 C 
BRANCH  43  44
HETATM   44  N1  UNL     1      33.561  41.658  53.439  1.00  0.00    -0.076 N 
ATOM     45  H13 UNL     1      33.655  41.204  54.348  1.00  0.00     0.274 HD
ATOM     46  H12 UNL     1      32.684  41.239  53.129  1.00  0.00     0.274 HD
ATOM     47  H11 UNL     1      34.327  41.388  52.821  1.00  0.00     0.274 HD
ENDBRANCH  43  44
ENDBRANCH  39  43
BRANCH  41  48
HETATM   48  O9  UNL     1      33.703  41.265  50.357  1.00  0.00    -0.383 OA
ATOM     49  H9  UNL     1      33.208  40.656  50.893  1.00  0.00     0.210 HD
ENDBRANCH  41  48
ENDBRANCH  36  37
ENDBRANCH   1  36
BRANCH   3  50
HETATM   50  N2  UNL     1      28.570  43.911  48.841  1.00  0.00    -0.070 N 
ATOM     51  H23 UNL     1      28.736  44.240  49.792  1.00  0.00     0.274 HD
ATOM     52  H22 UNL     1      29.415  44.263  48.394  1.00  0.00     0.274 HD
ATOM     53  H21 UNL     1      27.738  44.348  48.443  1.00  0.00     0.274 HD
ENDBRANCH   3  50
BRANCH   2  54
HETATM   54  O3  UNL     1      29.935  40.594  48.686  1.00  0.00    -0.391 OA
ATOM     55  H3  UNL     1      30.595  40.092  49.150  1.00  0.00     0.210 HD
ENDBRANCH   2  54
TORSDOF 14
ENDMDL
