MODEL 1
REMARK VINA RESULT: -9.513804013      0.000      0.000
REMARK  14 active torsions:
REMARK  status: ('A' for Active; 'I' for Inactive)
REMARK    1  A    between atoms: O1_2  and  C2_3 
REMARK    2  A    between atoms: C3_5  and  N1_6 
REMARK    3  A    between atoms: N1_6  and  C4_8 
REMARK    4  A    between atoms: C5_11  and  N3_12 
REMARK    5  A    between atoms: C6_17  and  O3_18 
REMARK    6  A    between atoms: O3_18  and  C7_19 
REMARK    7  A    between atoms: C7_19  and  C8_20 
REMARK       I    between atoms: C8_20  and  N5_22 
REMARK    8  A    between atoms: C10_28  and  C11_29 
REMARK    9  A    between atoms: C11_29  and  N8_30 
REMARK   10  A    between atoms: C11_29  and  O6_34 
REMARK   11  A    between atoms: C12_36  and  N9_37 
REMARK   12  A    between atoms: C13_40  and  O9_41 
REMARK   13  A    between atoms: C14_43  and  O10_44 
REMARK   14  A    between atoms: C15_46  and  O11_47 
ROOT
HETATM    1  C4  UNL     1      37.379  36.865  50.418  1.00  0.00     0.156 A 
HETATM    2  N2  UNL     1      37.980  37.827  49.717  1.00  0.00    -0.174 N 
ATOM      3  H2  UNL     1      38.912  37.640  49.345  1.00  0.00     0.186 HD
HETATM    4  C5  UNL     1      37.420  39.049  49.466  1.00  0.00     0.679 A 
HETATM    5  N4  UNL     1      36.191  39.295  49.954  1.00  0.00    -0.168 N 
ATOM      6  H4  UNL     1      35.766  40.204  49.772  1.00  0.00     0.186 HD
HETATM    7  C6  UNL     1      35.502  38.397  50.670  1.00  0.00     0.195 A 
HETATM    8  C12 UNL     1      36.093  37.168  50.910  1.00  0.00     0.198 A 
ENDROOT
BRANCH   7   9
HETATM    9  O3  UNL     1      34.229  38.633  51.186  1.00  0.00    -0.324 OA
BRANCH   9  10
HETATM   10  C7  UNL     1      33.907  39.561  52.155  1.00  0.00     0.281 C 
BRANCH  10  11
HETATM   11  C8  UNL     1      33.487  40.869  51.625  1.00  0.00     0.262 C 
HETATM   12  O4  UNL     1      33.692  41.260  50.430  1.00  0.00    -0.269 OA
HETATM   13  N5  UNL     1      32.801  41.803  52.446  1.00  0.00    -0.225 N 
HETATM   14  N6  UNL     1      32.474  41.577  53.785  1.00  0.00    -0.014 NA
HETATM   15  C10 UNL     1      32.297  43.129  52.149  1.00  0.00     0.258 C 
HETATM   16  N7  UNL     1      32.892  42.802  54.356  1.00  0.00    -0.252 N 
HETATM   17  C9  UNL     1      32.701  43.852  53.399  1.00  0.00     0.263 C 
ATOM     18  H7  UNL     1      33.269  42.919  55.296  1.00  0.00     0.187 HD
HETATM   19  O5  UNL     1      32.831  45.085  53.548  1.00  0.00    -0.270 OA
BRANCH  15  20
HETATM   20  C11 UNL     1      30.796  43.140  51.982  1.00  0.00     0.350 C 
BRANCH  20  21
HETATM   21  N8  UNL     1      30.388  41.794  51.622  1.00  0.00    -0.051 N 
ATOM     22  H83 UNL     1      30.012  41.732  50.676  1.00  0.00     0.277 HD
ATOM     23  H82 UNL     1      31.177  41.160  51.494  1.00  0.00     0.277 HD
ATOM     24  H81 UNL     1      29.731  41.474  52.334  1.00  0.00     0.277 HD
ENDBRANCH  20  21
BRANCH  20  25
HETATM   25  O6  UNL     1      30.132  43.499  53.129  1.00  0.00    -0.368 OA
ATOM     26  H6  UNL     1      29.639  44.304  53.034  1.00  0.00     0.212 HD
ENDBRANCH  20  25
ENDBRANCH  15  20
ENDBRANCH  10  11
ENDBRANCH   9  10
ENDBRANCH   7   9
BRANCH   8  27
HETATM   27  N9  UNL     1      35.406  36.190  51.671  1.00  0.00    -0.107 N 
HETATM   28  O7  UNL     1      35.808  35.775  52.765  1.00  0.00    -0.531 OA
HETATM   29  O8  UNL     1      34.228  35.661  51.202  1.00  0.00    -0.531 OA
ENDBRANCH   8  27
BRANCH   4  30
HETATM   30  N3  UNL     1      38.080  39.919  48.775  1.00  0.00    -0.234 N 
ATOM     31  H32 UNL     1      37.820  40.174  47.823  1.00  0.00     0.174 HD
ATOM     32  H31 UNL     1      38.894  40.373  49.189  1.00  0.00     0.174 HD
ENDBRANCH   4  30
BRANCH   1  33
HETATM   33  N1  UNL     1      37.860  35.763  50.653  1.00  0.00    -0.345 N 
ATOM     34  H1  UNL     1      37.123  35.075  50.501  1.00  0.00     0.163 HD
BRANCH  33  35
HETATM   35  C3  UNL     1      38.997  35.065  51.041  1.00  0.00     0.257 C 
HETATM   36  O2  UNL     1      38.710  34.098  52.040  1.00  0.00    -0.332 OA
HETATM   37  C2  UNL     1      38.234  32.907  51.496  1.00  0.00     0.293 C 
HETATM   38  C15 UNL     1      39.323  32.244  50.656  1.00  0.00     0.204 C 
HETATM   39  C14 UNL     1      40.507  33.205  50.538  1.00  0.00     0.184 C 
HETATM   40  C13 UNL     1      39.895  34.516  49.989  1.00  0.00     0.198 C 
BRANCH  37  41
HETATM   41  O1  UNL     1      37.058  33.042  50.782  1.00  0.00    -0.363 OA
HETATM   42  C1  UNL     1      35.998  32.610  51.567  1.00  0.00     0.204 C 
ENDBRANCH  37  41
BRANCH  38  43
HETATM   43  O11 UNL     1      38.809  32.054  49.377  1.00  0.00    -0.388 OA
ATOM     44  H11 UNL     1      39.507  31.704  48.836  1.00  0.00     0.210 HD
ENDBRANCH  38  43
BRANCH  39  45
HETATM   45  O10 UNL     1      40.994  33.493  51.811  1.00  0.00    -0.390 OA
ATOM     46  H10 UNL     1      41.794  33.991  51.691  1.00  0.00     0.210 HD
ENDBRANCH  39  45
BRANCH  40  47
HETATM   47  O9  UNL     1      41.022  35.345  49.829  1.00  0.00    -0.389 OA
ATOM     48  H9  UNL     1      41.683  35.131  50.477  1.00  0.00     0.210 HD
ENDBRANCH  40  47
ENDBRANCH  33  35
ENDBRANCH   1  33
TORSDOF 14
ENDMDL
MODEL 2
REMARK VINA RESULT: -9.444350928      2.474      9.093
REMARK  14 active torsions:
REMARK  status: ('A' for Active; 'I' for Inactive)
REMARK    1  A    between atoms: O1_2  and  C2_3 
REMARK    2  A    between atoms: C3_5  and  N1_6 
REMARK    3  A    between atoms: N1_6  and  C4_8 
REMARK    4  A    between atoms: C5_11  and  N3_12 
REMARK    5  A    between atoms: C6_17  and  O3_18 
REMARK    6  A    between atoms: O3_18  and  C7_19 
REMARK    7  A    between atoms: C7_19  and  C8_20 
REMARK       I    between atoms: C8_20  and  N5_22 
REMARK    8  A    between atoms: C10_28  and  C11_29 
REMARK    9  A    between atoms: C11_29  and  N8_30 
REMARK   10  A    between atoms: C11_29  and  O6_34 
REMARK   11  A    between atoms: C12_36  and  N9_37 
REMARK   12  A    between atoms: C13_40  and  O9_41 
REMARK   13  A    between atoms: C14_43  and  O10_44 
REMARK   14  A    between atoms: C15_46  and  O11_47 
ROOT
HETATM    1  C4  UNL     1      34.951  38.320  51.487  1.00  0.00     0.156 A 
HETATM    2  N2  UNL     1      35.236  39.410  50.774  1.00  0.00    -0.174 N 
ATOM      3  H2  UNL     1      34.774  40.285  51.026  1.00  0.00     0.186 HD
HETATM    4  C5  UNL     1      36.111  39.424  49.724  1.00  0.00     0.679 A 
HETATM    5  N4  UNL     1      36.721  38.272  49.392  1.00  0.00    -0.168 N 
ATOM      6  H4  UNL     1      37.376  38.274  48.609  1.00  0.00     0.186 HD
HETATM    7  C6  UNL     1      36.505  37.123  50.045  1.00  0.00     0.195 A 
HETATM    8  C12 UNL     1      35.612  37.137  51.104  1.00  0.00     0.198 A 
ENDROOT
BRANCH   7   9
HETATM    9  O3  UNL     1      37.125  35.919  49.716  1.00  0.00    -0.324 OA
BRANCH   9  10
HETATM   10  C7  UNL     1      38.460  35.619  49.894  1.00  0.00     0.281 C 
BRANCH  10  11
HETATM   11  C8  UNL     1      38.732  34.720  51.028  1.00  0.00     0.262 C 
HETATM   12  O4  UNL     1      39.148  35.105  52.168  1.00  0.00    -0.269 OA
HETATM   13  N5  UNL     1      38.539  33.318  50.909  1.00  0.00    -0.225 N 
HETATM   14  N6  UNL     1      38.089  32.684  49.748  1.00  0.00    -0.014 NA
HETATM   15  C10 UNL     1      38.737  32.253  51.872  1.00  0.00     0.258 C 
HETATM   16  N7  UNL     1      39.014  31.617  49.670  1.00  0.00    -0.252 N 
HETATM   17  C9  UNL     1      39.383  31.221  50.997  1.00  0.00     0.263 C 
ATOM     18  H7  UNL     1      39.362  31.197  48.808  1.00  0.00     0.187 HD
HETATM   19  O5  UNL     1      40.076  30.249  51.364  1.00  0.00    -0.270 OA
BRANCH  15  20
HETATM   20  C11 UNL     1      37.428  31.743  52.429  1.00  0.00     0.350 C 
BRANCH  20  21
HETATM   21  N8  UNL     1      36.527  32.876  52.528  1.00  0.00    -0.051 N 
ATOM     22  H83 UNL     1      36.955  33.752  52.230  1.00  0.00     0.277 HD
ATOM     23  H82 UNL     1      35.778  32.851  51.835  1.00  0.00     0.277 HD
ATOM     24  H81 UNL     1      36.180  32.908  53.487  1.00  0.00     0.277 HD
ENDBRANCH  20  21
BRANCH  20  25
HETATM   25  O6  UNL     1      36.841  30.793  51.632  1.00  0.00    -0.368 OA
ATOM     26  H6  UNL     1      37.138  29.912  51.824  1.00  0.00     0.212 HD
ENDBRANCH  20  25
ENDBRANCH  15  20
ENDBRANCH  10  11
ENDBRANCH   9  10
ENDBRANCH   7   9
BRANCH   8  27
HETATM   27  N9  UNL     1      35.344  35.943  51.817  1.00  0.00    -0.107 N 
HETATM   28  O7  UNL     1      35.963  35.605  52.834  1.00  0.00    -0.531 OA
HETATM   29  O8  UNL     1      34.347  35.099  51.389  1.00  0.00    -0.531 OA
ENDBRANCH   8  27
BRANCH   4  30
HETATM   30  N3  UNL     1      36.325  40.530  49.091  1.00  0.00    -0.234 N 
ATOM     31  H32 UNL     1      35.958  40.706  48.156  1.00  0.00     0.174 HD
ATOM     32  H31 UNL     1      36.881  41.261  49.534  1.00  0.00     0.174 HD
ENDBRANCH   4  30
BRANCH   1  33
HETATM   33  N1  UNL     1      34.172  38.285  52.433  1.00  0.00    -0.345 N 
ATOM     34  H1  UNL     1      34.710  38.492  53.273  1.00  0.00     0.163 HD
BRANCH  33  35
HETATM   35  C3  UNL     1      32.856  38.080  52.831  1.00  0.00     0.257 C 
HETATM   36  O2  UNL     1      32.338  39.192  53.544  1.00  0.00    -0.332 OA
HETATM   37  C2  UNL     1      31.863  40.187  52.691  1.00  0.00     0.293 C 
HETATM   38  C15 UNL     1      30.661  39.671  51.905  1.00  0.00     0.204 C 
HETATM   39  C14 UNL     1      30.499  38.175  52.179  1.00  0.00     0.184 C 
HETATM   40  C13 UNL     1      31.878  37.563  51.837  1.00  0.00     0.198 C 
BRANCH  37  41
HETATM   41  O1  UNL     1      32.825  40.717  51.851  1.00  0.00    -0.363 OA
HETATM   42  C1  UNL     1      33.273  41.921  52.377  1.00  0.00     0.204 C 
ENDBRANCH  37  41
BRANCH  38  43
HETATM   43  O11 UNL     1      30.948  39.821  50.552  1.00  0.00    -0.388 OA
ATOM     44  H11 UNL     1      30.502  39.123  50.085  1.00  0.00     0.210 HD
ENDBRANCH  38  43
BRANCH  39  45
HETATM   45  O10 UNL     1      30.300  37.976  53.543  1.00  0.00    -0.390 OA
ATOM     46  H10 UNL     1      29.876  38.760  53.874  1.00  0.00     0.210 HD
ENDBRANCH  39  45
BRANCH  40  47
HETATM   47  O9  UNL     1      31.666  36.184  52.033  1.00  0.00    -0.389 OA
ATOM     48  H9  UNL     1      31.520  35.752  51.200  1.00  0.00     0.210 HD
ENDBRANCH  40  47
ENDBRANCH  33  35
ENDBRANCH   1  33
TORSDOF 14
ENDMDL
MODEL 3
REMARK VINA RESULT: -9.404923951      2.276      9.350
REMARK  14 active torsions:
REMARK  status: ('A' for Active; 'I' for Inactive)
REMARK    1  A    between atoms: O1_2  and  C2_3 
REMARK    2  A    between atoms: C3_5  and  N1_6 
REMARK    3  A    between atoms: N1_6  and  C4_8 
REMARK    4  A    between atoms: C5_11  and  N3_12 
REMARK    5  A    between atoms: C6_17  and  O3_18 
REMARK    6  A    between atoms: O3_18  and  C7_19 
REMARK    7  A    between atoms: C7_19  and  C8_20 
REMARK       I    between atoms: C8_20  and  N5_22 
REMARK    8  A    between atoms: C10_28  and  C11_29 
REMARK    9  A    between atoms: C11_29  and  N8_30 
REMARK   10  A    between atoms: C11_29  and  O6_34 
REMARK   11  A    between atoms: C12_36  and  N9_37 
REMARK   12  A    between atoms: C13_40  and  O9_41 
REMARK   13  A    between atoms: C14_43  and  O10_44 
REMARK   14  A    between atoms: C15_46  and  O11_47 
ROOT
HETATM    1  C4  UNL     1      33.077  39.554  51.512  1.00  0.00     0.156 A 
HETATM    2  N2  UNL     1      34.057  40.003  50.727  1.00  0.00    -0.174 N 
ATOM      3  H2  UNL     1      33.936  40.910  50.277  1.00  0.00     0.186 HD
HETATM    4  C5  UNL     1      35.216  39.316  50.491  1.00  0.00     0.679 A 
HETATM    5  N4  UNL     1      35.376  38.120  51.085  1.00  0.00    -0.168 N 
ATOM      6  H4  UNL     1      36.237  37.601  50.913  1.00  0.00     0.186 HD
HETATM    7  C6  UNL     1      34.452  37.581  51.891  1.00  0.00     0.195 A 
HETATM    8  C12 UNL     1      33.288  38.297  52.113  1.00  0.00     0.198 A 
ENDROOT
BRANCH   7   9
HETATM    9  O3  UNL     1      34.598  36.343  52.514  1.00  0.00    -0.324 OA
BRANCH   9  10
HETATM   10  C7  UNL     1      34.938  35.158  51.892  1.00  0.00     0.281 C 
BRANCH  10  11
HETATM   11  C8  UNL     1      36.314  34.706  52.163  1.00  0.00     0.262 C 
HETATM   12  O4  UNL     1      36.666  34.053  53.198  1.00  0.00    -0.269 OA
HETATM   13  N5  UNL     1      37.365  34.984  51.250  1.00  0.00    -0.225 N 
HETATM   14  N6  UNL     1      37.200  35.686  50.054  1.00  0.00    -0.014 NA
HETATM   15  C10 UNL     1      38.774  34.646  51.302  1.00  0.00     0.258 C 
HETATM   16  N7  UNL     1      38.295  36.578  50.133  1.00  0.00    -0.252 N 
HETATM   17  C9  UNL     1      39.374  35.934  50.823  1.00  0.00     0.263 C 
ATOM     18  H7  UNL     1      38.313  37.528  49.760  1.00  0.00     0.187 HD
HETATM   19  O5  UNL     1      40.545  36.331  50.996  1.00  0.00    -0.270 OA
BRANCH  15  20
HETATM   20  C11 UNL     1      39.119  33.511  50.366  1.00  0.00     0.350 C 
BRANCH  20  21
HETATM   21  N8  UNL     1      37.877  32.857  50.000  1.00  0.00    -0.051 N 
ATOM     22  H83 UNL     1      37.923  31.841  50.082  1.00  0.00     0.277 HD
ATOM     23  H82 UNL     1      37.130  33.012  50.677  1.00  0.00     0.277 HD
ATOM     24  H81 UNL     1      37.633  33.169  49.059  1.00  0.00     0.277 HD
ENDBRANCH  20  21
BRANCH  20  25
HETATM   25  O6  UNL     1      39.738  33.934  49.217  1.00  0.00    -0.368 OA
ATOM     26  H6  UNL     1      39.328  33.598  48.430  1.00  0.00     0.212 HD
ENDBRANCH  20  25
ENDBRANCH  15  20
ENDBRANCH  10  11
ENDBRANCH   9  10
ENDBRANCH   7   9
BRANCH   8  27
HETATM   27  N9  UNL     1      32.278  37.762  52.950  1.00  0.00    -0.107 N 
HETATM   28  O7  UNL     1      31.479  36.893  52.580  1.00  0.00    -0.531 OA
HETATM   29  O8  UNL     1      32.158  38.204  54.245  1.00  0.00    -0.531 OA
ENDBRANCH   8  27
BRANCH   4  30
HETATM   30  N3  UNL     1      36.111  39.832  49.714  1.00  0.00    -0.234 N 
ATOM     31  H32 UNL     1      36.730  40.584  50.015  1.00  0.00     0.174 HD
ATOM     32  H31 UNL     1      36.210  39.480  48.762  1.00  0.00     0.174 HD
ENDBRANCH   4  30
BRANCH   1  33
HETATM   33  N1  UNL     1      32.032  40.153  51.740  1.00  0.00    -0.345 N 
ATOM     34  H1  UNL     1      31.945  40.231  52.753  1.00  0.00     0.163 HD
BRANCH  33  35
HETATM   35  C3  UNL     1      30.916  40.770  51.186  1.00  0.00     0.257 C 
HETATM   36  O2  UNL     1      30.776  42.110  51.632  1.00  0.00    -0.332 OA
HETATM   37  C2  UNL     1      31.560  42.994  50.891  1.00  0.00     0.293 C 
HETATM   38  C15 UNL     1      31.071  43.041  49.446  1.00  0.00     0.204 C 
HETATM   39  C14 UNL     1      30.006  41.960  49.252  1.00  0.00     0.184 C 
HETATM   40  C13 UNL     1      30.684  40.652  49.722  1.00  0.00     0.198 C 
BRANCH  37  41
HETATM   41  O1  UNL     1      32.917  42.735  50.957  1.00  0.00    -0.363 OA
HETATM   42  C1  UNL     1      33.467  43.462  52.003  1.00  0.00     0.204 C 
ENDBRANCH  37  41
BRANCH  38  43
HETATM   43  O11 UNL     1      32.149  42.719  48.627  1.00  0.00    -0.388 OA
ATOM     44  H11 UNL     1      32.198  43.378  47.944  1.00  0.00     0.210 HD
ENDBRANCH  38  43
BRANCH  39  45
HETATM   45  O10 UNL     1      28.946  42.198  50.123  1.00  0.00    -0.390 OA
ATOM     46  H10 UNL     1      28.724  43.118  50.039  1.00  0.00     0.210 HD
ENDBRANCH  39  45
BRANCH  40  47
HETATM   47  O9  UNL     1      29.702  39.678  49.461  1.00  0.00    -0.389 OA
ATOM     48  H9  UNL     1      29.030  40.032  48.890  1.00  0.00     0.210 HD
ENDBRANCH  40  47
ENDBRANCH  33  35
ENDBRANCH   1  33
TORSDOF 14
ENDMDL
MODEL 4
REMARK VINA RESULT: -9.365237519      1.356      1.917
REMARK  14 active torsions:
REMARK  status: ('A' for Active; 'I' for Inactive)
REMARK    1  A    between atoms: O1_2  and  C2_3 
REMARK    2  A    between atoms: C3_5  and  N1_6 
REMARK    3  A    between atoms: N1_6  and  C4_8 
REMARK    4  A    between atoms: C5_11  and  N3_12 
REMARK    5  A    between atoms: C6_17  and  O3_18 
REMARK    6  A    between atoms: O3_18  and  C7_19 
REMARK    7  A    between atoms: C7_19  and  C8_20 
REMARK       I    between atoms: C8_20  and  N5_22 
REMARK    8  A    between atoms: C10_28  and  C11_29 
REMARK    9  A    between atoms: C11_29  and  N8_30 
REMARK   10  A    between atoms: C11_29  and  O6_34 
REMARK   11  A    between atoms: C12_36  and  N9_37 
REMARK   12  A    between atoms: C13_40  and  O9_41 
REMARK   13  A    between atoms: C14_43  and  O10_44 
REMARK   14  A    between atoms: C15_46  and  O11_47 
ROOT
HETATM    1  C4  UNL     1      36.863  36.931  50.501  1.00  0.00     0.156 A 
HETATM    2  N2  UNL     1      37.215  38.002  49.789  1.00  0.00    -0.174 N 
ATOM      3  H2  UNL     1      38.078  37.957  49.246  1.00  0.00     0.186 HD
HETATM    4  C5  UNL     1      36.486  39.158  49.744  1.00  0.00     0.679 A 
HETATM    5  N4  UNL     1      35.348  39.218  50.458  1.00  0.00    -0.168 N 
ATOM      6  H4  UNL     1      34.799  40.077  50.430  1.00  0.00     0.186 HD
HETATM    7  C6  UNL     1      34.906  38.198  51.205  1.00  0.00     0.195 A 
HETATM    8  C12 UNL     1      35.664  37.039  51.234  1.00  0.00     0.198 A 
ENDROOT
BRANCH   7   9
HETATM    9  O3  UNL     1      33.731  38.240  51.953  1.00  0.00    -0.324 OA
BRANCH   9  10
HETATM   10  C7  UNL     1      32.456  38.404  51.451  1.00  0.00     0.281 C 
BRANCH  10  11
HETATM   11  C8  UNL     1      31.742  39.577  51.985  1.00  0.00     0.262 C 
HETATM   12  O4  UNL     1      30.865  39.526  52.907  1.00  0.00    -0.269 OA
HETATM   13  N5  UNL     1      32.002  40.879  51.483  1.00  0.00    -0.225 N 
HETATM   14  N6  UNL     1      32.925  41.161  50.473  1.00  0.00    -0.014 NA
HETATM   15  C10 UNL     1      31.433  42.162  51.847  1.00  0.00     0.258 C 
HETATM   16  N7  UNL     1      32.151  42.019  49.658  1.00  0.00    -0.252 N 
HETATM   17  C9  UNL     1      31.254  42.768  50.487  1.00  0.00     0.263 C 
ATOM     18  H7  UNL     1      32.221  42.093  48.642  1.00  0.00     0.187 HD
HETATM   19  O5  UNL     1      30.494  43.709  50.175  1.00  0.00    -0.270 OA
BRANCH  15  20
HETATM   20  C11 UNL     1      32.384  42.987  52.683  1.00  0.00     0.350 C 
BRANCH  20  21
HETATM   21  N8  UNL     1      33.285  42.067  53.352  1.00  0.00    -0.051 N 
ATOM     22  H83 UNL     1      32.796  41.361  53.903  1.00  0.00     0.277 HD
ATOM     23  H82 UNL     1      33.756  41.431  52.708  1.00  0.00     0.277 HD
ATOM     24  H81 UNL     1      33.935  42.625  53.907  1.00  0.00     0.277 HD
ENDBRANCH  20  21
BRANCH  20  25
HETATM   25  O6  UNL     1      33.135  43.858  51.935  1.00  0.00    -0.368 OA
ATOM     26  H6  UNL     1      32.625  44.576  51.578  1.00  0.00     0.212 HD
ENDBRANCH  20  25
ENDBRANCH  15  20
ENDBRANCH  10  11
ENDBRANCH   9  10
ENDBRANCH   7   9
BRANCH   8  27
HETATM   27  N9  UNL     1      35.242  35.938  52.018  1.00  0.00    -0.107 N 
HETATM   28  O7  UNL     1      35.819  35.579  53.052  1.00  0.00    -0.531 OA
HETATM   29  O8  UNL     1      34.136  35.214  51.643  1.00  0.00    -0.531 OA
ENDBRANCH   8  27
BRANCH   4  30
HETATM   30  N3  UNL     1      36.907  40.145  49.024  1.00  0.00    -0.234 N 
ATOM     31  H32 UNL     1      36.281  40.718  48.459  1.00  0.00     0.174 HD
ATOM     32  H31 UNL     1      37.902  40.367  49.012  1.00  0.00     0.174 HD
ENDBRANCH   4  30
BRANCH   1  33
HETATM   33  N1  UNL     1      37.500  35.885  50.555  1.00  0.00    -0.345 N 
ATOM     34  H1  UNL     1      36.910  35.154  50.157  1.00  0.00     0.163 HD
BRANCH  33  35
HETATM   35  C3  UNL     1      38.694  35.284  50.934  1.00  0.00     0.257 C 
HETATM   36  O2  UNL     1      38.504  34.341  51.978  1.00  0.00    -0.332 OA
HETATM   37  C2  UNL     1      38.100  33.098  51.495  1.00  0.00     0.293 C 
HETATM   38  C15 UNL     1      39.208  32.479  50.648  1.00  0.00     0.204 C 
HETATM   39  C14 UNL     1      40.318  33.516  50.458  1.00  0.00     0.184 C 
HETATM   40  C13 UNL     1      39.599  34.757  49.878  1.00  0.00     0.198 C 
BRANCH  37  41
HETATM   41  O1  UNL     1      36.897  33.121  50.813  1.00  0.00    -0.363 OA
HETATM   42  C1  UNL     1      35.942  32.438  51.552  1.00  0.00     0.204 C 
ENDBRANCH  37  41
BRANCH  38  43
HETATM   43  O11 UNL     1      38.674  32.202  49.394  1.00  0.00    -0.388 OA
ATOM     44  H11 UNL     1      38.880  31.298  49.187  1.00  0.00     0.210 HD
ENDBRANCH  38  43
BRANCH  39  45
HETATM   45  O10 UNL     1      40.818  33.888  51.703  1.00  0.00    -0.390 OA
ATOM     46  H10 UNL     1      41.366  33.172  52.002  1.00  0.00     0.210 HD
ENDBRANCH  39  45
BRANCH  40  47
HETATM   47  O9  UNL     1      40.659  35.656  49.651  1.00  0.00    -0.389 OA
ATOM     48  H9  UNL     1      40.361  36.394  49.133  1.00  0.00     0.210 HD
ENDBRANCH  40  47
ENDBRANCH  33  35
ENDBRANCH   1  33
TORSDOF 14
ENDMDL
MODEL 5
REMARK VINA RESULT: -9.273319769      2.004      9.367
REMARK  14 active torsions:
REMARK  status: ('A' for Active; 'I' for Inactive)
REMARK    1  A    between atoms: O1_2  and  C2_3 
REMARK    2  A    between atoms: C3_5  and  N1_6 
REMARK    3  A    between atoms: N1_6  and  C4_8 
REMARK    4  A    between atoms: C5_11  and  N3_12 
REMARK    5  A    between atoms: C6_17  and  O3_18 
REMARK    6  A    between atoms: O3_18  and  C7_19 
REMARK    7  A    between atoms: C7_19  and  C8_20 
REMARK       I    between atoms: C8_20  and  N5_22 
REMARK    8  A    between atoms: C10_28  and  C11_29 
REMARK    9  A    between atoms: C11_29  and  N8_30 
REMARK   10  A    between atoms: C11_29  and  O6_34 
REMARK   11  A    between atoms: C12_36  and  N9_37 
REMARK   12  A    between atoms: C13_40  and  O9_41 
REMARK   13  A    between atoms: C14_43  and  O10_44 
REMARK   14  A    between atoms: C15_46  and  O11_47 
ROOT
HETATM    1  C4  UNL     1      34.516  39.350  50.869  1.00  0.00     0.156 A 
HETATM    2  N2  UNL     1      35.616  39.426  50.119  1.00  0.00    -0.174 N 
ATOM      3  H2  UNL     1      35.749  40.259  49.544  1.00  0.00     0.186 HD
HETATM    4  C5  UNL     1      36.575  38.452  50.075  1.00  0.00     0.679 A 
HETATM    5  N4  UNL     1      36.399  37.355  50.832  1.00  0.00    -0.168 N 
ATOM      6  H4  UNL     1      37.110  36.624  50.804  1.00  0.00     0.186 HD
HETATM    7  C6  UNL     1      35.331  37.182  51.621  1.00  0.00     0.195 A 
HETATM    8  C12 UNL     1      34.374  38.183  51.646  1.00  0.00     0.198 A 
ENDROOT
BRANCH   7   9
HETATM    9  O3  UNL     1      35.130  36.052  52.412  1.00  0.00    -0.324 OA
BRANCH   9  10
HETATM   10  C7  UNL     1      35.193  34.741  51.983  1.00  0.00     0.281 C 
BRANCH  10  11
HETATM   11  C8  UNL     1      36.480  34.079  52.253  1.00  0.00     0.262 C 
HETATM   12  O4  UNL     1      36.854  33.672  53.401  1.00  0.00    -0.269 OA
HETATM   13  N5  UNL     1      37.414  33.846  51.209  1.00  0.00    -0.225 N 
HETATM   14  N6  UNL     1      37.207  34.211  49.876  1.00  0.00    -0.014 NA
HETATM   15  C10 UNL     1      38.723  33.223  51.234  1.00  0.00     0.258 C 
HETATM   16  N7  UNL     1      38.452  34.815  49.584  1.00  0.00    -0.252 N 
HETATM   17  C9  UNL     1      39.479  34.156  50.337  1.00  0.00     0.263 C 
ATOM     18  H7  UNL     1      38.596  35.595  48.942  1.00  0.00     0.187 HD
HETATM   19  O5  UNL     1      40.717  34.306  50.276  1.00  0.00    -0.270 OA
BRANCH  15  20
HETATM   20  C11 UNL     1      38.695  31.826  50.656  1.00  0.00     0.350 C 
BRANCH  20  21
HETATM   21  N8  UNL     1      37.547  31.144  51.223  1.00  0.00    -0.051 N 
ATOM     22  H83 UNL     1      37.613  31.025  52.234  1.00  0.00     0.277 HD
ATOM     23  H82 UNL     1      36.700  31.713  51.211  1.00  0.00     0.277 HD
ATOM     24  H81 UNL     1      37.440  30.260  50.725  1.00  0.00     0.277 HD
ENDBRANCH  20  21
BRANCH  20  25
HETATM   25  O6  UNL     1      38.572  31.815  49.290  1.00  0.00    -0.368 OA
ATOM     26  H6  UNL     1      39.229  31.277  48.864  1.00  0.00     0.212 HD
ENDBRANCH  20  25
ENDBRANCH  15  20
ENDBRANCH  10  11
ENDBRANCH   9  10
ENDBRANCH   7   9
BRANCH   8  27
HETATM   27  N9  UNL     1      33.222  38.038  52.457  1.00  0.00    -0.107 N 
HETATM   28  O7  UNL     1      33.179  38.383  53.645  1.00  0.00    -0.531 OA
HETATM   29  O8  UNL     1      32.075  37.499  51.926  1.00  0.00    -0.531 OA
ENDBRANCH   8  27
BRANCH   4  30
HETATM   30  N3  UNL     1      37.609  38.615  49.316  1.00  0.00    -0.234 N 
ATOM     31  H32 UNL     1      38.480  39.021  49.657  1.00  0.00     0.174 HD
ATOM     32  H31 UNL     1      37.561  38.331  48.338  1.00  0.00     0.174 HD
ENDBRANCH   4  30
BRANCH   1  33
HETATM   33  N1  UNL     1      33.645  40.210  50.926  1.00  0.00    -0.345 N 
ATOM     34  H1  UNL     1      32.797  39.805  50.532  1.00  0.00     0.163 HD
BRANCH  33  35
HETATM   35  C3  UNL     1      33.337  41.511  51.306  1.00  0.00     0.257 C 
HETATM   36  O2  UNL     1      32.612  42.200  50.299  1.00  0.00    -0.332 OA
HETATM   37  C2  UNL     1      31.247  41.923  50.353  1.00  0.00     0.293 C 
HETATM   38  C15 UNL     1      30.656  42.459  51.654  1.00  0.00     0.204 C 
HETATM   39  C14 UNL     1      31.797  42.953  52.546  1.00  0.00     0.184 C 
HETATM   40  C13 UNL     1      32.758  41.746  52.656  1.00  0.00     0.198 C 
BRANCH  37  41
HETATM   41  O1  UNL     1      30.934  40.588  50.169  1.00  0.00    -0.363 OA
HETATM   42  C1  UNL     1      29.960  40.482  49.187  1.00  0.00     0.204 C 
ENDBRANCH  37  41
BRANCH  38  43
HETATM   43  O11 UNL     1      30.043  41.395  52.308  1.00  0.00    -0.388 OA
ATOM     44  H11 UNL     1      29.376  41.755  52.881  1.00  0.00     0.210 HD
ENDBRANCH  38  43
BRANCH  39  45
HETATM   45  O10 UNL     1      32.494  43.961  51.886  1.00  0.00    -0.390 OA
ATOM     46  H10 UNL     1      33.412  43.719  51.909  1.00  0.00     0.210 HD
ENDBRANCH  39  45
BRANCH  40  47
HETATM   47  O9  UNL     1      33.751  42.215  53.538  1.00  0.00    -0.389 OA
ATOM     48  H9  UNL     1      34.406  41.543  53.684  1.00  0.00     0.210 HD
ENDBRANCH  40  47
ENDBRANCH  33  35
ENDBRANCH   1  33
TORSDOF 14
ENDMDL
