MODEL 1
REMARK VINA RESULT: -6.577083251      0.000      0.000
REMARK  9 active torsions:
REMARK  status: ('A' for Active; 'I' for Inactive)
REMARK    1  A    between atoms: C2_2  and  C3_3 
REMARK    2  A    between atoms: C3_3  and  C4_4 
REMARK    3  A    between atoms: C12_13  and  O2_14 
REMARK    4  A    between atoms: O2_14  and  C13_15 
REMARK    5  A    between atoms: C13_15  and  C14_17 
REMARK    6  A    between atoms: C18_21  and  O4_22 
REMARK    7  A    between atoms: O4_22  and  C19_23 
REMARK    8  A    between atoms: C22_27  and  O6_28 
REMARK    9  A    between atoms: C26_33  and  O7_34 
ROOT
HETATM    1  C4  UNL     1      86.977  45.693 266.722  1.00  0.00     0.134 C 
HETATM    2  O1  UNL     1      87.884  45.443 267.774  1.00  0.00    -0.371 OA
HETATM    3  C5  UNL     1      87.764  44.263 268.424  1.00  0.00     0.092 C 
HETATM    4  C6  UNL     1      88.550  44.415 269.734  1.00  0.00     0.068 C 
HETATM    5  C7  UNL     1      89.976  44.792 269.403  1.00  0.00    -0.021 C 
HETATM    6  C8  UNL     1      90.593  43.930 268.597  1.00  0.00    -0.087 C 
HETATM    7  C9  UNL     1      92.002  44.147 268.168  1.00  0.00     0.043 C 
HETATM    8  C10 UNL     1      89.779  42.763 268.171  1.00  0.00     0.036 C 
HETATM    9  C11 UNL     1      88.407  43.104 267.690  1.00  0.00     0.045 C 
HETATM   10  C12 UNL     1      86.321  43.916 268.853  1.00  0.00     0.176 C 
HETATM   11  C16 UNL     1      85.533  44.077 267.627  1.00  0.00     0.064 C 
HETATM   12  C17 UNL     1      84.229  43.561 267.370  1.00  0.00    -0.027 C 
HETATM   13  C18 UNL     1      83.818  42.206 267.579  1.00  0.00     0.081 C 
HETATM   14  C21 UNL     1      82.502  42.153 267.437  1.00  0.00     0.043 C 
HETATM   15  C22 UNL     1      81.969  43.527 267.115  1.00  0.00     0.156 C 
HETATM   16  C23 UNL     1      83.037  44.345 267.872  1.00  0.00     0.014 C 
HETATM   17  C24 UNL     1      82.678  44.161 269.286  1.00  0.00     0.023 C 
HETATM   18  C25 UNL     1      83.208  45.706 267.327  1.00  0.00     0.049 C 
HETATM   19  C26 UNL     1      84.447  45.906 266.454  1.00  0.00     0.130 C 
HETATM   20  C27 UNL     1      85.631  45.586 267.295  1.00  0.00     0.018 C 
HETATM   21  C28 UNL     1      85.594  46.489 268.468  1.00  0.00     0.021 C 
ENDROOT
BRANCH  10  22
HETATM   22  O2  UNL     1      86.348  42.653 269.453  1.00  0.00    -0.312 OA
BRANCH  22  23
HETATM   23  C13 UNL     1      86.008  42.434 270.807  1.00  0.00     0.258 C 
HETATM   24  O3  UNL     1      84.956  42.920 271.265  1.00  0.00    -0.265 OA
BRANCH  23  25
HETATM   25  C14 UNL     1      86.921  41.628 271.637  1.00  0.00     0.106 C 
HETATM   26  C15 UNL     1      87.832  40.830 270.712  1.00  0.00     0.015 C 
ENDBRANCH  23  25
ENDBRANCH  22  23
ENDBRANCH  10  22
BRANCH   1  27
HETATM   27  C3  UNL     1      87.457  46.842 265.969  1.00  0.00     0.032 C 
BRANCH  27  28
HETATM   28  C2  UNL     1      88.802  47.415 266.328  1.00  0.00    -0.002 C 
HETATM   29  C1  UNL     1      89.774  47.044 265.189  1.00  0.00     0.005 C 
ENDBRANCH  27  28
ENDBRANCH   1  27
BRANCH  19  30
HETATM   30  O7  UNL     1      84.366  47.304 266.185  1.00  0.00    -0.395 OA
ATOM     31  H7  UNL     1      85.277  47.506 266.006  1.00  0.00     0.210 HD
ENDBRANCH  19  30
BRANCH  13  32
HETATM   32  O4  UNL     1      84.582  41.100 267.873  1.00  0.00    -0.279 OA
BRANCH  32  33
HETATM   33  C19 UNL     1      85.319  40.372 266.988  1.00  0.00     0.260 C 
HETATM   34  C20 UNL     1      84.729  39.819 265.726  1.00  0.00     0.126 C 
HETATM   35  O5  UNL     1      86.532  40.163 267.248  1.00  0.00    -0.265 OA
ENDBRANCH  32  33
ENDBRANCH  13  32
BRANCH  15  36
HETATM   36  O6  UNL     1      82.043  43.797 265.770  1.00  0.00    -0.391 OA
ATOM     37  H6  UNL     1      81.221  43.615 265.329  1.00  0.00     0.210 HD
ENDBRANCH  15  36
TORSDOF 9
ENDMDL
MODEL 2
REMARK VINA RESULT: -6.467777141      2.102      6.130
REMARK  9 active torsions:
REMARK  status: ('A' for Active; 'I' for Inactive)
REMARK    1  A    between atoms: C2_2  and  C3_3 
REMARK    2  A    between atoms: C3_3  and  C4_4 
REMARK    3  A    between atoms: C12_13  and  O2_14 
REMARK    4  A    between atoms: O2_14  and  C13_15 
REMARK    5  A    between atoms: C13_15  and  C14_17 
REMARK    6  A    between atoms: C18_21  and  O4_22 
REMARK    7  A    between atoms: O4_22  and  C19_23 
REMARK    8  A    between atoms: C22_27  and  O6_28 
REMARK    9  A    between atoms: C26_33  and  O7_34 
ROOT
HETATM    1  C4  UNL     1      87.400  45.032 268.271  1.00  0.00     0.134 C 
HETATM    2  O1  UNL     1      86.420  44.075 267.932  1.00  0.00    -0.371 OA
HETATM    3  C5  UNL     1      86.285  43.012 268.758  1.00  0.00     0.092 C 
HETATM    4  C6  UNL     1      85.489  41.959 267.972  1.00  0.00     0.068 C 
HETATM    5  C7  UNL     1      84.177  42.568 267.537  1.00  0.00    -0.021 C 
HETATM    6  C8  UNL     1      83.440  43.046 268.538  1.00  0.00    -0.087 C 
HETATM    7  C9  UNL     1      82.117  43.681 268.288  1.00  0.00     0.043 C 
HETATM    8  C10 UNL     1      84.033  42.895 269.892  1.00  0.00     0.036 C 
HETATM    9  C11 UNL     1      85.463  43.311 269.994  1.00  0.00     0.045 C 
HETATM   10  C12 UNL     1      87.617  42.322 269.131  1.00  0.00     0.176 C 
HETATM   11  C16 UNL     1      88.470  43.418 269.599  1.00  0.00     0.064 C 
HETATM   12  C17 UNL     1      89.661  43.307 270.376  1.00  0.00    -0.027 C 
HETATM   13  C18 UNL     1      89.796  42.549 271.582  1.00  0.00     0.081 C 
HETATM   14  C21 UNL     1      91.082  42.510 271.896  1.00  0.00     0.043 C 
HETATM   15  C22 UNL     1      91.881  43.273 270.869  1.00  0.00     0.156 C 
HETATM   16  C23 UNL     1      90.959  43.015 269.658  1.00  0.00     0.014 C 
HETATM   17  C24 UNL     1      91.218  41.607 269.317  1.00  0.00     0.023 C 
HETATM   18  C25 UNL     1      91.074  44.056 268.619  1.00  0.00     0.049 C 
HETATM   19  C26 UNL     1      89.932  45.073 268.589  1.00  0.00     0.130 C 
HETATM   20  C27 UNL     1      88.676  44.314 268.353  1.00  0.00     0.018 C 
HETATM   21  C28 UNL     1      88.837  43.582 267.075  1.00  0.00     0.021 C 
ENDROOT
BRANCH  10  22
HETATM   22  O2  UNL     1      87.324  41.290 270.027  1.00  0.00    -0.312 OA
BRANCH  22  23
HETATM   23  C13 UNL     1      87.725  39.951 269.821  1.00  0.00     0.258 C 
HETATM   24  O3  UNL     1      87.869  39.523 268.660  1.00  0.00    -0.265 OA
BRANCH  23  25
HETATM   25  C14 UNL     1      87.961  39.100 271.001  1.00  0.00     0.106 C 
HETATM   26  C15 UNL     1      89.442  38.745 271.047  1.00  0.00     0.015 C 
ENDBRANCH  23  25
ENDBRANCH  22  23
ENDBRANCH  10  22
BRANCH   1  27
HETATM   27  C3  UNL     1      87.180  46.218 267.456  1.00  0.00     0.032 C 
BRANCH  27  28
HETATM   28  C2  UNL     1      86.212  46.121 266.307  1.00  0.00    -0.002 C 
HETATM   29  C1  UNL     1      87.014  46.370 265.014  1.00  0.00     0.005 C 
ENDBRANCH  27  28
ENDBRANCH   1  27
BRANCH  19  30
HETATM   30  O7  UNL     1      90.290  45.848 267.446  1.00  0.00    -0.395 OA
ATOM     31  H7  UNL     1      90.754  46.568 267.856  1.00  0.00     0.210 HD
ENDBRANCH  19  30
BRANCH  13  32
HETATM   32  O4  UNL     1      88.824  41.941 272.341  1.00  0.00    -0.279 OA
BRANCH  32  33
HETATM   33  C19 UNL     1      87.849  42.570 273.056  1.00  0.00     0.260 C 
HETATM   34  C20 UNL     1      86.683  41.827 273.636  1.00  0.00     0.126 C 
HETATM   35  O5  UNL     1      87.940  43.813 273.229  1.00  0.00    -0.265 OA
ENDBRANCH  32  33
ENDBRANCH  13  32
BRANCH  15  36
HETATM   36  O6  UNL     1      91.915  44.617 271.149  1.00  0.00    -0.391 OA
ATOM     37  H6  UNL     1      92.798  44.963 271.103  1.00  0.00     0.210 HD
ENDBRANCH  15  36
TORSDOF 9
ENDMDL
MODEL 3
REMARK VINA RESULT: -6.436912587      2.498      6.140
REMARK  9 active torsions:
REMARK  status: ('A' for Active; 'I' for Inactive)
REMARK    1  A    between atoms: C2_2  and  C3_3 
REMARK    2  A    between atoms: C3_3  and  C4_4 
REMARK    3  A    between atoms: C12_13  and  O2_14 
REMARK    4  A    between atoms: O2_14  and  C13_15 
REMARK    5  A    between atoms: C13_15  and  C14_17 
REMARK    6  A    between atoms: C18_21  and  O4_22 
REMARK    7  A    between atoms: O4_22  and  C19_23 
REMARK    8  A    between atoms: C22_27  and  O6_28 
REMARK    9  A    between atoms: C26_33  and  O7_34 
ROOT
HETATM    1  C4  UNL     1      91.141  44.784 269.688  1.00  0.00     0.134 C 
HETATM    2  O1  UNL     1      91.774  45.295 268.535  1.00  0.00    -0.371 OA
HETATM    3  C5  UNL     1      91.002  45.979 267.660  1.00  0.00     0.092 C 
HETATM    4  C6  UNL     1      91.803  46.053 266.351  1.00  0.00     0.068 C 
HETATM    5  C7  UNL     1      93.136  46.707 266.635  1.00  0.00    -0.021 C 
HETATM    6  C8  UNL     1      93.041  47.917 267.184  1.00  0.00    -0.087 C 
HETATM    7  C9  UNL     1      94.257  48.705 267.530  1.00  0.00     0.043 C 
HETATM    8  C10 UNL     1      91.657  48.405 267.416  1.00  0.00     0.036 C 
HETATM    9  C11 UNL     1      90.752  47.414 268.072  1.00  0.00     0.045 C 
HETATM   10  C12 UNL     1      89.680  45.270 267.288  1.00  0.00     0.176 C 
HETATM   11  C16 UNL     1      89.076  44.937 268.581  1.00  0.00     0.064 C 
HETATM   12  C17 UNL     1      87.714  44.592 268.829  1.00  0.00    -0.027 C 
HETATM   13  C18 UNL     1      86.576  45.329 268.370  1.00  0.00     0.081 C 
HETATM   14  C21 UNL     1      85.497  44.599 268.607  1.00  0.00     0.043 C 
HETATM   15  C22 UNL     1      85.894  43.297 269.259  1.00  0.00     0.156 C 
HETATM   16  C23 UNL     1      87.287  43.158 268.609  1.00  0.00     0.014 C 
HETATM   17  C24 UNL     1      86.987  42.769 267.223  1.00  0.00     0.023 C 
HETATM   18  C25 UNL     1      88.217  42.345 269.417  1.00  0.00     0.049 C 
HETATM   19  C26 UNL     1      89.258  43.140 270.205  1.00  0.00     0.130 C 
HETATM   20  C27 UNL     1      90.053  43.919 269.220  1.00  0.00     0.018 C 
HETATM   21  C28 UNL     1      90.654  42.950 268.274  1.00  0.00     0.021 C 
ENDROOT
BRANCH  10  22
HETATM   22  O2  UNL     1      88.970  46.116 266.431  1.00  0.00    -0.312 OA
BRANCH  22  23
HETATM   23  C13 UNL     1      88.492  45.709 265.166  1.00  0.00     0.258 C 
HETATM   24  O3  UNL     1      89.009  44.729 264.597  1.00  0.00    -0.265 OA
BRANCH  23  25
HETATM   25  C14 UNL     1      87.384  46.468 264.558  1.00  0.00     0.106 C 
HETATM   26  C15 UNL     1      87.478  46.324 263.044  1.00  0.00     0.015 C 
ENDBRANCH  23  25
ENDBRANCH  22  23
ENDBRANCH  10  22
BRANCH   1  27
HETATM   27  C3  UNL     1      92.172  44.366 270.627  1.00  0.00     0.032 C 
BRANCH  27  28
HETATM   28  C2  UNL     1      91.920  44.574 272.097  1.00  0.00    -0.002 C 
HETATM   29  C1  UNL     1      93.004  43.787 272.861  1.00  0.00     0.005 C 
ENDBRANCH  27  28
ENDBRANCH   1  27
BRANCH  19  30
HETATM   30  O7  UNL     1      90.031  42.084 270.774  1.00  0.00    -0.395 OA
ATOM     31  H7  UNL     1      90.517  41.788 270.014  1.00  0.00     0.210 HD
ENDBRANCH  19  30
BRANCH  13  32
HETATM   32  O4  UNL     1      86.523  46.571 267.784  1.00  0.00    -0.279 OA
BRANCH  32  33
HETATM   33  C19 UNL     1      85.424  47.371 267.690  1.00  0.00     0.260 C 
HETATM   34  C20 UNL     1      84.398  47.190 266.612  1.00  0.00     0.126 C 
HETATM   35  O5  UNL     1      85.274  48.286 268.540  1.00  0.00    -0.265 OA
ENDBRANCH  32  33
ENDBRANCH  13  32
BRANCH  15  36
HETATM   36  O6  UNL     1      86.028  43.433 270.620  1.00  0.00    -0.391 OA
ATOM     37  H6  UNL     1      86.878  43.786 270.855  1.00  0.00     0.210 HD
ENDBRANCH  15  36
TORSDOF 9
ENDMDL
MODEL 4
REMARK VINA RESULT: -5.881862767      2.702      6.861
REMARK  9 active torsions:
REMARK  status: ('A' for Active; 'I' for Inactive)
REMARK    1  A    between atoms: C2_2  and  C3_3 
REMARK    2  A    between atoms: C3_3  and  C4_4 
REMARK    3  A    between atoms: C12_13  and  O2_14 
REMARK    4  A    between atoms: O2_14  and  C13_15 
REMARK    5  A    between atoms: C13_15  and  C14_17 
REMARK    6  A    between atoms: C18_21  and  O4_22 
REMARK    7  A    between atoms: O4_22  and  C19_23 
REMARK    8  A    between atoms: C22_27  and  O6_28 
REMARK    9  A    between atoms: C26_33  and  O7_34 
ROOT
HETATM    1  C4  UNL     1      86.300  43.083 269.884  1.00  0.00     0.134 C 
HETATM    2  O1  UNL     1      86.238  41.797 270.461  1.00  0.00    -0.371 OA
HETATM    3  C5  UNL     1      87.308  41.395 271.185  1.00  0.00     0.092 C 
HETATM    4  C6  UNL     1      87.173  39.872 271.337  1.00  0.00     0.068 C 
HETATM    5  C7  UNL     1      85.843  39.566 271.985  1.00  0.00    -0.021 C 
HETATM    6  C8  UNL     1      85.663  40.162 273.163  1.00  0.00    -0.087 C 
HETATM    7  C9  UNL     1      84.407  39.969 273.941  1.00  0.00     0.043 C 
HETATM    8  C10 UNL     1      86.790  41.011 273.626  1.00  0.00     0.036 C 
HETATM    9  C11 UNL     1      87.325  41.949 272.594  1.00  0.00     0.045 C 
HETATM   10  C12 UNL     1      88.669  41.615 270.486  1.00  0.00     0.176 C 
HETATM   11  C16 UNL     1      88.639  43.023 270.079  1.00  0.00     0.064 C 
HETATM   12  C17 UNL     1      89.753  43.834 269.710  1.00  0.00    -0.027 C 
HETATM   13  C18 UNL     1      90.964  43.969 270.461  1.00  0.00     0.081 C 
HETATM   14  C21 UNL     1      91.837  44.623 269.711  1.00  0.00     0.043 C 
HETATM   15  C22 UNL     1      91.213  44.962 268.379  1.00  0.00     0.156 C 
HETATM   16  C23 UNL     1      90.258  43.752 268.287  1.00  0.00     0.014 C 
HETATM   17  C24 UNL     1      91.151  42.627 267.970  1.00  0.00     0.023 C 
HETATM   18  C25 UNL     1      89.079  44.017 267.439  1.00  0.00     0.049 C 
HETATM   19  C26 UNL     1      87.782  44.299 268.199  1.00  0.00     0.130 C 
HETATM   20  C27 UNL     1      87.497  43.105 269.037  1.00  0.00     0.018 C 
HETATM   21  C28 UNL     1      87.396  41.942 268.125  1.00  0.00     0.021 C 
ENDROOT
BRANCH  10  22
HETATM   22  O2  UNL     1      89.672  41.210 271.372  1.00  0.00    -0.312 OA
BRANCH  22  23
HETATM   23  C13 UNL     1      90.684  40.288 271.022  1.00  0.00     0.258 C 
HETATM   24  O3  UNL     1      90.626  39.693 269.929  1.00  0.00    -0.265 OA
BRANCH  23  25
HETATM   25  C14 UNL     1      91.786  40.062 271.975  1.00  0.00     0.106 C 
HETATM   26  C15 UNL     1      91.287  40.399 273.374  1.00  0.00     0.015 C 
ENDBRANCH  23  25
ENDBRANCH  22  23
ENDBRANCH  10  22
BRANCH   1  27
HETATM   27  C3  UNL     1      84.966  43.442 269.425  1.00  0.00     0.032 C 
BRANCH  27  28
HETATM   28  C2  UNL     1      83.914  43.739 270.460  1.00  0.00    -0.002 C 
HETATM   29  C1  UNL     1      83.179  45.017 270.009  1.00  0.00     0.005 C 
ENDBRANCH  27  28
ENDBRANCH   1  27
BRANCH  19  30
HETATM   30  O7  UNL     1      86.855  44.409 267.121  1.00  0.00    -0.395 OA
ATOM     31  H7  UNL     1      86.565  45.307 267.223  1.00  0.00     0.210 HD
ENDBRANCH  19  30
BRANCH  13  32
HETATM   32  O4  UNL     1      91.253  43.533 271.733  1.00  0.00    -0.279 OA
BRANCH  32  33
HETATM   33  C19 UNL     1      91.035  44.220 272.889  1.00  0.00     0.260 C 
HETATM   34  C20 UNL     1      92.095  45.070 273.521  1.00  0.00     0.126 C 
HETATM   35  O5  UNL     1      89.905  44.132 273.434  1.00  0.00    -0.265 OA
ENDBRANCH  32  33
ENDBRANCH  13  32
BRANCH  15  36
HETATM   36  O6  UNL     1      90.484  46.125 268.442  1.00  0.00    -0.391 OA
ATOM     37  H6  UNL     1      89.569  45.977 268.234  1.00  0.00     0.210 HD
ENDBRANCH  15  36
TORSDOF 9
ENDMDL
MODEL 5
REMARK VINA RESULT: -5.768963506      5.709      9.943
REMARK  9 active torsions:
REMARK  status: ('A' for Active; 'I' for Inactive)
REMARK    1  A    between atoms: C2_2  and  C3_3 
REMARK    2  A    between atoms: C3_3  and  C4_4 
REMARK    3  A    between atoms: C12_13  and  O2_14 
REMARK    4  A    between atoms: O2_14  and  C13_15 
REMARK    5  A    between atoms: C13_15  and  C14_17 
REMARK    6  A    between atoms: C18_21  and  O4_22 
REMARK    7  A    between atoms: O4_22  and  C19_23 
REMARK    8  A    between atoms: C22_27  and  O6_28 
REMARK    9  A    between atoms: C26_33  and  O7_34 
ROOT
HETATM    1  C4  UNL     1      91.056  40.410 270.985  1.00  0.00     0.134 C 
HETATM    2  O1  UNL     1      90.235  41.545 270.818  1.00  0.00    -0.371 OA
HETATM    3  C5  UNL     1      90.741  42.734 271.219  1.00  0.00     0.092 C 
HETATM    4  C6  UNL     1      89.545  43.694 271.319  1.00  0.00     0.068 C 
HETATM    5  C7  UNL     1      88.848  43.743 269.980  1.00  0.00    -0.021 C 
HETATM    6  C8  UNL     1      89.638  44.100 268.969  1.00  0.00    -0.087 C 
HETATM    7  C9  UNL     1      89.115  44.199 267.578  1.00  0.00     0.043 C 
HETATM    8  C10 UNL     1      91.049  44.386 269.334  1.00  0.00     0.036 C 
HETATM    9  C11 UNL     1      91.684  43.357 270.211  1.00  0.00     0.045 C 
HETATM   10  C12 UNL     1      91.369  42.717 272.630  1.00  0.00     0.176 C 
HETATM   11  C16 UNL     1      92.298  41.583 272.595  1.00  0.00     0.064 C 
HETATM   12  C17 UNL     1      93.374  41.327 273.496  1.00  0.00    -0.027 C 
HETATM   13  C18 UNL     1      94.379  42.272 273.876  1.00  0.00     0.081 C 
HETATM   14  C21 UNL     1      95.071  41.748 274.877  1.00  0.00     0.043 C 
HETATM   15  C22 UNL     1      94.530  40.380 275.211  1.00  0.00     0.156 C 
HETATM   16  C23 UNL     1      93.062  40.634 274.804  1.00  0.00     0.014 C 
HETATM   17  C24 UNL     1      92.543  41.482 275.887  1.00  0.00     0.023 C 
HETATM   18  C25 UNL     1      92.350  39.397 274.431  1.00  0.00     0.049 C 
HETATM   19  C26 UNL     1      92.165  39.181 272.928  1.00  0.00     0.130 C 
HETATM   20  C27 UNL     1      91.392  40.341 272.411  1.00  0.00     0.018 C 
HETATM   21  C28 UNL     1      90.111  40.383 273.154  1.00  0.00     0.021 C 
ENDROOT
BRANCH  10  22
HETATM   22  O2  UNL     1      91.896  43.988 272.877  1.00  0.00    -0.312 OA
BRANCH  22  23
HETATM   23  C13 UNL     1      91.567  44.752 274.019  1.00  0.00     0.258 C 
HETATM   24  O3  UNL     1      90.760  44.298 274.854  1.00  0.00    -0.265 OA
BRANCH  23  25
HETATM   25  C14 UNL     1      92.199  46.073 274.185  1.00  0.00     0.106 C 
HETATM   26  C15 UNL     1      92.473  46.291 275.667  1.00  0.00     0.015 C 
ENDBRANCH  23  25
ENDBRANCH  22  23
ENDBRANCH  10  22
BRANCH   1  27
HETATM   27  C3  UNL     1      90.473  39.311 270.227  1.00  0.00     0.032 C 
BRANCH  27  28
HETATM   28  C2  UNL     1      89.022  39.407 269.839  1.00  0.00    -0.002 C 
HETATM   29  C1  UNL     1      88.269  38.309 270.618  1.00  0.00     0.005 C 
ENDBRANCH  27  28
ENDBRANCH   1  27
BRANCH  19  30
HETATM   30  O7  UNL     1      91.380  37.991 272.920  1.00  0.00    -0.395 OA
ATOM     31  H7  UNL     1      90.649  38.261 272.377  1.00  0.00     0.210 HD
ENDBRANCH  19  30
BRANCH  13  32
HETATM   32  O4  UNL     1      94.648  43.514 273.353  1.00  0.00    -0.279 OA
BRANCH  32  33
HETATM   33  C19 UNL     1      95.744  44.279 273.617  1.00  0.00     0.260 C 
HETATM   34  C20 UNL     1      97.051  44.066 272.916  1.00  0.00     0.126 C 
HETATM   35  O5  UNL     1      95.644  45.191 274.478  1.00  0.00    -0.265 OA
ENDBRANCH  32  33
ENDBRANCH  13  32
BRANCH  15  36
HETATM   36  O6  UNL     1      95.074  39.409 274.404  1.00  0.00    -0.391 OA
ATOM     37  H6  UNL     1      95.693  39.776 273.784  1.00  0.00     0.210 HD
ENDBRANCH  15  36
TORSDOF 9
ENDMDL
