MODEL 1
REMARK VINA RESULT: -7.089571257      0.000      0.000
REMARK  7 active torsions:
REMARK  status: ('A' for Active; 'I' for Inactive)
REMARK    1  A    between atoms: C4_4  and  C5_5 
REMARK    2  A    between atoms: C5_5  and  C7_7 
REMARK    3  A    between atoms: C7_7  and  C8_8 
REMARK    4  A    between atoms: C14_16  and  O3_17 
REMARK    5  A    between atoms: C16_20  and  O4_21 
REMARK    6  A    between atoms: C24_31  and  O6_32 
REMARK    7  A    between atoms: O6_32  and  C25_33 
ROOT
HETATM    1  C1  UNL     1      86.438  46.585 265.314  1.00  0.00     0.022 C 
HETATM    2  C2  UNL     1      87.221  46.350 266.341  1.00  0.00    -0.018 C 
HETATM    3  C3  UNL     1      86.813  46.886 267.659  1.00  0.00     0.056 C 
HETATM    4  C4  UNL     1      85.842  46.073 268.413  1.00  0.00     0.093 C 
HETATM    5  C10 UNL     1      85.879  44.622 268.110  1.00  0.00     0.263 C 
HETATM    6  O1  UNL     1      85.373  44.246 267.019  1.00  0.00    -0.265 OA
HETATM    7  O2  UNL     1      86.417  43.659 268.914  1.00  0.00    -0.321 OA
HETATM    8  C11 UNL     1      86.629  43.724 270.288  1.00  0.00     0.185 C 
HETATM    9  C12 UNL     1      86.815  42.326 270.894  1.00  0.00     0.035 C 
HETATM   10  C13 UNL     1      85.677  41.430 270.516  1.00  0.00     0.015 C 
HETATM   11  C14 UNL     1      86.881  42.471 272.377  1.00  0.00     0.126 C 
HETATM   12  C15 UNL     1      88.266  42.948 272.833  1.00  0.00     0.068 C 
HETATM   13  C16 UNL     1      89.307  41.877 272.636  1.00  0.00     0.149 C 
HETATM   14  C17 UNL     1      90.670  42.488 272.411  1.00  0.00    -0.061 C 
HETATM   15  C18 UNL     1      91.449  42.756 273.432  1.00  0.00     0.017 C 
HETATM   16  C19 UNL     1      91.091  42.770 271.035  1.00  0.00     0.036 C 
HETATM   17  C20 UNL     1      91.116  44.279 270.751  1.00  0.00     0.007 C 
HETATM   18  C21 UNL     1      91.816  44.482 269.451  1.00  0.00     0.035 C 
HETATM   19  C22 UNL     1      91.005  44.243 268.230  1.00  0.00     0.154 A 
HETATM   20  O5  UNL     1      89.752  43.701 268.266  1.00  0.00    -0.372 OA
HETATM   21  C23 UNL     1      89.743  45.075 268.151  1.00  0.00     0.187 A 
HETATM   22  C24 UNL     1      89.721  45.734 266.803  1.00  0.00     0.227 C 
HETATM   23  C28 UNL     1      88.429  45.576 266.094  1.00  0.00     0.186 C 
HETATM   24  O7  UNL     1      88.432  44.665 265.194  1.00  0.00    -0.290 OA
ENDROOT
BRANCH   4  25
HETATM   25  C5  UNL     1      84.417  46.581 268.383  1.00  0.00    -0.005 C 
HETATM   26  C6  UNL     1      83.684  46.021 269.607  1.00  0.00     0.011 C 
BRANCH  25  27
HETATM   27  C7  UNL     1      84.364  48.083 268.563  1.00  0.00     0.005 C 
BRANCH  27  28
HETATM   28  C8  UNL     1      83.656  48.436 269.864  1.00  0.00    -0.004 C 
HETATM   29  C9  UNL     1      83.263  49.914 269.762  1.00  0.00     0.005 C 
ENDBRANCH  27  28
ENDBRANCH  25  27
ENDBRANCH   4  25
BRANCH  22  30
HETATM   30  O6  UNL     1      89.877  47.115 267.054  1.00  0.00    -0.371 OA
BRANCH  30  31
HETATM   31  C25 UNL     1      91.027  47.614 266.485  1.00  0.00     0.114 C 
HETATM   32  C26 UNL     1      91.240  49.010 267.032  1.00  0.00     0.039 C 
HETATM   33  C27 UNL     1      90.930  47.748 264.982  1.00  0.00     0.039 C 
ENDBRANCH  30  31
ENDBRANCH  22  30
BRANCH  11  34
HETATM   34  O3  UNL     1      86.715  41.209 272.943  1.00  0.00    -0.395 OA
ATOM     35  H3  UNL     1      86.227  41.310 273.752  1.00  0.00     0.210 HD
ENDBRANCH  11  34
BRANCH  13  36
HETATM   36  O4  UNL     1      89.380  41.145 273.835  1.00  0.00    -0.391 OA
ATOM     37  H4  UNL     1      89.986  41.604 274.406  1.00  0.00     0.210 HD
ENDBRANCH  13  36
TORSDOF 7
ENDMDL
MODEL 2
REMARK VINA RESULT: -6.636201657      0.775      1.178
REMARK  7 active torsions:
REMARK  status: ('A' for Active; 'I' for Inactive)
REMARK    1  A    between atoms: C4_4  and  C5_5 
REMARK    2  A    between atoms: C5_5  and  C7_7 
REMARK    3  A    between atoms: C7_7  and  C8_8 
REMARK    4  A    between atoms: C14_16  and  O3_17 
REMARK    5  A    between atoms: C16_20  and  O4_21 
REMARK    6  A    between atoms: C24_31  and  O6_32 
REMARK    7  A    between atoms: O6_32  and  C25_33 
ROOT
HETATM    1  C1  UNL     1      86.873  46.358 265.370  1.00  0.00     0.022 C 
HETATM    2  C2  UNL     1      87.563  46.128 266.463  1.00  0.00    -0.018 C 
HETATM    3  C3  UNL     1      87.044  46.675 267.736  1.00  0.00     0.056 C 
HETATM    4  C4  UNL     1      86.007  45.871 268.409  1.00  0.00     0.093 C 
HETATM    5  C10 UNL     1      86.065  44.418 268.121  1.00  0.00     0.263 C 
HETATM    6  O1  UNL     1      85.655  44.035 266.994  1.00  0.00    -0.265 OA
HETATM    7  O2  UNL     1      86.527  43.460 268.977  1.00  0.00    -0.321 OA
HETATM    8  C11 UNL     1      86.619  43.534 270.363  1.00  0.00     0.185 C 
HETATM    9  C12 UNL     1      86.745  42.140 270.994  1.00  0.00     0.035 C 
HETATM   10  C13 UNL     1      85.641  41.245 270.524  1.00  0.00     0.015 C 
HETATM   11  C14 UNL     1      86.683  42.297 272.476  1.00  0.00     0.126 C 
HETATM   12  C15 UNL     1      88.025  42.772 273.047  1.00  0.00     0.068 C 
HETATM   13  C16 UNL     1      89.075  41.696 272.949  1.00  0.00     0.149 C 
HETATM   14  C17 UNL     1      90.454  42.300 272.839  1.00  0.00    -0.061 C 
HETATM   15  C18 UNL     1      91.143  42.573 273.921  1.00  0.00     0.017 C 
HETATM   16  C19 UNL     1      90.995  42.571 271.503  1.00  0.00     0.036 C 
HETATM   17  C20 UNL     1      91.051  44.077 271.211  1.00  0.00     0.007 C 
HETATM   18  C21 UNL     1      91.862  44.267 269.976  1.00  0.00     0.035 C 
HETATM   19  C22 UNL     1      91.159  44.022 268.690  1.00  0.00     0.154 A 
HETATM   20  O5  UNL     1      89.906  43.485 268.621  1.00  0.00    -0.372 OA
HETATM   21  C23 UNL     1      89.912  44.857 268.495  1.00  0.00     0.187 A 
HETATM   22  C24 UNL     1      90.011  45.507 267.146  1.00  0.00     0.227 C 
HETATM   23  C28 UNL     1      88.785  45.347 266.328  1.00  0.00     0.186 C 
HETATM   24  O7  UNL     1      88.862  44.429 265.439  1.00  0.00    -0.290 OA
ENDROOT
BRANCH   4  25
HETATM   25  C5  UNL     1      84.593  46.385 268.251  1.00  0.00    -0.005 C 
HETATM   26  C6  UNL     1      83.853  46.158 269.574  1.00  0.00     0.011 C 
BRANCH  25  27
HETATM   27  C7  UNL     1      84.570  47.885 268.056  1.00  0.00     0.005 C 
BRANCH  27  28
HETATM   28  C8  UNL     1      83.987  48.233 266.693  1.00  0.00    -0.004 C 
HETATM   29  C9  UNL     1      83.465  46.924 266.091  1.00  0.00     0.005 C 
ENDBRANCH  27  28
ENDBRANCH  25  27
ENDBRANCH   4  25
BRANCH  22  30
HETATM   30  O6  UNL     1      90.150  46.888 267.400  1.00  0.00    -0.371 OA
BRANCH  30  31
HETATM   31  C25 UNL     1      90.999  47.493 266.500  1.00  0.00     0.114 C 
HETATM   32  C26 UNL     1      92.377  46.900 266.699  1.00  0.00     0.039 C 
HETATM   33  C27 UNL     1      91.132  48.983 266.726  1.00  0.00     0.039 C 
ENDBRANCH  30  31
ENDBRANCH  22  30
BRANCH  11  34
HETATM   34  O3  UNL     1      86.463  41.039 273.034  1.00  0.00    -0.395 OA
ATOM     35  H3  UNL     1      87.221  40.814 273.560  1.00  0.00     0.210 HD
ENDBRANCH  11  34
BRANCH  13  36
HETATM   36  O4  UNL     1      89.040  40.973 274.156  1.00  0.00    -0.391 OA
ATOM     37  H4  UNL     1      88.193  40.546 274.201  1.00  0.00     0.210 HD
ENDBRANCH  13  36
TORSDOF 7
ENDMDL
MODEL 3
REMARK VINA RESULT: -6.473399275      2.471      5.419
REMARK  7 active torsions:
REMARK  status: ('A' for Active; 'I' for Inactive)
REMARK    1  A    between atoms: C4_4  and  C5_5 
REMARK    2  A    between atoms: C5_5  and  C7_7 
REMARK    3  A    between atoms: C7_7  and  C8_8 
REMARK    4  A    between atoms: C14_16  and  O3_17 
REMARK    5  A    between atoms: C16_20  and  O4_21 
REMARK    6  A    between atoms: C24_31  and  O6_32 
REMARK    7  A    between atoms: O6_32  and  C25_33 
ROOT
HETATM    1  C1  UNL     1      91.469  44.631 267.802  1.00  0.00     0.022 C 
HETATM    2  C2  UNL     1      90.640  44.216 268.731  1.00  0.00    -0.018 C 
HETATM    3  C3  UNL     1      89.356  44.936 268.886  1.00  0.00     0.056 C 
HETATM    4  C4  UNL     1      88.277  44.536 267.965  1.00  0.00     0.093 C 
HETATM    5  C10 UNL     1      88.363  43.137 267.479  1.00  0.00     0.263 C 
HETATM    6  O1  UNL     1      89.230  42.882 266.602  1.00  0.00    -0.265 OA
HETATM    7  O2  UNL     1      87.580  42.103 267.905  1.00  0.00    -0.321 OA
HETATM    8  C11 UNL     1      86.324  42.178 268.499  1.00  0.00     0.185 C 
HETATM    9  C12 UNL     1      85.582  40.837 268.417  1.00  0.00     0.035 C 
HETATM   10  C13 UNL     1      85.535  40.344 267.005  1.00  0.00     0.015 C 
HETATM   11  C14 UNL     1      84.198  41.044 268.933  1.00  0.00     0.126 C 
HETATM   12  C15 UNL     1      84.168  41.066 270.467  1.00  0.00     0.068 C 
HETATM   13  C16 UNL     1      84.452  39.703 271.041  1.00  0.00     0.149 C 
HETATM   14  C17 UNL     1      85.089  39.816 272.405  1.00  0.00    -0.061 C 
HETATM   15  C18 UNL     1      84.340  39.875 273.480  1.00  0.00     0.017 C 
HETATM   16  C19 UNL     1      86.553  39.859 272.492  1.00  0.00     0.036 C 
HETATM   17  C20 UNL     1      87.053  41.255 272.890  1.00  0.00     0.007 C 
HETATM   18  C21 UNL     1      88.500  41.136 273.228  1.00  0.00     0.035 C 
HETATM   19  C22 UNL     1      89.438  41.102 272.076  1.00  0.00     0.154 A 
HETATM   20  O5  UNL     1      89.019  41.006 270.781  1.00  0.00    -0.372 OA
HETATM   21  C23 UNL     1      89.330  42.296 271.152  1.00  0.00     0.187 A 
HETATM   22  C24 UNL     1      90.714  42.842 270.956  1.00  0.00     0.227 C 
HETATM   23  C28 UNL     1      91.056  43.073 269.533  1.00  0.00     0.186 C 
HETATM   24  O7  UNL     1      91.785  42.159 269.013  1.00  0.00    -0.290 OA
ENDROOT
BRANCH   4  25
HETATM   25  C5  UNL     1      88.035  45.481 266.809  1.00  0.00    -0.005 C 
HETATM   26  C6  UNL     1      86.526  45.728 266.702  1.00  0.00     0.011 C 
BRANCH  25  27
HETATM   27  C7  UNL     1      88.624  46.848 267.083  1.00  0.00     0.005 C 
BRANCH  27  28
HETATM   28  C8  UNL     1      89.492  47.295 265.915  1.00  0.00    -0.004 C 
HETATM   29  C9  UNL     1      90.599  48.176 266.503  1.00  0.00     0.005 C 
ENDBRANCH  27  28
ENDBRANCH  25  27
ENDBRANCH   4  25
BRANCH  22  30
HETATM   30  O6  UNL     1      90.715  44.107 271.583  1.00  0.00    -0.371 OA
BRANCH  30  31
HETATM   31  C25 UNL     1      91.913  44.371 272.208  1.00  0.00     0.114 C 
HETATM   32  C26 UNL     1      92.469  43.054 272.709  1.00  0.00     0.039 C 
HETATM   33  C27 UNL     1      91.762  45.265 273.418  1.00  0.00     0.039 C 
ENDBRANCH  30  31
ENDBRANCH  22  30
BRANCH  11  34
HETATM   34  O3  UNL     1      83.428  39.944 268.560  1.00  0.00    -0.395 OA
ATOM     35  H3  UNL     1      82.764  40.243 267.950  1.00  0.00     0.210 HD
ENDBRANCH  11  34
BRANCH  13  36
HETATM   36  O4  UNL     1      83.212  39.063 271.221  1.00  0.00    -0.391 OA
ATOM     37  H4  UNL     1      83.383  38.129 271.261  1.00  0.00     0.210 HD
ENDBRANCH  13  36
TORSDOF 7
ENDMDL
MODEL 4
REMARK VINA RESULT: -6.384435908      2.318      7.001
REMARK  7 active torsions:
REMARK  status: ('A' for Active; 'I' for Inactive)
REMARK    1  A    between atoms: C4_4  and  C5_5 
REMARK    2  A    between atoms: C5_5  and  C7_7 
REMARK    3  A    between atoms: C7_7  and  C8_8 
REMARK    4  A    between atoms: C14_16  and  O3_17 
REMARK    5  A    between atoms: C16_20  and  O4_21 
REMARK    6  A    between atoms: C24_31  and  O6_32 
REMARK    7  A    between atoms: O6_32  and  C25_33 
ROOT
HETATM    1  C1  UNL     1      86.066  39.929 271.791  1.00  0.00     0.022 C 
HETATM    2  C2  UNL     1      87.027  40.548 271.147  1.00  0.00    -0.018 C 
HETATM    3  C3  UNL     1      87.116  40.353 269.683  1.00  0.00     0.056 C 
HETATM    4  C4  UNL     1      86.233  41.203 268.864  1.00  0.00     0.093 C 
HETATM    5  C10 UNL     1      85.872  42.502 269.483  1.00  0.00     0.263 C 
HETATM    6  O1  UNL     1      85.022  42.483 270.412  1.00  0.00    -0.265 OA
HETATM    7  O2  UNL     1      86.387  43.716 269.130  1.00  0.00    -0.321 OA
HETATM    8  C11 UNL     1      86.971  44.070 267.918  1.00  0.00     0.185 C 
HETATM    9  C12 UNL     1      87.007  45.593 267.735  1.00  0.00     0.035 C 
HETATM   10  C13 UNL     1      85.643  46.182 267.925  1.00  0.00     0.015 C 
HETATM   11  C14 UNL     1      87.502  45.881 266.357  1.00  0.00     0.126 C 
HETATM   12  C15 UNL     1      89.027  45.747 266.269  1.00  0.00     0.068 C 
HETATM   13  C16 UNL     1      89.719  46.852 267.023  1.00  0.00     0.149 C 
HETATM   14  C17 UNL     1      91.069  46.397 267.524  1.00  0.00    -0.061 C 
HETATM   15  C18 UNL     1      92.134  46.536 266.771  1.00  0.00     0.017 C 
HETATM   16  C19 UNL     1      91.153  45.800 268.862  1.00  0.00     0.036 C 
HETATM   17  C20 UNL     1      91.426  44.290 268.789  1.00  0.00     0.007 C 
HETATM   18  C21 UNL     1      91.775  43.830 270.163  1.00  0.00     0.035 C 
HETATM   19  C22 UNL     1      90.632  43.602 271.085  1.00  0.00     0.154 A 
HETATM   20  O5  UNL     1      89.350  43.954 270.777  1.00  0.00    -0.372 OA
HETATM   21  C23 UNL     1      89.607  42.615 270.569  1.00  0.00     0.187 A 
HETATM   22  C24 UNL     1      89.364  41.607 271.654  1.00  0.00     0.227 C 
HETATM   23  C28 UNL     1      87.927  41.381 271.933  1.00  0.00     0.186 C 
HETATM   24  O7  UNL     1      87.490  41.994 272.969  1.00  0.00    -0.290 OA
ENDROOT
BRANCH   4  25
HETATM   25  C5  UNL     1      84.998  40.516 268.325  1.00  0.00    -0.005 C 
HETATM   26  C6  UNL     1      84.298  41.479 267.359  1.00  0.00     0.011 C 
BRANCH  25  27
HETATM   27  C7  UNL     1      85.361  39.320 267.471  1.00  0.00     0.005 C 
BRANCH  27  28
HETATM   28  C8  UNL     1      85.015  39.585 266.012  1.00  0.00    -0.004 C 
HETATM   29  C9  UNL     1      86.227  39.141 265.187  1.00  0.00     0.005 C 
ENDBRANCH  27  28
ENDBRANCH  25  27
ENDBRANCH   4  25
BRANCH  22  30
HETATM   30  O6  UNL     1      89.877  40.389 271.160  1.00  0.00    -0.371 OA
BRANCH  30  31
HETATM   31  C25 UNL     1      90.891  39.899 271.951  1.00  0.00     0.114 C 
HETATM   32  C26 UNL     1      92.181  40.009 271.164  1.00  0.00     0.039 C 
HETATM   33  C27 UNL     1      90.718  38.436 272.293  1.00  0.00     0.039 C 
ENDBRANCH  30  31
ENDBRANCH  22  30
BRANCH  11  34
HETATM   34  O3  UNL     1      87.225  47.216 266.069  1.00  0.00    -0.395 OA
ATOM     35  H3  UNL     1      87.932  47.745 266.420  1.00  0.00     0.210 HD
ENDBRANCH  11  34
BRANCH  13  36
HETATM   36  O4  UNL     1      89.954  47.894 266.107  1.00  0.00    -0.391 OA
ATOM     37  H4  UNL     1      89.105  48.189 265.797  1.00  0.00     0.210 HD
ENDBRANCH  13  36
TORSDOF 7
ENDMDL
MODEL 5
REMARK VINA RESULT: -6.381609076      2.433      8.408
REMARK  7 active torsions:
REMARK  status: ('A' for Active; 'I' for Inactive)
REMARK    1  A    between atoms: C4_4  and  C5_5 
REMARK    2  A    between atoms: C5_5  and  C7_7 
REMARK    3  A    between atoms: C7_7  and  C8_8 
REMARK    4  A    between atoms: C14_16  and  O3_17 
REMARK    5  A    between atoms: C16_20  and  O4_21 
REMARK    6  A    between atoms: C24_31  and  O6_32 
REMARK    7  A    between atoms: O6_32  and  C25_33 
ROOT
HETATM    1  C1  UNL     1      90.912  40.141 272.751  1.00  0.00     0.022 C 
HETATM    2  C2  UNL     1      89.803  40.798 272.504  1.00  0.00    -0.018 C 
HETATM    3  C3  UNL     1      89.831  42.272 272.623  1.00  0.00     0.056 C 
HETATM    4  C4  UNL     1      90.342  43.005 271.450  1.00  0.00     0.093 C 
HETATM    5  C10 UNL     1      90.163  42.305 270.155  1.00  0.00     0.263 C 
HETATM    6  O1  UNL     1      90.933  41.339 269.909  1.00  0.00    -0.265 OA
HETATM    7  O2  UNL     1      89.232  42.620 269.208  1.00  0.00    -0.321 OA
HETATM    8  C11 UNL     1      88.587  43.839 269.025  1.00  0.00     0.185 C 
HETATM    9  C12 UNL     1      87.976  43.947 267.622  1.00  0.00     0.035 C 
HETATM   10  C13 UNL     1      89.006  43.664 266.573  1.00  0.00     0.015 C 
HETATM   11  C14 UNL     1      87.443  45.331 267.456  1.00  0.00     0.126 C 
HETATM   12  C15 UNL     1      86.087  45.497 268.153  1.00  0.00     0.068 C 
HETATM   13  C16 UNL     1      85.007  44.722 267.446  1.00  0.00     0.149 C 
HETATM   14  C17 UNL     1      83.922  44.309 268.412  1.00  0.00    -0.061 C 
HETATM   15  C18 UNL     1      82.904  45.104 268.639  1.00  0.00     0.017 C 
HETATM   16  C19 UNL     1      84.040  43.009 269.080  1.00  0.00     0.036 C 
HETATM   17  C20 UNL     1      84.366  43.170 270.572  1.00  0.00     0.007 C 
HETATM   18  C21 UNL     1      84.186  41.839 271.219  1.00  0.00     0.035 C 
HETATM   19  C22 UNL     1      85.307  40.877 271.054  1.00  0.00     0.154 A 
HETATM   20  O5  UNL     1      86.364  41.106 270.221  1.00  0.00    -0.372 OA
HETATM   21  C23 UNL     1      86.644  41.392 271.540  1.00  0.00     0.187 A 
HETATM   22  C24 UNL     1      87.226  40.349 272.448  1.00  0.00     0.227 C 
HETATM   23  C28 UNL     1      88.634  40.014 272.128  1.00  0.00     0.186 C 
HETATM   24  O7  UNL     1      88.778  38.930 271.463  1.00  0.00    -0.290 OA
ENDROOT
BRANCH   4  25
HETATM   25  C5  UNL     1      91.759  43.519 271.580  1.00  0.00    -0.005 C 
HETATM   26  C6  UNL     1      92.096  44.315 270.315  1.00  0.00     0.011 C 
BRANCH  25  27
HETATM   27  C7  UNL     1      91.880  44.524 272.704  1.00  0.00     0.005 C 
BRANCH  27  28
HETATM   28  C8  UNL     1      93.215  44.364 273.418  1.00  0.00    -0.004 C 
HETATM   29  C9  UNL     1      93.426  42.860 273.621  1.00  0.00     0.005 C 
ENDBRANCH  27  28
ENDBRANCH  25  27
ENDBRANCH   4  25
BRANCH  22  30
HETATM   30  O6  UNL     1      87.231  40.928 273.736  1.00  0.00    -0.371 OA
BRANCH  30  31
HETATM   31  C25 UNL     1      86.844  40.030 274.705  1.00  0.00     0.114 C 
HETATM   32  C26 UNL     1      85.437  40.391 275.130  1.00  0.00     0.039 C 
HETATM   33  C27 UNL     1      87.703  40.098 275.948  1.00  0.00     0.039 C 
ENDBRANCH  30  31
ENDBRANCH  22  30
BRANCH  11  34
HETATM   34  O3  UNL     1      87.194  45.538 266.100  1.00  0.00    -0.395 OA
ATOM     35  H3  UNL     1      86.367  45.999 266.020  1.00  0.00     0.210 HD
ENDBRANCH  11  34
BRANCH  13  36
HETATM   36  O4  UNL     1      84.414  45.595 266.515  1.00  0.00    -0.391 OA
ATOM     37  H4  UNL     1      85.103  45.887 265.928  1.00  0.00     0.210 HD
ENDBRANCH  13  36
TORSDOF 7
ENDMDL
