MODEL 1
REMARK VINA RESULT: -8.479229962      0.000      0.000
REMARK  9 active torsions:
REMARK  status: ('A' for Active; 'I' for Inactive)
REMARK    1  A    between atoms: S1_2  and  C2_3 
REMARK    2  A    between atoms: N1_5  and  C4_6 
REMARK    3  A    between atoms: C4_6  and  C5_7 
REMARK    4  A    between atoms: N2_10  and  C8_11 
REMARK    5  A    between atoms: C8_11  and  N3_13 
REMARK    6  A    between atoms: N3_13  and  C9_15 
REMARK    7  A    between atoms: C9_15  and  C10_16 
REMARK    8  A    between atoms: C10_16  and  C11_17 
REMARK    9  A    between atoms: C20_27  and  O1_28 
ROOT
HETATM    1  C5  UNL     1      26.183 164.656 147.416  1.00  0.00     0.051 C 
HETATM    2  C6  UNL     1      27.417 163.983 148.038  1.00  0.00     0.029 C 
HETATM    3  C7  UNL     1      28.126 164.908 148.972  1.00  0.00     0.126 C 
HETATM    4  N2  UNL     1      27.234 165.514 149.973  1.00  0.00    -0.356 N 
HETATM    5  C17 UNL     1      25.841 165.176 149.831  1.00  0.00     0.162 C 
HETATM    6  C18 UNL     1      25.505 165.543 148.362  1.00  0.00     0.194 C 
HETATM    7  F1  UNL     1      26.051 166.860 148.276  1.00  0.00    -0.247 F 
ENDROOT
BRANCH   4   8
HETATM    8  C8  UNL     1      27.818 166.342 150.929  1.00  0.00     0.169 C 
HETATM    9  S2  UNL     1      26.975 167.619 151.507  1.00  0.00    -0.041 SA
BRANCH   8  10
HETATM   10  N3  UNL     1      29.116 166.105 151.439  1.00  0.00    -0.367 N 
ATOM     11  H3  UNL     1      29.872 166.686 151.077  1.00  0.00     0.161 HD
BRANCH  10  12
HETATM   12  C9  UNL     1      29.460 165.118 152.420  1.00  0.00     0.126 C 
BRANCH  12  13
HETATM   13  C10 UNL     1      29.105 165.600 153.819  1.00  0.00     0.053 C 
BRANCH  13  14
HETATM   14  C11 UNL     1      28.273 164.550 154.456  1.00  0.00    -0.082 C 
HETATM   15  C12 UNL     1      27.124 164.185 153.916  1.00  0.00    -0.024 C 
HETATM   16  C13 UNL     1      26.386 163.105 154.672  1.00  0.00     0.027 C 
HETATM   17  C14 UNL     1      26.272 163.565 156.106  1.00  0.00     0.004 C 
HETATM   18  C15 UNL     1      27.567 164.008 156.713  1.00  0.00     0.005 C 
HETATM   19  C16 UNL     1      28.712 163.888 155.703  1.00  0.00     0.034 C 
ENDBRANCH  13  14
ENDBRANCH  12  13
ENDBRANCH  10  12
ENDBRANCH   8  10
ENDBRANCH   4   8
BRANCH   1  20
HETATM   20  C4  UNL     1      25.473 163.586 146.697  1.00  0.00     0.280 C 
BRANCH  20  21
HETATM   21  N1  UNL     1      24.849 162.539 147.414  1.00  0.00     0.092 N 
HETATM   22  C3  UNL     1      23.423 162.565 147.013  1.00  0.00     0.290 C 
HETATM   23  C2  UNL     1      23.468 162.150 145.585  1.00  0.00     0.105 C 
HETATM   24  C20 UNL     1      24.447 161.030 145.592  1.00  0.00     0.161 C 
HETATM   25  C19 UNL     1      25.172 161.199 146.930  1.00  0.00     0.305 C 
BRANCH  23  26
HETATM   26  S1  UNL     1      21.797 161.598 145.104  1.00  0.00    -0.164 SA
HETATM   27  C1  UNL     1      20.669 163.000 145.455  1.00  0.00     0.090 C 
ENDBRANCH  23  26
BRANCH  24  28
HETATM   28  O1  UNL     1      23.844 159.774 145.526  1.00  0.00    -0.393 OA
ATOM     29  H1  UNL     1      23.420 159.607 144.693  1.00  0.00     0.210 HD
ENDBRANCH  24  28
ENDBRANCH  20  21
ENDBRANCH   1  20
TORSDOF 9
ENDMDL
MODEL 2
REMARK VINA RESULT: -8.451428915      0.617      1.132
REMARK  9 active torsions:
REMARK  status: ('A' for Active; 'I' for Inactive)
REMARK    1  A    between atoms: S1_2  and  C2_3 
REMARK    2  A    between atoms: N1_5  and  C4_6 
REMARK    3  A    between atoms: C4_6  and  C5_7 
REMARK    4  A    between atoms: N2_10  and  C8_11 
REMARK    5  A    between atoms: C8_11  and  N3_13 
REMARK    6  A    between atoms: N3_13  and  C9_15 
REMARK    7  A    between atoms: C9_15  and  C10_16 
REMARK    8  A    between atoms: C10_16  and  C11_17 
REMARK    9  A    between atoms: C20_27  and  O1_28 
ROOT
HETATM    1  C5  UNL     1      25.928 164.644 147.177  1.00  0.00     0.051 C 
HETATM    2  C6  UNL     1      27.102 163.990 147.925  1.00  0.00     0.029 C 
HETATM    3  C7  UNL     1      27.779 164.967 148.830  1.00  0.00     0.126 C 
HETATM    4  N2  UNL     1      26.846 165.669 149.724  1.00  0.00    -0.356 N 
HETATM    5  C17 UNL     1      25.456 165.355 149.521  1.00  0.00     0.162 C 
HETATM    6  C18 UNL     1      25.220 165.617 148.011  1.00  0.00     0.194 C 
HETATM    7  F1  UNL     1      25.808 166.910 147.860  1.00  0.00    -0.247 F 
ENDROOT
BRANCH   4   8
HETATM    8  C8  UNL     1      27.395 166.553 150.651  1.00  0.00     0.169 C 
HETATM    9  S2  UNL     1      26.419 167.617 151.420  1.00  0.00    -0.041 SA
BRANCH   8  10
HETATM   10  N3  UNL     1      28.773 166.551 150.969  1.00  0.00    -0.367 N 
ATOM     11  H3  UNL     1      29.415 166.923 150.269  1.00  0.00     0.161 HD
BRANCH  10  12
HETATM   12  C9  UNL     1      29.347 166.070 152.192  1.00  0.00     0.126 C 
BRANCH  12  13
HETATM   13  C10 UNL     1      29.008 164.603 152.408  1.00  0.00     0.053 C 
BRANCH  13  14
HETATM   14  C11 UNL     1      28.087 164.521 153.567  1.00  0.00    -0.082 C 
HETATM   15  C12 UNL     1      28.509 164.818 154.782  1.00  0.00    -0.024 C 
HETATM   16  C13 UNL     1      27.462 164.692 155.864  1.00  0.00     0.027 C 
HETATM   17  C14 UNL     1      26.862 163.312 155.742  1.00  0.00     0.004 C 
HETATM   18  C15 UNL     1      26.408 162.960 154.360  1.00  0.00     0.005 C 
HETATM   19  C16 UNL     1      26.678 164.112 153.388  1.00  0.00     0.034 C 
ENDBRANCH  13  14
ENDBRANCH  12  13
ENDBRANCH  10  12
ENDBRANCH   8  10
ENDBRANCH   4   8
BRANCH   1  20
HETATM   20  C4  UNL     1      25.232 163.540 146.498  1.00  0.00     0.280 C 
BRANCH  20  21
HETATM   21  N1  UNL     1      24.585 162.534 147.252  1.00  0.00     0.092 N 
HETATM   22  C3  UNL     1      23.152 162.608 146.884  1.00  0.00     0.290 C 
HETATM   23  C2  UNL     1      23.145 162.162 145.465  1.00  0.00     0.105 C 
HETATM   24  C20 UNL     1      24.079 161.004 145.474  1.00  0.00     0.161 C 
HETATM   25  C19 UNL     1      24.844 161.172 146.790  1.00  0.00     0.305 C 
BRANCH  23  26
HETATM   26  S1  UNL     1      21.443 161.667 145.037  1.00  0.00    -0.164 SA
HETATM   27  C1  UNL     1      20.382 163.124 145.372  1.00  0.00     0.090 C 
ENDBRANCH  23  26
BRANCH  24  28
HETATM   28  O1  UNL     1      23.426 159.773 145.450  1.00  0.00    -0.393 OA
ATOM     29  H1  UNL     1      23.782 159.149 146.071  1.00  0.00     0.210 HD
ENDBRANCH  24  28
ENDBRANCH  20  21
ENDBRANCH   1  20
TORSDOF 9
ENDMDL
MODEL 3
REMARK VINA RESULT: -8.402915643      1.138      1.161
REMARK  9 active torsions:
REMARK  status: ('A' for Active; 'I' for Inactive)
REMARK    1  A    between atoms: S1_2  and  C2_3 
REMARK    2  A    between atoms: N1_5  and  C4_6 
REMARK    3  A    between atoms: C4_6  and  C5_7 
REMARK    4  A    between atoms: N2_10  and  C8_11 
REMARK    5  A    between atoms: C8_11  and  N3_13 
REMARK    6  A    between atoms: N3_13  and  C9_15 
REMARK    7  A    between atoms: C9_15  and  C10_16 
REMARK    8  A    between atoms: C10_16  and  C11_17 
REMARK    9  A    between atoms: C20_27  and  O1_28 
ROOT
HETATM    1  C5  UNL     1      26.417 164.374 147.388  1.00  0.00     0.051 C 
HETATM    2  C6  UNL     1      27.717 163.566 147.532  1.00  0.00     0.029 C 
HETATM    3  C7  UNL     1      28.690 164.260 148.427  1.00  0.00     0.126 C 
HETATM    4  N2  UNL     1      28.109 164.652 149.720  1.00  0.00    -0.356 N 
HETATM    5  C17 UNL     1      26.704 164.370 149.866  1.00  0.00     0.162 C 
HETATM    6  C18 UNL     1      26.048 165.047 148.634  1.00  0.00     0.194 C 
HETATM    7  F1  UNL     1      26.644 166.345 148.683  1.00  0.00    -0.247 F 
ENDROOT
BRANCH   4   8
HETATM    8  C8  UNL     1      28.961 165.247 150.648  1.00  0.00     0.169 C 
HETATM    9  S2  UNL     1      30.394 164.538 150.992  1.00  0.00    -0.041 SA
BRANCH   8  10
HETATM   10  N3  UNL     1      28.638 166.463 151.294  1.00  0.00    -0.367 N 
ATOM     11  H3  UNL     1      28.950 167.326 150.848  1.00  0.00     0.161 HD
BRANCH  10  12
HETATM   12  C9  UNL     1      27.909 166.588 152.523  1.00  0.00     0.126 C 
BRANCH  12  13
HETATM   13  C10 UNL     1      28.749 166.115 153.700  1.00  0.00     0.053 C 
BRANCH  13  14
HETATM   14  C11 UNL     1      28.121 164.882 154.232  1.00  0.00    -0.082 C 
HETATM   15  C12 UNL     1      27.023 164.397 153.681  1.00  0.00    -0.024 C 
HETATM   16  C13 UNL     1      26.495 163.137 154.325  1.00  0.00     0.027 C 
HETATM   17  C14 UNL     1      26.370 163.413 155.804  1.00  0.00     0.004 C 
HETATM   18  C15 UNL     1      27.602 163.990 156.428  1.00  0.00     0.005 C 
HETATM   19  C16 UNL     1      28.709 164.167 155.384  1.00  0.00     0.034 C 
ENDBRANCH  13  14
ENDBRANCH  12  13
ENDBRANCH  10  12
ENDBRANCH   8  10
ENDBRANCH   4   8
BRANCH   1  20
HETATM   20  C4  UNL     1      25.484 163.492 146.668  1.00  0.00     0.280 C 
BRANCH  20  21
HETATM   21  N1  UNL     1      24.804 162.461 147.356  1.00  0.00     0.092 N 
HETATM   22  C3  UNL     1      23.395 162.531 146.902  1.00  0.00     0.290 C 
HETATM   23  C2  UNL     1      23.481 162.120 145.474  1.00  0.00     0.105 C 
HETATM   24  C20 UNL     1      24.426 160.972 145.512  1.00  0.00     0.161 C 
HETATM   25  C19 UNL     1      25.105 161.114 146.877  1.00  0.00     0.305 C 
BRANCH  23  26
HETATM   26  S1  UNL     1      21.814 161.620 144.930  1.00  0.00    -0.164 SA
HETATM   27  C1  UNL     1      20.668 162.932 145.503  1.00  0.00     0.090 C 
ENDBRANCH  23  26
BRANCH  24  28
HETATM   28  O1  UNL     1      23.788 159.735 145.418  1.00  0.00    -0.393 OA
ATOM     29  H1  UNL     1      24.134 159.090 146.023  1.00  0.00     0.210 HD
ENDBRANCH  24  28
ENDBRANCH  20  21
ENDBRANCH   1  20
TORSDOF 9
ENDMDL
MODEL 4
REMARK VINA RESULT: -8.336487180      1.214      1.405
REMARK  9 active torsions:
REMARK  status: ('A' for Active; 'I' for Inactive)
REMARK    1  A    between atoms: S1_2  and  C2_3 
REMARK    2  A    between atoms: N1_5  and  C4_6 
REMARK    3  A    between atoms: C4_6  and  C5_7 
REMARK    4  A    between atoms: N2_10  and  C8_11 
REMARK    5  A    between atoms: C8_11  and  N3_13 
REMARK    6  A    between atoms: N3_13  and  C9_15 
REMARK    7  A    between atoms: C9_15  and  C10_16 
REMARK    8  A    between atoms: C10_16  and  C11_17 
REMARK    9  A    between atoms: C20_27  and  O1_28 
ROOT
HETATM    1  C5  UNL     1      26.502 164.563 148.247  1.00  0.00     0.051 C 
HETATM    2  C6  UNL     1      27.751 163.903 148.855  1.00  0.00     0.029 C 
HETATM    3  C7  UNL     1      28.567 164.891 149.623  1.00  0.00     0.126 C 
HETATM    4  N2  UNL     1      27.779 165.651 150.606  1.00  0.00    -0.356 N 
HETATM    5  C17 UNL     1      26.367 165.369 150.604  1.00  0.00     0.162 C 
HETATM    6  C18 UNL     1      25.936 165.584 149.130  1.00  0.00     0.194 C 
HETATM    7  F1  UNL     1      26.528 166.854 148.852  1.00  0.00    -0.247 F 
ENDROOT
BRANCH   4   8
HETATM    8  C8  UNL     1      28.468 166.551 151.416  1.00  0.00     0.169 C 
HETATM    9  S2  UNL     1      27.819 168.022 151.714  1.00  0.00    -0.041 SA
BRANCH   8  10
HETATM   10  N3  UNL     1      29.710 166.230 152.012  1.00  0.00    -0.367 N 
ATOM     11  H3  UNL     1      30.534 166.725 151.670  1.00  0.00     0.161 HD
BRANCH  10  12
HETATM   12  C9  UNL     1      29.911 165.268 153.056  1.00  0.00     0.126 C 
BRANCH  12  13
HETATM   13  C10 UNL     1      29.202 165.698 154.332  1.00  0.00     0.053 C 
BRANCH  13  14
HETATM   14  C11 UNL     1      28.325 164.580 154.756  1.00  0.00    -0.082 C 
HETATM   15  C12 UNL     1      27.237 164.283 154.068  1.00  0.00    -0.024 C 
HETATM   16  C13 UNL     1      26.441 163.121 154.615  1.00  0.00     0.027 C 
HETATM   17  C14 UNL     1      26.186 163.405 156.075  1.00  0.00     0.004 C 
HETATM   18  C15 UNL     1      27.413 163.771 156.853  1.00  0.00     0.005 C 
HETATM   19  C16 UNL     1      28.650 163.772 155.950  1.00  0.00     0.034 C 
ENDBRANCH  13  14
ENDBRANCH  12  13
ENDBRANCH  10  12
ENDBRANCH   8  10
ENDBRANCH   4   8
BRANCH   1  20
HETATM   20  C4  UNL     1      25.695 163.456 147.710  1.00  0.00     0.280 C 
BRANCH  20  21
HETATM   21  N1  UNL     1      24.485 163.721 147.030  1.00  0.00     0.092 N 
HETATM   22  C3  UNL     1      24.498 162.858 145.826  1.00  0.00     0.290 C 
HETATM   23  C2  UNL     1      24.389 161.486 146.393  1.00  0.00     0.105 C 
HETATM   24  C20 UNL     1      23.359 161.644 147.454  1.00  0.00     0.161 C 
HETATM   25  C19 UNL     1      23.297 163.159 147.669  1.00  0.00     0.305 C 
BRANCH  23  26
HETATM   26  S1  UNL     1      23.838 160.367 145.062  1.00  0.00    -0.164 SA
HETATM   27  C1  UNL     1      23.096 161.431 143.767  1.00  0.00     0.090 C 
ENDBRANCH  23  26
BRANCH  24  28
HETATM   28  O1  UNL     1      22.107 161.159 147.078  1.00  0.00    -0.393 OA
ATOM     29  H1  UNL     1      21.719 161.643 146.359  1.00  0.00     0.210 HD
ENDBRANCH  24  28
ENDBRANCH  20  21
ENDBRANCH   1  20
TORSDOF 9
ENDMDL
MODEL 5
REMARK VINA RESULT: -8.112289230      1.323      1.679
REMARK  9 active torsions:
REMARK  status: ('A' for Active; 'I' for Inactive)
REMARK    1  A    between atoms: S1_2  and  C2_3 
REMARK    2  A    between atoms: N1_5  and  C4_6 
REMARK    3  A    between atoms: C4_6  and  C5_7 
REMARK    4  A    between atoms: N2_10  and  C8_11 
REMARK    5  A    between atoms: C8_11  and  N3_13 
REMARK    6  A    between atoms: N3_13  and  C9_15 
REMARK    7  A    between atoms: C9_15  and  C10_16 
REMARK    8  A    between atoms: C10_16  and  C11_17 
REMARK    9  A    between atoms: C20_27  and  O1_28 
ROOT
HETATM    1  C5  UNL     1      26.041 163.231 148.204  1.00  0.00     0.051 C 
HETATM    2  C6  UNL     1      25.237 164.448 147.717  1.00  0.00     0.029 C 
HETATM    3  C7  UNL     1      25.354 165.592 148.670  1.00  0.00     0.126 C 
HETATM    4  N2  UNL     1      26.747 165.920 149.011  1.00  0.00    -0.356 N 
HETATM    5  C17 UNL     1      27.736 165.045 148.435  1.00  0.00     0.162 C 
HETATM    6  C18 UNL     1      27.287 163.624 148.863  1.00  0.00     0.194 C 
HETATM    7  F1  UNL     1      27.062 163.815 150.261  1.00  0.00    -0.247 F 
ENDROOT
BRANCH   4   8
HETATM    8  C8  UNL     1      26.959 167.017 149.844  1.00  0.00     0.169 C 
HETATM    9  S2  UNL     1      26.177 168.420 149.536  1.00  0.00    -0.041 SA
BRANCH   8  10
HETATM   10  N3  UNL     1      27.816 166.955 150.967  1.00  0.00    -0.367 N 
ATOM     11  H3  UNL     1      28.760 167.326 150.855  1.00  0.00     0.161 HD
BRANCH  10  12
HETATM   12  C9  UNL     1      27.473 166.415 152.250  1.00  0.00     0.126 C 
BRANCH  12  13
HETATM   13  C10 UNL     1      28.636 165.627 152.834  1.00  0.00     0.053 C 
BRANCH  13  14
HETATM   14  C11 UNL     1      28.073 164.621 153.766  1.00  0.00    -0.082 C 
HETATM   15  C12 UNL     1      26.928 164.021 153.493  1.00  0.00    -0.024 C 
HETATM   16  C13 UNL     1      26.477 163.019 154.530  1.00  0.00     0.027 C 
HETATM   17  C14 UNL     1      26.497 163.723 155.865  1.00  0.00     0.004 C 
HETATM   18  C15 UNL     1      27.782 164.430 156.167  1.00  0.00     0.005 C 
HETATM   19  C16 UNL     1      28.778 164.265 155.015  1.00  0.00     0.034 C 
ENDBRANCH  13  14
ENDBRANCH  12  13
ENDBRANCH  10  12
ENDBRANCH   8  10
ENDBRANCH   4   8
BRANCH   1  20
HETATM   20  C4  UNL     1      26.012 162.271 147.089  1.00  0.00     0.280 C 
BRANCH  20  21
HETATM   21  N1  UNL     1      25.468 160.979 147.275  1.00  0.00     0.092 N 
HETATM   22  C3  UNL     1      23.999 161.138 147.171  1.00  0.00     0.290 C 
HETATM   23  C2  UNL     1      23.800 161.493 145.740  1.00  0.00     0.105 C 
HETATM   24  C20 UNL     1      24.721 160.565 145.032  1.00  0.00     0.161 C 
HETATM   25  C19 UNL     1      25.656 160.076 146.142  1.00  0.00     0.305 C 
BRANCH  23  26
HETATM   26  S1  UNL     1      22.053 161.181 145.318  1.00  0.00    -0.164 SA
HETATM   27  C1  UNL     1      21.115 162.655 145.875  1.00  0.00     0.090 C 
ENDBRANCH  23  26
BRANCH  24  28
HETATM   28  O1  UNL     1      24.065 159.484 144.444  1.00  0.00    -0.393 OA
ATOM     29  H1  UNL     1      24.454 158.646 144.664  1.00  0.00     0.210 HD
ENDBRANCH  24  28
ENDBRANCH  20  21
ENDBRANCH   1  20
TORSDOF 9
ENDMDL
