MODEL 1
REMARK VINA RESULT: -8.222593151      0.000      0.000
REMARK  6 active torsions:
REMARK  status: ('A' for Active; 'I' for Inactive)
REMARK    1  A    between atoms: C3_3  and  C4_4 
REMARK    2  A    between atoms: C4_4  and  N1_5 
REMARK       I    between atoms: N1_5  and  C5_7 
REMARK    3  A    between atoms: C5_7  and  C6_9 
REMARK    4  A    between atoms: C16_19  and  C17_20 
REMARK       I    between atoms: C17_20  and  N2_22 
REMARK    5  A    between atoms: N2_22  and  C18_24 
REMARK    6  A    between atoms: C18_24  and  C19_25 
ROOT
HETATM    1  C1  UNL     1      25.997 159.773 146.111  1.00  0.00     0.069 C 
HETATM    2  C2  UNL     1      25.207 160.984 146.445  1.00  0.00     0.017 A 
HETATM    3  C3  UNL     1      25.709 162.104 147.155  1.00  0.00     0.000 A 
HETATM    4  C16 UNL     1      24.676 162.974 147.234  1.00  0.00     0.075 A 
HETATM    5  C20 UNL     1      23.555 162.407 146.595  1.00  0.00     0.088 A 
HETATM    6  N3  UNL     1      23.896 161.220 146.133  1.00  0.00    -0.343 N 
HETATM    7  C21 UNL     1      22.843 160.492 145.467  1.00  0.00     0.140 C 
HETATM    8  C22 UNL     1      21.881 161.438 144.790  1.00  0.00     0.101 C 
HETATM    9  S1  UNL     1      21.861 162.698 146.159  1.00  0.00    -0.109 SA
ENDROOT
BRANCH   3  10
HETATM   10  C4  UNL     1      27.087 162.124 147.609  1.00  0.00     0.164 C 
BRANCH  10  11
HETATM   11  N1  UNL     1      27.390 162.643 148.895  1.00  0.00    -0.356 N 
HETATM   12  C5  UNL     1      27.951 163.971 148.966  1.00  0.00     0.226 C 
HETATM   13  O1  UNL     1      28.162 164.643 147.936  1.00  0.00    -0.273 OA
ATOM     14  H1  UNL     1      27.217 162.097 149.738  1.00  0.00     0.162 HD
BRANCH  12  15
HETATM   15  C6  UNL     1      28.262 164.496 150.310  1.00  0.00     0.042 C 
HETATM   16  C7  UNL     1      26.951 164.586 151.063  1.00  0.00     0.024 C 
HETATM   17  C8  UNL     1      27.191 165.234 152.390  1.00  0.00    -0.013 C 
HETATM   18  C9  UNL     1      27.791 166.590 152.158  1.00  0.00     0.009 C 
HETATM   19  C13 UNL     1      28.107 164.342 153.204  1.00  0.00     0.009 C 
HETATM   20  C10 UNL     1      29.139 166.451 151.512  1.00  0.00    -0.013 C 
HETATM   21  C11 UNL     1      30.017 165.569 152.340  1.00  0.00     0.009 C 
HETATM   22  C15 UNL     1      28.949 165.817 150.155  1.00  0.00     0.024 C 
HETATM   23  C12 UNL     1      29.401 164.177 152.436  1.00  0.00    -0.013 C 
HETATM   24  C14 UNL     1      29.189 163.580 151.069  1.00  0.00     0.024 C 
ENDBRANCH  12  15
ENDBRANCH  10  11
ENDBRANCH   3  10
BRANCH   4  25
HETATM   25  C17 UNL     1      24.555 164.348 147.674  1.00  0.00     0.255 C 
HETATM   26  O2  UNL     1      23.942 164.656 148.696  1.00  0.00    -0.268 OA
HETATM   27  N2  UNL     1      25.158 165.372 146.908  1.00  0.00    -0.354 N 
ATOM     28  H2  UNL     1      25.669 165.121 146.061  1.00  0.00     0.162 HD
BRANCH  27  29
HETATM   29  C18 UNL     1      25.073 166.757 147.290  1.00  0.00     0.154 C 
BRANCH  29  30
HETATM   30  C19 UNL     1      25.861 166.950 148.568  1.00  0.00     0.241 C 
HETATM   31  F1  UNL     1      25.913 168.292 148.853  1.00  0.00    -0.254 F 
ENDBRANCH  29  30
ENDBRANCH  27  29
ENDBRANCH   4  25
TORSDOF 6
ENDMDL
MODEL 2
REMARK VINA RESULT: -7.902210284      2.977      7.521
REMARK  6 active torsions:
REMARK  status: ('A' for Active; 'I' for Inactive)
REMARK    1  A    between atoms: C3_3  and  C4_4 
REMARK    2  A    between atoms: C4_4  and  N1_5 
REMARK       I    between atoms: N1_5  and  C5_7 
REMARK    3  A    between atoms: C5_7  and  C6_9 
REMARK    4  A    between atoms: C16_19  and  C17_20 
REMARK       I    between atoms: C17_20  and  N2_22 
REMARK    5  A    between atoms: N2_22  and  C18_24 
REMARK    6  A    between atoms: C18_24  and  C19_25 
ROOT
HETATM    1  C1  UNL     1      26.312 168.936 150.294  1.00  0.00     0.069 C 
HETATM    2  C2  UNL     1      27.038 167.686 150.630  1.00  0.00     0.017 A 
HETATM    3  C3  UNL     1      26.846 166.441 149.978  1.00  0.00     0.000 A 
HETATM    4  C16 UNL     1      27.702 165.584 150.581  1.00  0.00     0.075 A 
HETATM    5  C20 UNL     1      28.404 166.275 151.589  1.00  0.00     0.088 A 
HETATM    6  N3  UNL     1      27.991 167.527 151.599  1.00  0.00    -0.343 N 
HETATM    7  C21 UNL     1      28.602 168.369 152.599  1.00  0.00     0.140 C 
HETATM    8  C22 UNL     1      30.015 167.923 152.887  1.00  0.00     0.101 C 
HETATM    9  S1  UNL     1      29.652 166.099 152.836  1.00  0.00    -0.109 SA
ENDROOT
BRANCH   3  10
HETATM   10  C4  UNL     1      25.887 166.323 148.896  1.00  0.00     0.164 C 
BRANCH  10  11
HETATM   11  N1  UNL     1      25.283 165.066 148.635  1.00  0.00    -0.356 N 
HETATM   12  C5  UNL     1      25.185 164.643 147.259  1.00  0.00     0.226 C 
HETATM   13  O1  UNL     1      25.616 165.353 146.329  1.00  0.00    -0.273 OA
ATOM     14  H1  UNL     1      24.932 164.482 149.394  1.00  0.00     0.162 HD
BRANCH  12  15
HETATM   15  C6  UNL     1      24.552 163.333 147.004  1.00  0.00     0.042 C 
HETATM   16  C7  UNL     1      24.687 163.058 145.521  1.00  0.00     0.024 C 
HETATM   17  C8  UNL     1      23.947 161.801 145.186  1.00  0.00    -0.013 C 
HETATM   18  C9  UNL     1      22.512 161.970 145.591  1.00  0.00     0.009 C 
HETATM   19  C13 UNL     1      24.607 160.645 145.911  1.00  0.00     0.009 C 
HETATM   20  C10 UNL     1      22.413 162.127 147.080  1.00  0.00    -0.013 C 
HETATM   21  C11 UNL     1      23.070 160.971 147.764  1.00  0.00     0.009 C 
HETATM   22  C15 UNL     1      23.130 163.397 147.469  1.00  0.00     0.024 C 
HETATM   23  C12 UNL     1      24.550 160.932 147.396  1.00  0.00    -0.013 C 
HETATM   24  C14 UNL     1      25.235 162.223 147.762  1.00  0.00     0.024 C 
ENDBRANCH  12  15
ENDBRANCH  10  11
ENDBRANCH   3  10
BRANCH   4  25
HETATM   25  C17 UNL     1      28.123 164.226 150.301  1.00  0.00     0.255 C 
HETATM   26  O2  UNL     1      28.193 163.368 151.180  1.00  0.00    -0.268 OA
HETATM   27  N2  UNL     1      28.465 163.873 148.975  1.00  0.00    -0.354 N 
ATOM     28  H2  UNL     1      28.408 164.580 148.243  1.00  0.00     0.162 HD
BRANCH  27  29
HETATM   29  C18 UNL     1      28.893 162.542 148.631  1.00  0.00     0.154 C 
BRANCH  29  30
HETATM   30  C19 UNL     1      28.519 162.278 147.189  1.00  0.00     0.241 C 
HETATM   31  F1  UNL     1      28.069 163.449 146.631  1.00  0.00    -0.254 F 
ENDBRANCH  29  30
ENDBRANCH  27  29
ENDBRANCH   4  25
TORSDOF 6
ENDMDL
MODEL 3
REMARK VINA RESULT: -7.823127719      1.647      2.152
REMARK  6 active torsions:
REMARK  status: ('A' for Active; 'I' for Inactive)
REMARK    1  A    between atoms: C3_3  and  C4_4 
REMARK    2  A    between atoms: C4_4  and  N1_5 
REMARK       I    between atoms: N1_5  and  C5_7 
REMARK    3  A    between atoms: C5_7  and  C6_9 
REMARK    4  A    between atoms: C16_19  and  C17_20 
REMARK       I    between atoms: C17_20  and  N2_22 
REMARK    5  A    between atoms: N2_22  and  C18_24 
REMARK    6  A    between atoms: C18_24  and  C19_25 
ROOT
HETATM    1  C1  UNL     1      28.082 161.454 147.114  1.00  0.00     0.069 C 
HETATM    2  C2  UNL     1      27.014 162.475 147.248  1.00  0.00     0.017 A 
HETATM    3  C3  UNL     1      27.225 163.814 147.662  1.00  0.00     0.000 A 
HETATM    4  C16 UNL     1      26.004 164.395 147.638  1.00  0.00     0.075 A 
HETATM    5  C20 UNL     1      25.052 163.439 147.228  1.00  0.00     0.088 A 
HETATM    6  N3  UNL     1      25.679 162.302 147.000  1.00  0.00    -0.343 N 
HETATM    7  C21 UNL     1      24.835 161.205 146.591  1.00  0.00     0.140 C 
HETATM    8  C22 UNL     1      23.644 161.706 145.811  1.00  0.00     0.101 C 
HETATM    9  S1  UNL     1      23.330 163.196 146.880  1.00  0.00    -0.109 SA
ENDROOT
BRANCH   3  10
HETATM   10  C4  UNL     1      28.561 164.277 147.987  1.00  0.00     0.164 C 
BRANCH  10  11
HETATM   11  N1  UNL     1      28.793 164.913 149.234  1.00  0.00    -0.356 N 
HETATM   12  C5  UNL     1      28.804 164.086 150.417  1.00  0.00     0.226 C 
HETATM   13  O1  UNL     1      28.619 162.855 150.350  1.00  0.00    -0.273 OA
ATOM     14  H1  UNL     1      28.947 165.920 149.291  1.00  0.00     0.162 HD
BRANCH  12  15
HETATM   15  C6  UNL     1      29.045 164.765 151.706  1.00  0.00     0.042 C 
HETATM   16  C7  UNL     1      27.990 164.266 152.671  1.00  0.00     0.024 C 
HETATM   17  C8  UNL     1      28.107 165.020 153.958  1.00  0.00    -0.013 C 
HETATM   18  C9  UNL     1      27.947 166.484 153.671  1.00  0.00     0.009 C 
HETATM   19  C13 UNL     1      29.455 164.709 154.578  1.00  0.00     0.009 C 
HETATM   20  C10 UNL     1      29.074 166.963 152.804  1.00  0.00    -0.013 C 
HETATM   21  C11 UNL     1      30.387 166.645 153.443  1.00  0.00     0.009 C 
HETATM   22  C15 UNL     1      28.989 166.244 151.478  1.00  0.00     0.024 C 
HETATM   23  C12 UNL     1      30.528 165.133 153.598  1.00  0.00    -0.013 C 
HETATM   24  C14 UNL     1      30.404 164.436 152.268  1.00  0.00     0.024 C 
ENDBRANCH  12  15
ENDBRANCH  10  11
ENDBRANCH   3  10
BRANCH   4  25
HETATM   25  C17 UNL     1      25.540 165.760 147.787  1.00  0.00     0.255 C 
HETATM   26  O2  UNL     1      24.797 166.292 146.962  1.00  0.00    -0.268 OA
HETATM   27  N2  UNL     1      25.951 166.507 148.915  1.00  0.00    -0.354 N 
ATOM     28  H2  UNL     1      26.565 166.069 149.602  1.00  0.00     0.162 HD
BRANCH  27  29
HETATM   29  C18 UNL     1      25.527 167.867 149.120  1.00  0.00     0.154 C 
BRANCH  29  30
HETATM   30  C19 UNL     1      25.982 168.307 150.495  1.00  0.00     0.241 C 
HETATM   31  F1  UNL     1      25.655 167.327 151.400  1.00  0.00    -0.254 F 
ENDBRANCH  29  30
ENDBRANCH  27  29
ENDBRANCH   4  25
TORSDOF 6
ENDMDL
MODEL 4
REMARK VINA RESULT: -7.746639693      3.104      7.573
REMARK  6 active torsions:
REMARK  status: ('A' for Active; 'I' for Inactive)
REMARK    1  A    between atoms: C3_3  and  C4_4 
REMARK    2  A    between atoms: C4_4  and  N1_5 
REMARK       I    between atoms: N1_5  and  C5_7 
REMARK    3  A    between atoms: C5_7  and  C6_9 
REMARK    4  A    between atoms: C16_19  and  C17_20 
REMARK       I    between atoms: C17_20  and  N2_22 
REMARK    5  A    between atoms: N2_22  and  C18_24 
REMARK    6  A    between atoms: C18_24  and  C19_25 
ROOT
HETATM    1  C1  UNL     1      25.662 168.607 150.204  1.00  0.00     0.069 C 
HETATM    2  C2  UNL     1      26.636 167.490 150.247  1.00  0.00     0.017 A 
HETATM    3  C3  UNL     1      26.649 166.395 149.346  1.00  0.00     0.000 A 
HETATM    4  C16 UNL     1      27.691 165.623 149.731  1.00  0.00     0.075 A 
HETATM    5  C20 UNL     1      28.309 166.218 150.850  1.00  0.00     0.088 A 
HETATM    6  N3  UNL     1      27.662 167.329 151.139  1.00  0.00    -0.343 N 
HETATM    7  C21 UNL     1      28.160 168.051 152.286  1.00  0.00     0.140 C 
HETATM    8  C22 UNL     1      29.648 167.853 152.441  1.00  0.00     0.101 C 
HETATM    9  S1  UNL     1      29.644 166.044 152.005  1.00  0.00    -0.109 SA
ENDROOT
BRANCH   3  10
HETATM   10  C4  UNL     1      25.664 166.311 148.284  1.00  0.00     0.164 C 
BRANCH  10  11
HETATM   11  N1  UNL     1      25.004 165.079 148.042  1.00  0.00    -0.356 N 
HETATM   12  C5  UNL     1      25.402 164.323 146.878  1.00  0.00     0.226 C 
HETATM   13  O1  UNL     1      26.295 164.733 146.112  1.00  0.00    -0.273 OA
ATOM     14  H1  UNL     1      24.274 164.739 148.668  1.00  0.00     0.162 HD
BRANCH  12  15
HETATM   15  C6  UNL     1      24.703 163.044 146.640  1.00  0.00     0.042 C 
HETATM   16  C7  UNL     1      23.357 163.142 147.326  1.00  0.00     0.024 C 
HETATM   17  C8  UNL     1      22.658 161.823 147.226  1.00  0.00    -0.013 C 
HETATM   18  C9  UNL     1      23.526 160.773 147.856  1.00  0.00     0.009 C 
HETATM   19  C13 UNL     1      22.387 161.530 145.764  1.00  0.00     0.009 C 
HETATM   20  C10 UNL     1      24.802 160.629 147.080  1.00  0.00    -0.013 C 
HETATM   21  C11 UNL     1      24.501 160.338 145.645  1.00  0.00     0.009 C 
HETATM   22  C15 UNL     1      25.558 161.933 147.167  1.00  0.00     0.024 C 
HETATM   23  C12 UNL     1      23.717 161.499 145.040  1.00  0.00    -0.013 C 
HETATM   24  C14 UNL     1      24.476 162.794 145.171  1.00  0.00     0.024 C 
ENDBRANCH  12  15
ENDBRANCH  10  11
ENDBRANCH   3  10
BRANCH   4  25
HETATM   25  C17 UNL     1      28.350 164.468 149.156  1.00  0.00     0.255 C 
HETATM   26  O2  UNL     1      28.891 164.506 148.051  1.00  0.00    -0.268 OA
HETATM   27  N2  UNL     1      28.373 163.256 149.884  1.00  0.00    -0.354 N 
ATOM     28  H2  UNL     1      27.927 163.221 150.801  1.00  0.00     0.162 HD
BRANCH  27  29
HETATM   29  C18 UNL     1      29.009 162.072 149.368  1.00  0.00     0.154 C 
BRANCH  29  30
HETATM   30  C19 UNL     1      29.988 161.565 150.405  1.00  0.00     0.241 C 
HETATM   31  F1  UNL     1      29.670 160.264 150.710  1.00  0.00    -0.254 F 
ENDBRANCH  29  30
ENDBRANCH  27  29
ENDBRANCH   4  25
TORSDOF 6
ENDMDL
MODEL 5
REMARK VINA RESULT: -7.690949856      1.650      2.608
REMARK  6 active torsions:
REMARK  status: ('A' for Active; 'I' for Inactive)
REMARK    1  A    between atoms: C3_3  and  C4_4 
REMARK    2  A    between atoms: C4_4  and  N1_5 
REMARK       I    between atoms: N1_5  and  C5_7 
REMARK    3  A    between atoms: C5_7  and  C6_9 
REMARK    4  A    between atoms: C16_19  and  C17_20 
REMARK       I    between atoms: C17_20  and  N2_22 
REMARK    5  A    between atoms: N2_22  and  C18_24 
REMARK    6  A    between atoms: C18_24  and  C19_25 
ROOT
HETATM    1  C1  UNL     1      28.044 161.438 147.170  1.00  0.00     0.069 C 
HETATM    2  C2  UNL     1      26.973 162.459 147.280  1.00  0.00     0.017 A 
HETATM    3  C3  UNL     1      27.175 163.801 147.692  1.00  0.00     0.000 A 
HETATM    4  C16 UNL     1      25.955 164.381 147.644  1.00  0.00     0.075 A 
HETATM    5  C20 UNL     1      25.012 163.422 147.220  1.00  0.00     0.088 A 
HETATM    6  N3  UNL     1      25.642 162.285 147.009  1.00  0.00    -0.343 N 
HETATM    7  C21 UNL     1      24.807 161.185 146.590  1.00  0.00     0.140 C 
HETATM    8  C22 UNL     1      23.630 161.682 145.786  1.00  0.00     0.101 C 
HETATM    9  S1  UNL     1      23.296 163.177 146.842  1.00  0.00    -0.109 SA
ENDROOT
BRANCH   3  10
HETATM   10  C4  UNL     1      28.505 164.265 148.040  1.00  0.00     0.164 C 
BRANCH  10  11
HETATM   11  N1  UNL     1      28.708 164.934 149.275  1.00  0.00    -0.356 N 
HETATM   12  C5  UNL     1      28.743 164.131 150.474  1.00  0.00     0.226 C 
HETATM   13  O1  UNL     1      28.602 162.893 150.430  1.00  0.00    -0.273 OA
ATOM     14  H1  UNL     1      28.826 165.946 149.313  1.00  0.00     0.162 HD
BRANCH  12  15
HETATM   15  C6  UNL     1      28.953 164.843 151.750  1.00  0.00     0.042 C 
HETATM   16  C7  UNL     1      30.364 164.532 152.203  1.00  0.00     0.024 C 
HETATM   17  C8  UNL     1      30.586 165.124 153.558  1.00  0.00    -0.013 C 
HETATM   18  C9  UNL     1      29.565 164.557 154.501  1.00  0.00     0.009 C 
HETATM   19  C13 UNL     1      30.480 166.632 153.449  1.00  0.00     0.009 C 
HETATM   20  C10 UNL     1      28.188 164.982 154.081  1.00  0.00    -0.013 C 
HETATM   21  C11 UNL     1      28.116 166.472 153.986  1.00  0.00     0.009 C 
HETATM   22  C15 UNL     1      27.905 164.391 152.721  1.00  0.00     0.024 C 
HETATM   23  C12 UNL     1      29.099 166.966 152.928  1.00  0.00    -0.013 C 
HETATM   24  C14 UNL     1      28.818 166.335 151.589  1.00  0.00     0.024 C 
ENDBRANCH  12  15
ENDBRANCH  10  11
ENDBRANCH   3  10
BRANCH   4  25
HETATM   25  C17 UNL     1      25.487 165.746 147.778  1.00  0.00     0.255 C 
HETATM   26  O2  UNL     1      24.725 166.260 146.960  1.00  0.00    -0.268 OA
HETATM   27  N2  UNL     1      25.920 166.515 148.883  1.00  0.00    -0.354 N 
ATOM     28  H2  UNL     1      26.550 166.092 149.564  1.00  0.00     0.162 HD
BRANCH  27  29
HETATM   29  C18 UNL     1      25.493 167.877 149.073  1.00  0.00     0.154 C 
BRANCH  29  30
HETATM   30  C19 UNL     1      25.974 168.343 150.430  1.00  0.00     0.241 C 
HETATM   31  F1  UNL     1      25.648 167.388 151.362  1.00  0.00    -0.254 F 
ENDBRANCH  29  30
ENDBRANCH  27  29
ENDBRANCH   4  25
TORSDOF 6
ENDMDL
