MODEL 1
REMARK VINA RESULT: -8.475215915      0.000      0.000
REMARK  8 active torsions:
REMARK  status: ('A' for Active; 'I' for Inactive)
REMARK    1  A    between atoms: C2_2  and  N1_3 
REMARK    2  A    between atoms: N1_3  and  C3_4 
REMARK    3  A    between atoms: N1_3  and  C5_6 
REMARK    4  A    between atoms: C5_6  and  C6_7 
REMARK    5  A    between atoms: C6_7  and  N2_8 
REMARK    6  A    between atoms: N2_8  and  C7_10 
REMARK    7  A    between atoms: C8_13  and  N4_14 
REMARK    8  A    between atoms: N4_14  and  C9_16 
ROOT
HETATM    1  C7  UNL     1      26.702 163.307 147.828  1.00  0.00     0.683 A 
HETATM    2  N3  UNL     1      27.426 163.474 149.000  1.00  0.00    -0.176 N 
ATOM      3  H3  UNL     1      27.943 162.666 149.347  1.00  0.00     0.186 HD
HETATM    4  C8  UNL     1      27.505 164.595 149.709  1.00  0.00     0.130 A 
HETATM    5  C16 UNL     1      26.782 165.690 149.206  1.00  0.00     0.043 A 
HETATM    6  C17 UNL     1      26.750 166.909 149.834  1.00  0.00    -0.024 A 
HETATM    7  C18 UNL     1      27.470 167.138 151.070  1.00  0.00     0.051 C 
HETATM    8  C19 UNL     1      25.984 167.948 149.262  1.00  0.00     0.041 A 
HETATM    9 CL1  UNL     1      25.973 169.490 150.119  1.00  0.00    -0.084 Cl
HETATM   10  C20 UNL     1      25.266 167.817 148.116  1.00  0.00     0.026 A 
HETATM   11  C21 UNL     1      25.298 166.598 147.491  1.00  0.00     0.033 A 
HETATM   12  C22 UNL     1      26.053 165.558 148.043  1.00  0.00     0.063 A 
HETATM   13  N6  UNL     1      26.034 164.391 147.398  1.00  0.00    -0.191 N 
ATOM     14  H6  UNL     1      25.488 164.318 146.540  1.00  0.00     0.184 HD
ENDROOT
BRANCH   4  15
HETATM   15  N4  UNL     1      28.152 164.711 150.752  1.00  0.00    -0.369 N 
ATOM     16  H4  UNL     1      29.127 164.893 150.514  1.00  0.00     0.161 HD
BRANCH  15  17
HETATM   17  C9  UNL     1      28.029 164.682 152.134  1.00  0.00     0.111 C 
HETATM   18  C10 UNL     1      26.959 163.887 152.805  1.00  0.00     0.027 C 
HETATM   19  C11 UNL     1      27.160 163.578 154.249  1.00  0.00     0.004 C 
HETATM   20  C12 UNL     1      27.532 164.659 155.165  1.00  0.00     0.030 C 
HETATM   21  C13 UNL     1      28.321 165.801 154.674  1.00  0.00     0.272 C 
HETATM   22  N5  UNL     1      29.492 165.417 153.958  1.00  0.00     0.086 N 
HETATM   23  C14 UNL     1      30.216 166.525 153.414  1.00  0.00     0.310 C 
HETATM   24  C15 UNL     1      29.277 164.398 152.942  1.00  0.00     0.296 C 
ENDBRANCH  15  17
ENDBRANCH   4  15
BRANCH   1  25
HETATM   25  N2  UNL     1      26.741 162.208 147.310  1.00  0.00    -0.203 N 
ATOM     26  H2  UNL     1      27.695 162.097 146.968  1.00  0.00     0.183 HD
BRANCH  25  27
HETATM   27  C6  UNL     1      26.095 161.059 146.977  1.00  0.00     0.109 C 
BRANCH  27  28
HETATM   28  C5  UNL     1      24.600 161.019 147.303  1.00  0.00     0.317 C 
BRANCH  28  29
HETATM   29  N1  UNL     1      23.801 161.782 146.368  1.00  0.00     0.092 N 
BRANCH  29  30
HETATM   30  C2  UNL     1      23.132 160.868 145.488  1.00  0.00     0.268 C 
HETATM   31  C1  UNL     1      22.909 161.534 144.130  1.00  0.00     0.037 C 
ENDBRANCH  29  30
BRANCH  29  32
HETATM   32  C3  UNL     1      22.924 162.669 147.047  1.00  0.00     0.268 C 
HETATM   33  C4  UNL     1      22.010 161.930 147.975  1.00  0.00     0.037 C 
ENDBRANCH  29  32
ENDBRANCH  28  29
ENDBRANCH  27  28
ENDBRANCH  25  27
ENDBRANCH   1  25
TORSDOF 8
ENDMDL
MODEL 2
REMARK VINA RESULT: -8.442172913      0.271      1.227
REMARK  8 active torsions:
REMARK  status: ('A' for Active; 'I' for Inactive)
REMARK    1  A    between atoms: C2_2  and  N1_3 
REMARK    2  A    between atoms: N1_3  and  C3_4 
REMARK    3  A    between atoms: N1_3  and  C5_6 
REMARK    4  A    between atoms: C5_6  and  C6_7 
REMARK    5  A    between atoms: C6_7  and  N2_8 
REMARK    6  A    between atoms: N2_8  and  C7_10 
REMARK    7  A    between atoms: C8_13  and  N4_14 
REMARK    8  A    between atoms: N4_14  and  C9_16 
ROOT
HETATM    1  C7  UNL     1      26.736 163.245 147.840  1.00  0.00     0.683 A 
HETATM    2  N3  UNL     1      27.454 163.439 149.011  1.00  0.00    -0.176 N 
ATOM      3  H3  UNL     1      27.981 162.644 149.371  1.00  0.00     0.186 HD
HETATM    4  C8  UNL     1      27.514 164.572 149.704  1.00  0.00     0.130 A 
HETATM    5  C16 UNL     1      26.776 165.649 149.185  1.00  0.00     0.043 A 
HETATM    6  C17 UNL     1      26.725 166.875 149.794  1.00  0.00    -0.024 A 
HETATM    7  C18 UNL     1      27.438 167.133 151.029  1.00  0.00     0.051 C 
HETATM    8  C19 UNL     1      25.944 167.895 149.207  1.00  0.00     0.041 A 
HETATM    9 CL1  UNL     1      25.908 169.448 150.041  1.00  0.00    -0.084 Cl
HETATM   10  C20 UNL     1      25.231 167.737 148.061  1.00  0.00     0.026 A 
HETATM   11  C21 UNL     1      25.283 166.510 147.453  1.00  0.00     0.033 A 
HETATM   12  C22 UNL     1      26.052 165.489 148.022  1.00  0.00     0.063 A 
HETATM   13  N6  UNL     1      26.052 164.313 147.393  1.00  0.00    -0.191 N 
ATOM     14  H6  UNL     1      25.509 164.220 146.535  1.00  0.00     0.184 HD
ENDROOT
BRANCH   4  15
HETATM   15  N4  UNL     1      28.157 164.712 150.747  1.00  0.00    -0.369 N 
ATOM     16  H4  UNL     1      29.126 164.923 150.508  1.00  0.00     0.161 HD
BRANCH  15  17
HETATM   17  C9  UNL     1      28.034 164.686 152.129  1.00  0.00     0.111 C 
HETATM   18  C10 UNL     1      26.972 163.881 152.802  1.00  0.00     0.027 C 
HETATM   19  C11 UNL     1      27.175 163.578 154.246  1.00  0.00     0.004 C 
HETATM   20  C12 UNL     1      27.537 164.665 155.160  1.00  0.00     0.030 C 
HETATM   21  C13 UNL     1      28.316 165.813 154.667  1.00  0.00     0.272 C 
HETATM   22  N5  UNL     1      29.490 165.439 153.952  1.00  0.00     0.086 N 
HETATM   23  C14 UNL     1      30.203 166.553 153.404  1.00  0.00     0.310 C 
HETATM   24  C15 UNL     1      29.285 164.416 152.938  1.00  0.00     0.296 C 
ENDBRANCH  15  17
ENDBRANCH   4  15
BRANCH   1  25
HETATM   25  N2  UNL     1      26.791 162.140 147.338  1.00  0.00    -0.203 N 
ATOM     26  H2  UNL     1      27.784 161.908 147.290  1.00  0.00     0.183 HD
BRANCH  25  27
HETATM   27  C6  UNL     1      26.138 161.070 146.811  1.00  0.00     0.109 C 
BRANCH  27  28
HETATM   28  C5  UNL     1      24.741 160.801 147.376  1.00  0.00     0.317 C 
BRANCH  28  29
HETATM   29  N1  UNL     1      23.684 161.235 146.488  1.00  0.00     0.092 N 
BRANCH  29  30
HETATM   30  C2  UNL     1      23.057 162.392 147.058  1.00  0.00     0.268 C 
HETATM   31  C1  UNL     1      21.941 161.957 148.008  1.00  0.00     0.037 C 
ENDBRANCH  29  30
BRANCH  29  32
HETATM   32  C3  UNL     1      24.170 161.438 145.170  1.00  0.00     0.268 C 
HETATM   33  C4  UNL     1      23.049 161.545 144.184  1.00  0.00     0.037 C 
ENDBRANCH  29  32
ENDBRANCH  28  29
ENDBRANCH  27  28
ENDBRANCH  25  27
ENDBRANCH   1  25
TORSDOF 8
ENDMDL
MODEL 3
REMARK VINA RESULT: -8.045485000      0.997      1.208
REMARK  8 active torsions:
REMARK  status: ('A' for Active; 'I' for Inactive)
REMARK    1  A    between atoms: C2_2  and  N1_3 
REMARK    2  A    between atoms: N1_3  and  C3_4 
REMARK    3  A    between atoms: N1_3  and  C5_6 
REMARK    4  A    between atoms: C5_6  and  C6_7 
REMARK    5  A    between atoms: C6_7  and  N2_8 
REMARK    6  A    between atoms: N2_8  and  C7_10 
REMARK    7  A    between atoms: C8_13  and  N4_14 
REMARK    8  A    between atoms: N4_14  and  C9_16 
ROOT
HETATM    1  C7  UNL     1      25.881 164.212 148.205  1.00  0.00     0.683 A 
HETATM    2  N3  UNL     1      26.666 164.019 149.332  1.00  0.00    -0.176 N 
ATOM      3  H3  UNL     1      26.946 163.062 149.547  1.00  0.00     0.186 HD
HETATM    4  C8  UNL     1      27.087 164.974 150.157  1.00  0.00     0.130 A 
HETATM    5  C16 UNL     1      26.685 166.281 149.837  1.00  0.00     0.043 A 
HETATM    6  C17 UNL     1      27.023 167.369 150.599  1.00  0.00    -0.024 A 
HETATM    7  C18 UNL     1      27.825 167.228 151.798  1.00  0.00     0.051 C 
HETATM    8  C19 UNL     1      26.561 168.645 150.208  1.00  0.00     0.041 A 
HETATM    9 CL1  UNL     1      27.019 170.004 151.232  1.00  0.00    -0.084 Cl
HETATM   10  C20 UNL     1      25.792 168.867 149.110  1.00  0.00     0.026 A 
HETATM   11  C21 UNL     1      25.454 167.779 148.349  1.00  0.00     0.033 A 
HETATM   12  C22 UNL     1      25.904 166.508 148.722  1.00  0.00     0.063 A 
HETATM   13  N6  UNL     1      25.531 165.486 147.952  1.00  0.00    -0.191 N 
ATOM     14  H6  UNL     1      24.955 165.679 147.133  1.00  0.00     0.184 HD
ENDROOT
BRANCH   4  15
HETATM   15  N4  UNL     1      27.779 164.770 151.157  1.00  0.00    -0.369 N 
ATOM     16  H4  UNL     1      28.751 164.660 150.865  1.00  0.00     0.161 HD
BRANCH  15  17
HETATM   17  C9  UNL     1      27.711 164.636 152.536  1.00  0.00     0.111 C 
HETATM   18  C10 UNL     1      26.584 163.910 153.194  1.00  0.00     0.027 C 
HETATM   19  C11 UNL     1      26.807 163.458 154.596  1.00  0.00     0.004 C 
HETATM   20  C12 UNL     1      27.338 164.407 155.576  1.00  0.00     0.030 C 
HETATM   21  C13 UNL     1      28.234 165.492 155.141  1.00  0.00     0.272 C 
HETATM   22  N5  UNL     1      29.322 165.043 154.338  1.00  0.00     0.086 N 
HETATM   23  C14 UNL     1      30.146 166.106 153.849  1.00  0.00     0.310 C 
HETATM   24  C15 UNL     1      28.950 164.146 153.255  1.00  0.00     0.296 C 
ENDBRANCH  15  17
ENDBRANCH   4  15
BRANCH   1  25
HETATM   25  N2  UNL     1      25.587 163.223 147.564  1.00  0.00    -0.203 N 
ATOM     26  H2  UNL     1      24.758 163.478 147.027  1.00  0.00     0.183 HD
BRANCH  25  27
HETATM   27  C6  UNL     1      25.855 161.932 147.234  1.00  0.00     0.109 C 
BRANCH  27  28
HETATM   28  C5  UNL     1      24.648 161.087 146.821  1.00  0.00     0.317 C 
BRANCH  28  29
HETATM   29  N1  UNL     1      23.820 161.739 145.829  1.00  0.00     0.092 N 
BRANCH  29  30
HETATM   30  C2  UNL     1      24.002 161.072 144.573  1.00  0.00     0.268 C 
HETATM   31  C1  UNL     1      24.517 159.653 144.815  1.00  0.00     0.037 C 
ENDBRANCH  29  30
BRANCH  29  32
HETATM   32  C3  UNL     1      22.466 161.803 146.252  1.00  0.00     0.268 C 
HETATM   33  C4  UNL     1      21.536 161.959 145.089  1.00  0.00     0.037 C 
ENDBRANCH  29  32
ENDBRANCH  28  29
ENDBRANCH  27  28
ENDBRANCH  25  27
ENDBRANCH   1  25
TORSDOF 8
ENDMDL
MODEL 4
REMARK VINA RESULT: -8.013636449      0.960      1.465
REMARK  8 active torsions:
REMARK  status: ('A' for Active; 'I' for Inactive)
REMARK    1  A    between atoms: C2_2  and  N1_3 
REMARK    2  A    between atoms: N1_3  and  C3_4 
REMARK    3  A    between atoms: N1_3  and  C5_6 
REMARK    4  A    between atoms: C5_6  and  C6_7 
REMARK    5  A    between atoms: C6_7  and  N2_8 
REMARK    6  A    between atoms: N2_8  and  C7_10 
REMARK    7  A    between atoms: C8_13  and  N4_14 
REMARK    8  A    between atoms: N4_14  and  C9_16 
ROOT
HETATM    1  C7  UNL     1      26.010 164.020 148.065  1.00  0.00     0.683 A 
HETATM    2  N3  UNL     1      26.788 163.881 149.206  1.00  0.00    -0.176 N 
ATOM      3  H3  UNL     1      27.105 162.941 149.441  1.00  0.00     0.186 HD
HETATM    4  C8  UNL     1      27.156 164.867 150.017  1.00  0.00     0.130 A 
HETATM    5  C16 UNL     1      26.704 166.151 149.668  1.00  0.00     0.043 A 
HETATM    6  C17 UNL     1      26.986 167.265 150.414  1.00  0.00    -0.024 A 
HETATM    7  C18 UNL     1      27.776 167.180 151.626  1.00  0.00     0.051 C 
HETATM    8  C19 UNL     1      26.475 168.513 149.993  1.00  0.00     0.041 A 
HETATM    9 CL1  UNL     1      26.862 169.909 150.998  1.00  0.00    -0.084 Cl
HETATM   10  C20 UNL     1      25.713 168.683 148.881  1.00  0.00     0.026 A 
HETATM   11  C21 UNL     1      25.432 167.567 148.137  1.00  0.00     0.033 A 
HETATM   12  C22 UNL     1      25.929 166.324 148.540  1.00  0.00     0.063 A 
HETATM   13  N6  UNL     1      25.611 165.273 147.783  1.00  0.00    -0.191 N 
ATOM     14  H6  UNL     1      25.037 165.426 146.954  1.00  0.00     0.184 HD
ENDROOT
BRANCH   4  15
HETATM   15  N4  UNL     1      27.843 164.711 151.030  1.00  0.00    -0.369 N 
ATOM     16  H4  UNL     1      28.821 164.627 150.751  1.00  0.00     0.161 HD
BRANCH  15  17
HETATM   17  C9  UNL     1      27.763 164.609 152.410  1.00  0.00     0.111 C 
HETATM   18  C10 UNL     1      26.633 163.894 153.075  1.00  0.00     0.027 C 
HETATM   19  C11 UNL     1      26.845 163.475 154.489  1.00  0.00     0.004 C 
HETATM   20  C12 UNL     1      27.364 164.448 155.452  1.00  0.00     0.030 C 
HETATM   21  C13 UNL     1      28.261 165.525 155.000  1.00  0.00     0.272 C 
HETATM   22  N5  UNL     1      29.357 165.062 154.217  1.00  0.00     0.086 N 
HETATM   23  C14 UNL     1      30.182 166.116 153.711  1.00  0.00     0.310 C 
HETATM   24  C15 UNL     1      28.997 164.139 153.151  1.00  0.00     0.296 C 
ENDBRANCH  15  17
ENDBRANCH   4  15
BRANCH   1  25
HETATM   25  N2  UNL     1      25.767 163.008 147.439  1.00  0.00    -0.203 N 
ATOM     26  H2  UNL     1      26.432 162.994 146.666  1.00  0.00     0.183 HD
BRANCH  25  27
HETATM   27  C6  UNL     1      25.014 161.885 147.296  1.00  0.00     0.109 C 
BRANCH  27  28
HETATM   28  C5  UNL     1      23.604 162.097 146.743  1.00  0.00     0.317 C 
BRANCH  28  29
HETATM   29  N1  UNL     1      23.190 161.045 145.839  1.00  0.00     0.092 N 
BRANCH  29  30
HETATM   30  C2  UNL     1      21.880 161.357 145.346  1.00  0.00     0.268 C 
HETATM   31  C1  UNL     1      21.357 162.615 146.037  1.00  0.00     0.037 C 
ENDBRANCH  29  30
BRANCH  29  32
HETATM   32  C3  UNL     1      24.153 160.839 144.817  1.00  0.00     0.268 C 
HETATM   33  C4  UNL     1      24.522 159.392 144.697  1.00  0.00     0.037 C 
ENDBRANCH  29  32
ENDBRANCH  28  29
ENDBRANCH  27  28
ENDBRANCH  25  27
ENDBRANCH   1  25
TORSDOF 8
ENDMDL
MODEL 5
REMARK VINA RESULT: -7.526938126      1.323      1.896
REMARK  8 active torsions:
REMARK  status: ('A' for Active; 'I' for Inactive)
REMARK    1  A    between atoms: C2_2  and  N1_3 
REMARK    2  A    between atoms: N1_3  and  C3_4 
REMARK    3  A    between atoms: N1_3  and  C5_6 
REMARK    4  A    between atoms: C5_6  and  C6_7 
REMARK    5  A    between atoms: C6_7  and  N2_8 
REMARK    6  A    between atoms: N2_8  and  C7_10 
REMARK    7  A    between atoms: C8_13  and  N4_14 
REMARK    8  A    between atoms: N4_14  and  C9_16 
ROOT
HETATM    1  C7  UNL     1      26.292 164.305 148.846  1.00  0.00     0.683 A 
HETATM    2  N3  UNL     1      26.859 164.240 150.110  1.00  0.00    -0.176 N 
ATOM      3  H3  UNL     1      27.092 163.314 150.470  1.00  0.00     0.186 HD
HETATM    4  C8  UNL     1      27.125 165.280 150.895  1.00  0.00     0.130 A 
HETATM    5  C16 UNL     1      26.792 166.541 150.374  1.00  0.00     0.043 A 
HETATM    6  C17 UNL     1      26.990 167.706 151.069  1.00  0.00    -0.024 A 
HETATM    7  C18 UNL     1      27.559 167.701 152.402  1.00  0.00     0.051 C 
HETATM    8  C19 UNL     1      26.610 168.928 150.471  1.00  0.00     0.041 A 
HETATM    9 CL1  UNL     1      26.879 170.392 151.416  1.00  0.00    -0.084 Cl
HETATM   10  C20 UNL     1      26.055 169.025 149.235  1.00  0.00     0.026 A 
HETATM   11  C21 UNL     1      25.858 167.860 148.542  1.00  0.00     0.033 A 
HETATM   12  C22 UNL     1      26.228 166.641 149.119  1.00  0.00     0.063 A 
HETATM   13  N6  UNL     1      25.998 165.540 148.403  1.00  0.00    -0.191 N 
ATOM     14  H6  UNL     1      25.581 165.639 147.478  1.00  0.00     0.184 HD
ENDROOT
BRANCH   4  15
HETATM   15  N4  UNL     1      27.624 165.189 152.019  1.00  0.00    -0.369 N 
ATOM     16  H4  UNL     1      28.543 165.631 152.005  1.00  0.00     0.161 HD
BRANCH  15  17
HETATM   17  C9  UNL     1      27.382 164.703 153.295  1.00  0.00     0.111 C 
HETATM   18  C10 UNL     1      26.498 163.521 153.525  1.00  0.00     0.027 C 
HETATM   19  C11 UNL     1      26.635 162.828 154.837  1.00  0.00     0.004 C 
HETATM   20  C12 UNL     1      26.622 163.621 156.068  1.00  0.00     0.030 C 
HETATM   21  C13 UNL     1      27.128 165.004 156.059  1.00  0.00     0.272 C 
HETATM   22  N5  UNL     1      28.421 165.132 155.474  1.00  0.00     0.086 N 
HETATM   23  C14 UNL     1      28.878 166.486 155.392  1.00  0.00     0.310 C 
HETATM   24  C15 UNL     1      28.578 164.462 154.192  1.00  0.00     0.296 C 
ENDBRANCH  15  17
ENDBRANCH   4  15
BRANCH   1  25
HETATM   25  N2  UNL     1      26.117 163.250 148.267  1.00  0.00    -0.203 N 
ATOM     26  H2  UNL     1      26.234 162.525 148.975  1.00  0.00     0.183 HD
BRANCH  25  27
HETATM   27  C6  UNL     1      25.835 162.594 147.110  1.00  0.00     0.109 C 
BRANCH  27  28
HETATM   28  C5  UNL     1      24.639 163.127 146.319  1.00  0.00     0.317 C 
BRANCH  28  29
HETATM   29  N1  UNL     1      23.543 162.185 146.254  1.00  0.00     0.092 N 
BRANCH  29  30
HETATM   30  C2  UNL     1      22.380 162.797 146.829  1.00  0.00     0.268 C 
HETATM   31  C1  UNL     1      22.039 162.109 148.151  1.00  0.00     0.037 C 
ENDBRANCH  29  30
BRANCH  29  32
HETATM   32  C3  UNL     1      23.347 161.717 144.928  1.00  0.00     0.268 C 
HETATM   33  C4  UNL     1      21.960 161.185 144.735  1.00  0.00     0.037 C 
ENDBRANCH  29  32
ENDBRANCH  28  29
ENDBRANCH  27  28
ENDBRANCH  25  27
ENDBRANCH   1  25
TORSDOF 8
ENDMDL
