MODEL 1
REMARK VINA RESULT: -8.006630566      0.000      0.000
REMARK  4 active torsions:
REMARK  status: ('A' for Active; 'I' for Inactive)
REMARK    1  A    between atoms: C11_16  and  N4_17 
REMARK    2  A    between atoms: N4_17  and  C12_19 
REMARK    3  A    between atoms: C15_22  and  S1_23 
REMARK    4  A    between atoms: S1_23  and  N5_24 
ROOT
HETATM    1  N1  UNL     1      13.311  25.639  30.360  1.00  0.00    -0.188 NA
HETATM    2  C1  UNL     1      12.782  25.880  31.362  1.00  0.00     0.137 C 
HETATM    3  C2  UNL     1      12.128  26.203  32.611  1.00  0.00     0.190 A 
HETATM    4  N2  UNL     1      12.783  26.802  33.622  1.00  0.00    -0.331 N 
ATOM      5  H2  UNL     1      13.769  27.035  33.504  1.00  0.00     0.168 HD
HETATM    6  C3  UNL     1      12.173  27.104  34.786  1.00  0.00     0.077 A 
HETATM    7  C4  UNL     1      10.842  26.803  34.983  1.00  0.00     0.105 A 
HETATM    8  N3  UNL     1      10.530  27.219  36.221  1.00  0.00    -0.351 N 
ATOM      9  H3  UNL     1       9.608  27.128  36.647  1.00  0.00     0.166 HD
HETATM   10  C5  UNL     1      11.597  27.772  36.826  1.00  0.00     0.045 A 
HETATM   11  C6  UNL     1      11.815  28.340  38.066  1.00  0.00     0.030 A 
HETATM   12  C7  UNL     1      13.069  28.823  38.370  1.00  0.00     0.002 A 
HETATM   13  C8  UNL     1      14.111  28.751  37.465  1.00  0.00     0.001 A 
HETATM   14  C9  UNL     1      13.905  28.188  36.230  1.00  0.00     0.016 A 
HETATM   15  C10 UNL     1      12.647  27.708  35.933  1.00  0.00     0.020 A 
HETATM   16  C11 UNL     1      10.170  26.187  33.947  1.00  0.00     0.137 A 
HETATM   17  N6  UNL     1      10.829  25.912  32.809  1.00  0.00    -0.318 N 
ATOM     18  H6  UNL     1      10.317  25.457  32.053  1.00  0.00     0.169 HD
ENDROOT
BRANCH  16  19
HETATM   19  N4  UNL     1       8.928  25.911  34.141  1.00  0.00    -0.341 N 
ATOM     20  H4  UNL     1       8.246  26.377  33.543  1.00  0.00     0.167 HD
BRANCH  19  21
HETATM   21  C12 UNL     1       8.438  25.025  35.104  1.00  0.00     0.033 A 
HETATM   22  C13 UNL     1       8.901  23.742  35.214  1.00  0.00     0.031 A 
HETATM   23  C14 UNL     1       8.405  22.865  36.178  1.00  0.00     0.027 A 
HETATM   24  C15 UNL     1       7.433  23.273  37.043  1.00  0.00     0.079 A 
HETATM   25  C16 UNL     1       6.958  24.562  36.943  1.00  0.00     0.027 A 
HETATM   26  C17 UNL     1       7.457  25.439  35.976  1.00  0.00     0.031 A 
BRANCH  24  27
HETATM   27  S1  UNL     1       6.777  22.196  38.278  1.00  0.00     0.256 S 
HETATM   28  O1  UNL     1       5.343  22.515  38.558  1.00  0.00    -0.201 OA
HETATM   29  O2  UNL     1       6.919  20.762  37.859  1.00  0.00    -0.201 OA
BRANCH  27  30
HETATM   30  N5  UNL     1       7.686  22.448  39.748  1.00  0.00    -0.324 N 
ATOM     31  H52 UNL     1       8.432  23.133  39.869  1.00  0.00     0.169 HD
ATOM     32  H51 UNL     1       7.337  21.794  40.448  1.00  0.00     0.169 HD
ENDBRANCH  27  30
ENDBRANCH  24  27
ENDBRANCH  19  21
ENDBRANCH  16  19
TORSDOF 4
ENDMDL
MODEL 2
REMARK VINA RESULT: -7.994281594      3.952      5.838
REMARK  4 active torsions:
REMARK  status: ('A' for Active; 'I' for Inactive)
REMARK    1  A    between atoms: C11_16  and  N4_17 
REMARK    2  A    between atoms: N4_17  and  C12_19 
REMARK    3  A    between atoms: C15_22  and  S1_23 
REMARK    4  A    between atoms: S1_23  and  N5_24 
ROOT
HETATM    1  N1  UNL     1       6.499  25.265  37.364  1.00  0.00    -0.188 NA
HETATM    2  C1  UNL     1       7.443  25.382  36.705  1.00  0.00     0.137 C 
HETATM    3  C2  UNL     1       8.636  25.524  35.899  1.00  0.00     0.190 A 
HETATM    4  N2  UNL     1       9.650  26.328  36.266  1.00  0.00    -0.331 N 
ATOM      5  H2  UNL     1       9.574  26.854  37.137  1.00  0.00     0.168 HD
HETATM    6  C3  UNL     1      10.763  26.460  35.515  1.00  0.00     0.077 A 
HETATM    7  C4  UNL     1      10.900  25.767  34.331  1.00  0.00     0.105 A 
HETATM    8  N3  UNL     1      12.096  26.104  33.822  1.00  0.00    -0.351 N 
ATOM      9  H3  UNL     1      12.472  25.744  32.945  1.00  0.00     0.166 HD
HETATM   10  C5  UNL     1      12.730  26.978  34.623  1.00  0.00     0.045 A 
HETATM   11  C6  UNL     1      13.951  27.624  34.570  1.00  0.00     0.030 A 
HETATM   12  C7  UNL     1      14.299  28.482  35.590  1.00  0.00     0.002 A 
HETATM   13  C8  UNL     1      13.458  28.710  36.662  1.00  0.00     0.001 A 
HETATM   14  C9  UNL     1      12.243  28.074  36.725  1.00  0.00     0.016 A 
HETATM   15  C10 UNL     1      11.902  27.216  35.700  1.00  0.00     0.020 A 
HETATM   16  C11 UNL     1       9.859  24.942  33.954  1.00  0.00     0.137 A 
HETATM   17  N6  UNL     1       8.776  24.850  34.743  1.00  0.00    -0.318 N 
ATOM     18  H6  UNL     1       8.017  24.235  34.450  1.00  0.00     0.169 HD
ENDROOT
BRANCH  16  19
HETATM   19  N4  UNL     1       9.998  24.299  32.847  1.00  0.00    -0.341 N 
ATOM     20  H4  UNL     1       9.514  24.667  32.029  1.00  0.00     0.167 HD
BRANCH  19  21
HETATM   21  C12 UNL     1      10.758  23.139  32.676  1.00  0.00     0.033 A 
HETATM   22  C13 UNL     1      10.622  22.053  33.498  1.00  0.00     0.031 A 
HETATM   23  C14 UNL     1      11.386  20.901  33.319  1.00  0.00     0.027 A 
HETATM   24  C15 UNL     1      12.298  20.830  32.307  1.00  0.00     0.079 A 
HETATM   25  C16 UNL     1      12.444  21.917  31.473  1.00  0.00     0.027 A 
HETATM   26  C17 UNL     1      11.677  23.071  31.655  1.00  0.00     0.031 A 
BRANCH  24  27
HETATM   27  S1  UNL     1      13.285  19.391  32.045  1.00  0.00     0.256 S 
HETATM   28  O1  UNL     1      14.622  19.533  32.700  1.00  0.00    -0.201 OA
HETATM   29  O2  UNL     1      12.583  18.167  32.557  1.00  0.00    -0.201 OA
BRANCH  27  30
HETATM   30  N5  UNL     1      13.538  19.220  30.326  1.00  0.00    -0.324 N 
ATOM     31  H52 UNL     1      14.253  19.705  29.784  1.00  0.00     0.169 HD
ATOM     32  H51 UNL     1      12.848  18.557  29.972  1.00  0.00     0.169 HD
ENDBRANCH  27  30
ENDBRANCH  24  27
ENDBRANCH  19  21
ENDBRANCH  16  19
TORSDOF 4
ENDMDL
MODEL 3
REMARK VINA RESULT: -7.974777783      4.234      6.945
REMARK  4 active torsions:
REMARK  status: ('A' for Active; 'I' for Inactive)
REMARK    1  A    between atoms: C11_16  and  N4_17 
REMARK    2  A    between atoms: N4_17  and  C12_19 
REMARK    3  A    between atoms: C15_22  and  S1_23 
REMARK    4  A    between atoms: S1_23  and  N5_24 
ROOT
HETATM    1  N1  UNL     1       4.326  24.800  33.036  1.00  0.00    -0.188 NA
HETATM    2  C1  UNL     1       5.480  24.783  32.954  1.00  0.00     0.137 C 
HETATM    3  C2  UNL     1       6.922  24.752  32.828  1.00  0.00     0.190 A 
HETATM    4  N2  UNL     1       7.583  23.625  32.511  1.00  0.00    -0.331 N 
ATOM      5  H2  UNL     1       7.053  22.767  32.354  1.00  0.00     0.168 HD
HETATM    6  C3  UNL     1       8.926  23.596  32.394  1.00  0.00     0.077 A 
HETATM    7  C4  UNL     1       9.676  24.734  32.601  1.00  0.00     0.105 A 
HETATM    8  N3  UNL     1      10.960  24.390  32.415  1.00  0.00    -0.351 N 
ATOM      9  H3  UNL     1      11.749  25.031  32.502  1.00  0.00     0.166 HD
HETATM   10  C5  UNL     1      11.069  23.087  32.100  1.00  0.00     0.045 A 
HETATM   11  C6  UNL     1      12.130  22.249  31.818  1.00  0.00     0.030 A 
HETATM   12  C7  UNL     1      11.879  20.925  31.527  1.00  0.00     0.002 A 
HETATM   13  C8  UNL     1      10.593  20.419  31.513  1.00  0.00     0.001 A 
HETATM   14  C9  UNL     1       9.532  21.244  31.793  1.00  0.00     0.016 A 
HETATM   15  C10 UNL     1       9.791  22.567  32.082  1.00  0.00     0.020 A 
HETATM   16  C11 UNL     1       8.998  25.891  32.927  1.00  0.00     0.137 A 
HETATM   17  N6  UNL     1       7.658  25.860  33.029  1.00  0.00    -0.318 N 
ATOM     18  H6  UNL     1       7.173  26.724  33.270  1.00  0.00     0.169 HD
ENDROOT
BRANCH  16  19
HETATM   19  N4  UNL     1       9.707  26.948  33.118  1.00  0.00    -0.341 N 
ATOM     20  H4  UNL     1       9.715  27.646  32.375  1.00  0.00     0.167 HD
BRANCH  19  21
HETATM   21  C12 UNL     1      10.467  27.217  34.259  1.00  0.00     0.033 A 
HETATM   22  C13 UNL     1      11.781  27.593  34.186  1.00  0.00     0.031 A 
HETATM   23  C14 UNL     1      12.530  27.858  35.331  1.00  0.00     0.027 A 
HETATM   24  C15 UNL     1      11.962  27.746  36.566  1.00  0.00     0.079 A 
HETATM   25  C16 UNL     1      10.640  27.369  36.654  1.00  0.00     0.027 A 
HETATM   26  C17 UNL     1       9.892  27.103  35.504  1.00  0.00     0.031 A 
BRANCH  24  27
HETATM   27  S1  UNL     1      12.875  28.073  38.042  1.00  0.00     0.256 S 
HETATM   28  O1  UNL     1      13.046  26.827  38.850  1.00  0.00    -0.201 OA
HETATM   29  O2  UNL     1      14.213  28.670  37.715  1.00  0.00    -0.201 OA
BRANCH  27  30
HETATM   30  N5  UNL     1      11.962  29.217  38.994  1.00  0.00    -0.324 N 
ATOM     31  H52 UNL     1      10.957  29.177  39.160  1.00  0.00     0.169 HD
ATOM     32  H51 UNL     1      12.612  29.920  39.346  1.00  0.00     0.169 HD
ENDBRANCH  27  30
ENDBRANCH  24  27
ENDBRANCH  19  21
ENDBRANCH  16  19
TORSDOF 4
ENDMDL
MODEL 4
REMARK VINA RESULT: -7.900008706      5.821      8.419
REMARK  4 active torsions:
REMARK  status: ('A' for Active; 'I' for Inactive)
REMARK    1  A    between atoms: C11_16  and  N4_17 
REMARK    2  A    between atoms: N4_17  and  C12_19 
REMARK    3  A    between atoms: C15_22  and  S1_23 
REMARK    4  A    between atoms: S1_23  and  N5_24 
ROOT
HETATM    1  N1  UNL     1      11.686  30.476  39.621  1.00  0.00    -0.188 NA
HETATM    2  C1  UNL     1      11.803  29.585  38.891  1.00  0.00     0.137 C 
HETATM    3  C2  UNL     1      11.952  28.487  37.961  1.00  0.00     0.190 A 
HETATM    4  N2  UNL     1      11.192  28.384  36.855  1.00  0.00    -0.331 N 
ATOM      5  H2  UNL     1      10.491  29.101  36.668  1.00  0.00     0.168 HD
HETATM    6  C3  UNL     1      11.331  27.361  35.988  1.00  0.00     0.077 A 
HETATM    7  C4  UNL     1      12.267  26.372  36.209  1.00  0.00     0.105 A 
HETATM    8  N3  UNL     1      12.164  25.508  35.187  1.00  0.00    -0.351 N 
ATOM      9  H3  UNL     1      12.735  24.669  35.080  1.00  0.00     0.166 HD
HETATM   10  C5  UNL     1      11.209  25.894  34.324  1.00  0.00     0.045 A 
HETATM   11  C6  UNL     1      10.711  25.379  33.142  1.00  0.00     0.030 A 
HETATM   12  C7  UNL     1       9.697  26.050  32.493  1.00  0.00     0.002 A 
HETATM   13  C8  UNL     1       9.168  27.223  32.998  1.00  0.00     0.001 A 
HETATM   14  C9  UNL     1       9.654  27.743  34.172  1.00  0.00     0.016 A 
HETATM   15  C10 UNL     1      10.670  27.066  34.814  1.00  0.00     0.020 A 
HETATM   16  C11 UNL     1      13.046  26.478  37.343  1.00  0.00     0.137 A 
HETATM   17  N6  UNL     1      12.864  27.520  38.171  1.00  0.00    -0.318 N 
ATOM     18  H6  UNL     1      13.449  27.583  39.004  1.00  0.00     0.169 HD
ENDROOT
BRANCH  16  19
HETATM   19  N4  UNL     1      13.917  25.550  37.539  1.00  0.00    -0.341 N 
ATOM     20  H4  UNL     1      13.585  24.672  37.937  1.00  0.00     0.167 HD
BRANCH  19  21
HETATM   21  C12 UNL     1      15.281  25.648  37.251  1.00  0.00     0.033 A 
HETATM   22  C13 UNL     1      15.753  26.410  36.217  1.00  0.00     0.031 A 
HETATM   23  C14 UNL     1      17.115  26.500  35.937  1.00  0.00     0.027 A 
HETATM   24  C15 UNL     1      18.021  25.822  36.699  1.00  0.00     0.079 A 
HETATM   25  C16 UNL     1      17.559  25.051  37.744  1.00  0.00     0.027 A 
HETATM   26  C17 UNL     1      16.192  24.963  38.021  1.00  0.00     0.031 A 
BRANCH  24  27
HETATM   27  S1  UNL     1      19.755  25.909  36.380  1.00  0.00     0.256 S 
HETATM   28  O1  UNL     1      20.052  26.915  35.314  1.00  0.00    -0.201 OA
HETATM   29  O2  UNL     1      20.507  26.243  37.636  1.00  0.00    -0.201 OA
BRANCH  27  30
HETATM   30  N5  UNL     1      20.274  24.343  35.810  1.00  0.00    -0.324 N 
ATOM     31  H52 UNL     1      21.203  24.126  35.447  1.00  0.00     0.169 HD
ATOM     32  H51 UNL     1      19.489  23.698  35.905  1.00  0.00     0.169 HD
ENDBRANCH  27  30
ENDBRANCH  24  27
ENDBRANCH  19  21
ENDBRANCH  16  19
TORSDOF 4
ENDMDL
MODEL 5
REMARK VINA RESULT: -7.776385120      4.475      7.275
REMARK  4 active torsions:
REMARK  status: ('A' for Active; 'I' for Inactive)
REMARK    1  A    between atoms: C11_16  and  N4_17 
REMARK    2  A    between atoms: N4_17  and  C12_19 
REMARK    3  A    between atoms: C15_22  and  S1_23 
REMARK    4  A    between atoms: S1_23  and  N5_24 
ROOT
HETATM    1  N1  UNL     1       5.775  24.562  32.878  1.00  0.00    -0.188 NA
HETATM    2  C1  UNL     1       6.899  24.332  32.724  1.00  0.00     0.137 C 
HETATM    3  C2  UNL     1       8.299  24.039  32.509  1.00  0.00     0.190 A 
HETATM    4  N2  UNL     1       8.713  22.841  32.057  1.00  0.00    -0.331 N 
ATOM      5  H2  UNL     1       8.020  22.119  31.861  1.00  0.00     0.168 HD
HETATM    6  C3  UNL     1      10.019  22.568  31.856  1.00  0.00     0.077 A 
HETATM    7  C4  UNL     1      10.985  23.518  32.112  1.00  0.00     0.105 A 
HETATM    8  N3  UNL     1      12.168  22.954  31.821  1.00  0.00    -0.351 N 
ATOM      9  H3  UNL     1      13.070  23.422  31.913  1.00  0.00     0.166 HD
HETATM   10  C5  UNL     1      12.006  21.691  31.390  1.00  0.00     0.045 A 
HETATM   11  C6  UNL     1      12.869  20.695  30.974  1.00  0.00     0.030 A 
HETATM   12  C7  UNL     1      12.352  19.478  30.588  1.00  0.00     0.002 A 
HETATM   13  C8  UNL     1      10.993  19.230  30.610  1.00  0.00     0.001 A 
HETATM   14  C9  UNL     1      10.126  20.211  31.023  1.00  0.00     0.016 A 
HETATM   15  C10 UNL     1      10.651  21.428  31.406  1.00  0.00     0.020 A 
HETATM   16  C11 UNL     1      10.560  24.746  32.577  1.00  0.00     0.137 A 
HETATM   17  N6  UNL     1       9.246  24.962  32.757  1.00  0.00    -0.318 N 
ATOM     18  H6  UNL     1       8.950  25.875  33.100  1.00  0.00     0.169 HD
ENDROOT
BRANCH  16  19
HETATM   19  N4  UNL     1      11.470  25.626  32.812  1.00  0.00    -0.341 N 
ATOM     20  H4  UNL     1      12.041  25.931  32.024  1.00  0.00     0.167 HD
BRANCH  19  21
HETATM   21  C12 UNL     1      11.740  26.196  34.059  1.00  0.00     0.033 A 
HETATM   22  C13 UNL     1      12.383  27.398  34.185  1.00  0.00     0.031 A 
HETATM   23  C14 UNL     1      12.648  27.958  35.433  1.00  0.00     0.027 A 
HETATM   24  C15 UNL     1      12.267  27.311  36.572  1.00  0.00     0.079 A 
HETATM   25  C16 UNL     1      11.619  26.100  36.459  1.00  0.00     0.027 A 
HETATM   26  C17 UNL     1      11.355  25.542  35.206  1.00  0.00     0.031 A 
BRANCH  24  27
HETATM   27  S1  UNL     1      12.582  27.985  38.173  1.00  0.00     0.256 S 
HETATM   28  O1  UNL     1      11.723  29.182  38.428  1.00  0.00    -0.201 OA
HETATM   29  O2  UNL     1      12.359  26.948  39.236  1.00  0.00    -0.201 OA
BRANCH  27  30
HETATM   30  N5  UNL     1      14.252  28.494  38.222  1.00  0.00    -0.324 N 
ATOM     31  H52 UNL     1      14.645  29.277  37.699  1.00  0.00     0.169 HD
ATOM     32  H51 UNL     1      14.750  27.872  38.859  1.00  0.00     0.169 HD
ENDBRANCH  27  30
ENDBRANCH  24  27
ENDBRANCH  19  21
ENDBRANCH  16  19
TORSDOF 4
ENDMDL
