MODEL 1
REMARK VINA RESULT: -9.267056994      0.000      0.000
REMARK  3 active torsions:
REMARK  status: ('A' for Active; 'I' for Inactive)
REMARK    1  A    between atoms: C6_6  and  C7_7 
REMARK    2  A    between atoms: C9_14  and  N4_15 
REMARK    3  A    between atoms: N4_15  and  C10_17 
ROOT
HETATM    1  C1  UNL     1       3.535  24.190  27.776  1.00  0.00     0.018 C 
HETATM    2  C2  UNL     1       4.210  24.286  28.772  1.00  0.00    -0.078 C 
HETATM    3  C3  UNL     1       5.011  24.383  29.961  1.00  0.00     0.017 A 
HETATM    4  C4  UNL     1       6.388  24.290  29.926  1.00  0.00     0.021 A 
HETATM    5  C5  UNL     1       7.144  24.386  31.080  1.00  0.00     0.014 A 
HETATM    6  C6  UNL     1       6.571  24.578  32.321  1.00  0.00    -0.024 A 
HETATM    7  C19 UNL     1       5.192  24.671  32.356  1.00  0.00     0.014 A 
HETATM    8  C20 UNL     1       4.436  24.575  31.201  1.00  0.00     0.021 A 
ENDROOT
BRANCH   6   9
HETATM    9  C7  UNL     1       7.380  24.679  33.539  1.00  0.00    -0.005 A 
HETATM   10  C8  UNL     1       6.724  24.792  34.743  1.00  0.00     0.121 A 
HETATM   11  N1  UNL     1       7.384  24.892  35.909  1.00  0.00    -0.288 N 
HETATM   12  N2  UNL     1       8.712  24.879  35.887  1.00  0.00    -0.165 N 
ATOM     13  H1  UNL     1       6.877  24.977  36.790  1.00  0.00     0.188 HD
HETATM   14  N3  UNL     1       9.607  24.962  36.887  1.00  0.00    -0.109 N 
HETATM   15  C17 UNL     1       9.419  24.772  34.749  1.00  0.00     0.162 A 
HETATM   16  C9  UNL     1      10.859  24.910  36.407  1.00  0.00     0.700 A 
ATOM     17  H3  UNL     1       9.368  25.052  37.874  1.00  0.00     0.208 HD
HETATM   18  N7  UNL     1      10.732  24.791  35.075  1.00  0.00    -0.172 N 
ATOM     19  H7  UNL     1      11.506  24.726  34.413  1.00  0.00     0.186 HD
HETATM   20  C18 UNL     1       8.756  24.669  33.550  1.00  0.00     0.066 A 
BRANCH  16  21
HETATM   21  N4  UNL     1      11.981  24.962  37.067  1.00  0.00    -0.188 N 
ATOM     22  H4  UNL     1      12.437  24.087  37.327  1.00  0.00     0.184 HD
BRANCH  21  23
HETATM   23  C10 UNL     1      12.596  26.188  37.439  1.00  0.00     0.078 A 
HETATM   24  C11 UNL     1      11.848  27.337  37.572  1.00  0.00     0.032 A 
HETATM   25  C12 UNL     1      12.385  28.566  37.931  1.00  0.00     0.005 A 
HETATM   26  C13 UNL     1      13.759  28.581  38.157  1.00  0.00     0.032 A 
HETATM   27  C14 UNL     1      14.535  27.467  38.035  1.00  0.00     0.065 A 
HETATM   28  N5  UNL     1      15.859  27.245  38.199  1.00  0.00    -0.306 N 
HETATM   29  C16 UNL     1      13.968  26.268  37.679  1.00  0.00     0.090 A 
HETATM   30  C15 UNL     1      16.075  25.944  37.946  1.00  0.00     0.325 A 
ATOM     31  H5  UNL     1      16.560  27.936  38.464  1.00  0.00     0.170 HD
HETATM   32  O1  UNL     1      17.223  25.421  38.016  1.00  0.00    -0.247 OA
HETATM   33  N6  UNL     1      14.921  25.332  37.625  1.00  0.00    -0.305 N 
ATOM     34  H6  UNL     1      14.797  24.348  37.387  1.00  0.00     0.171 HD
ENDBRANCH  21  23
ENDBRANCH  16  21
ENDBRANCH   6   9
TORSDOF 3
ENDMDL
MODEL 2
REMARK VINA RESULT: -9.188960128      3.356      9.859
REMARK  3 active torsions:
REMARK  status: ('A' for Active; 'I' for Inactive)
REMARK    1  A    between atoms: C6_6  and  C7_7 
REMARK    2  A    between atoms: C9_14  and  N4_15 
REMARK    3  A    between atoms: N4_15  and  C10_17 
ROOT
HETATM    1  C1  UNL     1      21.875  25.447  35.627  1.00  0.00     0.018 C 
HETATM    2  C2  UNL     1      20.706  25.597  35.888  1.00  0.00    -0.078 C 
HETATM    3  C3  UNL     1      19.318  25.789  36.208  1.00  0.00     0.017 A 
HETATM    4  C4  UNL     1      18.466  26.493  35.381  1.00  0.00     0.021 A 
HETATM    5  C5  UNL     1      17.133  26.667  35.705  1.00  0.00     0.014 A 
HETATM    6  C6  UNL     1      16.583  26.153  36.862  1.00  0.00    -0.024 A 
HETATM    7  C19 UNL     1      17.437  25.447  37.689  1.00  0.00     0.014 A 
HETATM    8  C20 UNL     1      18.771  25.273  37.365  1.00  0.00     0.021 A 
ENDROOT
BRANCH   6   9
HETATM    9  C7  UNL     1      15.169  26.342  37.196  1.00  0.00    -0.005 A 
HETATM   10  C8  UNL     1      14.846  27.319  38.108  1.00  0.00     0.121 A 
HETATM   11  N1  UNL     1      13.577  27.563  38.476  1.00  0.00    -0.288 N 
HETATM   12  N2  UNL     1      12.610  26.831  37.932  1.00  0.00    -0.165 N 
ATOM     13  H1  UNL     1      13.360  28.291  39.156  1.00  0.00     0.188 HD
HETATM   14  N3  UNL     1      11.278  26.860  38.116  1.00  0.00    -0.109 N 
HETATM   15  C17 UNL     1      12.851  25.860  37.035  1.00  0.00     0.162 A 
HETATM   16  C9  UNL     1      10.676  25.932  37.356  1.00  0.00     0.700 A 
ATOM     17  H3  UNL     1      10.793  27.500  38.744  1.00  0.00     0.208 HD
HETATM   18  N7  UNL     1      11.663  25.315  36.687  1.00  0.00    -0.172 N 
ATOM     19  H7  UNL     1      11.535  24.553  36.020  1.00  0.00     0.186 HD
HETATM   20  C18 UNL     1      14.145  25.601  36.651  1.00  0.00     0.066 A 
BRANCH  16  21
HETATM   21  N4  UNL     1       9.404  25.663  37.266  1.00  0.00    -0.188 N 
ATOM     22  H4  UNL     1       8.820  25.775  38.094  1.00  0.00     0.184 HD
BRANCH  21  23
HETATM   23  C10 UNL     1       8.799  25.218  36.059  1.00  0.00     0.078 A 
HETATM   24  C11 UNL     1       8.249  23.957  35.971  1.00  0.00     0.032 A 
HETATM   25  C12 UNL     1       7.646  23.460  34.825  1.00  0.00     0.005 A 
HETATM   26  C13 UNL     1       7.620  24.325  33.733  1.00  0.00     0.032 A 
HETATM   27  C14 UNL     1       8.152  25.579  33.779  1.00  0.00     0.065 A 
HETATM   28  N5  UNL     1       8.245  26.573  32.866  1.00  0.00    -0.306 N 
HETATM   29  C16 UNL     1       8.742  26.036  34.931  1.00  0.00     0.090 A 
HETATM   30  C15 UNL     1       8.874  27.598  33.462  1.00  0.00     0.325 A 
ATOM     31  H5  UNL     1       7.901  26.547  31.906  1.00  0.00     0.170 HD
HETATM   32  O1  UNL     1       9.114  28.686  32.866  1.00  0.00    -0.247 OA
HETATM   33  N6  UNL     1       9.186  27.282  34.732  1.00  0.00    -0.305 N 
ATOM     34  H6  UNL     1       9.666  27.874  35.409  1.00  0.00     0.171 HD
ENDBRANCH  21  23
ENDBRANCH  16  21
ENDBRANCH   6   9
TORSDOF 3
ENDMDL
MODEL 3
REMARK VINA RESULT: -9.164588127      0.908      1.700
REMARK  3 active torsions:
REMARK  status: ('A' for Active; 'I' for Inactive)
REMARK    1  A    between atoms: C6_6  and  C7_7 
REMARK    2  A    between atoms: C9_14  and  N4_15 
REMARK    3  A    between atoms: N4_15  and  C10_17 
ROOT
HETATM    1  C1  UNL     1       1.881  24.379  29.497  1.00  0.00     0.018 C 
HETATM    2  C2  UNL     1       2.923  24.403  30.106  1.00  0.00    -0.078 C 
HETATM    3  C3  UNL     1       4.165  24.450  30.828  1.00  0.00     0.017 A 
HETATM    4  C4  UNL     1       4.213  24.664  32.191  1.00  0.00     0.021 A 
HETATM    5  C5  UNL     1       5.418  24.705  32.869  1.00  0.00     0.014 A 
HETATM    6  C6  UNL     1       6.629  24.538  32.229  1.00  0.00    -0.024 A 
HETATM    7  C19 UNL     1       6.580  24.323  30.864  1.00  0.00     0.014 A 
HETATM    8  C20 UNL     1       5.375  24.282  30.185  1.00  0.00     0.021 A 
ENDROOT
BRANCH   6   9
HETATM    9  C7  UNL     1       7.900  24.582  32.956  1.00  0.00    -0.005 A 
HETATM   10  C8  UNL     1       9.059  24.368  32.246  1.00  0.00     0.121 A 
HETATM   11  N1  UNL     1      10.269  24.389  32.830  1.00  0.00    -0.288 N 
HETATM   12  N2  UNL     1      10.337  24.625  34.135  1.00  0.00    -0.165 N 
ATOM     13  H1  UNL     1      11.115  24.226  32.284  1.00  0.00     0.188 HD
HETATM   14  N3  UNL     1      11.397  24.701  34.959  1.00  0.00    -0.109 N 
HETATM   15  C17 UNL     1       9.248  24.843  34.892  1.00  0.00     0.162 A 
HETATM   16  C9  UNL     1      11.001  24.960  36.215  1.00  0.00     0.700 A 
ATOM     17  H3  UNL     1      12.366  24.579  34.670  1.00  0.00     0.208 HD
HETATM   18  N7  UNL     1       9.662  25.047  36.164  1.00  0.00    -0.172 N 
ATOM     19  H7  UNL     1       9.053  25.237  36.960  1.00  0.00     0.186 HD
HETATM   20  C18 UNL     1       8.005  24.824  34.307  1.00  0.00     0.066 A 
BRANCH  16  21
HETATM   21  N4  UNL     1      11.737  25.102  37.282  1.00  0.00    -0.188 N 
ATOM     22  H4  UNL     1      11.850  24.306  37.908  1.00  0.00     0.184 HD
BRANCH  21  23
HETATM   23  C10 UNL     1      12.388  26.323  37.607  1.00  0.00     0.078 A 
HETATM   24  C11 UNL     1      11.669  27.493  37.728  1.00  0.00     0.032 A 
HETATM   25  C12 UNL     1      12.242  28.717  38.040  1.00  0.00     0.005 A 
HETATM   26  C13 UNL     1      13.622  28.707  38.232  1.00  0.00     0.032 A 
HETATM   27  C14 UNL     1      14.369  27.572  38.122  1.00  0.00     0.065 A 
HETATM   28  N5  UNL     1      15.691  27.325  38.259  1.00  0.00    -0.306 N 
HETATM   29  C16 UNL     1      13.767  26.378  37.810  1.00  0.00     0.090 A 
HETATM   30  C15 UNL     1      15.872  26.012  38.035  1.00  0.00     0.325 A 
ATOM     31  H5  UNL     1      16.414  28.006  38.488  1.00  0.00     0.170 HD
HETATM   32  O1  UNL     1      17.010  25.465  38.090  1.00  0.00    -0.247 OA
HETATM   33  N6  UNL     1      14.697  25.419  37.758  1.00  0.00    -0.305 N 
ATOM     34  H6  UNL     1      14.545  24.433  37.549  1.00  0.00     0.171 HD
ENDBRANCH  21  23
ENDBRANCH  16  21
ENDBRANCH   6   9
TORSDOF 3
ENDMDL
MODEL 4
REMARK VINA RESULT: -9.143173262      1.651      1.970
REMARK  3 active torsions:
REMARK  status: ('A' for Active; 'I' for Inactive)
REMARK    1  A    between atoms: C6_6  and  C7_7 
REMARK    2  A    between atoms: C9_14  and  N4_15 
REMARK    3  A    between atoms: N4_15  and  C10_17 
ROOT
HETATM    1  C1  UNL     1       2.072  24.093  28.988  1.00  0.00     0.018 C 
HETATM    2  C2  UNL     1       3.104  24.182  29.610  1.00  0.00    -0.078 C 
HETATM    3  C3  UNL     1       4.331  24.306  30.347  1.00  0.00     0.017 A 
HETATM    4  C4  UNL     1       4.350  24.562  31.703  1.00  0.00     0.021 A 
HETATM    5  C5  UNL     1       5.542  24.677  32.395  1.00  0.00     0.014 A 
HETATM    6  C6  UNL     1       6.768  24.545  31.777  1.00  0.00    -0.024 A 
HETATM    7  C19 UNL     1       6.749  24.289  30.419  1.00  0.00     0.014 A 
HETATM    8  C20 UNL     1       5.557  24.173  29.725  1.00  0.00     0.021 A 
ENDROOT
BRANCH   6   9
HETATM    9  C7  UNL     1       8.025  24.668  32.520  1.00  0.00    -0.005 A 
HETATM   10  C8  UNL     1       8.413  23.613  33.312  1.00  0.00     0.121 A 
HETATM   11  N1  UNL     1       9.548  23.637  34.030  1.00  0.00    -0.288 N 
HETATM   12  N2  UNL     1      10.315  24.720  33.963  1.00  0.00    -0.165 N 
ATOM     13  H1  UNL     1       9.815  22.843  34.612  1.00  0.00     0.188 HD
HETATM   14  N3  UNL     1      11.482  25.007  34.565  1.00  0.00    -0.109 N 
HETATM   15  C17 UNL     1      10.000  25.788  33.211  1.00  0.00     0.162 A 
HETATM   16  C9  UNL     1      11.909  26.229  34.211  1.00  0.00     0.700 A 
ATOM     17  H3  UNL     1      11.975  24.382  35.203  1.00  0.00     0.208 HD
HETATM   18  N7  UNL     1      10.980  26.707  33.367  1.00  0.00    -0.172 N 
ATOM     19  H7  UNL     1      11.010  27.621  32.915  1.00  0.00     0.186 HD
HETATM   20  C18 UNL     1       8.841  25.775  32.472  1.00  0.00     0.066 A 
BRANCH  16  21
HETATM   21  N4  UNL     1      12.992  26.849  34.589  1.00  0.00    -0.188 N 
ATOM     22  H4  UNL     1      13.758  26.945  33.923  1.00  0.00     0.184 HD
BRANCH  21  23
HETATM   23  C10 UNL     1      13.148  27.395  35.891  1.00  0.00     0.078 A 
HETATM   24  C11 UNL     1      12.101  28.041  36.512  1.00  0.00     0.032 A 
HETATM   25  C12 UNL     1      12.186  28.598  37.780  1.00  0.00     0.005 A 
HETATM   26  C13 UNL     1      13.419  28.469  38.415  1.00  0.00     0.032 A 
HETATM   27  C14 UNL     1      14.479  27.838  37.835  1.00  0.00     0.065 A 
HETATM   28  N5  UNL     1      15.744  27.597  38.248  1.00  0.00    -0.306 N 
HETATM   29  C16 UNL     1      14.357  27.299  36.578  1.00  0.00     0.090 A 
HETATM   30  C15 UNL     1      16.361  26.929  37.259  1.00  0.00     0.325 A 
ATOM     31  H5  UNL     1      16.152  27.872  39.141  1.00  0.00     0.170 HD
HETATM   32  O1  UNL     1      17.565  26.555  37.342  1.00  0.00    -0.247 OA
HETATM   33  N6  UNL     1      15.520  26.739  36.227  1.00  0.00    -0.305 N 
ATOM     34  H6  UNL     1      15.727  26.263  35.350  1.00  0.00     0.171 HD
ENDBRANCH  21  23
ENDBRANCH  16  21
ENDBRANCH   6   9
TORSDOF 3
ENDMDL
MODEL 5
REMARK VINA RESULT: -9.097770563      1.379      1.786
REMARK  3 active torsions:
REMARK  status: ('A' for Active; 'I' for Inactive)
REMARK    1  A    between atoms: C6_6  and  C7_7 
REMARK    2  A    between atoms: C9_14  and  N4_15 
REMARK    3  A    between atoms: N4_15  and  C10_17 
ROOT
HETATM    1  C1  UNL     1       6.056  21.662  26.560  1.00  0.00     0.018 C 
HETATM    2  C2  UNL     1       6.443  22.098  27.618  1.00  0.00    -0.078 C 
HETATM    3  C3  UNL     1       6.916  22.626  28.868  1.00  0.00     0.017 A 
HETATM    4  C4  UNL     1       6.439  23.811  29.391  1.00  0.00     0.021 A 
HETATM    5  C5  UNL     1       6.905  24.304  30.596  1.00  0.00     0.014 A 
HETATM    6  C6  UNL     1       7.866  23.646  31.337  1.00  0.00    -0.024 A 
HETATM    7  C19 UNL     1       8.343  22.460  30.813  1.00  0.00     0.014 A 
HETATM    8  C20 UNL     1       7.877  21.966  29.608  1.00  0.00     0.021 A 
ENDROOT
BRANCH   6   9
HETATM    9  C7  UNL     1       8.353  24.176  32.613  1.00  0.00    -0.005 A 
HETATM   10  C8  UNL     1       7.569  25.093  33.274  1.00  0.00     0.121 A 
HETATM   11  N1  UNL     1       7.935  25.633  34.448  1.00  0.00    -0.288 N 
HETATM   12  N2  UNL     1       9.094  25.261  34.981  1.00  0.00    -0.165 N 
ATOM     13  H1  UNL     1       7.339  26.313  34.919  1.00  0.00     0.188 HD
HETATM   14  N3  UNL     1       9.695  25.635  36.124  1.00  0.00    -0.109 N 
HETATM   15  C17 UNL     1       9.911  24.371  34.393  1.00  0.00     0.162 A 
HETATM   16  C9  UNL     1      10.869  25.003  36.269  1.00  0.00     0.700 A 
ATOM     17  H3  UNL     1       9.311  26.306  36.788  1.00  0.00     0.208 HD
HETATM   18  N7  UNL     1      10.996  24.218  35.187  1.00  0.00    -0.172 N 
ATOM     19  H7  UNL     1      11.786  23.602  34.995  1.00  0.00     0.186 HD
HETATM   20  C18 UNL     1       9.548  23.811  33.191  1.00  0.00     0.066 A 
BRANCH  16  21
HETATM   21  N4  UNL     1      11.729  25.107  37.243  1.00  0.00    -0.188 N 
ATOM     22  H4  UNL     1      11.941  24.279  37.799  1.00  0.00     0.184 HD
BRANCH  21  23
HETATM   23  C10 UNL     1      12.383  26.328  37.562  1.00  0.00     0.078 A 
HETATM   24  C11 UNL     1      11.669  27.503  37.660  1.00  0.00     0.032 A 
HETATM   25  C12 UNL     1      12.244  28.728  37.966  1.00  0.00     0.005 A 
HETATM   26  C13 UNL     1      13.622  28.713  38.174  1.00  0.00     0.032 A 
HETATM   27  C14 UNL     1      14.364  27.573  38.085  1.00  0.00     0.065 A 
HETATM   28  N5  UNL     1      15.683  27.321  38.241  1.00  0.00    -0.306 N 
HETATM   29  C16 UNL     1      13.760  26.379  37.781  1.00  0.00     0.090 A 
HETATM   30  C15 UNL     1      15.860  26.005  38.035  1.00  0.00     0.325 A 
ATOM     31  H5  UNL     1      16.407  28.001  38.471  1.00  0.00     0.170 HD
HETATM   32  O1  UNL     1      16.994  25.453  38.110  1.00  0.00    -0.247 OA
HETATM   33  N6  UNL     1      14.685  25.414  37.751  1.00  0.00    -0.305 N 
ATOM     34  H6  UNL     1      14.531  24.426  37.552  1.00  0.00     0.171 HD
ENDBRANCH  21  23
ENDBRANCH  16  21
ENDBRANCH   6   9
TORSDOF 3
ENDMDL
