MODEL 1
REMARK VINA RESULT: -8.592338145      0.000      0.000
REMARK  3 active torsions:
REMARK  status: ('A' for Active; 'I' for Inactive)
REMARK    1  A    between atoms: C3_4  and  C4_5 
REMARK    2  A    between atoms: C5_8  and  C6_9 
REMARK    3  A    between atoms: N3_14  and  C11_16 
ROOT
HETATM    1  C6  UNL     1      17.452  26.125  36.713  1.00  0.00    -0.007 A 
HETATM    2  C7  UNL     1      16.721  25.678  37.769  1.00  0.00     0.015 A 
HETATM    3  C8  UNL     1      15.383  25.999  37.841  1.00  0.00     0.018 A 
HETATM    4  C9  UNL     1      14.747  26.755  36.888  1.00  0.00     0.037 A 
HETATM    5  C10 UNL     1      13.456  27.215  36.711  1.00  0.00     0.134 A 
HETATM    6  N3  UNL     1      12.499  26.976  37.528  1.00  0.00    -0.320 N 
ATOM      7  H3  UNL     1      12.702  26.413  38.355  1.00  0.00     0.169 HD
HETATM    8  N5  UNL     1      13.473  27.907  35.573  1.00  0.00    -0.284 N 
ATOM      9  H5  UNL     1      12.666  28.379  35.165  1.00  0.00     0.188 HD
HETATM   10  N6  UNL     1      14.682  27.896  35.051  1.00  0.00    -0.298 N 
ATOM     11  H6  UNL     1      14.942  28.358  34.179  1.00  0.00     0.187 HD
HETATM   12  C12 UNL     1      15.536  27.185  35.833  1.00  0.00     0.063 A 
HETATM   13  C13 UNL     1      16.876  26.882  35.731  1.00  0.00     0.045 A 
ENDROOT
BRANCH   1  14
HETATM   14  C5  UNL     1      18.902  25.784  36.624  1.00  0.00     0.050 A 
HETATM   15  N2  UNL     1      19.411  24.810  37.314  1.00  0.00    -0.349 N 
HETATM   16  C4  UNL     1      20.696  24.530  37.215  1.00  0.00     0.087 A 
ATOM     17  H2  UNL     1      18.816  24.259  37.932  1.00  0.00     0.166 HD
HETATM   18  S2  UNL     1      21.243  25.691  36.094  1.00  0.00    -0.081 SA
HETATM   19  C14 UNL     1      19.760  26.486  35.808  1.00  0.00     0.082 A 
BRANCH  16  20
HETATM   20  C3  UNL     1      21.459  23.464  37.916  1.00  0.00     0.032 A 
HETATM   21  C2  UNL     1      21.642  22.188  37.445  1.00  0.00     0.125 A 
HETATM   22  N1  UNL     1      22.375  21.502  38.331  1.00  0.00    -0.307 N 
HETATM   23  C1  UNL     1      22.820  20.104  38.256  1.00  0.00     0.177 C 
HETATM   24  N7  UNL     1      22.640  22.337  39.331  1.00  0.00    -0.310 N 
HETATM   25  C15 UNL     1      22.095  23.548  39.110  1.00  0.00     0.123 A 
ATOM     26  H7  UNL     1      23.185  22.092  40.158  1.00  0.00     0.186 HD
ENDBRANCH  16  20
ENDBRANCH   1  14
BRANCH   6  27
HETATM   27  C11 UNL     1      11.183  27.444  37.351  1.00  0.00     0.186 C 
HETATM   28  N4  UNL     1      10.804  28.802  37.561  1.00  0.00    -0.070 NA
HETATM   29  S1  UNL     1       9.976  26.424  36.877  1.00  0.00    -0.044 SA
ENDBRANCH   6  27
TORSDOF 3
ENDMDL
MODEL 2
REMARK VINA RESULT: -8.585426116      3.087      9.936
REMARK  3 active torsions:
REMARK  status: ('A' for Active; 'I' for Inactive)
REMARK    1  A    between atoms: C3_4  and  C4_5 
REMARK    2  A    between atoms: C5_8  and  C6_9 
REMARK    3  A    between atoms: N3_14  and  C11_16 
ROOT
HETATM    1  C6  UNL     1      13.721  26.973  36.303  1.00  0.00    -0.007 A 
HETATM    2  C7  UNL     1      14.609  27.650  35.527  1.00  0.00     0.015 A 
HETATM    3  C8  UNL     1      15.951  27.357  35.631  1.00  0.00     0.018 A 
HETATM    4  C9  UNL     1      16.439  26.402  36.489  1.00  0.00     0.037 A 
HETATM    5  C10 UNL     1      17.697  25.916  36.790  1.00  0.00     0.134 A 
HETATM    6  N3  UNL     1      18.773  26.337  36.237  1.00  0.00    -0.320 N 
ATOM      7  H3  UNL     1      18.696  27.072  35.534  1.00  0.00     0.169 HD
HETATM    8  N5  UNL     1      17.508  24.982  37.721  1.00  0.00    -0.284 N 
ATOM      9  H5  UNL     1      18.249  24.432  38.155  1.00  0.00     0.188 HD
HETATM   10  N6  UNL     1      16.226  24.870  38.001  1.00  0.00    -0.298 N 
ATOM     11  H6  UNL     1      15.835  24.219  38.683  1.00  0.00     0.187 HD
HETATM   12  C12 UNL     1      15.495  25.740  37.257  1.00  0.00     0.063 A 
HETATM   13  C13 UNL     1      14.146  26.010  37.177  1.00  0.00     0.045 A 
ENDROOT
BRANCH   1  14
HETATM   14  C5  UNL     1      12.266  27.282  36.200  1.00  0.00     0.050 A 
HETATM   15  N2  UNL     1      11.532  26.775  35.257  1.00  0.00    -0.349 N 
HETATM   16  C4  UNL     1      10.247  27.066  35.190  1.00  0.00     0.087 A 
ATOM     17  H2  UNL     1      11.950  26.151  34.567  1.00  0.00     0.166 HD
HETATM   18  S2  UNL     1      10.033  28.110  36.519  1.00  0.00    -0.081 SA
HETATM   19  C14 UNL     1      11.639  28.115  37.099  1.00  0.00     0.082 A 
BRANCH  16  20
HETATM   20  C3  UNL     1       9.250  26.589  34.195  1.00  0.00     0.032 A 
HETATM   21  C2  UNL     1       8.172  25.791  34.482  1.00  0.00     0.125 A 
HETATM   22  N1  UNL     1       7.493  25.560  33.351  1.00  0.00    -0.307 N 
HETATM   23  C1  UNL     1       6.273  24.762  33.169  1.00  0.00     0.177 C 
HETATM   24  N7  UNL     1       8.139  26.203  32.383  1.00  0.00    -0.310 N 
HETATM   25  C15 UNL     1       9.220  26.844  32.864  1.00  0.00     0.123 A 
ATOM     26  H7  UNL     1       7.853  26.209  31.404  1.00  0.00     0.186 HD
ENDBRANCH  16  20
ENDBRANCH   1  14
BRANCH   6  27
HETATM   27  C11 UNL     1      20.056  25.844  36.543  1.00  0.00     0.186 C 
HETATM   28  N4  UNL     1      20.308  24.946  37.620  1.00  0.00    -0.070 NA
HETATM   29  S1  UNL     1      21.371  26.285  35.649  1.00  0.00    -0.044 SA
ENDBRANCH   6  27
TORSDOF 3
ENDMDL
MODEL 3
REMARK VINA RESULT: -8.487565942      0.787      1.514
REMARK  3 active torsions:
REMARK  status: ('A' for Active; 'I' for Inactive)
REMARK    1  A    between atoms: C3_4  and  C4_5 
REMARK    2  A    between atoms: C5_8  and  C6_9 
REMARK    3  A    between atoms: N3_14  and  C11_16 
ROOT
HETATM    1  C6  UNL     1      17.666  26.200  36.522  1.00  0.00    -0.007 A 
HETATM    2  C7  UNL     1      17.158  26.915  35.483  1.00  0.00     0.015 A 
HETATM    3  C8  UNL     1      15.825  27.265  35.499  1.00  0.00     0.018 A 
HETATM    4  C9  UNL     1      14.979  26.924  36.525  1.00  0.00     0.037 A 
HETATM    5  C10 UNL     1      13.639  27.136  36.794  1.00  0.00     0.134 A 
HETATM    6  N3  UNL     1      12.852  27.781  36.017  1.00  0.00    -0.320 N 
ATOM      7  H3  UNL     1      13.236  28.160  35.151  1.00  0.00     0.169 HD
HETATM    8  N5  UNL     1      13.411  26.545  37.966  1.00  0.00    -0.284 N 
ATOM      9  H5  UNL     1      12.508  26.523  38.442  1.00  0.00     0.188 HD
HETATM   10  N6  UNL     1      14.516  25.994  38.423  1.00  0.00    -0.298 N 
ATOM     11  H6  UNL     1      14.590  25.485  39.304  1.00  0.00     0.187 HD
HETATM   12  C12 UNL     1      15.545  26.196  37.559  1.00  0.00     0.063 A 
HETATM   13  C13 UNL     1      16.873  25.830  37.574  1.00  0.00     0.045 A 
ENDROOT
BRANCH   1  14
HETATM   14  C5  UNL     1      19.106  25.814  36.516  1.00  0.00     0.050 A 
HETATM   15  N2  UNL     1      19.543  24.820  37.228  1.00  0.00    -0.349 N 
HETATM   16  C4  UNL     1      20.823  24.501  37.203  1.00  0.00     0.087 A 
ATOM     17  H2  UNL     1      18.896  24.285  37.806  1.00  0.00     0.166 HD
HETATM   18  S2  UNL     1      21.471  25.650  36.124  1.00  0.00    -0.081 SA
HETATM   19  C14 UNL     1      20.033  26.493  35.757  1.00  0.00     0.082 A 
BRANCH  16  20
HETATM   20  C3  UNL     1      21.509  23.407  37.940  1.00  0.00     0.032 A 
HETATM   21  C2  UNL     1      21.691  22.133  37.466  1.00  0.00     0.125 A 
HETATM   22  N1  UNL     1      22.345  21.417  38.390  1.00  0.00    -0.307 N 
HETATM   23  C1  UNL     1      22.758  20.009  38.327  1.00  0.00     0.177 C 
HETATM   24  N7  UNL     1      22.563  22.234  39.417  1.00  0.00    -0.310 N 
HETATM   25  C15 UNL     1      22.065  23.461  39.175  1.00  0.00     0.123 A 
ATOM     26  H7  UNL     1      23.044  21.965  40.275  1.00  0.00     0.186 HD
ENDBRANCH  16  20
ENDBRANCH   1  14
BRANCH   6  27
HETATM   27  C11 UNL     1      11.488  27.997  36.288  1.00  0.00     0.186 C 
HETATM   28  N4  UNL     1      11.016  28.563  37.508  1.00  0.00    -0.070 NA
HETATM   29  S1  UNL     1      10.329  27.600  35.182  1.00  0.00    -0.044 SA
ENDBRANCH   6  27
TORSDOF 3
ENDMDL
MODEL 4
REMARK VINA RESULT: -8.360444795      2.393      9.460
REMARK  3 active torsions:
REMARK  status: ('A' for Active; 'I' for Inactive)
REMARK    1  A    between atoms: C3_4  and  C4_5 
REMARK    2  A    between atoms: C5_8  and  C6_9 
REMARK    3  A    between atoms: N3_14  and  C11_16 
ROOT
HETATM    1  C6  UNL     1      14.879  26.902  37.071  1.00  0.00    -0.007 A 
HETATM    2  C7  UNL     1      15.364  26.155  38.099  1.00  0.00     0.015 A 
HETATM    3  C8  UNL     1      16.650  25.665  38.022  1.00  0.00     0.018 A 
HETATM    4  C9  UNL     1      17.472  25.900  36.948  1.00  0.00     0.037 A 
HETATM    5  C10 UNL     1      18.766  25.544  36.616  1.00  0.00     0.134 A 
HETATM    6  N3  UNL     1      19.522  24.833  37.366  1.00  0.00    -0.320 N 
ATOM      7  H3  UNL     1      19.148  24.512  38.260  1.00  0.00     0.169 HD
HETATM    8  N5  UNL     1      18.993  26.088  35.421  1.00  0.00    -0.284 N 
ATOM      9  H5  UNL     1      19.865  26.005  34.899  1.00  0.00     0.188 HD
HETATM   10  N6  UNL     1      17.929  26.746  35.010  1.00  0.00    -0.298 N 
ATOM     11  H6  UNL     1      17.863  27.247  34.124  1.00  0.00     0.187 HD
HETATM   12  C12 UNL     1      16.932  26.667  35.929  1.00  0.00     0.063 A 
HETATM   13  C13 UNL     1      15.650  27.171  35.974  1.00  0.00     0.045 A 
ENDROOT
BRANCH   1  14
HETATM   14  C5  UNL     1      13.489  27.437  37.142  1.00  0.00     0.050 A 
HETATM   15  N2  UNL     1      12.573  27.052  36.307  1.00  0.00    -0.349 N 
HETATM   16  C4  UNL     1      11.351  27.542  36.392  1.00  0.00     0.087 A 
ATOM     17  H2  UNL     1      12.799  26.369  35.583  1.00  0.00     0.166 HD
HETATM   18  S2  UNL     1      11.471  28.608  37.717  1.00  0.00    -0.081 SA
HETATM   19  C14 UNL     1      13.117  28.359  38.094  1.00  0.00     0.082 A 
BRANCH  16  20
HETATM   20  C3  UNL     1      10.176  27.229  35.538  1.00  0.00     0.032 A 
HETATM   21  C2  UNL     1       9.311  26.182  35.740  1.00  0.00     0.125 A 
HETATM   22  N1  UNL     1       8.376  26.204  34.783  1.00  0.00    -0.307 N 
HETATM   23  C1  UNL     1       7.247  25.283  34.593  1.00  0.00     0.177 C 
HETATM   24  N7  UNL     1       8.656  27.243  34.003  1.00  0.00    -0.310 N 
HETATM   25  C15 UNL     1       9.751  27.894  34.435  1.00  0.00     0.123 A 
ATOM     26  H7  UNL     1       8.111  27.512  33.183  1.00  0.00     0.186 HD
ENDBRANCH  16  20
ENDBRANCH   1  14
BRANCH   6  27
HETATM   27  C11 UNL     1      20.840  24.468  37.030  1.00  0.00     0.186 C 
HETATM   28  N4  UNL     1      21.678  25.262  36.194  1.00  0.00    -0.070 NA
HETATM   29  S1  UNL     1      21.505  23.070  37.600  1.00  0.00    -0.044 SA
ENDBRANCH   6  27
TORSDOF 3
ENDMDL
MODEL 5
REMARK VINA RESULT: -8.013991396      4.277      6.714
REMARK  3 active torsions:
REMARK  status: ('A' for Active; 'I' for Inactive)
REMARK    1  A    between atoms: C3_4  and  C4_5 
REMARK    2  A    between atoms: C5_8  and  C6_9 
REMARK    3  A    between atoms: N3_14  and  C11_16 
ROOT
HETATM    1  C6  UNL     1      11.306  26.743  34.839  1.00  0.00    -0.007 A 
HETATM    2  C7  UNL     1      10.682  26.205  35.921  1.00  0.00     0.015 A 
HETATM    3  C8  UNL     1       9.388  25.750  35.791  1.00  0.00     0.018 A 
HETATM    4  C9  UNL     1       8.693  25.814  34.609  1.00  0.00     0.037 A 
HETATM    5  C10 UNL     1       7.423  25.444  34.204  1.00  0.00     0.134 A 
HETATM    6  N3  UNL     1       6.561  24.901  34.979  1.00  0.00    -0.320 N 
ATOM      7  H3  UNL     1       6.827  24.730  35.949  1.00  0.00     0.169 HD
HETATM    8  N5  UNL     1       7.347  25.775  32.915  1.00  0.00    -0.284 N 
ATOM      9  H5  UNL     1       6.529  25.630  32.324  1.00  0.00     0.188 HD
HETATM   10  N6  UNL     1       8.479  26.315  32.515  1.00  0.00    -0.298 N 
ATOM     11  H6  UNL     1       8.660  26.647  31.568  1.00  0.00     0.187 HD
HETATM   12  C12 UNL     1       9.372  26.370  33.537  1.00  0.00     0.063 A 
HETATM   13  C13 UNL     1      10.666  26.835  33.634  1.00  0.00     0.045 A 
ENDROOT
BRANCH   1  14
HETATM   14  C5  UNL     1      12.706  27.240  34.968  1.00  0.00     0.050 A 
HETATM   15  N2  UNL     1      13.595  26.587  35.653  1.00  0.00    -0.349 N 
HETATM   16  C4  UNL     1      14.826  27.050  35.750  1.00  0.00     0.087 A 
ATOM     17  H2  UNL     1      13.340  25.715  36.117  1.00  0.00     0.166 HD
HETATM   18  S2  UNL     1      14.757  28.484  34.832  1.00  0.00    -0.081 SA
HETATM   19  C14 UNL     1      13.116  28.408  34.366  1.00  0.00     0.082 A 
BRANCH  16  20
HETATM   20  C3  UNL     1      15.975  26.453  36.480  1.00  0.00     0.032 A 
HETATM   21  C2  UNL     1      17.259  26.379  36.003  1.00  0.00     0.125 A 
HETATM   22  N1  UNL     1      18.028  25.781  36.922  1.00  0.00    -0.307 N 
HETATM   23  C1  UNL     1      19.465  25.485  36.853  1.00  0.00     0.177 C 
HETATM   24  N7  UNL     1      17.235  25.491  37.949  1.00  0.00    -0.310 N 
HETATM   25  C15 UNL     1      15.970  25.888  37.713  1.00  0.00     0.123 A 
ATOM     26  H7  UNL     1      17.544  25.028  38.804  1.00  0.00     0.186 HD
ENDBRANCH  16  20
ENDBRANCH   1  14
BRANCH   6  27
HETATM   27  C11 UNL     1       5.268  24.524  34.569  1.00  0.00     0.186 C 
HETATM   28  N4  UNL     1       4.983  23.994  33.278  1.00  0.00    -0.070 NA
HETATM   29  S1  UNL     1       3.977  24.677  35.587  1.00  0.00    -0.044 SA
ENDBRANCH   6  27
TORSDOF 3
ENDMDL
