MODEL 1
REMARK VINA RESULT: -8.418676283      0.000      0.000
REMARK  5 active torsions:
REMARK  status: ('A' for Active; 'I' for Inactive)
REMARK    1  A    between atoms: N1_2  and  C2_4 
REMARK    2  A    between atoms: C3_7  and  N3_8 
REMARK    3  A    between atoms: N3_8  and  C4_10 
REMARK    4  A    between atoms: C11_20  and  N6_21 
REMARK    5  A    between atoms: N6_21  and  C12_23 
ROOT
HETATM    1  C4  UNL     1      15.337  25.713  37.414  1.00  0.00     0.049 A 
HETATM    2  C5  UNL     1      16.410  25.176  38.055  1.00  0.00     0.031 A 
HETATM    3  C6  UNL     1      17.705  25.397  37.625  1.00  0.00     0.025 A 
HETATM    4  C7  UNL     1      17.908  26.183  36.517  1.00  0.00     0.044 A 
HETATM    5  C8  UNL     1      19.263  26.395  36.094  1.00  0.00     0.099 C 
HETATM    6  N4  UNL     1      20.354  26.546  35.759  1.00  0.00    -0.191 NA
HETATM    7  C9  UNL     1      16.826  26.734  35.859  1.00  0.00     0.025 A 
HETATM    8  C10 UNL     1      15.543  26.508  36.295  1.00  0.00     0.031 A 
ENDROOT
BRANCH   1   9
HETATM    9  N3  UNL     1      14.037  25.440  37.917  1.00  0.00    -0.191 N 
ATOM     10  H3  UNL     1      13.830  24.527  38.322  1.00  0.00     0.184 HD
BRANCH   9  11
HETATM   11  C3  UNL     1      13.117  26.344  37.862  1.00  0.00     0.711 A 
HETATM   12  N2  UNL     1      13.103  27.423  38.679  1.00  0.00    -0.021 N 
HETATM   13  C2  UNL     1      12.136  28.357  38.609  1.00  0.00     0.706 A 
ATOM     14  H2  UNL     1      13.847  27.532  39.369  1.00  0.00     0.203 HD
HETATM   15  N8  UNL     1      11.168  28.190  37.691  1.00  0.00    -0.021 N 
HETATM   16  C11 UNL     1      11.128  27.152  36.860  1.00  0.00     0.711 A 
ATOM     17  H8  UNL     1      10.430  28.892  37.629  1.00  0.00     0.203 HD
HETATM   18  N5  UNL     1      12.120  26.233  36.964  1.00  0.00    -0.021 N 
ATOM     19  H5  UNL     1      12.112  25.428  36.338  1.00  0.00     0.203 HD
BRANCH  13  20
HETATM   20  N1  UNL     1      12.179  29.367  39.418  1.00  0.00    -0.229 N 
HETATM   21  C1  UNL     1      11.423  30.565  39.241  1.00  0.00     0.165 C 
ATOM     22  H1  UNL     1      12.790  29.303  40.233  1.00  0.00     0.177 HD
ENDBRANCH  13  20
BRANCH  16  23
HETATM   23  N6  UNL     1      10.232  26.943  35.971  1.00  0.00    -0.190 N 
ATOM     24  H6  UNL     1       9.426  27.568  36.000  1.00  0.00     0.184 HD
BRANCH  23  25
HETATM   25  C12 UNL     1      10.213  25.986  34.979  1.00  0.00     0.061 A 
HETATM   26  C13 UNL     1      10.831  26.206  33.771  1.00  0.00    -0.033 A 
HETATM   27  C14 UNL     1      11.535  27.470  33.483  1.00  0.00     0.050 C 
HETATM   28  C15 UNL     1      10.815  25.239  32.763  1.00  0.00     0.031 A 
HETATM   29  C16 UNL     1      10.180  24.052  32.970  1.00  0.00     0.045 A 
HETATM   30  C17 UNL     1      10.121  23.003  31.975  1.00  0.00     0.099 C 
HETATM   31  C18 UNL     1       9.559  23.808  34.163  1.00  0.00     0.031 A 
HETATM   32  N7  UNL     1      10.091  22.163  31.167  1.00  0.00    -0.191 NA
HETATM   33  C19 UNL     1       9.583  24.785  35.162  1.00  0.00    -0.033 A 
HETATM   34  C20 UNL     1       8.911  24.503  36.432  1.00  0.00     0.050 C 
ENDBRANCH  23  25
ENDBRANCH  16  23
ENDBRANCH   9  11
ENDBRANCH   1   9
TORSDOF 5
ENDMDL
MODEL 2
REMARK VINA RESULT: -8.411988270      3.299      6.724
REMARK  5 active torsions:
REMARK  status: ('A' for Active; 'I' for Inactive)
REMARK    1  A    between atoms: N1_2  and  C2_4 
REMARK    2  A    between atoms: C3_7  and  N3_8 
REMARK    3  A    between atoms: N3_8  and  C4_10 
REMARK    4  A    between atoms: C11_20  and  N6_21 
REMARK    5  A    between atoms: N6_21  and  C12_23 
ROOT
HETATM    1  C4  UNL     1       9.390  22.761  33.290  1.00  0.00     0.049 A 
HETATM    2  C5  UNL     1      10.246  23.146  32.304  1.00  0.00     0.031 A 
HETATM    3  C6  UNL     1      11.413  22.457  32.038  1.00  0.00     0.025 A 
HETATM    4  C7  UNL     1      11.714  21.350  32.796  1.00  0.00     0.044 A 
HETATM    5  C8  UNL     1      12.933  20.654  32.497  1.00  0.00     0.099 C 
HETATM    6  N4  UNL     1      13.920  20.113  32.254  1.00  0.00    -0.191 NA
HETATM    7  C9  UNL     1      10.852  20.950  33.797  1.00  0.00     0.025 A 
HETATM    8  C10 UNL     1       9.694  21.643  34.054  1.00  0.00     0.031 A 
ENDROOT
BRANCH   1   9
HETATM    9  N3  UNL     1       8.209  23.522  33.502  1.00  0.00    -0.191 N 
ATOM     10  H3  UNL     1       7.420  23.426  32.863  1.00  0.00     0.184 HD
BRANCH   9  11
HETATM   11  C3  UNL     1       8.133  24.336  34.502  1.00  0.00     0.711 A 
HETATM   12  N2  UNL     1       7.454  24.039  35.635  1.00  0.00    -0.021 N 
HETATM   13  C2  UNL     1       7.384  24.899  36.668  1.00  0.00     0.706 A 
ATOM     14  H2  UNL     1       6.981  23.138  35.707  1.00  0.00     0.203 HD
HETATM   15  N8  UNL     1       8.017  26.079  36.546  1.00  0.00    -0.021 N 
HETATM   16  C11 UNL     1       8.699  26.427  35.459  1.00  0.00     0.711 A 
ATOM     17  H8  UNL     1       7.970  26.738  37.323  1.00  0.00     0.203 HD
HETATM   18  N5  UNL     1       8.745  25.533  34.441  1.00  0.00    -0.021 N 
ATOM     19  H5  UNL     1       9.263  25.776  33.596  1.00  0.00     0.203 HD
BRANCH  13  20
HETATM   20  N1  UNL     1       6.719  24.556  37.726  1.00  0.00    -0.229 N 
HETATM   21  C1  UNL     1       6.939  23.346  38.450  1.00  0.00     0.165 C 
ATOM     22  H1  UNL     1       5.994  25.190  38.061  1.00  0.00     0.177 HD
ENDBRANCH  13  20
BRANCH  16  23
HETATM   23  N6  UNL     1       9.317  27.534  35.290  1.00  0.00    -0.190 N 
ATOM     24  H6  UNL     1       8.731  28.370  35.269  1.00  0.00     0.184 HD
BRANCH  23  25
HETATM   25  C12 UNL     1      10.670  27.747  35.134  1.00  0.00     0.061 A 
HETATM   26  C13 UNL     1      11.505  27.830  36.223  1.00  0.00    -0.033 A 
HETATM   27  C14 UNL     1      10.992  27.696  37.599  1.00  0.00     0.050 C 
HETATM   28  C15 UNL     1      12.876  28.045  36.069  1.00  0.00     0.031 A 
HETATM   29  C16 UNL     1      13.408  28.176  34.821  1.00  0.00     0.045 A 
HETATM   30  C17 UNL     1      14.817  28.400  34.583  1.00  0.00     0.099 C 
HETATM   31  C18 UNL     1      12.600  28.097  33.723  1.00  0.00     0.031 A 
HETATM   32  N7  UNL     1      15.957  28.570  34.406  1.00  0.00    -0.191 NA
HETATM   33  C19 UNL     1      11.229  27.882  33.891  1.00  0.00    -0.033 A 
HETATM   34  C20 UNL     1      10.382  27.802  32.701  1.00  0.00     0.050 C 
ENDBRANCH  23  25
ENDBRANCH  16  23
ENDBRANCH   9  11
ENDBRANCH   1   9
TORSDOF 5
ENDMDL
MODEL 3
REMARK VINA RESULT: -8.381718605      0.053      1.592
REMARK  5 active torsions:
REMARK  status: ('A' for Active; 'I' for Inactive)
REMARK    1  A    between atoms: N1_2  and  C2_4 
REMARK    2  A    between atoms: C3_7  and  N3_8 
REMARK    3  A    between atoms: N3_8  and  C4_10 
REMARK    4  A    between atoms: C11_20  and  N6_21 
REMARK    5  A    between atoms: N6_21  and  C12_23 
ROOT
HETATM    1  C4  UNL     1      15.337  25.714  37.401  1.00  0.00     0.049 A 
HETATM    2  C5  UNL     1      16.406  25.182  38.053  1.00  0.00     0.031 A 
HETATM    3  C6  UNL     1      17.704  25.399  37.629  1.00  0.00     0.025 A 
HETATM    4  C7  UNL     1      17.914  26.176  36.516  1.00  0.00     0.044 A 
HETATM    5  C8  UNL     1      19.271  26.385  36.099  1.00  0.00     0.099 C 
HETATM    6  N4  UNL     1      20.365  26.533  35.770  1.00  0.00    -0.191 NA
HETATM    7  C9  UNL     1      16.836  26.723  35.847  1.00  0.00     0.025 A 
HETATM    8  C10 UNL     1      15.550  26.500  36.277  1.00  0.00     0.031 A 
ENDROOT
BRANCH   1   9
HETATM    9  N3  UNL     1      14.034  25.445  37.898  1.00  0.00    -0.191 N 
ATOM     10  H3  UNL     1      13.822  24.533  38.301  1.00  0.00     0.184 HD
BRANCH   9  11
HETATM   11  C3  UNL     1      13.117  26.353  37.841  1.00  0.00     0.711 A 
HETATM   12  N2  UNL     1      13.098  27.424  38.669  1.00  0.00    -0.021 N 
HETATM   13  C2  UNL     1      12.135  28.362  38.597  1.00  0.00     0.706 A 
ATOM     14  H2  UNL     1      13.834  27.523  39.369  1.00  0.00     0.203 HD
HETATM   15  N8  UNL     1      11.177  28.207  37.665  1.00  0.00    -0.021 N 
HETATM   16  C11 UNL     1      11.143  27.178  36.824  1.00  0.00     0.711 A 
ATOM     17  H8  UNL     1      10.443  28.913  37.602  1.00  0.00     0.203 HD
HETATM   18  N5  UNL     1      12.132  26.255  36.930  1.00  0.00    -0.021 N 
ATOM     19  H5  UNL     1      12.128  25.457  36.296  1.00  0.00     0.203 HD
BRANCH  13  20
HETATM   20  N1  UNL     1      12.171  29.364  39.417  1.00  0.00    -0.229 N 
HETATM   21  C1  UNL     1      11.420  30.564  39.245  1.00  0.00     0.165 C 
ATOM     22  H1  UNL     1      12.775  29.290  40.237  1.00  0.00     0.177 HD
ENDBRANCH  13  20
BRANCH  16  23
HETATM   23  N6  UNL     1      10.258  26.982  35.922  1.00  0.00    -0.190 N 
ATOM     24  H6  UNL     1       9.486  27.649  35.907  1.00  0.00     0.184 HD
BRANCH  23  25
HETATM   25  C12 UNL     1      10.210  25.989  34.968  1.00  0.00     0.061 A 
HETATM   26  C13 UNL     1       9.546  24.809  35.206  1.00  0.00    -0.033 A 
HETATM   27  C14 UNL     1       8.861  24.554  36.487  1.00  0.00     0.050 C 
HETATM   28  C15 UNL     1       9.494  23.800  34.241  1.00  0.00     0.031 A 
HETATM   29  C16 UNL     1      10.108  23.977  33.038  1.00  0.00     0.045 A 
HETATM   30  C17 UNL     1      10.097  22.979  31.991  1.00  0.00     0.099 C 
HETATM   31  C18 UNL     1      10.774  25.141  32.776  1.00  0.00     0.031 A 
HETATM   32  N7  UNL     1      10.071  22.169  31.153  1.00  0.00    -0.191 NA
HETATM   33  C19 UNL     1      10.818  26.142  33.750  1.00  0.00    -0.033 A 
HETATM   34  C20 UNL     1      11.537  27.381  33.449  1.00  0.00     0.050 C 
ENDBRANCH  23  25
ENDBRANCH  16  23
ENDBRANCH   9  11
ENDBRANCH   1   9
TORSDOF 5
ENDMDL
MODEL 4
REMARK VINA RESULT: -8.375925184      3.315      6.623
REMARK  5 active torsions:
REMARK  status: ('A' for Active; 'I' for Inactive)
REMARK    1  A    between atoms: N1_2  and  C2_4 
REMARK    2  A    between atoms: C3_7  and  N3_8 
REMARK    3  A    between atoms: N3_8  and  C4_10 
REMARK    4  A    between atoms: C11_20  and  N6_21 
REMARK    5  A    between atoms: N6_21  and  C12_23 
ROOT
HETATM    1  C4  UNL     1       9.377  22.726  33.333  1.00  0.00     0.049 A 
HETATM    2  C5  UNL     1      10.220  23.105  32.334  1.00  0.00     0.031 A 
HETATM    3  C6  UNL     1      11.390  22.421  32.065  1.00  0.00     0.025 A 
HETATM    4  C7  UNL     1      11.706  21.326  32.833  1.00  0.00     0.044 A 
HETATM    5  C8  UNL     1      12.927  20.635  32.531  1.00  0.00     0.099 C 
HETATM    6  N4  UNL     1      13.916  20.098  32.285  1.00  0.00    -0.191 NA
HETATM    7  C9  UNL     1      10.858  20.931  33.848  1.00  0.00     0.025 A 
HETATM    8  C10 UNL     1       9.697  21.619  34.107  1.00  0.00     0.031 A 
ENDROOT
BRANCH   1   9
HETATM    9  N3  UNL     1       8.193  23.480  33.547  1.00  0.00    -0.191 N 
ATOM     10  H3  UNL     1       7.403  23.379  32.910  1.00  0.00     0.184 HD
BRANCH   9  11
HETATM   11  C3  UNL     1       8.115  24.295  34.546  1.00  0.00     0.711 A 
HETATM   12  N2  UNL     1       7.443  23.995  35.682  1.00  0.00    -0.021 N 
HETATM   13  C2  UNL     1       7.371  24.855  36.715  1.00  0.00     0.706 A 
ATOM     14  H2  UNL     1       6.977  23.090  35.758  1.00  0.00     0.203 HD
HETATM   15  N8  UNL     1       7.994  26.040  36.589  1.00  0.00    -0.021 N 
HETATM   16  C11 UNL     1       8.670  26.392  35.499  1.00  0.00     0.711 A 
ATOM     17  H8  UNL     1       7.947  26.699  37.366  1.00  0.00     0.203 HD
HETATM   18  N5  UNL     1       8.718  25.496  34.481  1.00  0.00    -0.021 N 
ATOM     19  H5  UNL     1       9.230  25.742  33.634  1.00  0.00     0.203 HD
BRANCH  13  20
HETATM   20  N1  UNL     1       6.713  24.509  37.776  1.00  0.00    -0.229 N 
HETATM   21  C1  UNL     1       6.882  23.262  38.449  1.00  0.00     0.165 C 
ATOM     22  H1  UNL     1       6.032  25.169  38.153  1.00  0.00     0.177 HD
ENDBRANCH  13  20
BRANCH  16  23
HETATM   23  N6  UNL     1       9.279  27.503  35.326  1.00  0.00    -0.190 N 
ATOM     24  H6  UNL     1       8.691  28.337  35.337  1.00  0.00     0.184 HD
BRANCH  23  25
HETATM   25  C12 UNL     1      10.625  27.722  35.127  1.00  0.00     0.061 A 
HETATM   26  C13 UNL     1      11.142  27.849  33.859  1.00  0.00    -0.033 A 
HETATM   27  C14 UNL     1      10.284  27.755  32.663  1.00  0.00     0.050 C 
HETATM   28  C15 UNL     1      12.505  28.073  33.653  1.00  0.00     0.031 A 
HETATM   29  C16 UNL     1      13.348  28.169  34.719  1.00  0.00     0.045 A 
HETATM   30  C17 UNL     1      14.770  28.399  34.585  1.00  0.00     0.099 C 
HETATM   31  C18 UNL     1      12.859  28.047  35.989  1.00  0.00     0.031 A 
HETATM   32  N7  UNL     1      15.912  28.595  34.460  1.00  0.00    -0.191 NA
HETATM   33  C19 UNL     1      11.492  27.824  36.181  1.00  0.00    -0.033 A 
HETATM   34  C20 UNL     1      10.990  27.695  37.550  1.00  0.00     0.050 C 
ENDBRANCH  23  25
ENDBRANCH  16  23
ENDBRANCH   9  11
ENDBRANCH   1   9
TORSDOF 5
ENDMDL
MODEL 5
REMARK VINA RESULT: -8.345314380      1.986      7.320
REMARK  5 active torsions:
REMARK  status: ('A' for Active; 'I' for Inactive)
REMARK    1  A    between atoms: N1_2  and  C2_4 
REMARK    2  A    between atoms: C3_7  and  N3_8 
REMARK    3  A    between atoms: N3_8  and  C4_10 
REMARK    4  A    between atoms: C11_20  and  N6_21 
REMARK    5  A    between atoms: N6_21  and  C12_23 
ROOT
HETATM    1  C4  UNL     1       9.703  24.956  32.517  1.00  0.00     0.049 A 
HETATM    2  C5  UNL     1      10.914  24.336  32.507  1.00  0.00     0.031 A 
HETATM    3  C6  UNL     1      11.058  23.016  32.123  1.00  0.00     0.025 A 
HETATM    4  C7  UNL     1       9.940  22.315  31.741  1.00  0.00     0.044 A 
HETATM    5  C8  UNL     1      10.119  20.946  31.348  1.00  0.00     0.099 C 
HETATM    6  N4  UNL     1      10.277  19.846  31.047  1.00  0.00    -0.191 NA
HETATM    7  C9  UNL     1       8.706  22.934  31.746  1.00  0.00     0.025 A 
HETATM    8  C10 UNL     1       8.574  24.247  32.130  1.00  0.00     0.031 A 
ENDROOT
BRANCH   1   9
HETATM    9  N3  UNL     1       9.637  26.315  32.924  1.00  0.00    -0.191 N 
ATOM     10  H3  UNL     1       9.550  27.052  32.225  1.00  0.00     0.184 HD
BRANCH   9  11
HETATM   11  C3  UNL     1       9.687  26.620  34.178  1.00  0.00     0.711 A 
HETATM   12  N2  UNL     1       8.713  26.276  35.053  1.00  0.00    -0.021 N 
HETATM   13  C2  UNL     1       8.780  26.601  36.357  1.00  0.00     0.706 A 
ATOM     14  H2  UNL     1       7.903  25.755  34.713  1.00  0.00     0.203 HD
HETATM   15  N8  UNL     1       9.858  27.286  36.778  1.00  0.00    -0.021 N 
HETATM   16  C11 UNL     1      10.847  27.652  35.967  1.00  0.00     0.711 A 
ATOM     17  H8  UNL     1       9.920  27.538  37.765  1.00  0.00     0.203 HD
HETATM   18  N5  UNL     1      10.740  27.305  34.660  1.00  0.00    -0.021 N 
ATOM     19  H5  UNL     1      11.486  27.573  34.019  1.00  0.00     0.203 HD
BRANCH  13  20
HETATM   20  N1  UNL     1       7.816  26.243  37.144  1.00  0.00    -0.229 N 
HETATM   21  C1  UNL     1       7.064  25.040  36.989  1.00  0.00     0.165 C 
ATOM     22  H1  UNL     1       7.580  26.858  37.923  1.00  0.00     0.177 HD
ENDBRANCH  13  20
BRANCH  16  23
HETATM   23  N6  UNL     1      11.891  28.304  36.313  1.00  0.00    -0.190 N 
ATOM     24  H6  UNL     1      11.762  29.306  36.454  1.00  0.00     0.184 HD
BRANCH  23  25
HETATM   25  C12 UNL     1      13.169  27.830  36.522  1.00  0.00     0.061 A 
HETATM   26  C13 UNL     1      13.504  27.184  37.688  1.00  0.00    -0.033 A 
HETATM   27  C14 UNL     1      12.516  26.972  38.763  1.00  0.00     0.050 C 
HETATM   28  C15 UNL     1      14.797  26.702  37.903  1.00  0.00     0.031 A 
HETATM   29  C16 UNL     1      15.752  26.868  36.947  1.00  0.00     0.045 A 
HETATM   30  C17 UNL     1      17.112  26.397  37.097  1.00  0.00     0.099 C 
HETATM   31  C18 UNL     1      15.445  27.506  35.778  1.00  0.00     0.031 A 
HETATM   32  N7  UNL     1      18.201  26.002  37.229  1.00  0.00    -0.191 NA
HETATM   33  C19 UNL     1      14.147  27.984  35.576  1.00  0.00    -0.033 A 
HETATM   34  C20 UNL     1      13.841  28.665  34.318  1.00  0.00     0.050 C 
ENDBRANCH  23  25
ENDBRANCH  16  23
ENDBRANCH   9  11
ENDBRANCH   1   9
TORSDOF 5
ENDMDL
