MODEL 1
REMARK VINA RESULT: -7.644497834      0.000      0.000
REMARK  10 active torsions:
REMARK  status: ('A' for Active; 'I' for Inactive)
REMARK    1  A    between atoms: C2_2  and  N1_3 
REMARK    2  A    between atoms: N1_3  and  C3_5 
REMARK    3  A    between atoms: N2_7  and  C5_8 
REMARK    4  A    between atoms: C6_11  and  N4_12 
REMARK    5  A    between atoms: C11_20  and  N6_21 
REMARK    6  A    between atoms: C13_27  and  N9_28 
REMARK    7  A    between atoms: N9_28  and  C14_30 
REMARK    8  A    between atoms: C14_30  and  C17_33 
REMARK    9  A    between atoms: C17_33  and  O2_34 
REMARK   10  A    between atoms: C18_38  and  N11_39 
ROOT
HETATM    1  N6  UNL     1     -24.272   0.146  63.877  1.00  0.00    -0.051 N 
HETATM    2  N7  UNL     1     -23.293  -0.601  63.309  1.00  0.00    -0.219 N 
ATOM      3  H7  UNL     1     -23.389  -1.571  63.010  1.00  0.00     0.209 HD
HETATM    4  N8  UNL     1     -22.213   0.112  63.205  1.00  0.00    -0.278 N 
ATOM      5  H8  UNL     1     -21.329  -0.212  62.812  1.00  0.00     0.189 HD
HETATM    6  C12 UNL     1     -22.441   1.355  63.701  1.00  0.00     0.141 A 
HETATM    7  C13 UNL     1     -21.576   2.462  63.792  1.00  0.00     0.150 A 
HETATM    8  N10 UNL     1     -22.084   3.568  64.325  1.00  0.00    -0.174 N 
ATOM      9  H10 UNL     1     -21.503   4.401  64.417  1.00  0.00     0.186 HD
HETATM   10  C18 UNL     1     -23.373   3.593  64.748  1.00  0.00     0.681 A 
HETATM   11  N12 UNL     1     -24.188   2.538  64.657  1.00  0.00    -0.168 N 
HETATM   12  C19 UNL     1     -25.562   2.574  65.133  1.00  0.00     0.177 C 
HETATM   13  C20 UNL     1     -23.753   1.353  64.121  1.00  0.00     0.196 A 
ENDROOT
BRANCH   1  14
HETATM   14  C11 UNL     1     -25.582  -0.310  64.132  1.00  0.00     0.735 A 
HETATM   15  N5  UNL     1     -26.283   0.136  65.206  1.00  0.00    -0.019 N 
HETATM   16  C6  UNL     1     -27.496  -0.321  65.454  1.00  0.00     0.709 A 
ATOM     17  H5  UNL     1     -25.869   0.831  65.828  1.00  0.00     0.203 HD
HETATM   18  N3  UNL     1     -28.036  -1.238  64.633  1.00  0.00    -0.021 N 
HETATM   19  C5  UNL     1     -27.385  -1.723  63.542  1.00  0.00     0.709 A 
ATOM     20  H3  UNL     1     -28.974  -1.584  64.837  1.00  0.00     0.203 HD
HETATM   21  N13 UNL     1     -26.155  -1.222  63.339  1.00  0.00    -0.019 N 
ATOM     22  H13 UNL     1     -25.627  -1.555  62.533  1.00  0.00     0.203 HD
BRANCH  16  23
HETATM   23  N4  UNL     1     -28.291   0.102  66.563  1.00  0.00    -0.213 N 
HETATM   24  C7  UNL     1     -29.078  -0.927  67.219  1.00  0.00     0.167 C 
HETATM   25  C8  UNL     1     -29.383  -0.574  68.651  1.00  0.00     0.188 C 
HETATM   26  O1  UNL     1     -29.574   0.795  68.826  1.00  0.00    -0.388 OA
HETATM   27  C9  UNL     1     -28.395   1.478  68.501  1.00  0.00     0.188 C 
HETATM   28  C10 UNL     1     -28.300   1.480  66.989  1.00  0.00     0.167 C 
ENDBRANCH  16  23
BRANCH  19  29
HETATM   29  N2  UNL     1     -27.975  -2.683  62.697  1.00  0.00    -0.213 N 
HETATM   30  C4  UNL     1     -28.151  -2.882  61.277  1.00  0.00     0.168 C 
HETATM   31  C3  UNL     1     -29.454  -3.547  61.648  1.00  0.00     0.117 C 
HETATM   32  C21 UNL     1     -28.687  -3.934  62.863  1.00  0.00     0.168 C 
BRANCH  31  33
HETATM   33  N1  UNL     1     -30.029  -4.459  60.784  1.00  0.00    -0.395 N 
ATOM     34  H1  UNL     1     -29.499  -5.297  60.543  1.00  0.00     0.159 HD
BRANCH  33  35
HETATM   35  C2  UNL     1     -31.298  -4.292  60.224  1.00  0.00     0.051 C 
HETATM   36  C1  UNL     1     -32.409  -4.209  61.240  1.00  0.00     0.054 C 
ENDBRANCH  33  35
ENDBRANCH  31  33
ENDBRANCH  19  29
ENDBRANCH   1  14
BRANCH   7  37
HETATM   37  N9  UNL     1     -20.402   2.293  63.358  1.00  0.00    -0.363 N 
ATOM     38  H9  UNL     1     -19.799   1.716  63.945  1.00  0.00     0.162 HD
BRANCH  37  39
HETATM   39  C14 UNL     1     -19.807   2.780  62.191  1.00  0.00     0.045 C 
HETATM   40  C15 UNL     1     -20.321   1.864  61.042  1.00  0.00     0.040 C 
HETATM   41  C16 UNL     1     -18.311   2.658  62.159  1.00  0.00     0.040 C 
BRANCH  39  42
HETATM   42  C17 UNL     1     -20.211   4.197  61.793  1.00  0.00     0.194 C 
BRANCH  42  43
HETATM   43  O2  UNL     1     -20.046   4.343  60.412  1.00  0.00    -0.398 OA
ATOM     44  H2  UNL     1     -20.227   5.245  60.175  1.00  0.00     0.209 HD
ENDBRANCH  42  43
ENDBRANCH  39  42
ENDBRANCH  37  39
ENDBRANCH   7  37
BRANCH  10  45
HETATM   45  N11 UNL     1     -23.752   4.711  65.224  1.00  0.00    -0.234 N 
ATOM     46 2H11 UNL     1     -23.096   5.455  65.463  1.00  0.00     0.174 HD
ATOM     47 1H11 UNL     1     -24.759   4.795  65.358  1.00  0.00     0.174 HD
ENDBRANCH  10  45
TORSDOF 10
ENDMDL
MODEL 2
REMARK VINA RESULT: -7.467616329      3.163      5.615
REMARK  10 active torsions:
REMARK  status: ('A' for Active; 'I' for Inactive)
REMARK    1  A    between atoms: C2_2  and  N1_3 
REMARK    2  A    between atoms: N1_3  and  C3_5 
REMARK    3  A    between atoms: N2_7  and  C5_8 
REMARK    4  A    between atoms: C6_11  and  N4_12 
REMARK    5  A    between atoms: C11_20  and  N6_21 
REMARK    6  A    between atoms: C13_27  and  N9_28 
REMARK    7  A    between atoms: N9_28  and  C14_30 
REMARK    8  A    between atoms: C14_30  and  C17_33 
REMARK    9  A    between atoms: C17_33  and  O2_34 
REMARK   10  A    between atoms: C18_38  and  N11_39 
ROOT
HETATM    1  N6  UNL     1     -22.009   1.974  62.777  1.00  0.00    -0.051 N 
HETATM    2  N7  UNL     1     -21.215   1.455  61.807  1.00  0.00    -0.219 N 
ATOM      3  H7  UNL     1     -21.343   0.545  61.365  1.00  0.00     0.209 HD
HETATM    4  N8  UNL     1     -20.267   2.297  61.530  1.00  0.00    -0.278 N 
ATOM      5  H8  UNL     1     -19.534   2.150  60.835  1.00  0.00     0.189 HD
HETATM    6  C12 UNL     1     -20.402   3.403  62.306  1.00  0.00     0.141 A 
HETATM    7  C13 UNL     1     -19.619   4.572  62.353  1.00  0.00     0.150 A 
HETATM    8  N10 UNL     1     -19.999   5.504  63.220  1.00  0.00    -0.174 N 
ATOM      9  H10 UNL     1     -19.469   6.372  63.297  1.00  0.00     0.186 HD
HETATM   10  C18 UNL     1     -21.089   5.306  64.003  1.00  0.00     0.681 A 
HETATM   11  N12 UNL     1     -21.827   4.193  63.952  1.00  0.00    -0.168 N 
HETATM   12  C19 UNL     1     -22.982   3.986  64.813  1.00  0.00     0.177 C 
HETATM   13  C20 UNL     1     -21.513   3.175  63.088  1.00  0.00     0.196 A 
ENDROOT
BRANCH   1  14
HETATM   14  C11 UNL     1     -23.143   1.331  63.315  1.00  0.00     0.735 A 
HETATM   15  N5  UNL     1     -23.334  -0.003  63.156  1.00  0.00    -0.019 N 
HETATM   16  C6  UNL     1     -24.415  -0.589  63.636  1.00  0.00     0.709 A 
ATOM     17  H5  UNL     1     -22.635  -0.559  62.662  1.00  0.00     0.203 HD
HETATM   18  N3  UNL     1     -25.333   0.147  64.283  1.00  0.00    -0.021 N 
HETATM   19  C5  UNL     1     -25.200   1.487  64.474  1.00  0.00     0.709 A 
ATOM     20  H3  UNL     1     -26.165  -0.318  64.647  1.00  0.00     0.203 HD
HETATM   21  N13 UNL     1     -24.080   2.029  63.966  1.00  0.00    -0.019 N 
ATOM     22  H13 UNL     1     -23.935   3.032  64.084  1.00  0.00     0.203 HD
BRANCH  16  23
HETATM   23  N4  UNL     1     -24.682  -1.986  63.506  1.00  0.00    -0.213 N 
HETATM   24  C7  UNL     1     -23.666  -2.775  62.833  1.00  0.00     0.167 C 
HETATM   25  C8  UNL     1     -23.710  -4.223  63.248  1.00  0.00     0.188 C 
HETATM   26  O1  UNL     1     -25.010  -4.659  63.496  1.00  0.00    -0.388 OA
HETATM   27  C9  UNL     1     -25.553  -3.933  64.563  1.00  0.00     0.188 C 
HETATM   28  C10 UNL     1     -25.902  -2.562  64.019  1.00  0.00     0.167 C 
ENDBRANCH  16  23
BRANCH  19  29
HETATM   29  N2  UNL     1     -26.176   2.237  65.159  1.00  0.00    -0.213 N 
HETATM   30  C4  UNL     1     -26.218   3.414  65.995  1.00  0.00     0.168 C 
HETATM   31  C3  UNL     1     -27.366   2.733  66.699  1.00  0.00     0.117 C 
HETATM   32  C21 UNL     1     -27.612   2.173  65.343  1.00  0.00     0.168 C 
BRANCH  31  33
HETATM   33  N1  UNL     1     -28.290   3.490  67.393  1.00  0.00    -0.395 N 
ATOM     34  H1  UNL     1     -28.657   4.332  66.949  1.00  0.00     0.159 HD
BRANCH  33  35
HETATM   35  C2  UNL     1     -28.747   3.160  68.672  1.00  0.00     0.051 C 
HETATM   36  C1  UNL     1     -28.715   1.683  68.972  1.00  0.00     0.054 C 
ENDBRANCH  33  35
ENDBRANCH  31  33
ENDBRANCH  19  29
ENDBRANCH   1  14
BRANCH   7  37
HETATM   37  N9  UNL     1     -18.633   4.618  61.564  1.00  0.00    -0.363 N 
ATOM     38  H9  UNL     1     -17.959   3.859  61.665  1.00  0.00     0.162 HD
BRANCH  37  39
HETATM   39  C14 UNL     1     -18.329   5.557  60.575  1.00  0.00     0.045 C 
HETATM   40  C15 UNL     1     -17.363   4.833  59.591  1.00  0.00     0.040 C 
HETATM   41  C16 UNL     1     -17.571   6.755  61.067  1.00  0.00     0.040 C 
BRANCH  39  42
HETATM   42  C17 UNL     1     -19.509   6.014  59.723  1.00  0.00     0.194 C 
BRANCH  42  43
HETATM   43  O2  UNL     1     -20.017   4.913  59.025  1.00  0.00    -0.398 OA
ATOM     44  H2  UNL     1     -20.045   5.124  58.099  1.00  0.00     0.209 HD
ENDBRANCH  42  43
ENDBRANCH  39  42
ENDBRANCH  37  39
ENDBRANCH   7  37
BRANCH  10  45
HETATM   45  N11 UNL     1     -21.365   6.274  64.781  1.00  0.00    -0.234 N 
ATOM     46 2H11 UNL     1     -20.655   6.924  65.121  1.00  0.00     0.174 HD
ATOM     47 1H11 UNL     1     -22.348   6.340  65.045  1.00  0.00     0.174 HD
ENDBRANCH  10  45
TORSDOF 10
ENDMDL
MODEL 3
REMARK VINA RESULT: -7.396689638      3.075      4.323
REMARK  10 active torsions:
REMARK  status: ('A' for Active; 'I' for Inactive)
REMARK    1  A    between atoms: C2_2  and  N1_3 
REMARK    2  A    between atoms: N1_3  and  C3_5 
REMARK    3  A    between atoms: N2_7  and  C5_8 
REMARK    4  A    between atoms: C6_11  and  N4_12 
REMARK    5  A    between atoms: C11_20  and  N6_21 
REMARK    6  A    between atoms: C13_27  and  N9_28 
REMARK    7  A    between atoms: N9_28  and  C14_30 
REMARK    8  A    between atoms: C14_30  and  C17_33 
REMARK    9  A    between atoms: C17_33  and  O2_34 
REMARK   10  A    between atoms: C18_38  and  N11_39 
ROOT
HETATM    1  N6  UNL     1     -21.929   1.957  62.750  1.00  0.00    -0.051 N 
HETATM    2  N7  UNL     1     -21.137   1.482  61.757  1.00  0.00    -0.219 N 
ATOM      3  H7  UNL     1     -21.238   0.574  61.304  1.00  0.00     0.209 HD
HETATM    4  N8  UNL     1     -20.228   2.365  61.473  1.00  0.00    -0.278 N 
ATOM      5  H8  UNL     1     -19.504   2.256  60.762  1.00  0.00     0.189 HD
HETATM    6  C12 UNL     1     -20.389   3.453  62.267  1.00  0.00     0.141 A 
HETATM    7  C13 UNL     1     -19.651   4.652  62.315  1.00  0.00     0.150 A 
HETATM    8  N10 UNL     1     -20.049   5.556  63.203  1.00  0.00    -0.174 N 
ATOM      9  H10 UNL     1     -19.551   6.443  63.282  1.00  0.00     0.186 HD
HETATM   10  C18 UNL     1     -21.114   5.305  64.005  1.00  0.00     0.681 A 
HETATM   11  N12 UNL     1     -21.809   4.165  63.953  1.00  0.00    -0.168 N 
HETATM   12  C19 UNL     1     -22.937   3.902  64.834  1.00  0.00     0.177 C 
HETATM   13  C20 UNL     1     -21.473   3.172  63.068  1.00  0.00     0.196 A 
ENDROOT
BRANCH   1  14
HETATM   14  C11 UNL     1     -23.026   1.263  63.301  1.00  0.00     0.735 A 
HETATM   15  N5  UNL     1     -24.076   1.930  63.846  1.00  0.00    -0.019 N 
HETATM   16  C6  UNL     1     -25.082   1.270  64.388  1.00  0.00     0.709 A 
ATOM     17  H5  UNL     1     -24.087   2.950  63.836  1.00  0.00     0.203 HD
HETATM   18  N3  UNL     1     -25.061  -0.073  64.401  1.00  0.00    -0.021 N 
HETATM   19  C5  UNL     1     -24.039  -0.798  63.871  1.00  0.00     0.709 A 
ATOM     20  H3  UNL     1     -25.845  -0.570  64.825  1.00  0.00     0.203 HD
HETATM   21  N13 UNL     1     -23.043  -0.074  63.332  1.00  0.00    -0.019 N 
ATOM     22  H13 UNL     1     -22.254  -0.573  62.923  1.00  0.00     0.203 HD
BRANCH  16  23
HETATM   23  N4  UNL     1     -26.217   1.904  64.979  1.00  0.00    -0.213 N 
HETATM   24  C7  UNL     1     -27.419   1.098  65.090  1.00  0.00     0.167 C 
HETATM   25  C8  UNL     1     -28.319   1.577  66.199  1.00  0.00     0.188 C 
HETATM   26  O1  UNL     1     -28.285   2.963  66.343  1.00  0.00    -0.388 OA
HETATM   27  C9  UNL     1     -26.990   3.366  66.691  1.00  0.00     0.188 C 
HETATM   28  C10 UNL     1     -26.154   3.273  65.430  1.00  0.00     0.167 C 
ENDBRANCH  16  23
BRANCH  19  29
HETATM   29  N2  UNL     1     -24.042  -2.206  63.896  1.00  0.00    -0.213 N 
HETATM   30  C4  UNL     1     -23.200  -3.261  64.409  1.00  0.00     0.168 C 
HETATM   31  C3  UNL     1     -23.662  -4.056  63.213  1.00  0.00     0.117 C 
HETATM   32  C21 UNL     1     -24.905  -3.263  63.409  1.00  0.00     0.168 C 
BRANCH  31  33
HETATM   33  N1  UNL     1     -23.621  -5.437  63.249  1.00  0.00    -0.395 N 
ATOM     34  H1  UNL     1     -24.238  -5.921  63.902  1.00  0.00     0.159 HD
BRANCH  33  35
HETATM   35  C2  UNL     1     -22.779  -6.202  62.439  1.00  0.00     0.051 C 
HETATM   36  C1  UNL     1     -21.431  -6.484  63.050  1.00  0.00     0.054 C 
ENDBRANCH  33  35
ENDBRANCH  31  33
ENDBRANCH  19  29
ENDBRANCH   1  14
BRANCH   7  37
HETATM   37  N9  UNL     1     -18.684   4.747  61.508  1.00  0.00    -0.363 N 
ATOM     38  H9  UNL     1     -17.957   4.039  61.613  1.00  0.00     0.162 HD
BRANCH  37  39
HETATM   39  C14 UNL     1     -18.463   5.681  60.492  1.00  0.00     0.045 C 
HETATM   40  C15 UNL     1     -17.525   4.975  59.469  1.00  0.00     0.040 C 
HETATM   41  C16 UNL     1     -17.722   6.910  60.929  1.00  0.00     0.040 C 
BRANCH  39  42
HETATM   42  C17 UNL     1     -19.700   6.086  59.696  1.00  0.00     0.194 C 
BRANCH  42  43
HETATM   43  O2  UNL     1     -20.124   4.994  58.932  1.00  0.00    -0.398 OA
ATOM     44  H2  UNL     1     -20.657   5.312  58.212  1.00  0.00     0.209 HD
ENDBRANCH  42  43
ENDBRANCH  39  42
ENDBRANCH  37  39
ENDBRANCH   7  37
BRANCH  10  45
HETATM   45  N11 UNL     1     -21.411   6.251  64.802  1.00  0.00    -0.234 N 
ATOM     46 2H11 UNL     1     -20.907   6.412  65.675  1.00  0.00     0.174 HD
ATOM     47 1H11 UNL     1     -22.199   6.826  64.504  1.00  0.00     0.174 HD
ENDBRANCH  10  45
TORSDOF 10
ENDMDL
MODEL 4
REMARK VINA RESULT: -7.047483834      1.864      4.825
REMARK  10 active torsions:
REMARK  status: ('A' for Active; 'I' for Inactive)
REMARK    1  A    between atoms: C2_2  and  N1_3 
REMARK    2  A    between atoms: N1_3  and  C3_5 
REMARK    3  A    between atoms: N2_7  and  C5_8 
REMARK    4  A    between atoms: C6_11  and  N4_12 
REMARK    5  A    between atoms: C11_20  and  N6_21 
REMARK    6  A    between atoms: C13_27  and  N9_28 
REMARK    7  A    between atoms: N9_28  and  C14_30 
REMARK    8  A    between atoms: C14_30  and  C17_33 
REMARK    9  A    between atoms: C17_33  and  O2_34 
REMARK   10  A    between atoms: C18_38  and  N11_39 
ROOT
HETATM    1  N6  UNL     1     -24.360  -0.117  63.772  1.00  0.00    -0.051 N 
HETATM    2  N7  UNL     1     -23.323  -0.800  63.227  1.00  0.00    -0.219 N 
ATOM      3  H7  UNL     1     -23.362  -1.763  62.892  1.00  0.00     0.209 HD
HETATM    4  N8  UNL     1     -22.272  -0.038  63.198  1.00  0.00    -0.278 N 
ATOM      5  H8  UNL     1     -21.358  -0.310  62.836  1.00  0.00     0.189 HD
HETATM    6  C12 UNL     1     -22.579   1.176  63.722  1.00  0.00     0.141 A 
HETATM    7  C13 UNL     1     -21.769   2.315  63.891  1.00  0.00     0.150 A 
HETATM    8  N10 UNL     1     -22.350   3.379  64.434  1.00  0.00    -0.174 N 
ATOM      9  H10 UNL     1     -21.812   4.233  64.581  1.00  0.00     0.186 HD
HETATM   10  C18 UNL     1     -23.657   3.334  64.795  1.00  0.00     0.681 A 
HETATM   11  N12 UNL     1     -24.419   2.249  64.632  1.00  0.00    -0.168 N 
HETATM   12  C19 UNL     1     -25.814   2.209  65.043  1.00  0.00     0.177 C 
HETATM   13  C20 UNL     1     -23.907   1.102  64.079  1.00  0.00     0.196 A 
ENDROOT
BRANCH   1  14
HETATM   14  C11 UNL     1     -25.658  -0.637  63.949  1.00  0.00     0.735 A 
HETATM   15  N5  UNL     1     -26.243  -1.404  62.994  1.00  0.00    -0.019 N 
HETATM   16  C6  UNL     1     -27.472  -1.859  63.157  1.00  0.00     0.709 A 
ATOM     17  H5  UNL     1     -25.729  -1.631  62.143  1.00  0.00     0.203 HD
HETATM   18  N3  UNL     1     -28.145  -1.555  64.278  1.00  0.00    -0.021 N 
HETATM   19  C5  UNL     1     -27.615  -0.791  65.271  1.00  0.00     0.709 A 
ATOM     20  H3  UNL     1     -29.094  -1.911  64.390  1.00  0.00     0.203 HD
HETATM   21  N13 UNL     1     -26.362  -0.357  65.052  1.00  0.00    -0.019 N 
ATOM     22  H13 UNL     1     -25.921   0.219  65.768  1.00  0.00     0.203 HD
BRANCH  16  23
HETATM   23  N4  UNL     1     -28.149  -2.670  62.196  1.00  0.00    -0.213 N 
HETATM   24  C7  UNL     1     -28.953  -3.756  62.724  1.00  0.00     0.167 C 
HETATM   25  C8  UNL     1     -30.053  -4.156  61.775  1.00  0.00     0.188 C 
HETATM   26  O1  UNL     1     -29.666  -4.039  60.442  1.00  0.00    -0.388 OA
HETATM   27  C9  UNL     1     -29.372  -2.700  60.155  1.00  0.00     0.188 C 
HETATM   28  C10 UNL     1     -28.024  -2.409  60.782  1.00  0.00     0.167 C 
ENDBRANCH  16  23
BRANCH  19  29
HETATM   29  N2  UNL     1     -28.341  -0.488  66.438  1.00  0.00    -0.213 N 
HETATM   30  C4  UNL     1     -28.346   0.544  67.449  1.00  0.00     0.168 C 
HETATM   31  C3  UNL     1     -28.778  -0.546  68.398  1.00  0.00     0.117 C 
HETATM   32  C21 UNL     1     -29.439  -1.081  67.177  1.00  0.00     0.168 C 
BRANCH  31  33
HETATM   33  N1  UNL     1     -29.459  -0.218  69.555  1.00  0.00    -0.395 N 
ATOM     34  H1  UNL     1     -29.920   0.691  69.604  1.00  0.00     0.159 HD
BRANCH  33  35
HETATM   35  C2  UNL     1     -29.550  -1.068  70.660  1.00  0.00     0.051 C 
HETATM   36  C1  UNL     1     -30.600  -2.142  70.522  1.00  0.00     0.054 C 
ENDBRANCH  33  35
ENDBRANCH  31  33
ENDBRANCH  19  29
ENDBRANCH   1  14
BRANCH   7  37
HETATM   37  N9  UNL     1     -20.569   2.212  63.507  1.00  0.00    -0.363 N 
ATOM     38  H9  UNL     1     -19.964   1.661  64.115  1.00  0.00     0.162 HD
BRANCH  37  39
HETATM   39  C14 UNL     1     -19.950   2.743  62.372  1.00  0.00     0.045 C 
HETATM   40  C15 UNL     1     -20.344   1.800  61.198  1.00  0.00     0.040 C 
HETATM   41  C16 UNL     1     -18.450   2.720  62.416  1.00  0.00     0.040 C 
BRANCH  39  42
HETATM   42  C17 UNL     1     -20.427   4.132  61.957  1.00  0.00     0.194 C 
BRANCH  42  43
HETATM   43  O2  UNL     1     -20.099   4.339  60.613  1.00  0.00    -0.398 OA
ATOM     44  H2  UNL     1     -20.831   4.764  60.180  1.00  0.00     0.209 HD
ENDBRANCH  42  43
ENDBRANCH  39  42
ENDBRANCH  37  39
ENDBRANCH   7  37
BRANCH  10  45
HETATM   45  N11 UNL     1     -24.107   4.417  65.289  1.00  0.00    -0.234 N 
ATOM     46 2H11 UNL     1     -23.526   5.055  65.834  1.00  0.00     0.174 HD
ATOM     47 1H11 UNL     1     -25.096   4.588  65.107  1.00  0.00     0.174 HD
ENDBRANCH  10  45
TORSDOF 10
ENDMDL
MODEL 5
REMARK VINA RESULT: -6.997558935      1.353      2.422
REMARK  10 active torsions:
REMARK  status: ('A' for Active; 'I' for Inactive)
REMARK    1  A    between atoms: C2_2  and  N1_3 
REMARK    2  A    between atoms: N1_3  and  C3_5 
REMARK    3  A    between atoms: N2_7  and  C5_8 
REMARK    4  A    between atoms: C6_11  and  N4_12 
REMARK    5  A    between atoms: C11_20  and  N6_21 
REMARK    6  A    between atoms: C13_27  and  N9_28 
REMARK    7  A    between atoms: N9_28  and  C14_30 
REMARK    8  A    between atoms: C14_30  and  C17_33 
REMARK    9  A    between atoms: C17_33  and  O2_34 
REMARK   10  A    between atoms: C18_38  and  N11_39 
ROOT
HETATM    1  N6  UNL     1     -25.466   1.450  64.702  1.00  0.00    -0.051 N 
HETATM    2  N7  UNL     1     -25.499   2.737  65.128  1.00  0.00    -0.219 N 
ATOM      3  H7  UNL     1     -26.262   3.166  65.651  1.00  0.00     0.209 HD
HETATM    4  N8  UNL     1     -24.407   3.338  64.766  1.00  0.00    -0.278 N 
ATOM      5  H8  UNL     1     -24.180   4.314  64.960  1.00  0.00     0.189 HD
HETATM    6  C12 UNL     1     -23.614   2.469  64.088  1.00  0.00     0.141 A 
HETATM    7  C13 UNL     1     -22.344   2.667  63.514  1.00  0.00     0.150 A 
HETATM    8  N10 UNL     1     -21.797   1.617  62.910  1.00  0.00    -0.174 N 
ATOM      9  H10 UNL     1     -20.878   1.703  62.477  1.00  0.00     0.186 HD
HETATM   10  C18 UNL     1     -22.457   0.433  62.868  1.00  0.00     0.681 A 
HETATM   11  N12 UNL     1     -23.663   0.253  63.415  1.00  0.00    -0.168 N 
HETATM   12  C19 UNL     1     -24.367  -1.018  63.344  1.00  0.00     0.177 C 
HETATM   13  C20 UNL     1     -24.307   1.279  64.060  1.00  0.00     0.196 A 
ENDROOT
BRANCH   1  14
HETATM   14  C11 UNL     1     -26.487   0.503  64.929  1.00  0.00     0.735 A 
HETATM   15  N5  UNL     1     -27.183   0.490  66.094  1.00  0.00    -0.019 N 
HETATM   16  C6  UNL     1     -28.115  -0.421  66.310  1.00  0.00     0.709 A 
ATOM     17  H5  UNL     1     -26.986   1.190  66.810  1.00  0.00     0.203 HD
HETATM   18  N3  UNL     1     -28.369  -1.341  65.365  1.00  0.00    -0.021 N 
HETATM   19  C5  UNL     1     -27.706  -1.380  64.178  1.00  0.00     0.709 A 
ATOM     20  H3  UNL     1     -29.090  -2.040  65.546  1.00  0.00     0.203 HD
HETATM   21  N13 UNL     1     -26.770  -0.429  64.014  1.00  0.00    -0.019 N 
ATOM     22  H13 UNL     1     -26.246  -0.417  63.139  1.00  0.00     0.203 HD
BRANCH  16  23
HETATM   23  N4  UNL     1     -28.886  -0.495  67.510  1.00  0.00    -0.213 N 
HETATM   24  C7  UNL     1     -29.775  -1.636  67.632  1.00  0.00     0.167 C 
HETATM   25  C8  UNL     1     -30.072  -1.967  69.071  1.00  0.00     0.188 C 
HETATM   26  O1  UNL     1     -30.139  -0.827  69.870  1.00  0.00    -0.388 OA
HETATM   27  C9  UNL     1     -28.897  -0.180  69.868  1.00  0.00     0.188 C 
HETATM   28  C10 UNL     1     -28.776   0.520  68.529  1.00  0.00     0.167 C 
ENDBRANCH  16  23
BRANCH  19  29
HETATM   29  N2  UNL     1     -27.992  -2.355  63.204  1.00  0.00    -0.213 N 
HETATM   30  C4  UNL     1     -27.883  -2.487  61.770  1.00  0.00     0.168 C 
HETATM   31  C3  UNL     1     -29.123  -3.341  61.868  1.00  0.00     0.117 C 
HETATM   32  C21 UNL     1     -28.538  -3.698  63.188  1.00  0.00     0.168 C 
BRANCH  31  33
HETATM   33  N1  UNL     1     -29.399  -4.266  60.879  1.00  0.00    -0.395 N 
ATOM     34  H1  UNL     1     -28.676  -4.941  60.633  1.00  0.00     0.159 HD
BRANCH  33  35
HETATM   35  C2  UNL     1     -30.619  -4.323  60.200  1.00  0.00     0.051 C 
HETATM   36  C1  UNL     1     -31.826  -4.248  61.102  1.00  0.00     0.054 C 
ENDBRANCH  33  35
ENDBRANCH  31  33
ENDBRANCH  19  29
ENDBRANCH   1  14
BRANCH   7  37
HETATM   37  N9  UNL     1     -21.850   3.824  63.632  1.00  0.00    -0.363 N 
ATOM     38  H9  UNL     1     -22.473   4.525  64.034  1.00  0.00     0.162 HD
BRANCH  37  39
HETATM   39  C14 UNL     1     -20.575   4.285  63.292  1.00  0.00     0.045 C 
HETATM   40  C15 UNL     1     -20.397   5.631  64.054  1.00  0.00     0.040 C 
HETATM   41  C16 UNL     1     -20.404   4.624  61.840  1.00  0.00     0.040 C 
BRANCH  39  42
HETATM   42  C17 UNL     1     -19.417   3.403  63.750  1.00  0.00     0.194 C 
BRANCH  42  43
HETATM   43  O2  UNL     1     -18.918   2.704  62.646  1.00  0.00    -0.398 OA
ATOM     44  H2  UNL     1     -17.983   2.577  62.761  1.00  0.00     0.209 HD
ENDBRANCH  42  43
ENDBRANCH  39  42
ENDBRANCH  37  39
ENDBRANCH   7  37
BRANCH  10  45
HETATM   45  N11 UNL     1     -21.828  -0.503  62.278  1.00  0.00    -0.234 N 
ATOM     46 2H11 UNL     1     -22.080  -1.485  62.384  1.00  0.00     0.174 HD
ATOM     47 1H11 UNL     1     -21.045  -0.190  61.704  1.00  0.00     0.174 HD
ENDBRANCH  10  45
TORSDOF 10
ENDMDL
