MODEL 1
REMARK VINA RESULT: -8.524237274      0.000      0.000
REMARK  11 active torsions:
REMARK  status: ('A' for Active; 'I' for Inactive)
REMARK    1  A    between atoms: C2_2  and  C3_3 
REMARK    2  A    between atoms: C3_3  and  C4_4 
REMARK    3  A    between atoms: C9_16  and  O3_17 
REMARK    4  A    between atoms: C9_16  and  C10_19 
REMARK    5  A    between atoms: C10_19  and  O4_20 
REMARK    6  A    between atoms: C10_19  and  C11_22 
REMARK    7  A    between atoms: C11_22  and  O5_23 
REMARK    8  A    between atoms: N4_28  and  O6_29 
REMARK    9  A    between atoms: N5_33  and  C16_34 
REMARK   10  A    between atoms: C16_34  and  C17_35 
REMARK   11  A    between atoms: C18_36  and  N6_37 
ROOT
HETATM    1  C4  UNL     1     -21.437   3.218  64.065  1.00  0.00     0.126 A 
HETATM    2  N1  UNL     1     -21.473   1.859  63.902  1.00  0.00    -0.332 N 
ATOM      3  H1  UNL     1     -20.674   1.252  63.724  1.00  0.00     0.168 HD
HETATM    4  C5  UNL     1     -22.741   1.477  64.019  1.00  0.00     0.155 A 
HETATM    5  C6  UNL     1     -23.324   0.210  63.938  1.00  0.00     0.286 A 
HETATM    6  O1  UNL     1     -22.543  -0.706  63.726  1.00  0.00    -0.265 OA
HETATM    7  N2  UNL     1     -24.645   0.047  64.088  1.00  0.00    -0.244 N 
HETATM    8  C7  UNL     1     -25.397   1.152  64.319  1.00  0.00     0.133 A 
HETATM    9  N3  UNL     1     -24.825   2.399  64.400  1.00  0.00    -0.321 N 
ATOM     10  H3  UNL     1     -25.425   3.206  64.576  1.00  0.00     0.169 HD
HETATM   11  C8  UNL     1     -23.509   2.590  64.254  1.00  0.00     0.183 A 
HETATM   12  O2  UNL     1     -22.675   3.602  64.270  1.00  0.00    -0.278 OA
HETATM   13  C9  UNL     1     -26.862   1.076  64.481  1.00  0.00     0.149 A 
HETATM   14  C12 UNL     1     -27.475  -0.252  64.482  1.00  0.00     0.110 A 
HETATM   15  C13 UNL     1     -26.563  -1.386  64.199  1.00  0.00     0.067 A 
HETATM   16  C14 UNL     1     -25.202  -1.270  64.016  1.00  0.00     0.172 A 
HETATM   17  N4  UNL     1     -24.669  -2.476  63.790  1.00  0.00    -0.153 N 
HETATM   18  C15 UNL     1     -25.708  -3.358  63.829  1.00  0.00     0.355 A 
HETATM   19  O7  UNL     1     -25.595  -4.605  63.657  1.00  0.00    -0.244 OA
HETATM   20  N5  UNL     1     -26.844  -2.712  64.073  1.00  0.00    -0.294 N 
ENDROOT
BRANCH  20  21
HETATM   21  C16 UNL     1     -28.183  -3.279  64.194  1.00  0.00     0.162 C 
BRANCH  21  22
HETATM   22  C17 UNL     1     -28.900  -3.216  62.920  1.00  0.00     0.010 C 
HETATM   23  C18 UNL     1     -28.350  -2.824  61.796  1.00  0.00     0.083 C 
BRANCH  23  24
HETATM   24  N6  UNL     1     -29.030  -2.760  60.566  1.00  0.00    -0.386 N 
HETATM   25  C19 UNL     1     -29.645  -3.942  60.032  1.00  0.00     0.148 C 
HETATM   26  C20 UNL     1     -29.114  -4.139  58.623  1.00  0.00     0.187 C 
HETATM   27  O8  UNL     1     -29.029  -2.968  57.915  1.00  0.00    -0.388 OA
HETATM   28  C21 UNL     1     -29.701  -1.899  58.457  1.00  0.00     0.187 C 
HETATM   29  C22 UNL     1     -29.122  -1.531  59.830  1.00  0.00     0.148 C 
ENDBRANCH  23  24
ENDBRANCH  21  22
ENDBRANCH  20  21
BRANCH  17  30
HETATM   30  O6  UNL     1     -23.398  -2.898  63.553  1.00  0.00    -0.277 OA
ATOM     31  H6  UNL     1     -23.040  -3.675  63.140  1.00  0.00     0.245 HD
ENDBRANCH  17  30
BRANCH  13  32
HETATM   32  O3  UNL     1     -27.379   1.791  63.360  1.00  0.00    -0.379 OA
ATOM     33  H3  UNL     1     -27.621   1.114  62.739  1.00  0.00     0.211 HD
ENDBRANCH  13  32
BRANCH  13  34
HETATM   34  C10 UNL     1     -27.184   1.886  65.736  1.00  0.00     0.184 C 
BRANCH  34  35
HETATM   35  O4  UNL     1     -27.585   1.039  66.758  1.00  0.00    -0.390 OA
ATOM     36  H4  UNL     1     -28.168   1.498  67.350  1.00  0.00     0.210 HD
ENDBRANCH  34  35
BRANCH  34  37
HETATM   37  C11 UNL     1     -28.191   2.959  65.465  1.00  0.00     0.199 C 
BRANCH  37  38
HETATM   38  O5  UNL     1     -27.856   4.060  66.249  1.00  0.00    -0.398 OA
ATOM     39  H5  UNL     1     -28.665   4.482  66.513  1.00  0.00     0.209 HD
ENDBRANCH  37  38
ENDBRANCH  34  37
ENDBRANCH  13  34
BRANCH   1  40
HETATM   40  C3  UNL     1     -20.220   4.084  64.015  1.00  0.00     0.084 C 
BRANCH  40  41
HETATM   41  C2  UNL     1     -20.613   5.471  63.576  1.00  0.00     0.003 C 
HETATM   42  C1  UNL     1     -20.872   6.316  64.815  1.00  0.00     0.005 C 
ENDBRANCH  40  41
ENDBRANCH   1  40
TORSDOF 11
ENDMDL
MODEL 2
REMARK VINA RESULT: -8.135290884      1.133      1.437
REMARK  11 active torsions:
REMARK  status: ('A' for Active; 'I' for Inactive)
REMARK    1  A    between atoms: C2_2  and  C3_3 
REMARK    2  A    between atoms: C3_3  and  C4_4 
REMARK    3  A    between atoms: C9_16  and  O3_17 
REMARK    4  A    between atoms: C9_16  and  C10_19 
REMARK    5  A    between atoms: C10_19  and  O4_20 
REMARK    6  A    between atoms: C10_19  and  C11_22 
REMARK    7  A    between atoms: C11_22  and  O5_23 
REMARK    8  A    between atoms: N4_28  and  O6_29 
REMARK    9  A    between atoms: N5_33  and  C16_34 
REMARK   10  A    between atoms: C16_34  and  C17_35 
REMARK   11  A    between atoms: C18_36  and  N6_37 
ROOT
HETATM    1  C4  UNL     1     -21.853   4.489  64.387  1.00  0.00     0.126 A 
HETATM    2  N1  UNL     1     -21.672   3.185  64.015  1.00  0.00    -0.332 N 
ATOM      3  H1  UNL     1     -20.798   2.763  63.702  1.00  0.00     0.168 HD
HETATM    4  C5  UNL     1     -22.844   2.569  64.134  1.00  0.00     0.155 A 
HETATM    5  C6  UNL     1     -23.208   1.243  63.886  1.00  0.00     0.286 A 
HETATM    6  O1  UNL     1     -22.302   0.523  63.491  1.00  0.00    -0.265 OA
HETATM    7  N2  UNL     1     -24.466   0.825  64.075  1.00  0.00    -0.244 N 
HETATM    8  C7  UNL     1     -25.374   1.732  64.516  1.00  0.00     0.133 A 
HETATM    9  N3  UNL     1     -25.017   3.036  64.763  1.00  0.00    -0.321 N 
ATOM     10  H3  UNL     1     -25.729   3.688  65.096  1.00  0.00     0.169 HD
HETATM   11  C8  UNL     1     -23.768   3.479  64.582  1.00  0.00     0.183 A 
HETATM   12  O2  UNL     1     -23.119   4.611  64.714  1.00  0.00    -0.278 OA
HETATM   13  C9  UNL     1     -26.788   1.372  64.740  1.00  0.00     0.149 A 
HETATM   14  C12 UNL     1     -27.166  -0.030  64.563  1.00  0.00     0.110 A 
HETATM   15  C13 UNL     1     -26.100  -0.929  64.058  1.00  0.00     0.067 A 
HETATM   16  C14 UNL     1     -24.796  -0.545  63.826  1.00  0.00     0.172 A 
HETATM   17  N4  UNL     1     -24.086  -1.589  63.385  1.00  0.00    -0.153 N 
HETATM   18  C15 UNL     1     -24.955  -2.640  63.338  1.00  0.00     0.355 A 
HETATM   19  O7  UNL     1     -24.646  -3.807  62.965  1.00  0.00    -0.244 OA
HETATM   20  N5  UNL     1     -26.161  -2.250  63.739  1.00  0.00    -0.294 N 
ENDROOT
BRANCH  20  21
HETATM   21  C16 UNL     1     -27.370  -3.060  63.838  1.00  0.00     0.162 C 
BRANCH  21  22
HETATM   22  C17 UNL     1     -28.082  -3.105  62.561  1.00  0.00     0.010 C 
HETATM   23  C18 UNL     1     -29.184  -3.791  62.368  1.00  0.00     0.083 C 
BRANCH  23  24
HETATM   24  N6  UNL     1     -29.876  -3.843  61.144  1.00  0.00    -0.386 N 
HETATM   25  C19 UNL     1     -29.205  -3.466  59.932  1.00  0.00     0.148 C 
HETATM   26  C20 UNL     1     -30.047  -2.400  59.253  1.00  0.00     0.187 C 
HETATM   27  O8  UNL     1     -31.391  -2.671  59.299  1.00  0.00    -0.388 OA
HETATM   28  C21 UNL     1     -31.724  -3.955  59.656  1.00  0.00     0.187 C 
HETATM   29  C22 UNL     1     -31.246  -4.265  61.082  1.00  0.00     0.148 C 
ENDBRANCH  23  24
ENDBRANCH  21  22
ENDBRANCH  20  21
BRANCH  17  30
HETATM   30  O6  UNL     1     -22.785  -1.738  63.019  1.00  0.00    -0.277 OA
ATOM     31  H6  UNL     1     -22.255  -2.496  62.803  1.00  0.00     0.245 HD
ENDBRANCH  17  30
BRANCH  13  32
HETATM   32  O3  UNL     1     -27.505   2.138  63.774  1.00  0.00    -0.379 OA
ATOM     33  H3  UNL     1     -27.320   1.709  62.947  1.00  0.00     0.211 HD
ENDBRANCH  13  32
BRANCH  13  34
HETATM   34  C10 UNL     1     -27.142   1.919  66.122  1.00  0.00     0.184 C 
BRANCH  34  35
HETATM   35  O4  UNL     1     -27.754   0.932  66.880  1.00  0.00    -0.390 OA
ATOM     36  H4  UNL     1     -28.061   0.233  66.316  1.00  0.00     0.210 HD
ENDBRANCH  34  35
BRANCH  34  37
HETATM   37  C11 UNL     1     -27.974   3.160  66.034  1.00  0.00     0.199 C 
BRANCH  37  38
HETATM   38  O5  UNL     1     -27.231   4.204  66.579  1.00  0.00    -0.398 OA
ATOM     39  H5  UNL     1     -27.207   4.080  67.520  1.00  0.00     0.209 HD
ENDBRANCH  37  38
ENDBRANCH  34  37
ENDBRANCH  13  34
BRANCH   1  40
HETATM   40  C3  UNL     1     -20.809   5.557  64.412  1.00  0.00     0.084 C 
BRANCH  40  41
HETATM   41  C2  UNL     1     -20.994   6.408  65.643  1.00  0.00     0.003 C 
HETATM   42  C1  UNL     1     -22.079   7.437  65.361  1.00  0.00     0.005 C 
ENDBRANCH  40  41
ENDBRANCH   1  40
TORSDOF 11
ENDMDL
MODEL 3
REMARK VINA RESULT: -7.622570726      2.006      4.299
REMARK  11 active torsions:
REMARK  status: ('A' for Active; 'I' for Inactive)
REMARK    1  A    between atoms: C2_2  and  C3_3 
REMARK    2  A    between atoms: C3_3  and  C4_4 
REMARK    3  A    between atoms: C9_16  and  O3_17 
REMARK    4  A    between atoms: C9_16  and  C10_19 
REMARK    5  A    between atoms: C10_19  and  O4_20 
REMARK    6  A    between atoms: C10_19  and  C11_22 
REMARK    7  A    between atoms: C11_22  and  O5_23 
REMARK    8  A    between atoms: N4_28  and  O6_29 
REMARK    9  A    between atoms: N5_33  and  C16_34 
REMARK   10  A    between atoms: C16_34  and  C17_35 
REMARK   11  A    between atoms: C18_36  and  N6_37 
ROOT
HETATM    1  C4  UNL     1     -22.207   6.299  65.216  1.00  0.00     0.126 A 
HETATM    2  N1  UNL     1     -23.393   5.669  65.479  1.00  0.00    -0.332 N 
ATOM      3  H1  UNL     1     -24.196   6.072  65.960  1.00  0.00     0.168 HD
HETATM    4  C5  UNL     1     -23.306   4.435  64.990  1.00  0.00     0.155 A 
HETATM    5  C6  UNL     1     -24.229   3.386  64.989  1.00  0.00     0.286 A 
HETATM    6  O1  UNL     1     -25.298   3.638  65.525  1.00  0.00    -0.265 OA
HETATM    7  N2  UNL     1     -23.931   2.205  64.433  1.00  0.00    -0.244 N 
HETATM    8  C7  UNL     1     -22.705   2.061  63.872  1.00  0.00     0.133 A 
HETATM    9  N3  UNL     1     -21.795   3.092  63.871  1.00  0.00    -0.321 N 
ATOM     10  H3  UNL     1     -20.883   2.945  63.438  1.00  0.00     0.169 HD
HETATM   11  C8  UNL     1     -22.067   4.281  64.420  1.00  0.00     0.183 A 
HETATM   12  O2  UNL     1     -21.454   5.429  64.585  1.00  0.00    -0.278 OA
HETATM   13  C9  UNL     1     -22.278   0.793  63.250  1.00  0.00     0.149 A 
HETATM   14  C12 UNL     1     -23.262  -0.286  63.167  1.00  0.00     0.110 A 
HETATM   15  C13 UNL     1     -24.562  -0.028  63.832  1.00  0.00     0.067 A 
HETATM   16  C14 UNL     1     -24.910   1.161  64.437  1.00  0.00     0.172 A 
HETATM   17  N4  UNL     1     -26.151   1.074  64.931  1.00  0.00    -0.153 N 
HETATM   18  C15 UNL     1     -26.584  -0.185  64.635  1.00  0.00     0.355 A 
HETATM   19  O7  UNL     1     -27.721  -0.642  64.945  1.00  0.00    -0.244 OA
HETATM   20  N5  UNL     1     -25.638  -0.849  63.977  1.00  0.00    -0.294 N 
ENDROOT
BRANCH  20  21
HETATM   21  C16 UNL     1     -25.694  -2.218  63.479  1.00  0.00     0.162 C 
BRANCH  21  22
HETATM   22  C17 UNL     1     -26.639  -2.337  62.367  1.00  0.00     0.010 C 
HETATM   23  C18 UNL     1     -27.873  -2.759  62.506  1.00  0.00     0.083 C 
BRANCH  23  24
HETATM   24  N6  UNL     1     -28.789  -2.878  61.445  1.00  0.00    -0.386 N 
HETATM   25  C19 UNL     1     -29.812  -3.884  61.499  1.00  0.00     0.148 C 
HETATM   26  C20 UNL     1     -29.715  -4.707  60.226  1.00  0.00     0.187 C 
HETATM   27  O8  UNL     1     -29.492  -3.940  59.111  1.00  0.00    -0.388 OA
HETATM   28  C21 UNL     1     -29.697  -2.592  59.269  1.00  0.00     0.187 C 
HETATM   29  C22 UNL     1     -28.723  -2.010  60.304  1.00  0.00     0.148 C 
ENDBRANCH  23  24
ENDBRANCH  21  22
ENDBRANCH  20  21
BRANCH  17  30
HETATM   30  O6  UNL     1     -26.943   1.949  65.606  1.00  0.00    -0.277 OA
ATOM     31  H6  UNL     1     -27.859   1.932  65.856  1.00  0.00     0.245 HD
ENDBRANCH  17  30
BRANCH  13  32
HETATM   32  O3  UNL     1     -21.205   0.338  64.073  1.00  0.00    -0.379 OA
ATOM     33  H3  UNL     1     -20.769  -0.324  63.549  1.00  0.00     0.211 HD
ENDBRANCH  13  32
BRANCH  13  34
HETATM   34  C10 UNL     1     -21.691   1.174  61.891  1.00  0.00     0.184 C 
BRANCH  34  35
HETATM   35  O4  UNL     1     -21.824   0.117  61.004  1.00  0.00    -0.390 OA
ATOM     36  H4  UNL     1     -21.051  -0.433  61.034  1.00  0.00     0.210 HD
ENDBRANCH  34  35
BRANCH  34  37
HETATM   37  C11 UNL     1     -20.273   1.638  62.006  1.00  0.00     0.199 C 
BRANCH  37  38
HETATM   38  O5  UNL     1     -20.139   2.782  61.224  1.00  0.00    -0.398 OA
ATOM     39  H5  UNL     1     -19.623   2.549  60.461  1.00  0.00     0.209 HD
ENDBRANCH  37  38
ENDBRANCH  34  37
ENDBRANCH  13  34
BRANCH   1  40
HETATM   40  C3  UNL     1     -21.850   7.703  65.581  1.00  0.00     0.084 C 
BRANCH  40  41
HETATM   41  C2  UNL     1     -23.013   8.345  66.294  1.00  0.00     0.003 C 
HETATM   42  C1  UNL     1     -23.369   9.637  65.572  1.00  0.00     0.005 C 
ENDBRANCH  40  41
ENDBRANCH   1  40
TORSDOF 11
ENDMDL
MODEL 4
REMARK VINA RESULT: -7.356211852      4.088      9.366
REMARK  11 active torsions:
REMARK  status: ('A' for Active; 'I' for Inactive)
REMARK    1  A    between atoms: C2_2  and  C3_3 
REMARK    2  A    between atoms: C3_3  and  C4_4 
REMARK    3  A    between atoms: C9_16  and  O3_17 
REMARK    4  A    between atoms: C9_16  and  C10_19 
REMARK    5  A    between atoms: C10_19  and  O4_20 
REMARK    6  A    between atoms: C10_19  and  C11_22 
REMARK    7  A    between atoms: C11_22  and  O5_23 
REMARK    8  A    between atoms: N4_28  and  O6_29 
REMARK    9  A    between atoms: N5_33  and  C16_34 
REMARK   10  A    between atoms: C16_34  and  C17_35 
REMARK   11  A    between atoms: C18_36  and  N6_37 
ROOT
HETATM    1  C4  UNL     1     -27.471   1.534  65.815  1.00  0.00     0.126 A 
HETATM    2  N1  UNL     1     -26.748   2.687  65.961  1.00  0.00    -0.332 N 
ATOM      3  H1  UNL     1     -27.026   3.509  66.496  1.00  0.00     0.168 HD
HETATM    4  C5  UNL     1     -25.618   2.538  65.276  1.00  0.00     0.155 A 
HETATM    5  C6  UNL     1     -24.539   3.407  65.096  1.00  0.00     0.286 A 
HETATM    6  O1  UNL     1     -24.645   4.487  65.659  1.00  0.00    -0.265 OA
HETATM    7  N2  UNL     1     -23.482   3.052  64.354  1.00  0.00    -0.244 N 
HETATM    8  C7  UNL     1     -23.495   1.821  63.784  1.00  0.00     0.133 A 
HETATM    9  N3  UNL     1     -24.555   0.964  63.961  1.00  0.00    -0.321 N 
ATOM     10  H3  UNL     1     -24.526   0.046  63.517  1.00  0.00     0.169 HD
HETATM   11  C8  UNL     1     -25.622   1.294  64.697  1.00  0.00     0.183 A 
HETATM   12  O2  UNL     1     -26.755   0.739  65.053  1.00  0.00    -0.278 OA
HETATM   13  C9  UNL     1     -22.385   1.345  62.937  1.00  0.00     0.149 A 
HETATM   14  C12 UNL     1     -21.212   2.210  62.807  1.00  0.00     0.110 A 
HETATM   15  C13 UNL     1     -21.315   3.541  63.453  1.00  0.00     0.067 A 
HETATM   16  C14 UNL     1     -22.389   3.964  64.208  1.00  0.00     0.172 A 
HETATM   17  N4  UNL     1     -22.168   5.205  64.657  1.00  0.00    -0.153 N 
HETATM   18  C15 UNL     1     -20.943   5.565  64.175  1.00  0.00     0.355 A 
HETATM   19  O7  UNL     1     -20.390   6.681  64.391  1.00  0.00    -0.244 OA
HETATM   20  N5  UNL     1     -20.429   4.573  63.455  1.00  0.00    -0.294 N 
ENDROOT
BRANCH  20  21
HETATM   21  C16 UNL     1     -19.143   4.548  62.766  1.00  0.00     0.162 C 
BRANCH  21  22
HETATM   22  C17 UNL     1     -19.270   5.038  61.392  1.00  0.00     0.010 C 
HETATM   23  C18 UNL     1     -18.503   5.972  60.882  1.00  0.00     0.083 C 
BRANCH  23  24
HETATM   24  N6  UNL     1     -18.615   6.451  59.564  1.00  0.00    -0.386 N 
HETATM   25  C19 UNL     1     -17.433   6.622  58.767  1.00  0.00     0.148 C 
HETATM   26  C20 UNL     1     -17.427   8.052  58.255  1.00  0.00     0.187 C 
HETATM   27  O8  UNL     1     -18.664   8.475  57.841  1.00  0.00    -0.388 OA
HETATM   28  C21 UNL     1     -19.601   7.487  57.668  1.00  0.00     0.187 C 
HETATM   29  C22 UNL     1     -19.893   6.774  58.996  1.00  0.00     0.148 C 
ENDBRANCH  23  24
ENDBRANCH  21  22
ENDBRANCH  20  21
BRANCH  17  30
HETATM   30  O6  UNL     1     -22.898   6.056  65.426  1.00  0.00    -0.277 OA
ATOM     31  H6  UNL     1     -23.766   6.001  65.807  1.00  0.00     0.245 HD
ENDBRANCH  17  30
BRANCH  13  32
HETATM   32  O3  UNL     1     -22.964   1.204  61.640  1.00  0.00    -0.379 OA
ATOM     33  H3  UNL     1     -22.223   1.233  61.046  1.00  0.00     0.211 HD
ENDBRANCH  13  32
BRANCH  13  34
HETATM   34  C10 UNL     1     -22.043  -0.055  63.446  1.00  0.00     0.184 C 
BRANCH  34  35
HETATM   35  O4  UNL     1     -22.942  -0.978  62.936  1.00  0.00    -0.390 OA
ATOM     36  H4  UNL     1     -23.775  -0.903  63.386  1.00  0.00     0.210 HD
ENDBRANCH  34  35
BRANCH  34  37
HETATM   37  C11 UNL     1     -21.972  -0.102  64.940  1.00  0.00     0.199 C 
BRANCH  37  38
HETATM   38  O5  UNL     1     -21.452  -1.343  65.298  1.00  0.00    -0.398 OA
ATOM     39  H5  UNL     1     -20.971  -1.680  64.552  1.00  0.00     0.209 HD
ENDBRANCH  37  38
ENDBRANCH  34  37
ENDBRANCH  13  34
BRANCH   1  40
HETATM   40  C3  UNL     1     -28.811   1.246  66.410  1.00  0.00     0.084 C 
BRANCH  40  41
HETATM   41  C2  UNL     1     -28.637   0.803  67.841  1.00  0.00     0.003 C 
HETATM   42  C1  UNL     1     -28.722   2.028  68.740  1.00  0.00     0.005 C 
ENDBRANCH  40  41
ENDBRANCH   1  40
TORSDOF 11
ENDMDL
MODEL 5
REMARK VINA RESULT: -6.380548404      3.438      6.539
REMARK  11 active torsions:
REMARK  status: ('A' for Active; 'I' for Inactive)
REMARK    1  A    between atoms: C2_2  and  C3_3 
REMARK    2  A    between atoms: C3_3  and  C4_4 
REMARK    3  A    between atoms: C9_16  and  O3_17 
REMARK    4  A    between atoms: C9_16  and  C10_19 
REMARK    5  A    between atoms: C10_19  and  O4_20 
REMARK    6  A    between atoms: C10_19  and  C11_22 
REMARK    7  A    between atoms: C11_22  and  O5_23 
REMARK    8  A    between atoms: N4_28  and  O6_29 
REMARK    9  A    between atoms: N5_33  and  C16_34 
REMARK   10  A    between atoms: C16_34  and  C17_35 
REMARK   11  A    between atoms: C18_36  and  N6_37 
ROOT
HETATM    1  C4  UNL     1     -21.006   2.713  62.614  1.00  0.00     0.126 A 
HETATM    2  N1  UNL     1     -21.947   3.333  63.391  1.00  0.00    -0.332 N 
ATOM      3  H1  UNL     1     -21.928   4.304  63.701  1.00  0.00     0.168 HD
HETATM    4  C5  UNL     1     -22.888   2.436  63.669  1.00  0.00     0.155 A 
HETATM    5  C6  UNL     1     -24.062   2.547  64.419  1.00  0.00     0.286 A 
HETATM    6  O1  UNL     1     -24.262   3.651  64.905  1.00  0.00    -0.265 OA
HETATM    7  N2  UNL     1     -24.884   1.501  64.575  1.00  0.00    -0.244 N 
HETATM    8  C7  UNL     1     -24.539   0.332  63.981  1.00  0.00     0.133 A 
HETATM    9  N3  UNL     1     -23.385   0.221  63.241  1.00  0.00    -0.321 N 
ATOM     10  H3  UNL     1     -23.161  -0.676  62.808  1.00  0.00     0.169 HD
HETATM   11  C8  UNL     1     -22.548   1.249  63.070  1.00  0.00     0.183 A 
HETATM   12  O2  UNL     1     -21.412   1.475  62.454  1.00  0.00    -0.278 OA
HETATM   13  C9  UNL     1     -25.370  -0.880  64.108  1.00  0.00     0.149 A 
HETATM   14  C12 UNL     1     -26.642  -0.758  64.821  1.00  0.00     0.110 A 
HETATM   15  C13 UNL     1     -26.907   0.559  65.449  1.00  0.00     0.067 A 
HETATM   16  C14 UNL     1     -26.085   1.660  65.337  1.00  0.00     0.172 A 
HETATM   17  N4  UNL     1     -26.611   2.691  66.009  1.00  0.00    -0.153 N 
HETATM   18  C15 UNL     1     -27.776   2.230  66.550  1.00  0.00     0.355 A 
HETATM   19  O7  UNL     1     -28.558   2.923  67.260  1.00  0.00    -0.244 OA
HETATM   20  N5  UNL     1     -27.958   0.955  66.218  1.00  0.00    -0.294 N 
ENDROOT
BRANCH  20  21
HETATM   21  C16 UNL     1     -29.072   0.090  66.588  1.00  0.00     0.162 C 
BRANCH  21  22
HETATM   22  C17 UNL     1     -29.035  -0.238  68.014  1.00  0.00     0.010 C 
HETATM   23  C18 UNL     1     -29.635  -1.283  68.534  1.00  0.00     0.083 C 
BRANCH  23  24
HETATM   24  N6  UNL     1     -29.606  -1.608  69.902  1.00  0.00    -0.386 N 
HETATM   25  C19 UNL     1     -29.726  -2.980  70.310  1.00  0.00     0.148 C 
HETATM   26  C20 UNL     1     -30.869  -3.064  71.306  1.00  0.00     0.187 C 
HETATM   27  O8  UNL     1     -30.875  -2.026  72.201  1.00  0.00    -0.388 OA
HETATM   28  C21 UNL     1     -29.722  -1.281  72.252  1.00  0.00     0.187 C 
HETATM   29  C22 UNL     1     -29.460  -0.592  70.905  1.00  0.00     0.148 C 
ENDBRANCH  23  24
ENDBRANCH  21  22
ENDBRANCH  20  21
BRANCH  17  30
HETATM   30  O6  UNL     1     -26.202   3.972  66.209  1.00  0.00    -0.277 OA
ATOM     31  H6  UNL     1     -26.415   4.793  65.782  1.00  0.00     0.245 HD
ENDBRANCH  17  30
BRANCH  13  32
HETATM   32  O3  UNL     1     -24.553  -1.796  64.836  1.00  0.00    -0.379 OA
ATOM     33  H3  UNL     1     -23.735  -1.818  64.354  1.00  0.00     0.211 HD
ENDBRANCH  13  32
BRANCH  13  34
HETATM   34  C10 UNL     1     -25.529  -1.427  62.690  1.00  0.00     0.184 C 
BRANCH  34  35
HETATM   35  O4  UNL     1     -26.873  -1.585  62.389  1.00  0.00    -0.390 OA
ATOM     36  H4  UNL     1     -27.235  -2.307  62.889  1.00  0.00     0.210 HD
ENDBRANCH  34  35
BRANCH  34  37
HETATM   37  C11 UNL     1     -24.753  -2.691  62.489  1.00  0.00     0.199 C 
BRANCH  37  38
HETATM   38  O5  UNL     1     -23.489  -2.340  62.020  1.00  0.00    -0.398 OA
ATOM     39  H5  UNL     1     -23.608  -1.826  61.230  1.00  0.00     0.209 HD
ENDBRANCH  37  38
ENDBRANCH  34  37
ENDBRANCH  13  34
BRANCH   1  40
HETATM   40  C3  UNL     1     -19.764   3.333  62.061  1.00  0.00     0.084 C 
BRANCH  40  41
HETATM   41  C2  UNL     1     -19.959   4.824  61.947  1.00  0.00     0.003 C 
HETATM   42  C1  UNL     1     -18.898   5.379  61.008  1.00  0.00     0.005 C 
ENDBRANCH  40  41
ENDBRANCH   1  40
TORSDOF 11
ENDMDL
