MODEL 1
REMARK VINA RESULT: -6.927613681      0.000      0.000
REMARK  10 active torsions:
REMARK  status: ('A' for Active; 'I' for Inactive)
REMARK    1  A    between atoms: C2_2  and  C3_3 
REMARK    2  A    between atoms: C2_2  and  N1_7 
REMARK    3  A    between atoms: C3_3  and  C4_4 
REMARK    4  A    between atoms: N1_7  and  C6_9 
REMARK    5  A    between atoms: C6_9  and  C7_10 
REMARK    6  A    between atoms: C7_10  and  C8_11 
REMARK    7  A    between atoms: C8_11  and  N2_12 
REMARK    8  A    between atoms: N2_12  and  C9_15 
REMARK    9  A    between atoms: C9_15  and  C10_16 
REMARK   10  A    between atoms: C10_16  and  C11_17 
ROOT
HETATM    1  C8  UNL     1     -13.809  -2.514  32.472  1.00  0.00     0.234 C 
ENDROOT
BRANCH   1   2
HETATM    2  C7  UNL     1     -13.362  -1.069  32.186  1.00  0.00     0.046 C 
BRANCH   2   3
HETATM    3  C6  UNL     1     -14.053  -0.141  33.140  1.00  0.00     0.115 C 
BRANCH   3   4
HETATM    4  N1  UNL     1     -13.803  -0.531  34.481  1.00  0.00    -0.417 N 
ATOM      5  H1  UNL     1     -12.871  -0.458  34.889  1.00  0.00     0.153 HD
BRANCH   4   6
HETATM    6  C2  UNL     1     -14.895  -1.026  35.229  1.00  0.00     0.075 C 
HETATM    7  C1  UNL     1     -15.733  -0.017  35.941  1.00  0.00     0.032 C 
BRANCH   6   8
HETATM    8  C3  UNL     1     -14.437  -2.080  36.210  1.00  0.00     0.058 C 
BRANCH   8   9
HETATM    9  C4  UNL     1     -15.490  -2.349  37.269  1.00  0.00     0.147 A 
HETATM   10  C5  UNL     1     -14.960  -3.166  38.430  1.00  0.00     0.200 A 
HETATM   11  O1  UNL     1     -15.872  -3.670  37.511  1.00  0.00    -0.381 OA
ENDBRANCH   8   9
ENDBRANCH   6   8
ENDBRANCH   4   6
ENDBRANCH   3   4
ENDBRANCH   2   3
ENDBRANCH   1   2
BRANCH   1  12
HETATM   12  N2  UNL     1     -12.620  -3.295  32.602  1.00  0.00    -0.075 N 
ATOM     13  H22 UNL     1     -12.386  -3.763  31.726  1.00  0.00     0.277 HD
ATOM     14  H21 UNL     1     -11.796  -2.701  32.693  1.00  0.00     0.277 HD
BRANCH  12  15
HETATM   15  C9  UNL     1     -12.709  -4.231  33.685  1.00  0.00     0.232 C 
BRANCH  15  16
HETATM   16  C10 UNL     1     -11.575  -5.227  33.672  1.00  0.00     0.032 C 
BRANCH  16  17
HETATM   17  C11 UNL     1     -11.890  -6.409  32.788  1.00  0.00    -0.013 C 
HETATM   18  C12 UNL     1     -11.051  -7.611  33.114  1.00  0.00     0.005 C 
HETATM   19  C13 UNL     1     -11.814  -8.803  32.563  1.00  0.00     0.000 C 
HETATM   20  C14 UNL     1     -13.164  -8.250  32.139  1.00  0.00     0.000 C 
HETATM   21  C15 UNL     1     -13.275  -6.942  32.939  1.00  0.00     0.005 C 
ENDBRANCH  16  17
ENDBRANCH  15  16
ENDBRANCH  12  15
ENDBRANCH   1  12
TORSDOF 10
ENDMDL
MODEL 2
REMARK VINA RESULT: -6.837393335      3.961      8.335
REMARK  10 active torsions:
REMARK  status: ('A' for Active; 'I' for Inactive)
REMARK    1  A    between atoms: C2_2  and  C3_3 
REMARK    2  A    between atoms: C2_2  and  N1_7 
REMARK    3  A    between atoms: C3_3  and  C4_4 
REMARK    4  A    between atoms: N1_7  and  C6_9 
REMARK    5  A    between atoms: C6_9  and  C7_10 
REMARK    6  A    between atoms: C7_10  and  C8_11 
REMARK    7  A    between atoms: C8_11  and  N2_12 
REMARK    8  A    between atoms: N2_12  and  C9_15 
REMARK    9  A    between atoms: C9_15  and  C10_16 
REMARK   10  A    between atoms: C10_16  and  C11_17 
ROOT
HETATM    1  C8  UNL     1     -11.859  -4.758  33.150  1.00  0.00     0.234 C 
ENDROOT
BRANCH   1   2
HETATM    2  C7  UNL     1     -10.770  -5.010  32.093  1.00  0.00     0.046 C 
BRANCH   2   3
HETATM    3  C6  UNL     1     -10.797  -6.454  31.689  1.00  0.00     0.115 C 
BRANCH   3   4
HETATM    4  N1  UNL     1     -11.118  -6.578  30.313  1.00  0.00    -0.417 N 
ATOM      5  H1  UNL     1     -11.016  -5.791  29.672  1.00  0.00     0.153 HD
BRANCH   4   6
HETATM    6  C2  UNL     1     -11.585  -7.835  29.864  1.00  0.00     0.075 C 
HETATM    7  C1  UNL     1     -11.299  -9.008  30.740  1.00  0.00     0.032 C 
BRANCH   6   8
HETATM    8  C3  UNL     1     -11.089  -8.120  28.466  1.00  0.00     0.058 C 
BRANCH   8   9
HETATM    9  C4  UNL     1     -11.647  -9.427  27.935  1.00  0.00     0.147 A 
HETATM   10  C5  UNL     1     -11.072  -9.806  26.584  1.00  0.00     0.200 A 
HETATM   11  O1  UNL     1     -12.392  -9.405  26.754  1.00  0.00    -0.381 OA
ENDBRANCH   8   9
ENDBRANCH   6   8
ENDBRANCH   4   6
ENDBRANCH   3   4
ENDBRANCH   2   3
ENDBRANCH   1   2
BRANCH   1  12
HETATM   12  N2  UNL     1     -12.622  -3.638  32.698  1.00  0.00    -0.075 N 
ATOM     13  H22 UNL     1     -12.021  -2.919  32.295  1.00  0.00     0.277 HD
ATOM     14  H21 UNL     1     -13.169  -3.873  31.870  1.00  0.00     0.277 HD
BRANCH  12  15
HETATM   15  C9  UNL     1     -13.454  -3.101  33.736  1.00  0.00     0.232 C 
BRANCH  15  16
HETATM   16  C10 UNL     1     -13.009  -3.542  35.108  1.00  0.00     0.032 C 
BRANCH  16  17
HETATM   17  C11 UNL     1     -13.768  -2.818  36.193  1.00  0.00    -0.013 C 
HETATM   18  C12 UNL     1     -14.933  -2.036  35.657  1.00  0.00     0.005 C 
HETATM   19  C13 UNL     1     -15.867  -1.834  36.837  1.00  0.00     0.000 C 
HETATM   20  C14 UNL     1     -15.298  -2.700  37.948  1.00  0.00     0.000 C 
HETATM   21  C15 UNL     1     -14.423  -3.713  37.191  1.00  0.00     0.005 C 
ENDBRANCH  16  17
ENDBRANCH  15  16
ENDBRANCH  12  15
ENDBRANCH   1  12
TORSDOF 10
ENDMDL
MODEL 3
REMARK VINA RESULT: -6.807948572      1.941      3.021
REMARK  10 active torsions:
REMARK  status: ('A' for Active; 'I' for Inactive)
REMARK    1  A    between atoms: C2_2  and  C3_3 
REMARK    2  A    between atoms: C2_2  and  N1_7 
REMARK    3  A    between atoms: C3_3  and  C4_4 
REMARK    4  A    between atoms: N1_7  and  C6_9 
REMARK    5  A    between atoms: C6_9  and  C7_10 
REMARK    6  A    between atoms: C7_10  and  C8_11 
REMARK    7  A    between atoms: C8_11  and  N2_12 
REMARK    8  A    between atoms: N2_12  and  C9_15 
REMARK    9  A    between atoms: C9_15  and  C10_16 
REMARK   10  A    between atoms: C10_16  and  C11_17 
ROOT
HETATM    1  C8  UNL     1     -11.744  -5.856  33.195  1.00  0.00     0.234 C 
ENDROOT
BRANCH   1   2
HETATM    2  C7  UNL     1     -11.924  -4.604  34.070  1.00  0.00     0.046 C 
BRANCH   2   3
HETATM    3  C6  UNL     1     -13.333  -4.106  33.936  1.00  0.00     0.115 C 
BRANCH   3   4
HETATM    4  N1  UNL     1     -13.359  -2.687  33.939  1.00  0.00    -0.417 N 
ATOM      5  H1  UNL     1     -12.738  -2.144  33.339  1.00  0.00     0.153 HD
BRANCH   4   6
HETATM    6  C2  UNL     1     -14.281  -2.056  34.806  1.00  0.00     0.075 C 
HETATM    7  C1  UNL     1     -14.445  -0.581  34.651  1.00  0.00     0.032 C 
BRANCH   6   8
HETATM    8  C3  UNL     1     -13.963  -2.376  36.247  1.00  0.00     0.058 C 
BRANCH   8   9
HETATM    9  C4  UNL     1     -15.223  -2.465  37.088  1.00  0.00     0.147 A 
HETATM   10  C5  UNL     1     -14.997  -3.160  38.416  1.00  0.00     0.200 A 
HETATM   11  O1  UNL     1     -15.740  -3.727  37.388  1.00  0.00    -0.381 OA
ENDBRANCH   8   9
ENDBRANCH   6   8
ENDBRANCH   4   6
ENDBRANCH   3   4
ENDBRANCH   2   3
ENDBRANCH   1   2
BRANCH   1  12
HETATM   12  N2  UNL     1     -13.018  -6.500  33.128  1.00  0.00    -0.075 N 
ATOM     13  H22 UNL     1     -13.409  -6.643  34.060  1.00  0.00     0.277 HD
ATOM     14  H21 UNL     1     -13.729  -5.874  32.750  1.00  0.00     0.277 HD
BRANCH  12  15
HETATM   15  C9  UNL     1     -12.961  -7.729  32.392  1.00  0.00     0.232 C 
BRANCH  15  16
HETATM   16  C10 UNL     1     -11.560  -8.286  32.321  1.00  0.00     0.032 C 
BRANCH  16  17
HETATM   17  C11 UNL     1     -11.159  -8.587  30.897  1.00  0.00    -0.013 C 
HETATM   18  C12 UNL     1     -12.028  -9.635  30.264  1.00  0.00     0.005 C 
HETATM   19  C13 UNL     1     -11.874  -9.443  28.765  1.00  0.00     0.000 C 
HETATM   20  C14 UNL     1     -11.093  -8.149  28.609  1.00  0.00     0.000 C 
HETATM   21  C15 UNL     1     -11.313  -7.441  29.955  1.00  0.00     0.005 C 
ENDBRANCH  16  17
ENDBRANCH  15  16
ENDBRANCH  12  15
ENDBRANCH   1  12
TORSDOF 10
ENDMDL
MODEL 4
REMARK VINA RESULT: -6.778765485      2.892      7.595
REMARK  10 active torsions:
REMARK  status: ('A' for Active; 'I' for Inactive)
REMARK    1  A    between atoms: C2_2  and  C3_3 
REMARK    2  A    between atoms: C2_2  and  N1_7 
REMARK    3  A    between atoms: C3_3  and  C4_4 
REMARK    4  A    between atoms: N1_7  and  C6_9 
REMARK    5  A    between atoms: C6_9  and  C7_10 
REMARK    6  A    between atoms: C7_10  and  C8_11 
REMARK    7  A    between atoms: C8_11  and  N2_12 
REMARK    8  A    between atoms: N2_12  and  C9_15 
REMARK    9  A    between atoms: C9_15  and  C10_16 
REMARK   10  A    between atoms: C10_16  and  C11_17 
ROOT
HETATM    1  C8  UNL     1     -11.328  -5.025  33.705  1.00  0.00     0.234 C 
ENDROOT
BRANCH   1   2
HETATM    2  C7  UNL     1     -11.354  -6.473  33.184  1.00  0.00     0.046 C 
BRANCH   2   3
HETATM    3  C6  UNL     1     -11.029  -6.477  31.720  1.00  0.00     0.115 C 
BRANCH   3   4
HETATM    4  N1  UNL     1     -11.834  -7.425  31.037  1.00  0.00    -0.417 N 
ATOM      5  H1  UNL     1     -12.852  -7.405  31.107  1.00  0.00     0.153 HD
BRANCH   4   6
HETATM    6  C2  UNL     1     -11.170  -8.399  30.256  1.00  0.00     0.075 C 
HETATM    7  C1  UNL     1     -11.186  -8.198  28.777  1.00  0.00     0.032 C 
BRANCH   6   8
HETATM    8  C3  UNL     1     -11.684  -9.782  30.579  1.00  0.00     0.058 C 
BRANCH   8   9
HETATM    9  C4  UNL     1     -12.858  -9.730  31.537  1.00  0.00     0.147 A 
HETATM   10  C5  UNL     1     -13.737 -10.962  31.460  1.00  0.00     0.200 A 
HETATM   11  O1  UNL     1     -14.151  -9.714  31.011  1.00  0.00    -0.381 OA
ENDBRANCH   8   9
ENDBRANCH   6   8
ENDBRANCH   4   6
ENDBRANCH   3   4
ENDBRANCH   2   3
ENDBRANCH   1   2
BRANCH   1  12
HETATM   12  N2  UNL     1     -12.131  -4.252  32.813  1.00  0.00    -0.075 N 
ATOM     13  H22 UNL     1     -11.569  -3.566  32.308  1.00  0.00     0.277 HD
ATOM     14  H21 UNL     1     -12.450  -4.812  32.022  1.00  0.00     0.277 HD
BRANCH  12  15
HETATM   15  C9  UNL     1     -13.233  -3.628  33.486  1.00  0.00     0.232 C 
BRANCH  15  16
HETATM   16  C10 UNL     1     -12.996  -3.503  34.971  1.00  0.00     0.032 C 
BRANCH  16  17
HETATM   17  C11 UNL     1     -14.279  -3.214  35.712  1.00  0.00    -0.013 C 
HETATM   18  C12 UNL     1     -14.216  -3.626  37.155  1.00  0.00     0.005 C 
HETATM   19  C13 UNL     1     -15.294  -2.819  37.857  1.00  0.00     0.000 C 
HETATM   20  C14 UNL     1     -15.780  -1.818  36.823  1.00  0.00     0.000 C 
HETATM   21  C15 UNL     1     -14.621  -1.765  35.814  1.00  0.00     0.005 C 
ENDBRANCH  16  17
ENDBRANCH  15  16
ENDBRANCH  12  15
ENDBRANCH   1  12
TORSDOF 10
ENDMDL
MODEL 5
REMARK VINA RESULT: -6.774908865      2.584      4.071
REMARK  10 active torsions:
REMARK  status: ('A' for Active; 'I' for Inactive)
REMARK    1  A    between atoms: C2_2  and  C3_3 
REMARK    2  A    between atoms: C2_2  and  N1_7 
REMARK    3  A    between atoms: C3_3  and  C4_4 
REMARK    4  A    between atoms: N1_7  and  C6_9 
REMARK    5  A    between atoms: C6_9  and  C7_10 
REMARK    6  A    between atoms: C7_10  and  C8_11 
REMARK    7  A    between atoms: C8_11  and  N2_12 
REMARK    8  A    between atoms: N2_12  and  C9_15 
REMARK    9  A    between atoms: C9_15  and  C10_16 
REMARK   10  A    between atoms: C10_16  and  C11_17 
ROOT
HETATM    1  C8  UNL     1     -11.403  -4.778  32.889  1.00  0.00     0.234 C 
ENDROOT
BRANCH   1   2
HETATM    2  C7  UNL     1     -10.677  -4.306  31.617  1.00  0.00     0.046 C 
BRANCH   2   3
HETATM    3  C6  UNL     1     -11.436  -3.165  31.008  1.00  0.00     0.115 C 
BRANCH   3   4
HETATM    4  N1  UNL     1     -12.509  -2.778  31.852  1.00  0.00    -0.417 N 
ATOM      5  H1  UNL     1     -12.786  -3.347  32.653  1.00  0.00     0.153 HD
BRANCH   4   6
HETATM    6  C2  UNL     1     -13.180  -1.573  31.540  1.00  0.00     0.075 C 
HETATM    7  C1  UNL     1     -12.356  -0.481  30.946  1.00  0.00     0.032 C 
BRANCH   6   8
HETATM    8  C3  UNL     1     -13.916  -1.044  32.749  1.00  0.00     0.058 C 
BRANCH   8   9
HETATM    9  C4  UNL     1     -14.260  -2.157  33.721  1.00  0.00     0.147 A 
HETATM   10  C5  UNL     1     -14.355  -1.676  35.155  1.00  0.00     0.200 A 
HETATM   11  O1  UNL     1     -13.329  -2.498  34.704  1.00  0.00    -0.381 OA
ENDBRANCH   8   9
ENDBRANCH   6   8
ENDBRANCH   4   6
ENDBRANCH   3   4
ENDBRANCH   2   3
ENDBRANCH   1   2
BRANCH   1  12
HETATM   12  N2  UNL     1     -11.987  -6.045  32.584  1.00  0.00    -0.075 N 
ATOM     13  H22 UNL     1     -12.530  -6.402  33.370  1.00  0.00     0.277 HD
ATOM     14  H21 UNL     1     -12.737  -5.952  31.899  1.00  0.00     0.277 HD
BRANCH  12  15
HETATM   15  C9  UNL     1     -11.006  -6.999  32.154  1.00  0.00     0.232 C 
BRANCH  15  16
HETATM   16  C10 UNL     1     -11.635  -8.256  31.607  1.00  0.00     0.032 C 
BRANCH  16  17
HETATM   17  C11 UNL     1     -11.147  -8.555  30.210  1.00  0.00    -0.013 C 
HETATM   18  C12 UNL     1     -11.957  -9.623  29.533  1.00  0.00     0.005 C 
HETATM   19  C13 UNL     1     -11.722  -9.433  28.045  1.00  0.00     0.000 C 
HETATM   20  C14 UNL     1     -10.960  -8.124  27.927  1.00  0.00     0.000 C 
HETATM   21  C15 UNL     1     -11.270  -7.415  29.255  1.00  0.00     0.005 C 
ENDBRANCH  16  17
ENDBRANCH  15  16
ENDBRANCH  12  15
ENDBRANCH   1  12
TORSDOF 10
ENDMDL
