MODEL 1
REMARK VINA RESULT: -6.731905083      0.000      0.000
REMARK  10 active torsions:
REMARK  status: ('A' for Active; 'I' for Inactive)
REMARK    1  A    between atoms: C2_2  and  C3_3 
REMARK    2  A    between atoms: C3_3  and  C5_5 
REMARK    3  A    between atoms: C5_5  and  O1_6 
REMARK    4  A    between atoms: O1_6  and  C6_7 
REMARK    5  A    between atoms: C6_7  and  C7_8 
REMARK    6  A    between atoms: C6_7  and  C8_13 
REMARK    7  A    between atoms: C7_8  and  N1_9 
REMARK    8  A    between atoms: C8_13  and  C9_14 
REMARK    9  A    between atoms: C9_14  and  O2_15 
REMARK   10  A    between atoms: O2_15  and  C10_16 
ROOT
HETATM    1  C6  UNL     1     -14.074  -2.677  33.608  1.00  0.00     0.148 C 
ENDROOT
BRANCH   1   2
HETATM    2  O1  UNL     1     -13.416  -1.987  34.604  1.00  0.00    -0.384 OA
BRANCH   2   3
HETATM    3  C5  UNL     1     -14.208  -1.138  35.337  1.00  0.00     0.172 C 
BRANCH   3   4
HETATM    4  C3  UNL     1     -15.167  -2.023  36.145  1.00  0.00     0.005 C 
HETATM    5  C4  UNL     1     -16.267  -1.238  36.771  1.00  0.00     0.012 C 
BRANCH   4   6
HETATM    6  C2  UNL     1     -14.298  -2.746  37.172  1.00  0.00     0.002 C 
HETATM    7  C1  UNL     1     -15.122  -3.415  38.227  1.00  0.00     0.005 C 
ENDBRANCH   4   6
ENDBRANCH   3   4
ENDBRANCH   2   3
ENDBRANCH   1   2
BRANCH   1   8
HETATM    8  C7  UNL     1     -13.745  -1.945  32.297  1.00  0.00     0.261 C 
BRANCH   8   9
HETATM    9  N1  UNL     1     -12.570  -2.601  31.766  1.00  0.00    -0.077 N 
ATOM     10  H13 UNL     1     -12.386  -3.512  32.186  1.00  0.00     0.274 HD
ATOM     11  H12 UNL     1     -12.684  -2.931  30.807  1.00  0.00     0.274 HD
ATOM     12  H11 UNL     1     -11.806  -1.935  31.882  1.00  0.00     0.274 HD
ENDBRANCH   8   9
ENDBRANCH   1   8
BRANCH   1  13
HETATM   13  C8  UNL     1     -13.407  -4.040  33.481  1.00  0.00     0.060 C 
BRANCH  13  14
HETATM   14  C9  UNL     1     -12.269  -4.173  34.478  1.00  0.00     0.180 C 
BRANCH  14  15
HETATM   15  O2  UNL     1     -11.129  -4.593  33.755  1.00  0.00    -0.336 OA
BRANCH  15  16
HETATM   16  C10 UNL     1     -11.110  -5.753  32.997  1.00  0.00     0.141 A 
HETATM   17  C11 UNL     1     -11.122  -7.059  33.435  1.00  0.00     0.057 A 
HETATM   18  C12 UNL     1     -11.095  -7.917  32.335  1.00  0.00     0.021 A 
HETATM   19  C13 UNL     1     -11.068  -7.070  31.234  1.00  0.00     0.090 A 
HETATM   20  N2  UNL     1     -11.078  -5.788  31.655  1.00  0.00    -0.347 N 
ATOM     21  H2  UNL     1     -11.065  -4.970  31.046  1.00  0.00     0.167 HD
ENDBRANCH  15  16
ENDBRANCH  14  15
ENDBRANCH  13  14
ENDBRANCH   1  13
TORSDOF 10
ENDMDL
MODEL 2
REMARK VINA RESULT: -6.701106718      1.261      2.024
REMARK  10 active torsions:
REMARK  status: ('A' for Active; 'I' for Inactive)
REMARK    1  A    between atoms: C2_2  and  C3_3 
REMARK    2  A    between atoms: C3_3  and  C5_5 
REMARK    3  A    between atoms: C5_5  and  O1_6 
REMARK    4  A    between atoms: O1_6  and  C6_7 
REMARK    5  A    between atoms: C6_7  and  C7_8 
REMARK    6  A    between atoms: C6_7  and  C8_13 
REMARK    7  A    between atoms: C7_8  and  N1_9 
REMARK    8  A    between atoms: C8_13  and  C9_14 
REMARK    9  A    between atoms: C9_14  and  O2_15 
REMARK   10  A    between atoms: O2_15  and  C10_16 
ROOT
HETATM    1  C6  UNL     1     -13.413  -4.397  33.800  1.00  0.00     0.148 C 
ENDROOT
BRANCH   1   2
HETATM    2  O1  UNL     1     -13.999  -4.110  35.015  1.00  0.00    -0.384 OA
BRANCH   2   3
HETATM    3  C5  UNL     1     -13.185  -3.460  35.909  1.00  0.00     0.172 C 
BRANCH   3   4
HETATM    4  C3  UNL     1     -14.110  -2.713  36.880  1.00  0.00     0.005 C 
HETATM    5  C4  UNL     1     -14.848  -3.639  37.783  1.00  0.00     0.012 C 
BRANCH   4   6
HETATM    6  C2  UNL     1     -15.040  -1.874  36.005  1.00  0.00     0.002 C 
HETATM    7  C1  UNL     1     -16.234  -1.389  36.765  1.00  0.00     0.005 C 
ENDBRANCH   4   6
ENDBRANCH   3   4
ENDBRANCH   2   3
ENDBRANCH   1   2
BRANCH   1   8
HETATM    8  C7  UNL     1     -13.560  -3.127  32.948  1.00  0.00     0.261 C 
BRANCH   8   9
HETATM    9  N1  UNL     1     -12.405  -3.103  32.078  1.00  0.00    -0.077 N 
ATOM     10  H13 UNL     1     -11.989  -2.178  31.976  1.00  0.00     0.274 HD
ATOM     11  H12 UNL     1     -11.584  -3.561  32.477  1.00  0.00     0.274 HD
ATOM     12  H11 UNL     1     -12.714  -3.512  31.197  1.00  0.00     0.274 HD
ENDBRANCH   8   9
ENDBRANCH   1   8
BRANCH   1  13
HETATM   13  C8  UNL     1     -11.917  -4.546  34.039  1.00  0.00     0.060 C 
BRANCH  13  14
HETATM   14  C9  UNL     1     -11.451  -5.939  33.652  1.00  0.00     0.180 C 
BRANCH  14  15
HETATM   15  O2  UNL     1     -10.949  -5.858  32.332  1.00  0.00    -0.336 OA
BRANCH  15  16
HETATM   16  C10 UNL     1     -11.096  -6.886  31.413  1.00  0.00     0.141 A 
HETATM   17  C11 UNL     1     -11.180  -8.240  31.653  1.00  0.00     0.057 A 
HETATM   18  C12 UNL     1     -11.324  -8.917  30.442  1.00  0.00     0.021 A 
HETATM   19  C13 UNL     1     -11.322  -7.914  29.480  1.00  0.00     0.090 A 
HETATM   20  N2  UNL     1     -11.186  -6.714  30.085  1.00  0.00    -0.347 N 
ATOM     21  H2  UNL     1     -11.156  -5.815  29.605  1.00  0.00     0.167 HD
ENDBRANCH  15  16
ENDBRANCH  14  15
ENDBRANCH  13  14
ENDBRANCH   1  13
TORSDOF 10
ENDMDL
MODEL 3
REMARK VINA RESULT: -6.661262858      1.467      2.324
REMARK  10 active torsions:
REMARK  status: ('A' for Active; 'I' for Inactive)
REMARK    1  A    between atoms: C2_2  and  C3_3 
REMARK    2  A    between atoms: C3_3  and  C5_5 
REMARK    3  A    between atoms: C5_5  and  O1_6 
REMARK    4  A    between atoms: O1_6  and  C6_7 
REMARK    5  A    between atoms: C6_7  and  C7_8 
REMARK    6  A    between atoms: C6_7  and  C8_13 
REMARK    7  A    between atoms: C7_8  and  N1_9 
REMARK    8  A    between atoms: C8_13  and  C9_14 
REMARK    9  A    between atoms: C9_14  and  O2_15 
REMARK   10  A    between atoms: O2_15  and  C10_16 
ROOT
HETATM    1  C6  UNL     1     -13.659  -4.383  34.024  1.00  0.00     0.148 C 
ENDROOT
BRANCH   1   2
HETATM    2  O1  UNL     1     -14.129  -4.107  35.290  1.00  0.00    -0.384 OA
BRANCH   2   3
HETATM    3  C5  UNL     1     -13.442  -3.126  35.960  1.00  0.00     0.172 C 
BRANCH   3   4
HETATM    4  C3  UNL     1     -14.408  -2.549  37.004  1.00  0.00     0.005 C 
HETATM    5  C4  UNL     1     -15.025  -3.608  37.850  1.00  0.00     0.012 C 
BRANCH   4   6
HETATM    6  C2  UNL     1     -15.439  -1.746  36.214  1.00  0.00     0.002 C 
HETATM    7  C1  UNL     1     -14.834  -0.533  35.580  1.00  0.00     0.005 C 
ENDBRANCH   4   6
ENDBRANCH   3   4
ENDBRANCH   2   3
ENDBRANCH   1   2
BRANCH   1   8
HETATM    8  C7  UNL     1     -14.143  -3.230  33.131  1.00  0.00     0.261 C 
BRANCH   8   9
HETATM    9  N1  UNL     1     -12.999  -2.846  32.334  1.00  0.00    -0.077 N 
ATOM     10  H13 UNL     1     -12.110  -2.931  32.826  1.00  0.00     0.274 HD
ATOM     11  H12 UNL     1     -12.785  -3.503  31.583  1.00  0.00     0.274 HD
ATOM     12  H11 UNL     1     -13.196  -1.900  32.006  1.00  0.00     0.274 HD
ENDBRANCH   8   9
ENDBRANCH   1   8
BRANCH   1  13
HETATM   13  C8  UNL     1     -12.142  -4.249  34.061  1.00  0.00     0.060 C 
BRANCH  13  14
HETATM   14  C9  UNL     1     -11.483  -5.613  33.962  1.00  0.00     0.180 C 
BRANCH  14  15
HETATM   15  O2  UNL     1     -10.343  -5.466  33.138  1.00  0.00    -0.336 OA
BRANCH  15  16
HETATM   16  C10 UNL     1     -10.424  -5.391  31.757  1.00  0.00     0.141 A 
HETATM   17  C11 UNL     1     -10.050  -4.351  30.934  1.00  0.00     0.057 A 
HETATM   18  C12 UNL     1     -10.304  -4.695  29.607  1.00  0.00     0.021 A 
HETATM   19  C13 UNL     1     -10.840  -5.976  29.676  1.00  0.00     0.090 A 
HETATM   20  N2  UNL     1     -10.900  -6.367  30.967  1.00  0.00    -0.347 N 
ATOM     21  H2  UNL     1     -11.252  -7.267  31.292  1.00  0.00     0.167 HD
ENDBRANCH  15  16
ENDBRANCH  14  15
ENDBRANCH  13  14
ENDBRANCH   1  13
TORSDOF 10
ENDMDL
MODEL 4
REMARK VINA RESULT: -6.654350091      1.273      1.871
REMARK  10 active torsions:
REMARK  status: ('A' for Active; 'I' for Inactive)
REMARK    1  A    between atoms: C2_2  and  C3_3 
REMARK    2  A    between atoms: C3_3  and  C5_5 
REMARK    3  A    between atoms: C5_5  and  O1_6 
REMARK    4  A    between atoms: O1_6  and  C6_7 
REMARK    5  A    between atoms: C6_7  and  C7_8 
REMARK    6  A    between atoms: C6_7  and  C8_13 
REMARK    7  A    between atoms: C7_8  and  N1_9 
REMARK    8  A    between atoms: C8_13  and  C9_14 
REMARK    9  A    between atoms: C9_14  and  O2_15 
REMARK   10  A    between atoms: O2_15  and  C10_16 
ROOT
HETATM    1  C6  UNL     1     -13.601  -4.103  33.580  1.00  0.00     0.148 C 
ENDROOT
BRANCH   1   2
HETATM    2  O1  UNL     1     -14.204  -3.731  34.763  1.00  0.00    -0.384 OA
BRANCH   2   3
HETATM    3  C5  UNL     1     -13.338  -3.467  35.794  1.00  0.00     0.172 C 
BRANCH   3   4
HETATM    4  C3  UNL     1     -14.125  -2.652  36.830  1.00  0.00     0.005 C 
HETATM    5  C4  UNL     1     -14.859  -3.520  37.792  1.00  0.00     0.012 C 
BRANCH   4   6
HETATM    6  C2  UNL     1     -15.053  -1.745  36.024  1.00  0.00     0.002 C 
HETATM    7  C1  UNL     1     -16.268  -1.355  36.807  1.00  0.00     0.005 C 
ENDBRANCH   4   6
ENDBRANCH   3   4
ENDBRANCH   2   3
ENDBRANCH   1   2
BRANCH   1   8
HETATM    8  C7  UNL     1     -13.394  -2.805  32.783  1.00  0.00     0.261 C 
BRANCH   8   9
HETATM    9  N1  UNL     1     -14.717  -2.260  32.573  1.00  0.00    -0.077 N 
ATOM     10  H13 UNL     1     -14.738  -1.480  31.917  1.00  0.00     0.274 HD
ATOM     11  H12 UNL     1     -15.335  -2.878  32.047  1.00  0.00     0.274 HD
ATOM     12  H11 UNL     1     -15.068  -2.023  33.501  1.00  0.00     0.274 HD
ENDBRANCH   8   9
ENDBRANCH   1   8
BRANCH   1  13
HETATM   13  C8  UNL     1     -12.199  -4.592  33.917  1.00  0.00     0.060 C 
BRANCH  13  14
HETATM   14  C9  UNL     1     -11.325  -4.600  32.675  1.00  0.00     0.180 C 
BRANCH  14  15
HETATM   15  O2  UNL     1     -10.522  -5.763  32.739  1.00  0.00    -0.336 OA
BRANCH  15  16
HETATM   16  C10 UNL     1     -10.919  -6.975  32.195  1.00  0.00     0.141 A 
HETATM   17  C11 UNL     1     -11.484  -8.055  32.837  1.00  0.00     0.057 A 
HETATM   18  C12 UNL     1     -11.728  -9.069  31.910  1.00  0.00     0.021 A 
HETATM   19  C13 UNL     1     -11.286  -8.548  30.700  1.00  0.00     0.090 A 
HETATM   20  N2  UNL     1     -10.810  -7.300  30.896  1.00  0.00    -0.347 N 
ATOM     21  H2  UNL     1     -10.427  -6.697  30.169  1.00  0.00     0.167 HD
ENDBRANCH  15  16
ENDBRANCH  14  15
ENDBRANCH  13  14
ENDBRANCH   1  13
TORSDOF 10
ENDMDL
MODEL 5
REMARK VINA RESULT: -6.564379903      1.717      1.822
REMARK  10 active torsions:
REMARK  status: ('A' for Active; 'I' for Inactive)
REMARK    1  A    between atoms: C2_2  and  C3_3 
REMARK    2  A    between atoms: C3_3  and  C5_5 
REMARK    3  A    between atoms: C5_5  and  O1_6 
REMARK    4  A    between atoms: O1_6  and  C6_7 
REMARK    5  A    between atoms: C6_7  and  C7_8 
REMARK    6  A    between atoms: C6_7  and  C8_13 
REMARK    7  A    between atoms: C7_8  and  N1_9 
REMARK    8  A    between atoms: C8_13  and  C9_14 
REMARK    9  A    between atoms: C9_14  and  O2_15 
REMARK   10  A    between atoms: O2_15  and  C10_16 
ROOT
HETATM    1  C6  UNL     1     -14.201  -1.806  33.370  1.00  0.00     0.148 C 
ENDROOT
BRANCH   1   2
HETATM    2  O1  UNL     1     -13.526  -1.558  34.547  1.00  0.00    -0.384 OA
BRANCH   2   3
HETATM    3  C5  UNL     1     -14.257  -0.900  35.503  1.00  0.00     0.172 C 
BRANCH   3   4
HETATM    4  C3  UNL     1     -15.187  -1.942  36.139  1.00  0.00     0.005 C 
HETATM    5  C4  UNL     1     -16.358  -1.318  36.814  1.00  0.00     0.012 C 
BRANCH   4   6
HETATM    6  C2  UNL     1     -14.312  -2.749  37.096  1.00  0.00     0.002 C 
HETATM    7  C1  UNL     1     -15.117  -3.377  38.191  1.00  0.00     0.005 C 
ENDBRANCH   4   6
ENDBRANCH   3   4
ENDBRANCH   2   3
ENDBRANCH   1   2
BRANCH   1   8
HETATM    8  C7  UNL     1     -13.747  -0.718  32.384  1.00  0.00     0.261 C 
BRANCH   8   9
HETATM    9  N1  UNL     1     -13.431  -1.412  31.155  1.00  0.00    -0.077 N 
ATOM     10  H13 UNL     1     -14.252  -1.755  30.656  1.00  0.00     0.274 HD
ATOM     11  H12 UNL     1     -13.088  -0.798  30.415  1.00  0.00     0.274 HD
ATOM     12  H11 UNL     1     -12.773  -2.147  31.413  1.00  0.00     0.274 HD
ENDBRANCH   8   9
ENDBRANCH   1   8
BRANCH   1  13
HETATM   13  C8  UNL     1     -13.661  -3.111  32.800  1.00  0.00     0.060 C 
BRANCH  13  14
HETATM   14  C9  UNL     1     -13.130  -3.999  33.912  1.00  0.00     0.180 C 
BRANCH  14  15
HETATM   15  O2  UNL     1     -14.021  -5.091  34.034  1.00  0.00    -0.336 OA
BRANCH  15  16
HETATM   16  C10 UNL     1     -13.842  -6.281  33.348  1.00  0.00     0.141 A 
HETATM   17  C11 UNL     1     -14.758  -7.287  33.129  1.00  0.00     0.057 A 
HETATM   18  C12 UNL     1     -14.158  -8.307  32.390  1.00  0.00     0.021 A 
HETATM   19  C13 UNL     1     -12.857  -7.866  32.181  1.00  0.00     0.090 A 
HETATM   20  N2  UNL     1     -12.695  -6.658  32.760  1.00  0.00    -0.347 N 
ATOM     21  H2  UNL     1     -11.832  -6.114  32.752  1.00  0.00     0.167 HD
ENDBRANCH  15  16
ENDBRANCH  14  15
ENDBRANCH  13  14
ENDBRANCH   1  13
TORSDOF 10
ENDMDL
