MODEL 1
REMARK VINA RESULT: -6.733884418      0.000      0.000
REMARK  10 active torsions:
REMARK  status: ('A' for Active; 'I' for Inactive)
REMARK    1  A    between atoms: C2_3  and  C3_4 
REMARK    2  A    between atoms: C3_4  and  N2_5 
REMARK    3  A    between atoms: N2_5  and  C4_8 
REMARK    4  A    between atoms: C4_8  and  C5_9 
REMARK    5  A    between atoms: C5_9  and  C6_10 
REMARK    6  A    between atoms: C6_10  and  N3_11 
REMARK    7  A    between atoms: N3_11  and  C7_14 
REMARK    8  A    between atoms: C7_14  and  C8_15 
REMARK    9  A    between atoms: C8_15  and  C9_16 
REMARK   10  A    between atoms: C9_16  and  C10_17 
ROOT
HETATM    1  N1  UNL     1     -12.324  -1.562  30.520  1.00  0.00    -0.197 NA
HETATM    2  C1  UNL     1     -12.679  -0.680  31.173  1.00  0.00     0.060 C 
HETATM    3  C2  UNL     1     -13.135   0.435  32.001  1.00  0.00     0.151 C 
ENDROOT
BRANCH   3   4
HETATM    4  C3  UNL     1     -13.914  -0.122  33.186  1.00  0.00     0.246 C 
BRANCH   4   5
HETATM    5  N2  UNL     1     -14.601  -1.317  32.745  1.00  0.00    -0.074 N 
ATOM      6  H22 UNL     1     -15.548  -1.124  32.418  1.00  0.00     0.277 HD
ATOM      7  H21 UNL     1     -14.222  -1.686  31.873  1.00  0.00     0.277 HD
BRANCH   5   8
HETATM    8  C4  UNL     1     -14.573  -2.297  33.824  1.00  0.00     0.234 C 
BRANCH   8   9
HETATM    9  C5  UNL     1     -14.190  -3.638  33.203  1.00  0.00     0.055 C 
BRANCH   9  10
HETATM   10  C6  UNL     1     -12.740  -3.935  33.585  1.00  0.00     0.233 C 
BRANCH  10  11
HETATM   11  N3  UNL     1     -11.967  -3.865  32.353  1.00  0.00    -0.075 N 
ATOM     12  H32 UNL     1     -12.525  -4.040  31.518  1.00  0.00     0.277 HD
ATOM     13  H31 UNL     1     -11.674  -2.917  32.116  1.00  0.00     0.277 HD
BRANCH  11  14
HETATM   14  C7  UNL     1     -10.848  -4.793  32.502  1.00  0.00     0.232 C 
BRANCH  14  15
HETATM   15  C8  UNL     1     -11.088  -5.690  33.680  1.00  0.00     0.028 C 
BRANCH  15  16
HETATM   16  C9  UNL     1     -10.760  -7.108  33.560  1.00  0.00     0.006 C 
BRANCH  16  17
HETATM   17  C10 UNL     1     -11.537  -8.031  32.716  1.00  0.00    -0.014 C 
HETATM   18  C11 UNL     1     -12.985  -7.488  32.742  1.00  0.00     0.004 C 
HETATM   19  C12 UNL     1     -13.910  -8.448  32.084  1.00  0.00     0.000 C 
HETATM   20  C13 UNL     1     -13.471  -8.664  30.642  1.00  0.00     0.000 C 
HETATM   21  C14 UNL     1     -12.062  -9.116  30.551  1.00  0.00     0.000 C 
HETATM   22  C15 UNL     1     -11.056  -8.374  31.371  1.00  0.00     0.004 C 
ENDBRANCH  16  17
ENDBRANCH  15  16
ENDBRANCH  14  15
ENDBRANCH  11  14
ENDBRANCH  10  11
ENDBRANCH   9  10
ENDBRANCH   8   9
ENDBRANCH   5   8
ENDBRANCH   4   5
ENDBRANCH   3   4
TORSDOF 10
ENDMDL
MODEL 2
REMARK VINA RESULT: -6.649033673      0.949      1.368
REMARK  10 active torsions:
REMARK  status: ('A' for Active; 'I' for Inactive)
REMARK    1  A    between atoms: C2_3  and  C3_4 
REMARK    2  A    between atoms: C3_4  and  N2_5 
REMARK    3  A    between atoms: N2_5  and  C4_8 
REMARK    4  A    between atoms: C4_8  and  C5_9 
REMARK    5  A    between atoms: C5_9  and  C6_10 
REMARK    6  A    between atoms: C6_10  and  N3_11 
REMARK    7  A    between atoms: N3_11  and  C7_14 
REMARK    8  A    between atoms: C7_14  and  C8_15 
REMARK    9  A    between atoms: C8_15  and  C9_16 
REMARK   10  A    between atoms: C9_16  and  C10_17 
ROOT
HETATM    1  N1  UNL     1     -12.297  -2.010  30.560  1.00  0.00    -0.197 NA
HETATM    2  C1  UNL     1     -12.719  -1.033  31.004  1.00  0.00     0.060 C 
HETATM    3  C2  UNL     1     -13.261   0.203  31.567  1.00  0.00     0.151 C 
ENDROOT
BRANCH   3   4
HETATM    4  C3  UNL     1     -13.831  -0.097  32.947  1.00  0.00     0.246 C 
BRANCH   4   5
HETATM    5  N2  UNL     1     -14.452  -1.404  32.898  1.00  0.00    -0.074 N 
ATOM      6  H22 UNL     1     -15.342  -1.394  32.401  1.00  0.00     0.277 HD
ATOM      7  H21 UNL     1     -13.955  -2.049  32.285  1.00  0.00     0.277 HD
BRANCH   5   8
HETATM    8  C4  UNL     1     -14.578  -1.913  34.259  1.00  0.00     0.234 C 
BRANCH   8   9
HETATM    9  C5  UNL     1     -13.486  -2.961  34.449  1.00  0.00     0.055 C 
BRANCH   9  10
HETATM   10  C6  UNL     1     -13.619  -3.988  33.324  1.00  0.00     0.233 C 
BRANCH  10  11
HETATM   11  N3  UNL     1     -12.284  -4.174  32.775  1.00  0.00    -0.075 N 
ATOM     12  H32 UNL     1     -12.284  -4.638  31.867  1.00  0.00     0.277 HD
ATOM     13  H31 UNL     1     -11.848  -3.303  32.475  1.00  0.00     0.277 HD
BRANCH  11  14
HETATM   14  C7  UNL     1     -11.507  -4.889  33.786  1.00  0.00     0.232 C 
BRANCH  14  15
HETATM   15  C8  UNL     1     -10.790  -6.043  33.152  1.00  0.00     0.028 C 
BRANCH  15  16
HETATM   16  C9  UNL     1     -11.366  -7.380  33.276  1.00  0.00     0.006 C 
BRANCH  16  17
HETATM   17  C10 UNL     1     -12.020  -8.066  32.150  1.00  0.00    -0.014 C 
HETATM   18  C11 UNL     1     -11.244  -7.615  30.890  1.00  0.00     0.004 C 
HETATM   19  C12 UNL     1     -11.935  -8.087  29.661  1.00  0.00     0.000 C 
HETATM   20  C13 UNL     1     -12.029  -9.606  29.686  1.00  0.00     0.000 C 
HETATM   21  C14 UNL     1     -12.701 -10.101  30.912  1.00  0.00     0.000 C 
HETATM   22  C15 UNL     1     -12.259  -9.514  32.212  1.00  0.00     0.004 C 
ENDBRANCH  16  17
ENDBRANCH  15  16
ENDBRANCH  14  15
ENDBRANCH  11  14
ENDBRANCH  10  11
ENDBRANCH   9  10
ENDBRANCH   8   9
ENDBRANCH   5   8
ENDBRANCH   4   5
ENDBRANCH   3   4
TORSDOF 10
ENDMDL
MODEL 3
REMARK VINA RESULT: -6.606581141      0.941      1.428
REMARK  10 active torsions:
REMARK  status: ('A' for Active; 'I' for Inactive)
REMARK    1  A    between atoms: C2_3  and  C3_4 
REMARK    2  A    between atoms: C3_4  and  N2_5 
REMARK    3  A    between atoms: N2_5  and  C4_8 
REMARK    4  A    between atoms: C4_8  and  C5_9 
REMARK    5  A    between atoms: C5_9  and  C6_10 
REMARK    6  A    between atoms: C6_10  and  N3_11 
REMARK    7  A    between atoms: N3_11  and  C7_14 
REMARK    8  A    between atoms: C7_14  and  C8_15 
REMARK    9  A    between atoms: C8_15  and  C9_16 
REMARK   10  A    between atoms: C9_16  and  C10_17 
ROOT
HETATM    1  N1  UNL     1     -12.289  -2.002  30.554  1.00  0.00    -0.197 NA
HETATM    2  C1  UNL     1     -12.622  -1.047  31.107  1.00  0.00     0.060 C 
HETATM    3  C2  UNL     1     -13.050   0.163  31.810  1.00  0.00     0.151 C 
ENDROOT
BRANCH   3   4
HETATM    4  C3  UNL     1     -13.817  -0.245  33.061  1.00  0.00     0.246 C 
BRANCH   4   5
HETATM    5  N2  UNL     1     -14.570  -1.442  32.752  1.00  0.00    -0.074 N 
ATOM      6  H22 UNL     1     -15.503  -1.235  32.396  1.00  0.00     0.277 HD
ATOM      7  H21 UNL     1     -14.210  -1.929  31.931  1.00  0.00     0.277 HD
BRANCH   5   8
HETATM    8  C4  UNL     1     -14.600  -2.293  33.936  1.00  0.00     0.234 C 
BRANCH   8   9
HETATM    9  C5  UNL     1     -14.200  -3.696  33.490  1.00  0.00     0.055 C 
BRANCH   9  10
HETATM   10  C6  UNL     1     -12.729  -3.903  33.852  1.00  0.00     0.233 C 
BRANCH  10  11
HETATM   11  N3  UNL     1     -12.060  -4.330  32.632  1.00  0.00    -0.075 N 
ATOM     12  H32 UNL     1     -12.665  -4.861  32.007  1.00  0.00     0.277 HD
ATOM     13  H31 UNL     1     -11.858  -3.560  31.994  1.00  0.00     0.277 HD
BRANCH  11  14
HETATM   14  C7  UNL     1     -10.866  -5.067  33.041  1.00  0.00     0.232 C 
BRANCH  14  15
HETATM   15  C8  UNL     1     -11.240  -6.469  33.417  1.00  0.00     0.028 C 
BRANCH  15  16
HETATM   16  C9  UNL     1     -12.109  -7.228  32.521  1.00  0.00     0.006 C 
BRANCH  16  17
HETATM   17  C10 UNL     1     -11.596  -7.942  31.340  1.00  0.00    -0.014 C 
HETATM   18  C11 UNL     1     -12.512  -9.177  31.179  1.00  0.00     0.004 C 
HETATM   19  C12 UNL     1     -11.974 -10.088  30.134  1.00  0.00     0.000 C 
HETATM   20  C13 UNL     1     -11.886  -9.341  28.810  1.00  0.00     0.000 C 
HETATM   21  C14 UNL     1     -11.076  -8.103  28.923  1.00  0.00     0.000 C 
HETATM   22  C15 UNL     1     -11.358  -7.211  30.088  1.00  0.00     0.004 C 
ENDBRANCH  16  17
ENDBRANCH  15  16
ENDBRANCH  14  15
ENDBRANCH  11  14
ENDBRANCH  10  11
ENDBRANCH   9  10
ENDBRANCH   8   9
ENDBRANCH   5   8
ENDBRANCH   4   5
ENDBRANCH   3   4
TORSDOF 10
ENDMDL
MODEL 4
REMARK VINA RESULT: -6.517684463      1.906      2.918
REMARK  10 active torsions:
REMARK  status: ('A' for Active; 'I' for Inactive)
REMARK    1  A    between atoms: C2_3  and  C3_4 
REMARK    2  A    between atoms: C3_4  and  N2_5 
REMARK    3  A    between atoms: N2_5  and  C4_8 
REMARK    4  A    between atoms: C4_8  and  C5_9 
REMARK    5  A    between atoms: C5_9  and  C6_10 
REMARK    6  A    between atoms: C6_10  and  N3_11 
REMARK    7  A    between atoms: N3_11  and  C7_14 
REMARK    8  A    between atoms: C7_14  and  C8_15 
REMARK    9  A    between atoms: C8_15  and  C9_16 
REMARK   10  A    between atoms: C9_16  and  C10_17 
ROOT
HETATM    1  N1  UNL     1     -15.229  -3.389  37.387  1.00  0.00    -0.197 NA
HETATM    2  C1  UNL     1     -15.603  -2.356  37.037  1.00  0.00     0.060 C 
HETATM    3  C2  UNL     1     -16.071  -1.043  36.595  1.00  0.00     0.151 C 
ENDROOT
BRANCH   3   4
HETATM    4  C3  UNL     1     -15.032  -0.444  35.655  1.00  0.00     0.246 C 
BRANCH   4   5
HETATM    5  N2  UNL     1     -14.211  -1.524  35.152  1.00  0.00    -0.074 N 
ATOM      6  H22 UNL     1     -13.280  -1.533  35.568  1.00  0.00     0.277 HD
ATOM      7  H21 UNL     1     -14.522  -2.438  35.483  1.00  0.00     0.277 HD
BRANCH   5   8
HETATM    8  C4  UNL     1     -14.171  -1.443  33.697  1.00  0.00     0.234 C 
BRANCH   8   9
HETATM    9  C5  UNL     1     -14.399  -2.853  33.162  1.00  0.00     0.055 C 
BRANCH   9  10
HETATM   10  C6  UNL     1     -13.125  -3.662  33.412  1.00  0.00     0.233 C 
BRANCH  10  11
HETATM   11  N3  UNL     1     -12.277  -3.467  32.245  1.00  0.00    -0.075 N 
ATOM     12  H32 UNL     1     -12.784  -3.539  31.363  1.00  0.00     0.277 HD
ATOM     13  H31 UNL     1     -11.961  -2.504  32.134  1.00  0.00     0.277 HD
BRANCH  11  14
HETATM   14  C7  UNL     1     -11.178  -4.424  32.356  1.00  0.00     0.232 C 
BRANCH  14  15
HETATM   15  C8  UNL     1     -11.349  -5.250  33.596  1.00  0.00     0.028 C 
BRANCH  15  16
HETATM   16  C9  UNL     1     -10.873  -6.631  33.590  1.00  0.00     0.006 C 
BRANCH  16  17
HETATM   17  C10 UNL     1     -11.540  -7.694  32.820  1.00  0.00    -0.014 C 
HETATM   18  C11 UNL     1     -13.042  -7.324  32.828  1.00  0.00     0.004 C 
HETATM   19  C12 UNL     1     -13.850  -8.428  32.249  1.00  0.00     0.000 C 
HETATM   20  C13 UNL     1     -13.396  -8.690  30.819  1.00  0.00     0.000 C 
HETATM   21  C14 UNL     1     -11.943  -8.980  30.741  1.00  0.00     0.000 C 
HETATM   22  C15 UNL     1     -11.029  -8.071  31.495  1.00  0.00     0.004 C 
ENDBRANCH  16  17
ENDBRANCH  15  16
ENDBRANCH  14  15
ENDBRANCH  11  14
ENDBRANCH  10  11
ENDBRANCH   9  10
ENDBRANCH   8   9
ENDBRANCH   5   8
ENDBRANCH   4   5
ENDBRANCH   3   4
TORSDOF 10
ENDMDL
MODEL 5
REMARK VINA RESULT: -6.471315086      2.128      3.239
REMARK  10 active torsions:
REMARK  status: ('A' for Active; 'I' for Inactive)
REMARK    1  A    between atoms: C2_3  and  C3_4 
REMARK    2  A    between atoms: C3_4  and  N2_5 
REMARK    3  A    between atoms: N2_5  and  C4_8 
REMARK    4  A    between atoms: C4_8  and  C5_9 
REMARK    5  A    between atoms: C5_9  and  C6_10 
REMARK    6  A    between atoms: C6_10  and  N3_11 
REMARK    7  A    between atoms: N3_11  and  C7_14 
REMARK    8  A    between atoms: C7_14  and  C8_15 
REMARK    9  A    between atoms: C8_15  and  C9_16 
REMARK   10  A    between atoms: C9_16  and  C10_17 
ROOT
HETATM    1  N1  UNL     1     -15.309  -3.356  37.472  1.00  0.00    -0.197 NA
HETATM    2  C1  UNL     1     -15.649  -2.323  37.088  1.00  0.00     0.060 C 
HETATM    3  C2  UNL     1     -16.073  -1.010  36.603  1.00  0.00     0.151 C 
ENDROOT
BRANCH   3   4
HETATM    4  C3  UNL     1     -15.023  -0.485  35.633  1.00  0.00     0.246 C 
BRANCH   4   5
HETATM    5  N2  UNL     1     -14.179  -1.595  35.244  1.00  0.00    -0.074 N 
ATOM      6  H22 UNL     1     -13.240  -1.528  35.636  1.00  0.00     0.277 HD
ATOM      7  H21 UNL     1     -14.456  -2.470  35.690  1.00  0.00     0.277 HD
BRANCH   5   8
HETATM    8  C4  UNL     1     -14.171  -1.689  33.789  1.00  0.00     0.234 C 
BRANCH   8   9
HETATM    9  C5  UNL     1     -14.044  -3.168  33.435  1.00  0.00     0.055 C 
BRANCH   9  10
HETATM   10  C6  UNL     1     -13.142  -3.825  34.480  1.00  0.00     0.233 C 
BRANCH  10  11
HETATM   11  N3  UNL     1     -12.775  -5.129  33.947  1.00  0.00    -0.075 N 
ATOM     12  H32 UNL     1     -13.029  -5.901  34.563  1.00  0.00     0.277 HD
ATOM     13  H31 UNL     1     -13.342  -5.410  33.148  1.00  0.00     0.277 HD
BRANCH  11  14
HETATM   14  C7  UNL     1     -11.345  -5.078  33.649  1.00  0.00     0.232 C 
BRANCH  14  15
HETATM   15  C8  UNL     1     -10.788  -6.469  33.600  1.00  0.00     0.028 C 
BRANCH  15  16
HETATM   16  C9  UNL     1     -11.608  -7.534  33.028  1.00  0.00     0.006 C 
BRANCH  16  17
HETATM   17  C10 UNL     1     -11.313  -8.142  31.720  1.00  0.00    -0.014 C 
HETATM   18  C11 UNL     1     -12.281  -9.343  31.600  1.00  0.00     0.004 C 
HETATM   19  C12 UNL     1     -11.946 -10.161  30.405  1.00  0.00     0.000 C 
HETATM   20  C13 UNL     1     -12.047  -9.296  29.156  1.00  0.00     0.000 C 
HETATM   21  C14 UNL     1     -11.192  -8.087  29.246  1.00  0.00     0.000 C 
HETATM   22  C15 UNL     1     -11.256  -7.303  30.516  1.00  0.00     0.004 C 
ENDBRANCH  16  17
ENDBRANCH  15  16
ENDBRANCH  14  15
ENDBRANCH  11  14
ENDBRANCH  10  11
ENDBRANCH   9  10
ENDBRANCH   8   9
ENDBRANCH   5   8
ENDBRANCH   4   5
ENDBRANCH   3   4
TORSDOF 10
ENDMDL
