MODEL 1
REMARK VINA RESULT: -7.580058413      0.000      0.000
REMARK  16 active torsions:
REMARK  status: ('A' for Active; 'I' for Inactive)
REMARK    1  A    between atoms: C2_2  and  O2_4 
REMARK    2  A    between atoms: O2_4  and  C3_5 
REMARK    3  A    between atoms: C3_5  and  C4_6 
REMARK    4  A    between atoms: C3_5  and  C14_23 
REMARK    5  A    between atoms: C4_6  and  C5_7 
REMARK    6  A    between atoms: C5_7  and  C6_9 
REMARK    7  A    between atoms: C7_10  and  C8_11 
REMARK    8  A    between atoms: C10_13  and  O4_14 
REMARK    9  A    between atoms: C11_16  and  O5_17 
REMARK   10  A    between atoms: C12_19  and  O6_20 
REMARK   11  A    between atoms: C16_26  and  O8_27 
REMARK   12  A    between atoms: C16_26  and  C17_29 
REMARK   13  A    between atoms: C17_29  and  O9_30 
REMARK   14  A    between atoms: C18_32  and  O10_33 
REMARK   15  A    between atoms: C18_32  and  C19_35 
REMARK   16  A    between atoms: C22_40  and  O13_42 
ROOT
HETATM    1  C3  UNL     1       2.607   6.449  52.408  1.00  0.00     0.153 C 
ENDROOT
BRANCH   1   2
HETATM    2  O2  UNL     1       2.261   7.353  53.440  1.00  0.00    -0.315 OA
BRANCH   2   3
HETATM    3  C2  UNL     1       3.102   8.243  54.043  1.00  0.00     0.255 C 
HETATM    4  C1  UNL     1       3.057   8.362  55.521  1.00  0.00     0.126 C 
HETATM    5  O1  UNL     1       3.881   8.926  53.335  1.00  0.00    -0.266 OA
ENDBRANCH   2   3
ENDBRANCH   1   2
BRANCH   1   6
HETATM    6  C4  UNL     1       1.389   5.901  51.779  1.00  0.00     0.116 C 
BRANCH   6   7
HETATM    7  C5  UNL     1       1.408   5.805  50.307  1.00  0.00     0.151 C 
HETATM    8  O3  UNL     1       0.986   4.799  49.716  1.00  0.00    -0.293 OA
BRANCH   7   9
HETATM    9  C6  UNL     1       1.933   6.907  49.512  1.00  0.00     0.051 C 
HETATM   10  C7  UNL     1       1.889   6.899  48.196  1.00  0.00     0.015 C 
BRANCH  10  11
HETATM   11  C8  UNL     1       2.389   7.953  47.337  1.00  0.00    -0.031 A 
HETATM   12  C9  UNL     1       1.844   8.169  46.076  1.00  0.00     0.051 A 
HETATM   13  C10 UNL     1       2.288   9.160  45.227  1.00  0.00     0.102 A 
HETATM   14  C11 UNL     1       3.317   9.993  45.610  1.00  0.00     0.132 A 
HETATM   15  C12 UNL     1       3.871   9.800  46.852  1.00  0.00     0.102 A 
HETATM   16  C13 UNL     1       3.411   8.794  47.698  1.00  0.00     0.051 A 
BRANCH  13  17
HETATM   17  O4  UNL     1       1.719   9.343  43.980  1.00  0.00    -0.358 OA
ATOM     18  H4  UNL     1       1.635   8.622  43.368  1.00  0.00     0.217 HD
ENDBRANCH  13  17
BRANCH  14  19
HETATM   19  O5  UNL     1       3.750  10.986  44.741  1.00  0.00    -0.356 OA
ATOM     20  H5  UNL     1       3.631  11.898  44.978  1.00  0.00     0.218 HD
ENDBRANCH  14  19
BRANCH  15  21
HETATM   21  O6  UNL     1       4.910  10.645  47.231  1.00  0.00    -0.358 OA
ATOM     22  H6  UNL     1       5.668  10.692  46.661  1.00  0.00     0.217 HD
ENDBRANCH  15  21
ENDBRANCH  10  11
ENDBRANCH   7   9
ENDBRANCH   6   7
ENDBRANCH   1   6
BRANCH   1  23
HETATM   23  C14 UNL     1       3.497   5.411  53.080  1.00  0.00     0.130 C 
HETATM   24  C15 UNL     1       4.304   4.623  52.128  1.00  0.00     0.177 C 
HETATM   25  O7  UNL     1       4.477   4.887  50.950  1.00  0.00    -0.294 OA
HETATM   26  C16 UNL     1       4.973   3.398  52.624  1.00  0.00     0.185 C 
HETATM   27  C18 UNL     1       3.936   2.449  53.158  1.00  0.00     0.221 C 
HETATM   28  C21 UNL     1       2.881   3.134  53.921  1.00  0.00     0.206 C 
HETATM   29  O12 UNL     1       1.996   2.467  54.416  1.00  0.00    -0.291 OA
HETATM   30  C22 UNL     1       2.827   4.605  54.131  1.00  0.00     0.131 C 
HETATM   31  C23 UNL     1       3.497   4.841  55.495  1.00  0.00     0.055 C 
BRANCH  26  32
HETATM   32  O8  UNL     1       5.798   3.779  53.684  1.00  0.00    -0.376 OA
ATOM     33  H8  UNL     1       5.259   3.802  54.466  1.00  0.00     0.211 HD
ENDBRANCH  26  32
BRANCH  26  34
HETATM   34  C17 UNL     1       5.762   2.679  51.550  1.00  0.00     0.214 C 
BRANCH  34  35
HETATM   35  O9  UNL     1       6.960   3.386  51.296  1.00  0.00    -0.397 OA
ATOM     36  H9  UNL     1       7.414   2.982  50.566  1.00  0.00     0.209 HD
ENDBRANCH  34  35
ENDBRANCH  26  34
BRANCH  27  37
HETATM   37  O10 UNL     1       4.522   1.463  53.958  1.00  0.00    -0.372 OA
ATOM     38  H10 UNL     1       4.397   0.600  53.582  1.00  0.00     0.211 HD
ENDBRANCH  27  37
BRANCH  27  39
HETATM   39  C19 UNL     1       3.290   1.751  52.018  1.00  0.00     0.168 C 
HETATM   40  C20 UNL     1       3.526   0.320  51.711  1.00  0.00     0.095 C 
HETATM   41  O11 UNL     1       2.536   2.392  51.309  1.00  0.00    -0.294 OA
ENDBRANCH  27  39
BRANCH  30  42
HETATM   42  O13 UNL     1       1.483   4.959  54.262  1.00  0.00    -0.381 OA
ATOM     43  H13 UNL     1       0.919   4.196  54.215  1.00  0.00     0.211 HD
ENDBRANCH  30  42
ENDBRANCH   1  23
TORSDOF 16
ENDMDL
MODEL 2
REMARK VINA RESULT: -7.556156622      1.643      3.444
REMARK  16 active torsions:
REMARK  status: ('A' for Active; 'I' for Inactive)
REMARK    1  A    between atoms: C2_2  and  O2_4 
REMARK    2  A    between atoms: O2_4  and  C3_5 
REMARK    3  A    between atoms: C3_5  and  C4_6 
REMARK    4  A    between atoms: C3_5  and  C14_23 
REMARK    5  A    between atoms: C4_6  and  C5_7 
REMARK    6  A    between atoms: C5_7  and  C6_9 
REMARK    7  A    between atoms: C7_10  and  C8_11 
REMARK    8  A    between atoms: C10_13  and  O4_14 
REMARK    9  A    between atoms: C11_16  and  O5_17 
REMARK   10  A    between atoms: C12_19  and  O6_20 
REMARK   11  A    between atoms: C16_26  and  O8_27 
REMARK   12  A    between atoms: C16_26  and  C17_29 
REMARK   13  A    between atoms: C17_29  and  O9_30 
REMARK   14  A    between atoms: C18_32  and  O10_33 
REMARK   15  A    between atoms: C18_32  and  C19_35 
REMARK   16  A    between atoms: C22_40  and  O13_42 
ROOT
HETATM    1  C3  UNL     1       3.671   5.109  51.566  1.00  0.00     0.153 C 
ENDROOT
BRANCH   1   2
HETATM    2  O2  UNL     1       4.041   4.930  52.919  1.00  0.00    -0.315 OA
BRANCH   2   3
HETATM    3  C2  UNL     1       3.716   5.755  53.957  1.00  0.00     0.255 C 
HETATM    4  C1  UNL     1       3.700   5.189  55.328  1.00  0.00     0.126 C 
HETATM    5  O1  UNL     1       3.443   6.957  53.720  1.00  0.00    -0.266 OA
ENDBRANCH   2   3
ENDBRANCH   1   2
BRANCH   1   6
HETATM    6  C4  UNL     1       2.209   5.289  51.456  1.00  0.00     0.116 C 
BRANCH   6   7
HETATM    7  C5  UNL     1       1.689   5.542  50.099  1.00  0.00     0.151 C 
HETATM    8  O3  UNL     1       0.873   4.778  49.563  1.00  0.00    -0.293 OA
BRANCH   7   9
HETATM    9  C6  UNL     1       2.134   6.714  49.355  1.00  0.00     0.051 C 
HETATM   10  C7  UNL     1       2.133   6.744  48.040  1.00  0.00     0.015 C 
BRANCH  10  11
HETATM   11  C8  UNL     1       2.559   7.868  47.229  1.00  0.00    -0.031 A 
HETATM   12  C9  UNL     1       1.983   8.117  45.988  1.00  0.00     0.051 A 
HETATM   13  C10 UNL     1       2.358   9.174  45.187  1.00  0.00     0.102 A 
HETATM   14  C11 UNL     1       3.344  10.043  45.598  1.00  0.00     0.132 A 
HETATM   15  C12 UNL     1       3.929   9.817  46.821  1.00  0.00     0.102 A 
HETATM   16  C13 UNL     1       3.539   8.745  47.620  1.00  0.00     0.051 A 
BRANCH  13  17
HETATM   17  O4  UNL     1       1.759   9.387  43.958  1.00  0.00    -0.358 OA
ATOM     18  H4  UNL     1       1.443  10.247  43.709  1.00  0.00     0.217 HD
ENDBRANCH  13  17
BRANCH  14  19
HETATM   19  O5  UNL     1       3.707  11.101  44.777  1.00  0.00    -0.356 OA
ATOM     20  H5  UNL     1       3.371  11.971  44.960  1.00  0.00     0.218 HD
ENDBRANCH  14  19
BRANCH  15  21
HETATM   21  O6  UNL     1       4.925  10.699  47.230  1.00  0.00    -0.358 OA
ATOM     22  H6  UNL     1       4.896  11.008  48.128  1.00  0.00     0.217 HD
ENDBRANCH  15  21
ENDBRANCH  10  11
ENDBRANCH   7   9
ENDBRANCH   6   7
ENDBRANCH   1   6
BRANCH   1  23
HETATM   23  C14 UNL     1       4.216   3.882  50.845  1.00  0.00     0.130 C 
HETATM   24  C15 UNL     1       4.717   2.838  51.760  1.00  0.00     0.177 C 
HETATM   25  O7  UNL     1       4.518   2.787  52.961  1.00  0.00    -0.294 OA
HETATM   26  C16 UNL     1       5.534   1.742  51.190  1.00  0.00     0.185 C 
HETATM   27  C18 UNL     1       6.756   2.325  50.535  1.00  0.00     0.221 C 
HETATM   28  C21 UNL     1       6.464   3.559  49.789  1.00  0.00     0.206 C 
HETATM   29  O12 UNL     1       7.371   4.113  49.204  1.00  0.00    -0.291 OA
HETATM   30  C22 UNL     1       5.115   4.181  49.703  1.00  0.00     0.131 C 
HETATM   31  C23 UNL     1       4.511   3.648  48.393  1.00  0.00     0.055 C 
BRANCH  26  32
HETATM   32  O8  UNL     1       4.766   1.124  50.201  1.00  0.00    -0.376 OA
ATOM     33  H8  UNL     1       5.013   0.207  50.185  1.00  0.00     0.211 HD
ENDBRANCH  26  32
BRANCH  26  34
HETATM   34  C17 UNL     1       5.990   0.742  52.231  1.00  0.00     0.214 C 
BRANCH  34  35
HETATM   35  O9  UNL     1       6.175  -0.520  51.619  1.00  0.00    -0.397 OA
ATOM     36  H9  UNL     1       7.096  -0.639  51.418  1.00  0.00     0.209 HD
ENDBRANCH  34  35
ENDBRANCH  26  34
BRANCH  27  37
HETATM   37  O10 UNL     1       7.358   1.397  49.679  1.00  0.00    -0.372 OA
ATOM     38  H10 UNL     1       8.299   1.374  49.809  1.00  0.00     0.211 HD
ENDBRANCH  27  37
BRANCH  27  39
HETATM   39  C19 UNL     1       7.753   2.655  51.584  1.00  0.00     0.168 C 
HETATM   40  C20 UNL     1       8.969   1.842  51.823  1.00  0.00     0.095 C 
HETATM   41  O11 UNL     1       7.554   3.638  52.273  1.00  0.00    -0.294 OA
ENDBRANCH  27  39
BRANCH  30  42
HETATM   42  O13 UNL     1       5.299   5.555  49.546  1.00  0.00    -0.381 OA
ATOM     43  H13 UNL     1       5.957   5.744  48.887  1.00  0.00     0.211 HD
ENDBRANCH  30  42
ENDBRANCH   1  23
TORSDOF 16
ENDMDL
MODEL 3
REMARK VINA RESULT: -7.543859460      0.083      1.366
REMARK  16 active torsions:
REMARK  status: ('A' for Active; 'I' for Inactive)
REMARK    1  A    between atoms: C2_2  and  O2_4 
REMARK    2  A    between atoms: O2_4  and  C3_5 
REMARK    3  A    between atoms: C3_5  and  C4_6 
REMARK    4  A    between atoms: C3_5  and  C14_23 
REMARK    5  A    between atoms: C4_6  and  C5_7 
REMARK    6  A    between atoms: C5_7  and  C6_9 
REMARK    7  A    between atoms: C7_10  and  C8_11 
REMARK    8  A    between atoms: C10_13  and  O4_14 
REMARK    9  A    between atoms: C11_16  and  O5_17 
REMARK   10  A    between atoms: C12_19  and  O6_20 
REMARK   11  A    between atoms: C16_26  and  O8_27 
REMARK   12  A    between atoms: C16_26  and  C17_29 
REMARK   13  A    between atoms: C17_29  and  O9_30 
REMARK   14  A    between atoms: C18_32  and  O10_33 
REMARK   15  A    between atoms: C18_32  and  C19_35 
REMARK   16  A    between atoms: C22_40  and  O13_42 
ROOT
HETATM    1  C3  UNL     1       2.594   6.521  52.413  1.00  0.00     0.153 C 
ENDROOT
BRANCH   1   2
HETATM    2  O2  UNL     1       2.278   7.443  53.438  1.00  0.00    -0.315 OA
BRANCH   2   3
HETATM    3  C2  UNL     1       3.149   8.307  54.038  1.00  0.00     0.255 C 
HETATM    4  C1  UNL     1       3.130   8.410  55.518  1.00  0.00     0.126 C 
HETATM    5  O1  UNL     1       3.932   8.980  53.325  1.00  0.00    -0.266 OA
ENDBRANCH   2   3
ENDBRANCH   1   2
BRANCH   1   6
HETATM    6  C4  UNL     1       1.358   5.991  51.804  1.00  0.00     0.116 C 
BRANCH   6   7
HETATM    7  C5  UNL     1       1.367   5.856  50.336  1.00  0.00     0.151 C 
HETATM    8  O3  UNL     1       0.987   4.817  49.775  1.00  0.00    -0.293 OA
BRANCH   7   9
HETATM    9  C6  UNL     1       1.831   6.961  49.506  1.00  0.00     0.051 C 
HETATM   10  C7  UNL     1       1.895   6.867  48.195  1.00  0.00     0.015 C 
BRANCH  10  11
HETATM   11  C8  UNL     1       2.344   7.917  47.303  1.00  0.00    -0.031 A 
HETATM   12  C9  UNL     1       3.389   8.763  47.659  1.00  0.00     0.051 A 
HETATM   13  C10 UNL     1       3.848   9.773  46.841  1.00  0.00     0.102 A 
HETATM   14  C11 UNL     1       3.270   9.986  45.609  1.00  0.00     0.132 A 
HETATM   15  C12 UNL     1       2.236   9.162  45.234  1.00  0.00     0.102 A 
HETATM   16  C13 UNL     1       1.784   8.146  46.071  1.00  0.00     0.051 A 
BRANCH  13  17
HETATM   17  O4  UNL     1       4.891  10.593  47.233  1.00  0.00    -0.358 OA
ATOM     18  H4  UNL     1       5.604  10.799  46.640  1.00  0.00     0.217 HD
ENDBRANCH  13  17
BRANCH  14  19
HETATM   19  O5  UNL     1       3.747  11.008  44.799  1.00  0.00    -0.356 OA
ATOM     20  H5  UNL     1       4.484  10.843  44.223  1.00  0.00     0.218 HD
ENDBRANCH  14  19
BRANCH  15  21
HETATM   21  O6  UNL     1       1.658   9.384  43.987  1.00  0.00    -0.358 OA
ATOM     22  H6  UNL     1       1.319   8.629  43.521  1.00  0.00     0.217 HD
ENDBRANCH  15  21
ENDBRANCH  10  11
ENDBRANCH   7   9
ENDBRANCH   6   7
ENDBRANCH   1   6
BRANCH   1  23
HETATM   23  C14 UNL     1       3.471   5.473  53.088  1.00  0.00     0.130 C 
HETATM   24  C15 UNL     1       4.272   4.677  52.137  1.00  0.00     0.177 C 
HETATM   25  O7  UNL     1       4.452   4.940  50.961  1.00  0.00    -0.294 OA
HETATM   26  C16 UNL     1       4.927   3.444  52.635  1.00  0.00     0.185 C 
HETATM   27  C18 UNL     1       3.877   2.506  53.164  1.00  0.00     0.221 C 
HETATM   28  C21 UNL     1       2.827   3.201  53.924  1.00  0.00     0.206 C 
HETATM   29  O12 UNL     1       1.932   2.544  54.415  1.00  0.00    -0.291 OA
HETATM   30  C22 UNL     1       2.788   4.673  54.135  1.00  0.00     0.131 C 
HETATM   31  C23 UNL     1       3.455   4.900  55.502  1.00  0.00     0.055 C 
BRANCH  26  32
HETATM   32  O8  UNL     1       5.752   3.816  53.699  1.00  0.00    -0.376 OA
ATOM     33  H8  UNL     1       5.998   3.019  54.155  1.00  0.00     0.211 HD
ENDBRANCH  26  32
BRANCH  26  34
HETATM   34  C17 UNL     1       5.711   2.718  51.563  1.00  0.00     0.214 C 
BRANCH  34  35
HETATM   35  O9  UNL     1       6.823   3.505  51.182  1.00  0.00    -0.397 OA
ATOM     36  H9  UNL     1       6.583   4.424  51.218  1.00  0.00     0.209 HD
ENDBRANCH  34  35
ENDBRANCH  26  34
BRANCH  27  37
HETATM   37  O10 UNL     1       4.450   1.513  53.965  1.00  0.00    -0.372 OA
ATOM     38  H10 UNL     1       5.134   1.049  53.496  1.00  0.00     0.211 HD
ENDBRANCH  27  37
BRANCH  27  39
HETATM   39  C19 UNL     1       3.228   1.816  52.021  1.00  0.00     0.168 C 
HETATM   40  C20 UNL     1       3.417   0.374  51.737  1.00  0.00     0.095 C 
HETATM   41  O11 UNL     1       2.511   2.474  51.289  1.00  0.00    -0.294 OA
ENDBRANCH  27  39
BRANCH  30  42
HETATM   42  O13 UNL     1       1.447   5.041  54.262  1.00  0.00    -0.381 OA
ATOM     43  H13 UNL     1       0.872   4.290  54.166  1.00  0.00     0.211 HD
ENDBRANCH  30  42
ENDBRANCH   1  23
TORSDOF 16
ENDMDL
MODEL 4
REMARK VINA RESULT: -7.521508279      2.175      4.291
REMARK  16 active torsions:
REMARK  status: ('A' for Active; 'I' for Inactive)
REMARK    1  A    between atoms: C2_2  and  O2_4 
REMARK    2  A    between atoms: O2_4  and  C3_5 
REMARK    3  A    between atoms: C3_5  and  C4_6 
REMARK    4  A    between atoms: C3_5  and  C14_23 
REMARK    5  A    between atoms: C4_6  and  C5_7 
REMARK    6  A    between atoms: C5_7  and  C6_9 
REMARK    7  A    between atoms: C7_10  and  C8_11 
REMARK    8  A    between atoms: C10_13  and  O4_14 
REMARK    9  A    between atoms: C11_16  and  O5_17 
REMARK   10  A    between atoms: C12_19  and  O6_20 
REMARK   11  A    between atoms: C16_26  and  O8_27 
REMARK   12  A    between atoms: C16_26  and  C17_29 
REMARK   13  A    between atoms: C17_29  and  O9_30 
REMARK   14  A    between atoms: C18_32  and  O10_33 
REMARK   15  A    between atoms: C18_32  and  C19_35 
REMARK   16  A    between atoms: C22_40  and  O13_42 
ROOT
HETATM    1  C3  UNL     1       4.268   4.100  49.687  1.00  0.00     0.153 C 
ENDROOT
BRANCH   1   2
HETATM    2  O2  UNL     1       4.625   4.540  50.984  1.00  0.00    -0.315 OA
BRANCH   2   3
HETATM    3  C2  UNL     1       3.802   5.168  51.873  1.00  0.00     0.255 C 
HETATM    4  C1  UNL     1       3.373   6.557  51.574  1.00  0.00     0.126 C 
HETATM    5  O1  UNL     1       3.437   4.557  52.907  1.00  0.00    -0.266 OA
ENDBRANCH   2   3
ENDBRANCH   1   2
BRANCH   1   6
HETATM    6  C4  UNL     1       2.850   3.691  49.660  1.00  0.00     0.116 C 
BRANCH   6   7
HETATM    7  C5  UNL     1       1.942   4.556  48.882  1.00  0.00     0.151 C 
HETATM    8  O3  UNL     1       0.711   4.417  48.931  1.00  0.00    -0.293 OA
BRANCH   7   9
HETATM    9  C6  UNL     1       2.489   5.602  48.027  1.00  0.00     0.051 C 
HETATM   10  C7  UNL     1       1.994   6.822  48.018  1.00  0.00     0.015 C 
BRANCH  10  11
HETATM   11  C8  UNL     1       2.480   7.915  47.199  1.00  0.00    -0.031 A 
HETATM   12  C9  UNL     1       1.958   8.149  45.932  1.00  0.00     0.051 A 
HETATM   13  C10 UNL     1       2.391   9.176  45.122  1.00  0.00     0.102 A 
HETATM   14  C11 UNL     1       3.383  10.030  45.551  1.00  0.00     0.132 A 
HETATM   15  C12 UNL     1       3.915   9.819  46.800  1.00  0.00     0.102 A 
HETATM   16  C13 UNL     1       3.467   8.776  47.608  1.00  0.00     0.051 A 
BRANCH  13  17
HETATM   17  O4  UNL     1       1.844   9.376  43.866  1.00  0.00    -0.358 OA
ATOM     18  H4  UNL     1       2.096  10.120  43.333  1.00  0.00     0.217 HD
ENDBRANCH  13  17
BRANCH  14  19
HETATM   19  O5  UNL     1       3.804  11.059  44.720  1.00  0.00    -0.356 OA
ATOM     20  H5  UNL     1       4.528  11.612  44.991  1.00  0.00     0.218 HD
ENDBRANCH  14  19
BRANCH  15  21
HETATM   21  O6  UNL     1       4.917  10.685  47.227  1.00  0.00    -0.358 OA
ATOM     22  H6  UNL     1       5.266  10.556  48.101  1.00  0.00     0.217 HD
ENDBRANCH  15  21
ENDBRANCH  10  11
ENDBRANCH   7   9
ENDBRANCH   6   7
ENDBRANCH   1   6
BRANCH   1  23
HETATM   23  C14 UNL     1       5.257   2.985  49.367  1.00  0.00     0.130 C 
HETATM   24  C15 UNL     1       5.340   1.953  50.419  1.00  0.00     0.177 C 
HETATM   25  O7  UNL     1       4.557   1.812  51.343  1.00  0.00    -0.294 OA
HETATM   26  C16 UNL     1       6.465   0.991  50.368  1.00  0.00     0.185 C 
HETATM   27  C18 UNL     1       7.765   1.745  50.437  1.00  0.00     0.221 C 
HETATM   28  C21 UNL     1       7.747   2.979  49.637  1.00  0.00     0.206 C 
HETATM   29  O12 UNL     1       8.748   3.664  49.603  1.00  0.00    -0.291 OA
HETATM   30  C22 UNL     1       6.571   3.448  48.856  1.00  0.00     0.131 C 
HETATM   31  C23 UNL     1       6.804   2.926  47.428  1.00  0.00     0.055 C 
BRANCH  26  32
HETATM   32  O8  UNL     1       6.403   0.348  49.130  1.00  0.00    -0.376 OA
ATOM     33  H8  UNL     1       7.275   0.025  48.937  1.00  0.00     0.211 HD
ENDBRANCH  26  32
BRANCH  26  34
HETATM   34  C17 UNL     1       6.439  -0.009  51.504  1.00  0.00     0.214 C 
BRANCH  34  35
HETATM   35  O9  UNL     1       7.303  -1.086  51.199  1.00  0.00    -0.397 OA
ATOM     36  H9  UNL     1       6.885  -1.904  51.444  1.00  0.00     0.209 HD
ENDBRANCH  34  35
ENDBRANCH  26  34
BRANCH  27  37
HETATM   37  O10 UNL     1       8.833   0.942  50.029  1.00  0.00    -0.372 OA
ATOM     38  H10 UNL     1       9.003   1.046  49.100  1.00  0.00     0.211 HD
ENDBRANCH  27  37
BRANCH  27  39
HETATM   39  C19 UNL     1       8.025   2.124  51.849  1.00  0.00     0.168 C 
HETATM   40  C20 UNL     1       7.372   3.281  52.506  1.00  0.00     0.095 C 
HETATM   41  O11 UNL     1       8.811   1.448  52.486  1.00  0.00    -0.294 OA
ENDBRANCH  27  39
BRANCH  30  42
HETATM   42  O13 UNL     1       6.634   4.841  48.804  1.00  0.00    -0.381 OA
ATOM     43  H13 UNL     1       5.825   5.212  48.471  1.00  0.00     0.211 HD
ENDBRANCH  30  42
ENDBRANCH   1  23
TORSDOF 16
ENDMDL
MODEL 5
REMARK VINA RESULT: -7.503706757      1.611      3.659
REMARK  16 active torsions:
REMARK  status: ('A' for Active; 'I' for Inactive)
REMARK    1  A    between atoms: C2_2  and  O2_4 
REMARK    2  A    between atoms: O2_4  and  C3_5 
REMARK    3  A    between atoms: C3_5  and  C4_6 
REMARK    4  A    between atoms: C3_5  and  C14_23 
REMARK    5  A    between atoms: C4_6  and  C5_7 
REMARK    6  A    between atoms: C5_7  and  C6_9 
REMARK    7  A    between atoms: C7_10  and  C8_11 
REMARK    8  A    between atoms: C10_13  and  O4_14 
REMARK    9  A    between atoms: C11_16  and  O5_17 
REMARK   10  A    between atoms: C12_19  and  O6_20 
REMARK   11  A    between atoms: C16_26  and  O8_27 
REMARK   12  A    between atoms: C16_26  and  C17_29 
REMARK   13  A    between atoms: C17_29  and  O9_30 
REMARK   14  A    between atoms: C18_32  and  O10_33 
REMARK   15  A    between atoms: C18_32  and  C19_35 
REMARK   16  A    between atoms: C22_40  and  O13_42 
ROOT
HETATM    1  C3  UNL     1       3.507   5.233  51.465  1.00  0.00     0.153 C 
ENDROOT
BRANCH   1   2
HETATM    2  O2  UNL     1       3.892   5.125  52.823  1.00  0.00    -0.315 OA
BRANCH   2   3
HETATM    3  C2  UNL     1       3.388   5.856  53.860  1.00  0.00     0.255 C 
HETATM    4  C1  UNL     1       3.318   7.331  53.712  1.00  0.00     0.126 C 
HETATM    5  O1  UNL     1       3.004   5.263  54.897  1.00  0.00    -0.266 OA
ENDBRANCH   2   3
ENDBRANCH   1   2
BRANCH   1   6
HETATM    6  C4  UNL     1       2.042   5.387  51.362  1.00  0.00     0.116 C 
BRANCH   6   7
HETATM    7  C5  UNL     1       1.504   5.554  49.998  1.00  0.00     0.151 C 
HETATM    8  O3  UNL     1       0.774   4.697  49.478  1.00  0.00    -0.293 OA
BRANCH   7   9
HETATM    9  C6  UNL     1       1.830   6.749  49.228  1.00  0.00     0.051 C 
HETATM   10  C7  UNL     1       2.263   6.680  47.987  1.00  0.00     0.015 C 
BRANCH  10  11
HETATM   11  C8  UNL     1       2.607   7.817  47.158  1.00  0.00    -0.031 A 
HETATM   12  C9  UNL     1       3.580   8.727  47.557  1.00  0.00     0.051 A 
HETATM   13  C10 UNL     1       3.938   9.821  46.798  1.00  0.00     0.102 A 
HETATM   14  C11 UNL     1       3.326  10.057  45.587  1.00  0.00     0.132 A 
HETATM   15  C12 UNL     1       2.362   9.171  45.171  1.00  0.00     0.102 A 
HETATM   16  C13 UNL     1       2.011   8.070  45.948  1.00  0.00     0.051 A 
BRANCH  13  17
HETATM   17  O4  UNL     1       4.911  10.704  47.231  1.00  0.00    -0.358 OA
ATOM     18  H4  UNL     1       4.702  11.609  47.428  1.00  0.00     0.217 HD
ENDBRANCH  13  17
BRANCH  14  19
HETATM   19  O5  UNL     1       3.701  11.164  44.838  1.00  0.00    -0.356 OA
ATOM     20  H5  UNL     1       3.032  11.739  44.486  1.00  0.00     0.218 HD
ENDBRANCH  14  19
BRANCH  15  21
HETATM   21  O6  UNL     1       1.749   9.417  43.946  1.00  0.00    -0.358 OA
ATOM     22  H6  UNL     1       1.039   8.840  43.687  1.00  0.00     0.217 HD
ENDBRANCH  15  21
ENDBRANCH  10  11
ENDBRANCH   7   9
ENDBRANCH   6   7
ENDBRANCH   1   6
BRANCH   1  23
HETATM   23  C14 UNL     1       4.062   3.979  50.801  1.00  0.00     0.130 C 
HETATM   24  C15 UNL     1       4.504   2.950  51.764  1.00  0.00     0.177 C 
HETATM   25  O7  UNL     1       4.251   2.934  52.956  1.00  0.00    -0.294 OA
HETATM   26  C16 UNL     1       5.327   1.827  51.259  1.00  0.00     0.185 C 
HETATM   27  C18 UNL     1       6.587   2.374  50.645  1.00  0.00     0.221 C 
HETATM   28  C21 UNL     1       6.349   3.592  49.856  1.00  0.00     0.206 C 
HETATM   29  O12 UNL     1       7.291   4.116  49.298  1.00  0.00    -0.291 OA
HETATM   30  C22 UNL     1       5.016   4.233  49.693  1.00  0.00     0.131 C 
HETATM   31  C23 UNL     1       4.462   3.676  48.371  1.00  0.00     0.055 C 
BRANCH  26  32
HETATM   32  O8  UNL     1       4.593   1.196  50.252  1.00  0.00    -0.376 OA
ATOM     33  H8  UNL     1       4.790   1.644  49.438  1.00  0.00     0.211 HD
ENDBRANCH  26  32
BRANCH  26  34
HETATM   34  C17 UNL     1       5.719   0.847  52.344  1.00  0.00     0.214 C 
BRANCH  34  35
HETATM   35  O9  UNL     1       5.901  -0.434  51.774  1.00  0.00    -0.397 OA
ATOM     36  H9  UNL     1       6.752  -0.772  52.026  1.00  0.00     0.209 HD
ENDBRANCH  34  35
ENDBRANCH  26  34
BRANCH  27  37
HETATM   37  O10 UNL     1       7.210   1.414  49.841  1.00  0.00    -0.372 OA
ATOM     38  H10 UNL     1       6.568   0.903  49.361  1.00  0.00     0.211 HD
ENDBRANCH  27  37
BRANCH  27  39
HETATM   39  C19 UNL     1       7.542   2.714  51.729  1.00  0.00     0.168 C 
HETATM   40  C20 UNL     1       8.722   1.879  52.055  1.00  0.00     0.095 C 
HETATM   41  O11 UNL     1       7.337   3.726  52.374  1.00  0.00    -0.294 OA
ENDBRANCH  27  39
BRANCH  30  42
HETATM   42  O13 UNL     1       5.230   5.600  49.510  1.00  0.00    -0.381 OA
ATOM     43  H13 UNL     1       6.058   5.874  49.888  1.00  0.00     0.211 HD
ENDBRANCH  30  42
ENDBRANCH   1  23
TORSDOF 16
ENDMDL
