MODEL 1
REMARK VINA RESULT: -7.899667013      0.000      0.000
REMARK  10 active torsions:
REMARK  status: ('A' for Active; 'I' for Inactive)
REMARK    1  A    between atoms: C2_2  and  N1_4 
REMARK    2  A    between atoms: N1_4  and  N2_6 
REMARK       I    between atoms: N2_6  and  C4_8 
REMARK       I    between atoms: C4_8  and  N3_10 
REMARK    3  A    between atoms: N3_10  and  C5_11 
REMARK    4  A    between atoms: C5_11  and  N4_12 
REMARK    5  A    between atoms: C5_11  and  C6_15 
REMARK    6  A    between atoms: C6_15  and  N5_16 
REMARK    7  A    between atoms: C6_15  and  C12_27 
REMARK       I    between atoms: N5_16  and  C7_18 
REMARK    8  A    between atoms: C7_18  and  C8_20 
REMARK       I    between atoms: C12_27  and  N7_29 
REMARK    9  A    between atoms: C13_34  and  C14_35 
REMARK   10  A    between atoms: C15_38  and  C16_39 
ROOT
HETATM    1  C6  UNL     1     -17.524  21.518  -8.328  1.00  0.00     0.263 C 
ENDROOT
BRANCH   1   2
HETATM    2  C5  UNL     1     -16.410  21.084  -9.224  1.00  0.00     0.187 C 
BRANCH   2   3
HETATM    3  N3  UNL     1     -16.419  20.087 -10.129  1.00  0.00    -0.335 NA
HETATM    4  C4  UNL     1     -16.428  19.085 -11.037  1.00  0.00     0.414 C 
HETATM    5  N2  UNL     1     -15.553  19.172 -12.224  1.00  0.00    -0.239 N 
HETATM    6  O1  UNL     1     -17.103  17.994 -11.066  1.00  0.00    -0.228 OA
ATOM      7  H2  UNL     1     -14.944  19.980 -12.354  1.00  0.00     0.193 HD
BRANCH   5   8
HETATM    8  N1  UNL     1     -15.563  18.156 -13.156  1.00  0.00    -0.305 N 
ATOM      9  H1  UNL     1     -15.663  17.198 -12.821  1.00  0.00     0.186 HD
BRANCH   8  10
HETATM   10  C2  UNL     1     -15.457  18.343 -14.406  1.00  0.00    -0.004 C 
HETATM   11  C1  UNL     1     -14.620  17.417 -15.209  1.00  0.00     0.064 C 
HETATM   12  C3  UNL     1     -16.137  19.454 -15.080  1.00  0.00     0.064 C 
ENDBRANCH   8  10
ENDBRANCH   5   8
ENDBRANCH   2   3
BRANCH   2  13
HETATM   13  N4  UNL     1     -15.279  21.757  -9.084  1.00  0.00    -0.375 N 
ATOM     14  H42 UNL     1     -14.801  21.625  -8.193  1.00  0.00     0.158 HD
ATOM     15  H41 UNL     1     -14.980  22.327  -9.875  1.00  0.00     0.158 HD
ENDBRANCH   2  13
ENDBRANCH   1   2
BRANCH   1  16
HETATM   16  N5  UNL     1     -18.809  21.256  -8.965  1.00  0.00    -0.335 N 
HETATM   17  C7  UNL     1     -19.679  22.314  -9.345  1.00  0.00     0.269 C 
HETATM   18  O2  UNL     1     -19.296  23.483  -9.118  1.00  0.00    -0.266 OA
ATOM     19  H5  UNL     1     -19.090  20.292  -9.143  1.00  0.00     0.164 HD
BRANCH  17  20
HETATM   20  C8  UNL     1     -20.988  22.016  -9.983  1.00  0.00     0.107 A 
HETATM   21  C9  UNL     1     -22.147  22.530  -9.439  1.00  0.00     0.086 A 
HETATM   22  S1  UNL     1     -23.337  21.894 -10.495  1.00  0.00    -0.087 SA
HETATM   23  C10 UNL     1     -22.308  21.028 -11.543  1.00  0.00     0.047 A 
HETATM   24  C11 UNL     1     -22.653  20.192 -12.750  1.00  0.00     0.076 C 
HETATM   25  N6  UNL     1     -21.114  21.270 -11.035  1.00  0.00    -0.349 N 
ATOM     26  H6  UNL     1     -20.285  20.869 -11.474  1.00  0.00     0.166 HD
ENDBRANCH  17  20
ENDBRANCH   1  16
BRANCH   1  27
HETATM   27  C12 UNL     1     -17.557  20.827  -7.032  1.00  0.00     0.290 C 
HETATM   28  O3  UNL     1     -18.203  19.739  -6.952  1.00  0.00    -0.267 OA
HETATM   29  N7  UNL     1     -16.899  21.328  -5.854  1.00  0.00    -0.142 N 
HETATM   30  N8  UNL     1     -16.169  22.407  -5.747  1.00  0.00    -0.216 N 
HETATM   31  N12 UNL     1     -16.985  20.789  -4.664  1.00  0.00    -0.256 N 
HETATM   32  N9  UNL     1     -15.786  22.556  -4.468  1.00  0.00    -0.265 N 
ATOM     33  H8  UNL     1     -15.928  23.037  -6.514  1.00  0.00     0.210 HD
HETATM   34  C13 UNL     1     -16.297  21.536  -3.764  1.00  0.00     0.182 A 
ATOM     35  H9  UNL     1     -15.209  23.310  -4.098  1.00  0.00     0.190 HD
ATOM     36  H12 UNL     1     -17.495  19.933  -4.446  1.00  0.00     0.191 HD
BRANCH  34  37
HETATM   37  C14 UNL     1     -16.179  21.276  -2.327  1.00  0.00     0.153 A 
HETATM   38  N10 UNL     1     -15.287  21.797  -1.479  1.00  0.00    -0.333 N 
HETATM   39  C15 UNL     1     -15.451  21.322  -0.227  1.00  0.00     0.127 A 
ATOM     40  H10 UNL     1     -14.571  22.472  -1.745  1.00  0.00     0.168 HD
HETATM   41  C17 UNL     1     -16.533  20.434  -0.304  1.00  0.00     0.126 A 
HETATM   42  N11 UNL     1     -16.933  20.446  -1.599  1.00  0.00    -0.347 N 
ATOM     43  H11 UNL     1     -17.708  19.895  -1.969  1.00  0.00     0.167 HD
BRANCH  39  44
HETATM   44  C16 UNL     1     -14.692  21.628   0.970  1.00  0.00     0.228 C 
HETATM   45  O4  UNL     1     -13.628  21.026   1.195  1.00  0.00    -0.643 OA
HETATM   46  O5  UNL     1     -15.160  22.574   1.839  1.00  0.00    -0.643 OA
ENDBRANCH  39  44
ENDBRANCH  34  37
ENDBRANCH   1  27
TORSDOF 10
ENDMDL
MODEL 2
REMARK VINA RESULT: -7.799809342      4.534     11.509
REMARK  10 active torsions:
REMARK  status: ('A' for Active; 'I' for Inactive)
REMARK    1  A    between atoms: C2_2  and  N1_4 
REMARK    2  A    between atoms: N1_4  and  N2_6 
REMARK       I    between atoms: N2_6  and  C4_8 
REMARK       I    between atoms: C4_8  and  N3_10 
REMARK    3  A    between atoms: N3_10  and  C5_11 
REMARK    4  A    between atoms: C5_11  and  N4_12 
REMARK    5  A    between atoms: C5_11  and  C6_15 
REMARK    6  A    between atoms: C6_15  and  N5_16 
REMARK    7  A    between atoms: C6_15  and  C12_27 
REMARK       I    between atoms: N5_16  and  C7_18 
REMARK    8  A    between atoms: C7_18  and  C8_20 
REMARK       I    between atoms: C12_27  and  N7_29 
REMARK    9  A    between atoms: C13_34  and  C14_35 
REMARK   10  A    between atoms: C15_38  and  C16_39 
ROOT
HETATM    1  C6  UNL     1     -15.657  22.226  -1.924  1.00  0.00     0.263 C 
ENDROOT
BRANCH   1   2
HETATM    2  C5  UNL     1     -15.449  21.518  -0.625  1.00  0.00     0.187 C 
BRANCH   2   3
HETATM    3  N3  UNL     1     -14.836  21.984   0.480  1.00  0.00    -0.335 NA
HETATM    4  C4  UNL     1     -14.220  22.451   1.590  1.00  0.00     0.414 C 
HETATM    5  N2  UNL     1     -13.627  23.804   1.577  1.00  0.00    -0.239 N 
HETATM    6  O1  UNL     1     -14.041  21.901   2.735  1.00  0.00    -0.228 OA
ATOM      7  H2  UNL     1     -13.685  24.381   0.739  1.00  0.00     0.193 HD
BRANCH   5   8
HETATM    8  N1  UNL     1     -12.993  24.282   2.704  1.00  0.00    -0.305 N 
ATOM      9  H1  UNL     1     -12.369  23.652   3.208  1.00  0.00     0.186 HD
BRANCH   8  10
HETATM   10  C2  UNL     1     -13.141  25.460   3.151  1.00  0.00    -0.004 C 
HETATM   11  C1  UNL     1     -13.222  26.593   2.195  1.00  0.00     0.064 C 
HETATM   12  C3  UNL     1     -13.231  25.733   4.589  1.00  0.00     0.064 C 
ENDBRANCH   8  10
ENDBRANCH   5   8
ENDBRANCH   2   3
BRANCH   2  13
HETATM   13  N4  UNL     1     -15.908  20.277  -0.578  1.00  0.00    -0.375 N 
ATOM     14  H42 UNL     1     -15.405  19.651   0.051  1.00  0.00     0.158 HD
ATOM     15  H41 UNL     1     -16.723  20.064  -1.153  1.00  0.00     0.158 HD
ENDBRANCH   2  13
ENDBRANCH   1   2
BRANCH   1  16
HETATM   16  N5  UNL     1     -15.165  23.596  -1.831  1.00  0.00    -0.335 N 
HETATM   17  C7  UNL     1     -16.029  24.709  -2.022  1.00  0.00     0.269 C 
HETATM   18  O2  UNL     1     -17.232  24.468  -2.265  1.00  0.00    -0.266 OA
ATOM     19  H5  UNL     1     -14.180  23.759  -1.625  1.00  0.00     0.164 HD
BRANCH  17  20
HETATM   20  C8  UNL     1     -15.497  26.094  -1.932  1.00  0.00     0.107 A 
HETATM   21  C9  UNL     1     -14.342  26.429  -2.609  1.00  0.00     0.086 A 
HETATM   22  S1  UNL     1     -14.148  28.073  -2.172  1.00  0.00    -0.087 SA
HETATM   23  C10 UNL     1     -15.521  28.233  -1.173  1.00  0.00     0.047 A 
HETATM   24  C11 UNL     1     -16.017  29.437  -0.412  1.00  0.00     0.076 C 
HETATM   25  N6  UNL     1     -16.054  27.026  -1.226  1.00  0.00    -0.349 N 
ATOM     26  H6  UNL     1     -16.911  26.827  -0.709  1.00  0.00     0.166 HD
ENDBRANCH  17  20
ENDBRANCH   1  16
BRANCH   1  27
HETATM   27  C12 UNL     1     -14.959  21.612  -3.061  1.00  0.00     0.290 C 
HETATM   28  O3  UNL     1     -14.057  20.755  -2.817  1.00  0.00    -0.267 OA
HETATM   29  N7  UNL     1     -15.245  21.943  -4.433  1.00  0.00    -0.142 N 
HETATM   30  N8  UNL     1     -16.150  22.773  -4.881  1.00  0.00    -0.216 N 
HETATM   31  N12 UNL     1     -14.581  21.487  -5.465  1.00  0.00    -0.256 N 
HETATM   32  N9  UNL     1     -16.057  22.846  -6.219  1.00  0.00    -0.265 N 
ATOM     33  H8  UNL     1     -16.820  23.285  -4.306  1.00  0.00     0.210 HD
HETATM   34  C13 UNL     1     -15.063  22.035  -6.608  1.00  0.00     0.182 A 
ATOM     35  H9  UNL     1     -16.639  23.417  -6.831  1.00  0.00     0.190 HD
ATOM     36  H12 UNL     1     -13.813  20.818  -5.416  1.00  0.00     0.191 HD
BRANCH  34  37
HETATM   37  C14 UNL     1     -14.565  21.796  -7.965  1.00  0.00     0.153 A 
HETATM   38  N10 UNL     1     -15.252  21.327  -9.011  1.00  0.00    -0.333 N 
HETATM   39  C15 UNL     1     -14.477  21.210 -10.108  1.00  0.00     0.127 A 
ATOM     40  H10 UNL     1     -16.243  21.087  -8.983  1.00  0.00     0.168 HD
HETATM   41  C17 UNL     1     -13.204  21.642  -9.711  1.00  0.00     0.126 A 
HETATM   42  N11 UNL     1     -13.317  21.985  -8.405  1.00  0.00    -0.347 N 
ATOM     43  H11 UNL     1     -12.551  22.341  -7.833  1.00  0.00     0.167 HD
BRANCH  39  44
HETATM   44  C16 UNL     1     -14.834  20.736 -11.431  1.00  0.00     0.228 C 
HETATM   45  O4  UNL     1     -14.863  21.533 -12.384  1.00  0.00    -0.643 OA
HETATM   46  O5  UNL     1     -15.139  19.414 -11.611  1.00  0.00    -0.643 OA
ENDBRANCH  39  44
ENDBRANCH  34  37
ENDBRANCH   1  27
TORSDOF 10
ENDMDL
MODEL 3
REMARK VINA RESULT: -7.726486336      4.143     11.347
REMARK  10 active torsions:
REMARK  status: ('A' for Active; 'I' for Inactive)
REMARK    1  A    between atoms: C2_2  and  N1_4 
REMARK    2  A    between atoms: N1_4  and  N2_6 
REMARK       I    between atoms: N2_6  and  C4_8 
REMARK       I    between atoms: C4_8  and  N3_10 
REMARK    3  A    between atoms: N3_10  and  C5_11 
REMARK    4  A    between atoms: C5_11  and  N4_12 
REMARK    5  A    between atoms: C5_11  and  C6_15 
REMARK    6  A    between atoms: C6_15  and  N5_16 
REMARK    7  A    between atoms: C6_15  and  C12_27 
REMARK       I    between atoms: N5_16  and  C7_18 
REMARK    8  A    between atoms: C7_18  and  C8_20 
REMARK       I    between atoms: C12_27  and  N7_29 
REMARK    9  A    between atoms: C13_34  and  C14_35 
REMARK   10  A    between atoms: C15_38  and  C16_39 
ROOT
HETATM    1  C6  UNL     1     -15.603  22.508  -3.085  1.00  0.00     0.263 C 
ENDROOT
BRANCH   1   2
HETATM    2  C5  UNL     1     -15.351  21.510  -2.002  1.00  0.00     0.187 C 
BRANCH   2   3
HETATM    3  N3  UNL     1     -14.848  21.735  -0.773  1.00  0.00    -0.335 NA
HETATM    4  C4  UNL     1     -14.342  21.961   0.460  1.00  0.00     0.414 C 
HETATM    5  N2  UNL     1     -14.028  23.344   0.876  1.00  0.00    -0.239 N 
HETATM    6  O1  UNL     1     -14.063  21.142   1.408  1.00  0.00    -0.228 OA
ATOM      7  H2  UNL     1     -14.196  24.121   0.238  1.00  0.00     0.193 HD
BRANCH   5   8
HETATM    8  N1  UNL     1     -13.508  23.578   2.131  1.00  0.00    -0.305 N 
ATOM      9  H1  UNL     1     -13.357  22.778   2.745  1.00  0.00     0.186 HD
BRANCH   8  10
HETATM   10  C2  UNL     1     -13.205  24.730   2.565  1.00  0.00    -0.004 C 
HETATM   11  C1  UNL     1     -12.514  24.853   3.873  1.00  0.00     0.064 C 
HETATM   12  C3  UNL     1     -13.524  25.948   1.812  1.00  0.00     0.064 C 
ENDBRANCH   8  10
ENDBRANCH   5   8
ENDBRANCH   2   3
BRANCH   2  13
HETATM   13  N4  UNL     1     -15.641  20.256  -2.311  1.00  0.00    -0.375 N 
ATOM     14  H42 UNL     1     -15.080  19.550  -1.834  1.00  0.00     0.158 HD
ATOM     15  H41 UNL     1     -16.399  20.108  -2.976  1.00  0.00     0.158 HD
ENDBRANCH   2  13
ENDBRANCH   1   2
BRANCH   1  16
HETATM   16  N5  UNL     1     -15.095  23.816  -2.689  1.00  0.00    -0.335 N 
HETATM   17  C7  UNL     1     -15.961  24.831  -2.198  1.00  0.00     0.269 C 
HETATM   18  O2  UNL     1     -17.178  24.556  -2.111  1.00  0.00    -0.266 OA
ATOM     19  H5  UNL     1     -14.096  24.007  -2.765  1.00  0.00     0.164 HD
BRANCH  17  20
HETATM   20  C8  UNL     1     -15.416  26.159  -1.812  1.00  0.00     0.107 A 
HETATM   21  C9  UNL     1     -14.073  26.424  -1.986  1.00  0.00     0.086 A 
HETATM   22  S1  UNL     1     -13.955  28.023  -1.383  1.00  0.00    -0.087 SA
HETATM   23  C10 UNL     1     -15.589  28.252  -0.953  1.00  0.00     0.047 A 
HETATM   24  C11 UNL     1     -16.257  29.457  -0.339  1.00  0.00     0.076 C 
HETATM   25  N6  UNL     1     -16.138  27.101  -1.292  1.00  0.00    -0.349 N 
ATOM     26  H6  UNL     1     -17.136  26.952  -1.144  1.00  0.00     0.166 HD
ENDBRANCH  17  20
ENDBRANCH   1  16
BRANCH   1  27
HETATM   27  C12 UNL     1     -14.956  22.183  -4.364  1.00  0.00     0.290 C 
HETATM   28  O3  UNL     1     -13.717  22.422  -4.483  1.00  0.00    -0.267 OA
HETATM   29  N7  UNL     1     -15.662  21.617  -5.483  1.00  0.00    -0.142 N 
HETATM   30  N8  UNL     1     -16.924  21.278  -5.542  1.00  0.00    -0.216 N 
HETATM   31  N12 UNL     1     -15.141  21.403  -6.665  1.00  0.00    -0.256 N 
HETATM   32  N9  UNL     1     -17.206  20.843  -6.780  1.00  0.00    -0.265 N 
ATOM     33  H8  UNL     1     -17.588  21.335  -4.769  1.00  0.00     0.210 HD
HETATM   34  C13 UNL     1     -16.084  20.917  -7.509  1.00  0.00     0.182 A 
ATOM     35  H9  UNL     1     -18.114  20.516  -7.109  1.00  0.00     0.190 HD
ATOM     36  H12 UNL     1     -14.166  21.577  -6.913  1.00  0.00     0.191 HD
BRANCH  34  37
HETATM   37  C14 UNL     1     -15.896  20.579  -8.923  1.00  0.00     0.153 A 
HETATM   38  N10 UNL     1     -16.551  19.655  -9.631  1.00  0.00    -0.333 N 
HETATM   39  C15 UNL     1     -16.110  19.593 -10.903  1.00  0.00     0.127 A 
ATOM     40  H10 UNL     1     -17.295  19.067  -9.254  1.00  0.00     0.168 HD
HETATM   41  C17 UNL     1     -15.097  20.558 -10.994  1.00  0.00     0.126 A 
HETATM   42  N11 UNL     1     -15.011  21.124  -9.765  1.00  0.00    -0.347 N 
ATOM     43  H11 UNL     1     -14.359  21.867  -9.515  1.00  0.00     0.167 HD
BRANCH  39  44
HETATM   44  C16 UNL     1     -16.549  18.726 -11.979  1.00  0.00     0.228 C 
HETATM   45  O4  UNL     1     -17.591  18.061 -11.848  1.00  0.00    -0.643 OA
HETATM   46  O5  UNL     1     -15.806  18.650 -13.126  1.00  0.00    -0.643 OA
ENDBRANCH  39  44
ENDBRANCH  34  37
ENDBRANCH   1  27
TORSDOF 10
ENDMDL
MODEL 4
REMARK VINA RESULT: -7.706223902      7.647     13.454
REMARK  10 active torsions:
REMARK  status: ('A' for Active; 'I' for Inactive)
REMARK    1  A    between atoms: C2_2  and  N1_4 
REMARK    2  A    between atoms: N1_4  and  N2_6 
REMARK       I    between atoms: N2_6  and  C4_8 
REMARK       I    between atoms: C4_8  and  N3_10 
REMARK    3  A    between atoms: N3_10  and  C5_11 
REMARK    4  A    between atoms: C5_11  and  N4_12 
REMARK    5  A    between atoms: C5_11  and  C6_15 
REMARK    6  A    between atoms: C6_15  and  N5_16 
REMARK    7  A    between atoms: C6_15  and  C12_27 
REMARK       I    between atoms: N5_16  and  C7_18 
REMARK    8  A    between atoms: C7_18  and  C8_20 
REMARK       I    between atoms: C12_27  and  N7_29 
REMARK    9  A    between atoms: C13_34  and  C14_35 
REMARK   10  A    between atoms: C15_38  and  C16_39 
ROOT
HETATM    1  C6  UNL     1     -12.842  26.062   2.079  1.00  0.00     0.263 C 
ENDROOT
BRANCH   1   2
HETATM    2  C5  UNL     1     -12.939  24.689   2.660  1.00  0.00     0.187 C 
BRANCH   2   3
HETATM    3  N3  UNL     1     -13.392  23.570   2.063  1.00  0.00    -0.335 NA
HETATM    4  C4  UNL     1     -13.847  22.447   1.464  1.00  0.00     0.414 C 
HETATM    5  N2  UNL     1     -14.314  22.507   0.063  1.00  0.00    -0.239 N 
HETATM    6  O1  UNL     1     -13.958  21.251   1.914  1.00  0.00    -0.228 OA
ATOM      7  H2  UNL     1     -14.289  23.389  -0.448  1.00  0.00     0.193 HD
BRANCH   5   8
HETATM    8  N1  UNL     1     -14.784  21.366  -0.549  1.00  0.00    -0.305 N 
ATOM      9  H1  UNL     1     -15.028  20.570   0.040  1.00  0.00     0.186 HD
BRANCH   8  10
HETATM   10  C2  UNL     1     -14.932  21.247  -1.803  1.00  0.00    -0.004 C 
HETATM   11  C1  UNL     1     -15.669  20.075  -2.339  1.00  0.00     0.064 C 
HETATM   12  C3  UNL     1     -14.390  22.236  -2.741  1.00  0.00     0.064 C 
ENDBRANCH   8  10
ENDBRANCH   5   8
ENDBRANCH   2   3
BRANCH   2  13
HETATM   13  N4  UNL     1     -12.549  24.581   3.920  1.00  0.00    -0.375 N 
ATOM     14  H42 UNL     1     -13.080  23.917   4.484  1.00  0.00     0.158 HD
ATOM     15  H41 UNL     1     -11.752  25.149   4.208  1.00  0.00     0.158 HD
ENDBRANCH   2  13
ENDBRANCH   1   2
BRANCH   1  16
HETATM   16  N5  UNL     1     -11.528  26.631   2.356  1.00  0.00    -0.335 N 
HETATM   17  C7  UNL     1     -11.304  27.467   3.484  1.00  0.00     0.269 C 
HETATM   18  O2  UNL     1     -12.278  27.690   4.237  1.00  0.00    -0.266 OA
ATOM     19  H5  UNL     1     -10.753  26.424   1.727  1.00  0.00     0.164 HD
BRANCH  17  20
HETATM   20  C8  UNL     1      -9.956  28.041   3.735  1.00  0.00     0.107 A 
HETATM   21  C9  UNL     1      -9.049  28.136   2.700  1.00  0.00     0.086 A 
HETATM   22  S1  UNL     1      -7.691  28.816   3.491  1.00  0.00    -0.087 SA
HETATM   23  C10 UNL     1      -8.346  28.936   5.060  1.00  0.00     0.047 A 
HETATM   24  C11 UNL     1      -7.712  29.458   6.325  1.00  0.00     0.076 C 
HETATM   25  N6  UNL     1      -9.564  28.453   4.899  1.00  0.00    -0.349 N 
ATOM     26  H6  UNL     1     -10.199  28.404   5.695  1.00  0.00     0.166 HD
ENDBRANCH  17  20
ENDBRANCH   1  16
BRANCH   1  27
HETATM   27  C12 UNL     1     -13.014  26.111   0.621  1.00  0.00     0.290 C 
HETATM   28  O3  UNL     1     -11.979  26.247  -0.098  1.00  0.00    -0.267 OA
HETATM   29  N7  UNL     1     -14.297  26.020  -0.025  1.00  0.00    -0.142 N 
HETATM   30  N8  UNL     1     -15.464  25.851   0.540  1.00  0.00    -0.216 N 
HETATM   31  N12 UNL     1     -14.497  26.154  -1.312  1.00  0.00    -0.256 N 
HETATM   32  N9  UNL     1     -16.419  25.879  -0.404  1.00  0.00    -0.265 N 
ATOM     33  H8  UNL     1     -15.624  25.719   1.539  1.00  0.00     0.210 HD
HETATM   34  C13 UNL     1     -15.822  26.072  -1.589  1.00  0.00     0.182 A 
ATOM     35  H9  UNL     1     -17.421  25.773  -0.248  1.00  0.00     0.190 HD
ATOM     36  H12 UNL     1     -13.763  26.298  -2.006  1.00  0.00     0.191 HD
BRANCH  34  37
HETATM   37  C14 UNL     1     -16.445  26.201  -2.909  1.00  0.00     0.153 A 
HETATM   38  N10 UNL     1     -15.978  25.745  -4.075  1.00  0.00    -0.333 N 
HETATM   39  C15 UNL     1     -16.797  26.058  -5.099  1.00  0.00     0.127 A 
ATOM     40  H10 UNL     1     -15.108  25.223  -4.178  1.00  0.00     0.168 HD
HETATM   41  C17 UNL     1     -17.861  26.766  -4.522  1.00  0.00     0.126 A 
HETATM   42  N11 UNL     1     -17.595  26.821  -3.194  1.00  0.00    -0.347 N 
ATOM     43  H11 UNL     1     -18.192  27.276  -2.504  1.00  0.00     0.167 HD
BRANCH  39  44
HETATM   44  C16 UNL     1     -16.649  25.758  -6.510  1.00  0.00     0.228 C 
HETATM   45  O4  UNL     1     -15.589  25.258  -6.925  1.00  0.00    -0.643 OA
HETATM   46  O5  UNL     1     -17.679  26.032  -7.367  1.00  0.00    -0.643 OA
ENDBRANCH  39  44
ENDBRANCH  34  37
ENDBRANCH   1  27
TORSDOF 10
ENDMDL
MODEL 5
REMARK VINA RESULT: -7.698859961      4.212      7.930
REMARK  10 active torsions:
REMARK  status: ('A' for Active; 'I' for Inactive)
REMARK    1  A    between atoms: C2_2  and  N1_4 
REMARK    2  A    between atoms: N1_4  and  N2_6 
REMARK       I    between atoms: N2_6  and  C4_8 
REMARK       I    between atoms: C4_8  and  N3_10 
REMARK    3  A    between atoms: N3_10  and  C5_11 
REMARK    4  A    between atoms: C5_11  and  N4_12 
REMARK    5  A    between atoms: C5_11  and  C6_15 
REMARK    6  A    between atoms: C6_15  and  N5_16 
REMARK    7  A    between atoms: C6_15  and  C12_27 
REMARK       I    between atoms: N5_16  and  C7_18 
REMARK    8  A    between atoms: C7_18  and  C8_20 
REMARK       I    between atoms: C12_27  and  N7_29 
REMARK    9  A    between atoms: C13_34  and  C14_35 
REMARK   10  A    between atoms: C15_38  and  C16_39 
ROOT
HETATM    1  C6  UNL     1     -15.507  23.027  -6.018  1.00  0.00     0.263 C 
ENDROOT
BRANCH   1   2
HETATM    2  C5  UNL     1     -16.236  24.316  -6.213  1.00  0.00     0.187 C 
BRANCH   2   3
HETATM    3  N3  UNL     1     -16.685  25.162  -5.267  1.00  0.00    -0.335 NA
HETATM    4  C4  UNL     1     -17.137  26.011  -4.316  1.00  0.00     0.414 C 
HETATM    5  N2  UNL     1     -16.194  26.549  -3.314  1.00  0.00    -0.239 N 
HETATM    6  O1  UNL     1     -18.315  26.472  -4.104  1.00  0.00    -0.228 OA
ATOM      7  H2  UNL     1     -15.209  26.285  -3.343  1.00  0.00     0.193 HD
BRANCH   5   8
HETATM    8  N1  UNL     1     -16.651  27.411  -2.340  1.00  0.00    -0.305 N 
ATOM      9  H1  UNL     1     -17.559  27.853  -2.477  1.00  0.00     0.186 HD
BRANCH   8  10
HETATM   10  C2  UNL     1     -16.007  27.686  -1.282  1.00  0.00    -0.004 C 
HETATM   11  C1  UNL     1     -15.333  26.591  -0.539  1.00  0.00     0.064 C 
HETATM   12  C3  UNL     1     -15.912  29.057  -0.771  1.00  0.00     0.064 C 
ENDBRANCH   8  10
ENDBRANCH   5   8
ENDBRANCH   2   3
BRANCH   2  13
HETATM   13  N4  UNL     1     -16.481  24.641  -7.473  1.00  0.00    -0.375 N 
ATOM     14  H42 UNL     1     -16.391  23.878  -8.144  1.00  0.00     0.158 HD
ATOM     15  H41 UNL     1     -16.750  25.607  -7.657  1.00  0.00     0.158 HD
ENDBRANCH   2  13
ENDBRANCH   1   2
BRANCH   1  16
HETATM   16  N5  UNL     1     -14.707  22.721  -7.198  1.00  0.00    -0.335 N 
HETATM   17  C7  UNL     1     -15.209  21.897  -8.242  1.00  0.00     0.269 C 
HETATM   18  O2  UNL     1     -16.370  21.449  -8.113  1.00  0.00    -0.266 OA
ATOM     19  H5  UNL     1     -13.766  23.107  -7.276  1.00  0.00     0.164 HD
BRANCH  17  20
HETATM   20  C8  UNL     1     -14.366  21.593  -9.428  1.00  0.00     0.107 A 
HETATM   21  C9  UNL     1     -13.187  22.282  -9.624  1.00  0.00     0.086 A 
HETATM   22  S1  UNL     1     -12.628  21.600 -11.092  1.00  0.00    -0.087 SA
HETATM   23  C10 UNL     1     -13.903  20.502 -11.363  1.00  0.00     0.047 A 
HETATM   24  C11 UNL     1     -14.104  19.529 -12.498  1.00  0.00     0.076 C 
HETATM   25  N6  UNL     1     -14.686  20.711 -10.321  1.00  0.00    -0.349 N 
ATOM     26  H6  UNL     1     -15.548  20.175 -10.219  1.00  0.00     0.166 HD
ENDBRANCH  17  20
ENDBRANCH   1  16
BRANCH   1  27
HETATM   27  C12 UNL     1     -14.579  23.028  -4.879  1.00  0.00     0.290 C 
HETATM   28  O3  UNL     1     -13.338  23.124  -5.119  1.00  0.00    -0.267 OA
HETATM   29  N7  UNL     1     -15.011  22.917  -3.510  1.00  0.00    -0.142 N 
HETATM   30  N8  UNL     1     -16.238  22.837  -3.065  1.00  0.00    -0.216 N 
HETATM   31  N12 UNL     1     -14.210  22.820  -2.479  1.00  0.00    -0.256 N 
HETATM   32  N9  UNL     1     -16.214  22.687  -1.731  1.00  0.00    -0.265 N 
ATOM     33  H8  UNL     1     -17.080  22.883  -3.640  1.00  0.00     0.210 HD
HETATM   34  C13 UNL     1     -14.932  22.672  -1.340  1.00  0.00     0.182 A 
ATOM     35  H9  UNL     1     -17.027  22.598  -1.122  1.00  0.00     0.190 HD
ATOM     36  H12 UNL     1     -13.191  22.852  -2.526  1.00  0.00     0.191 HD
BRANCH  34  37
HETATM   37  C14 UNL     1     -14.397  22.505   0.014  1.00  0.00     0.153 A 
HETATM   38  N10 UNL     1     -13.941  23.460   0.830  1.00  0.00    -0.333 N 
HETATM   39  C15 UNL     1     -13.501  22.951   1.999  1.00  0.00     0.127 A 
ATOM     40  H10 UNL     1     -13.927  24.453   0.598  1.00  0.00     0.168 HD
HETATM   41  C17 UNL     1     -13.701  21.566   1.901  1.00  0.00     0.126 A 
HETATM   42  N11 UNL     1     -14.246  21.355   0.678  1.00  0.00    -0.347 N 
ATOM     43  H11 UNL     1     -14.507  20.439   0.313  1.00  0.00     0.167 HD
BRANCH  39  44
HETATM   44  C16 UNL     1     -12.929  23.643   3.137  1.00  0.00     0.228 C 
HETATM   45  O4  UNL     1     -13.584  24.530   3.711  1.00  0.00    -0.643 OA
HETATM   46  O5  UNL     1     -11.672  23.312   3.562  1.00  0.00    -0.643 OA
ENDBRANCH  39  44
ENDBRANCH  34  37
ENDBRANCH   1  27
TORSDOF 10
ENDMDL
