MODEL 1
REMARK VINA RESULT: -8.096132977      0.000      0.000
REMARK  9 active torsions:
REMARK  status: ('A' for Active; 'I' for Inactive)
REMARK    1  A    between atoms: C1_4  and  C2_5 
REMARK    2  A    between atoms: C1_4  and  N12_35 
REMARK    3  A    between atoms: C2_5  and  S1_6 
REMARK    4  A    between atoms: S1_6  and  C3_7 
REMARK    5  A    between atoms: C4_8  and  C5_9 
REMARK    6  A    between atoms: C5_9  and  C6_10 
REMARK    7  A    between atoms: N7_24  and  C8_25 
REMARK    8  A    between atoms: C8_25  and  C9_26 
REMARK    9  A    between atoms: N12_35  and  C10_37 
ROOT
HETATM    1  C3  UNL     1     -14.838  23.766   0.215  1.00  0.00     0.114 A 
HETATM    2  C4  UNL     1     -15.667  24.631  -0.454  1.00  0.00     0.068 A 
HETATM    3  N5  UNL     1     -15.564  25.826   0.206  1.00  0.00    -0.287 N 
ATOM      4  H5  UNL     1     -16.059  26.681  -0.044  1.00  0.00     0.188 HD
HETATM    5  N6  UNL     1     -14.730  25.702   1.209  1.00  0.00    -0.239 N 
ATOM      6  H6  UNL     1     -14.476  26.444   1.861  1.00  0.00     0.208 HD
HETATM    7  N7  UNL     1     -14.282  24.492   1.241  1.00  0.00    -0.262 N 
ENDROOT
BRANCH   1   8
HETATM    8  S1  UNL     1     -14.423  22.106  -0.036  1.00  0.00    -0.101 SA
BRANCH   8   9
HETATM    9  C2  UNL     1     -15.628  20.852  -0.074  1.00  0.00     0.157 C 
BRANCH   9  10
HETATM   10  C1  UNL     1     -16.359  20.584  -1.314  1.00  0.00     0.085 C 
HETATM   11  N1  UNL     1     -17.644  20.881  -1.412  1.00  0.00    -0.388 N 
ATOM     12  H12 UNL     1     -18.037  21.262  -0.551  1.00  0.00     0.157 HD
ATOM     13  H11 UNL     1     -18.154  20.695  -2.275  1.00  0.00     0.157 HD
BRANCH  10  14
HETATM   14  N12 UNL     1     -15.817  20.057  -2.503  1.00  0.00    -0.340 N 
ATOM     15  H12 UNL     1     -15.496  19.089  -2.539  1.00  0.00     0.167 HD
BRANCH  14  16
HETATM   16  C10 UNL     1     -15.719  20.901  -3.671  1.00  0.00     0.076 A 
HETATM   17  C11 UNL     1     -14.638  21.660  -4.043  1.00  0.00     0.055 A 
HETATM   18  C12 UNL     1     -14.761  22.402  -5.175  1.00  0.00     0.049 A 
HETATM   19  C13 UNL     1     -15.941  22.332  -5.842  1.00  0.00     0.018 A 
HETATM   20  C15 UNL     1     -13.923  23.334  -5.978  1.00  0.00     0.253 A 
HETATM   21  S3  UNL     1     -16.860  21.233  -4.883  1.00  0.00    -0.074 SA
HETATM   22  C14 UNL     1     -15.966  23.196  -7.060  1.00  0.00     0.170 A 
HETATM   23  N13 UNL     1     -14.655  23.771  -7.088  1.00  0.00    -0.352 N 
ATOM     24  H13 UNL     1     -14.307  24.403  -7.808  1.00  0.00     0.163 HD
HETATM   25  O1  UNL     1     -12.736  23.715  -5.755  1.00  0.00    -0.268 OA
ENDBRANCH  14  16
ENDBRANCH  10  14
ENDBRANCH   9  10
ENDBRANCH   8   9
ENDBRANCH   1   8
BRANCH   2  26
HETATM   26  C5  UNL     1     -16.513  24.375  -1.649  1.00  0.00     0.128 C 
BRANCH  26  27
HETATM   27  C6  UNL     1     -15.913  25.144  -2.793  1.00  0.00     0.075 A 
HETATM   28  N2  UNL     1     -14.621  25.367  -3.001  1.00  0.00    -0.296 N 
HETATM   29  N3  UNL     1     -14.247  26.036  -4.012  1.00  0.00    -0.279 N 
ATOM     30  H2  UNL     1     -13.928  25.001  -2.348  1.00  0.00     0.187 HD
HETATM   31  C7  UNL     1     -15.171  26.506  -4.851  1.00  0.00     0.158 A 
ATOM     32  H3  UNL     1     -13.257  26.212  -4.181  1.00  0.00     0.189 HD
HETATM   33  N4  UNL     1     -14.994  27.214  -5.942  1.00  0.00    -0.379 N 
HETATM   34  S2  UNL     1     -16.617  25.944  -4.127  1.00  0.00    -0.038 SA
ATOM     35  H42 UNL     1     -14.132  27.549  -6.374  1.00  0.00     0.158 HD
ATOM     36  H41 UNL     1     -15.700  27.573  -6.584  1.00  0.00     0.158 HD
ENDBRANCH  26  27
ENDBRANCH   2  26
BRANCH   7  37
HETATM   37  C8  UNL     1     -13.331  24.013   2.254  1.00  0.00     0.230 C 
BRANCH  37  38
HETATM   38  C9  UNL     1     -12.928  25.037   3.204  1.00  0.00     0.133 A 
HETATM   39  N8  UNL     1     -13.530  25.347   4.391  1.00  0.00    -0.271 N 
HETATM   40  N9  UNL     1     -12.878  26.334   4.959  1.00  0.00    -0.227 N 
ATOM     41  H8  UNL     1     -14.355  24.884   4.774  1.00  0.00     0.190 HD
HETATM   42  N10 UNL     1     -11.875  26.685   4.199  1.00  0.00    -0.227 N 
ATOM     43  H9  UNL     1     -13.118  26.761   5.854  1.00  0.00     0.210 HD
HETATM   44  N11 UNL     1     -11.894  25.888   3.107  1.00  0.00    -0.271 N 
ATOM     45  H10 UNL     1     -11.200  27.425   4.393  1.00  0.00     0.210 HD
ATOM     46  H11 UNL     1     -11.230  25.926   2.335  1.00  0.00     0.190 HD
ENDBRANCH  37  38
ENDBRANCH   7  37
TORSDOF 9
ENDMDL
MODEL 2
REMARK VINA RESULT: -8.089177884      3.170      6.144
REMARK  9 active torsions:
REMARK  status: ('A' for Active; 'I' for Inactive)
REMARK    1  A    between atoms: C1_4  and  C2_5 
REMARK    2  A    between atoms: C1_4  and  N12_35 
REMARK    3  A    between atoms: C2_5  and  S1_6 
REMARK    4  A    between atoms: S1_6  and  C3_7 
REMARK    5  A    between atoms: C4_8  and  C5_9 
REMARK    6  A    between atoms: C5_9  and  C6_10 
REMARK    7  A    between atoms: N7_24  and  C8_25 
REMARK    8  A    between atoms: C8_25  and  C9_26 
REMARK    9  A    between atoms: N12_35  and  C10_37 
ROOT
HETATM    1  C3  UNL     1     -15.063  22.968   0.511  1.00  0.00     0.114 A 
HETATM    2  C4  UNL     1     -15.129  21.598   0.535  1.00  0.00     0.068 A 
HETATM    3  N5  UNL     1     -14.111  21.195   1.357  1.00  0.00    -0.287 N 
ATOM      4  H5  UNL     1     -13.888  20.227   1.586  1.00  0.00     0.188 HD
HETATM    5  N6  UNL     1     -13.468  22.244   1.805  1.00  0.00    -0.239 N 
ATOM      6  H6  UNL     1     -12.666  22.221   2.436  1.00  0.00     0.208 HD
HETATM    7  N7  UNL     1     -14.008  23.311   1.322  1.00  0.00    -0.262 N 
ENDROOT
BRANCH   1   8
HETATM    8  S1  UNL     1     -16.020  24.176  -0.274  1.00  0.00    -0.101 SA
BRANCH   8   9
HETATM    9  C2  UNL     1     -15.326  25.324  -1.382  1.00  0.00     0.157 C 
BRANCH   9  10
HETATM   10  C1  UNL     1     -15.352  26.752  -1.059  1.00  0.00     0.085 C 
HETATM   11  N1  UNL     1     -16.348  27.263  -0.356  1.00  0.00    -0.388 N 
ATOM     12  H12 UNL     1     -17.067  26.578  -0.118  1.00  0.00     0.157 HD
ATOM     13  H11 UNL     1     -16.367  28.257  -0.131  1.00  0.00     0.157 HD
BRANCH  10  14
HETATM   14  N12 UNL     1     -14.360  27.698  -1.388  1.00  0.00    -0.340 N 
ATOM     15  H12 UNL     1     -14.563  28.450  -2.046  1.00  0.00     0.167 HD
BRANCH  14  16
HETATM   16  C10 UNL     1     -13.052  27.590  -0.784  1.00  0.00     0.076 A 
HETATM   17  C11 UNL     1     -12.773  27.549   0.559  1.00  0.00     0.055 A 
HETATM   18  C12 UNL     1     -11.465  27.464   0.918  1.00  0.00     0.049 A 
HETATM   19  C13 UNL     1     -10.544  27.430  -0.079  1.00  0.00     0.018 A 
HETATM   20  C15 UNL     1     -10.671  27.380   2.174  1.00  0.00     0.253 A 
HETATM   21  S3  UNL     1     -11.515  27.513  -1.501  1.00  0.00    -0.074 SA
HETATM   22  C14 UNL     1      -9.144  27.351   0.433  1.00  0.00     0.170 A 
HETATM   23  N13 UNL     1      -9.310  27.298   1.854  1.00  0.00    -0.352 N 
ATOM     24  H13 UNL     1      -8.553  27.213   2.531  1.00  0.00     0.163 HD
HETATM   25  O1  UNL     1     -11.088  27.378   3.370  1.00  0.00    -0.268 OA
ENDBRANCH  14  16
ENDBRANCH  10  14
ENDBRANCH   9  10
ENDBRANCH   8   9
ENDBRANCH   1   8
BRANCH   2  26
HETATM   26  C5  UNL     1     -16.085  20.699  -0.160  1.00  0.00     0.128 C 
BRANCH  26  27
HETATM   27  C6  UNL     1     -15.902  20.910  -1.638  1.00  0.00     0.075 A 
HETATM   28  N2  UNL     1     -16.843  20.813  -2.570  1.00  0.00    -0.296 N 
HETATM   29  N3  UNL     1     -16.552  21.017  -3.788  1.00  0.00    -0.279 N 
ATOM     30  H2  UNL     1     -17.799  20.575  -2.308  1.00  0.00     0.187 HD
HETATM   31  C7  UNL     1     -15.295  21.327  -4.107  1.00  0.00     0.158 A 
ATOM     32  H3  UNL     1     -17.267  20.946  -4.512  1.00  0.00     0.189 HD
HETATM   33  N4  UNL     1     -14.794  21.572  -5.296  1.00  0.00    -0.379 N 
HETATM   34  S2  UNL     1     -14.533  21.315  -2.574  1.00  0.00    -0.038 SA
ATOM     35  H42 UNL     1     -15.248  21.579  -6.210  1.00  0.00     0.158 HD
ATOM     36  H41 UNL     1     -13.833  21.808  -5.540  1.00  0.00     0.158 HD
ENDBRANCH  26  27
ENDBRANCH   2  26
BRANCH   7  37
HETATM   37  C8  UNL     1     -13.519  24.666   1.618  1.00  0.00     0.230 C 
BRANCH  37  38
HETATM   38  C9  UNL     1     -13.089  24.840   2.995  1.00  0.00     0.133 A 
HETATM   39  N8  UNL     1     -13.665  25.635   3.947  1.00  0.00    -0.271 N 
HETATM   40  N9  UNL     1     -12.983  25.531   5.064  1.00  0.00    -0.227 N 
ATOM     41  H8  UNL     1     -14.491  26.216   3.811  1.00  0.00     0.190 HD
HETATM   42  N10 UNL     1     -11.987  24.703   4.888  1.00  0.00    -0.227 N 
ATOM     43  H9  UNL     1     -13.197  26.020   5.933  1.00  0.00     0.210 HD
HETATM   44  N11 UNL     1     -12.042  24.267   3.610  1.00  0.00    -0.271 N 
ATOM     45  H10 UNL     1     -11.294  24.434   5.588  1.00  0.00     0.210 HD
ATOM     46  H11 UNL     1     -11.393  23.609   3.180  1.00  0.00     0.190 HD
ENDBRANCH  37  38
ENDBRANCH   7  37
TORSDOF 9
ENDMDL
MODEL 3
REMARK VINA RESULT: -7.891913161      1.350      1.586
REMARK  9 active torsions:
REMARK  status: ('A' for Active; 'I' for Inactive)
REMARK    1  A    between atoms: C1_4  and  C2_5 
REMARK    2  A    between atoms: C1_4  and  N12_35 
REMARK    3  A    between atoms: C2_5  and  S1_6 
REMARK    4  A    between atoms: S1_6  and  C3_7 
REMARK    5  A    between atoms: C4_8  and  C5_9 
REMARK    6  A    between atoms: C5_9  and  C6_10 
REMARK    7  A    between atoms: N7_24  and  C8_25 
REMARK    8  A    between atoms: C8_25  and  C9_26 
REMARK    9  A    between atoms: N12_35  and  C10_37 
ROOT
HETATM    1  C3  UNL     1     -14.350  25.321   0.538  1.00  0.00     0.114 A 
HETATM    2  C4  UNL     1     -15.235  26.008  -0.254  1.00  0.00     0.068 A 
HETATM    3  N5  UNL     1     -15.047  27.331   0.046  1.00  0.00    -0.287 N 
ATOM      4  H5  UNL     1     -15.557  28.107  -0.375  1.00  0.00     0.188 HD
HETATM    5  N6  UNL     1     -14.114  27.446   0.957  1.00  0.00    -0.239 N 
ATOM      6  H6  UNL     1     -13.782  28.324   1.356  1.00  0.00     0.208 HD
HETATM    7  N7  UNL     1     -13.679  26.271   1.269  1.00  0.00    -0.262 N 
ENDROOT
BRANCH   1   8
HETATM    8  S1  UNL     1     -13.984  23.639   0.704  1.00  0.00    -0.101 SA
BRANCH   8   9
HETATM    9  C2  UNL     1     -15.180  22.482   1.207  1.00  0.00     0.157 C 
BRANCH   9  10
HETATM   10  C1  UNL     1     -16.187  22.015   0.252  1.00  0.00     0.085 C 
HETATM   11  N1  UNL     1     -17.381  22.580   0.205  1.00  0.00    -0.388 N 
ATOM     12  H12 UNL     1     -17.509  23.312   0.904  1.00  0.00     0.157 HD
ATOM     13  H11 UNL     1     -18.082  22.255  -0.460  1.00  0.00     0.157 HD
BRANCH  10  14
HETATM   14  N12 UNL     1     -16.011  21.003  -0.714  1.00  0.00    -0.340 N 
ATOM     15  H12 UNL     1     -16.138  20.023  -0.463  1.00  0.00     0.167 HD
BRANCH  14  16
HETATM   16  C10 UNL     1     -15.649  21.369  -2.063  1.00  0.00     0.076 A 
HETATM   17  C11 UNL     1     -14.650  22.234  -2.436  1.00  0.00     0.055 A 
HETATM   18  C12 UNL     1     -14.486  22.456  -3.767  1.00  0.00     0.049 A 
HETATM   19  C13 UNL     1     -15.322  21.806  -4.616  1.00  0.00     0.018 A 
HETATM   20  C15 UNL     1     -13.588  23.250  -4.648  1.00  0.00     0.253 A 
HETATM   21  S3  UNL     1     -16.322  20.894  -3.548  1.00  0.00    -0.074 SA
HETATM   22  C14 UNL     1     -15.058  22.135  -6.048  1.00  0.00     0.170 A 
HETATM   23  N13 UNL     1     -13.940  23.026  -5.985  1.00  0.00    -0.352 N 
ATOM     24  H13 UNL     1     -13.470  23.437  -6.791  1.00  0.00     0.163 HD
HETATM   25  O1  UNL     1     -12.641  24.022  -4.316  1.00  0.00    -0.268 OA
ENDBRANCH  14  16
ENDBRANCH  10  14
ENDBRANCH   9  10
ENDBRANCH   8   9
ENDBRANCH   1   8
BRANCH   2  26
HETATM   26  C5  UNL     1     -16.206  25.476  -1.245  1.00  0.00     0.128 C 
BRANCH  26  27
HETATM   27  C6  UNL     1     -15.717  25.879  -2.609  1.00  0.00     0.075 A 
HETATM   28  N2  UNL     1     -14.493  26.292  -2.917  1.00  0.00    -0.296 N 
HETATM   29  N3  UNL     1     -14.211  26.603  -4.114  1.00  0.00    -0.279 N 
ATOM     30  H2  UNL     1     -13.779  26.358  -2.191  1.00  0.00     0.187 HD
HETATM   31  C7  UNL     1     -15.161  26.509  -5.045  1.00  0.00     0.158 A 
ATOM     32  H3  UNL     1     -13.274  26.921  -4.361  1.00  0.00     0.189 HD
HETATM   33  N4  UNL     1     -15.074  26.782  -6.326  1.00  0.00    -0.379 N 
HETATM   34  S2  UNL     1     -16.494  25.948  -4.128  1.00  0.00    -0.038 SA
ATOM     35  H42 UNL     1     -14.280  27.117  -6.873  1.00  0.00     0.158 HD
ATOM     36  H41 UNL     1     -15.800  26.710  -7.038  1.00  0.00     0.158 HD
ENDBRANCH  26  27
ENDBRANCH   2  26
BRANCH   7  37
HETATM   37  C8  UNL     1     -12.631  26.042   2.275  1.00  0.00     0.230 C 
BRANCH  37  38
HETATM   38  C9  UNL     1     -13.134  25.993   3.637  1.00  0.00     0.133 A 
HETATM   39  N8  UNL     1     -13.764  24.945   4.249  1.00  0.00    -0.271 N 
HETATM   40  N9  UNL     1     -14.075  25.288   5.477  1.00  0.00    -0.227 N 
ATOM     41  H8  UNL     1     -13.962  24.042   3.819  1.00  0.00     0.190 HD
HETATM   42  N10 UNL     1     -13.676  26.512   5.700  1.00  0.00    -0.227 N 
ATOM     43  H9  UNL     1     -14.554  24.691   6.152  1.00  0.00     0.210 HD
HETATM   44  N11 UNL     1     -13.090  26.960   4.567  1.00  0.00    -0.271 N 
ATOM     45  H10 UNL     1     -13.786  27.034   6.570  1.00  0.00     0.210 HD
ATOM     46  H11 UNL     1     -12.680  27.885   4.439  1.00  0.00     0.190 HD
ENDBRANCH  37  38
ENDBRANCH   7  37
TORSDOF 9
ENDMDL
MODEL 4
REMARK VINA RESULT: -7.833881998      2.563      4.024
REMARK  9 active torsions:
REMARK  status: ('A' for Active; 'I' for Inactive)
REMARK    1  A    between atoms: C1_4  and  C2_5 
REMARK    2  A    between atoms: C1_4  and  N12_35 
REMARK    3  A    between atoms: C2_5  and  S1_6 
REMARK    4  A    between atoms: S1_6  and  C3_7 
REMARK    5  A    between atoms: C4_8  and  C5_9 
REMARK    6  A    between atoms: C5_9  and  C6_10 
REMARK    7  A    between atoms: N7_24  and  C8_25 
REMARK    8  A    between atoms: C8_25  and  C9_26 
REMARK    9  A    between atoms: N12_35  and  C10_37 
ROOT
HETATM    1  C3  UNL     1     -14.382  26.708  -0.193  1.00  0.00     0.114 A 
HETATM    2  C4  UNL     1     -15.672  26.903  -0.618  1.00  0.00     0.068 A 
HETATM    3  N5  UNL     1     -16.435  26.030   0.109  1.00  0.00    -0.287 N 
ATOM      4  H5  UNL     1     -17.446  25.925   0.029  1.00  0.00     0.188 HD
HETATM    5  N6  UNL     1     -15.668  25.348   0.922  1.00  0.00    -0.239 N 
ATOM      6  H6  UNL     1     -15.987  24.631   1.573  1.00  0.00     0.208 HD
HETATM    7  N7  UNL     1     -14.444  25.728   0.768  1.00  0.00    -0.262 N 
ENDROOT
BRANCH   1   8
HETATM    8  S1  UNL     1     -12.879  27.451  -0.620  1.00  0.00    -0.101 SA
BRANCH   8   9
HETATM    9  C2  UNL     1     -12.325  27.525  -2.267  1.00  0.00     0.157 C 
BRANCH   9  10
HETATM   10  C1  UNL     1     -11.803  26.319  -2.912  1.00  0.00     0.085 C 
HETATM   11  N1  UNL     1     -10.644  25.805  -2.538  1.00  0.00    -0.388 N 
ATOM     12  H12 UNL     1     -10.177  26.349  -1.811  1.00  0.00     0.157 HD
ATOM     13  H11 UNL     1     -10.280  24.965  -2.987  1.00  0.00     0.157 HD
BRANCH  10  14
HETATM   14  N12 UNL     1     -12.447  25.568  -3.916  1.00  0.00    -0.340 N 
ATOM     15  H12 UNL     1     -12.381  25.850  -4.894  1.00  0.00     0.167 HD
BRANCH  14  16
HETATM   16  C10 UNL     1     -13.202  24.394  -3.545  1.00  0.00     0.076 A 
HETATM   17  C11 UNL     1     -13.621  24.056  -2.283  1.00  0.00     0.055 A 
HETATM   18  C12 UNL     1     -14.308  22.891  -2.148  1.00  0.00     0.049 A 
HETATM   19  C13 UNL     1     -14.522  22.158  -3.271  1.00  0.00     0.018 A 
HETATM   20  C15 UNL     1     -14.960  22.116  -1.057  1.00  0.00     0.253 A 
HETATM   21  S3  UNL     1     -13.765  23.105  -4.497  1.00  0.00    -0.074 SA
HETATM   22  C14 UNL     1     -15.272  20.896  -3.001  1.00  0.00     0.170 A 
HETATM   23  N13 UNL     1     -15.532  20.957  -1.594  1.00  0.00    -0.352 N 
ATOM     24  H13 UNL     1     -16.054  20.261  -1.063  1.00  0.00     0.163 HD
HETATM   25  O1  UNL     1     -15.027  22.397   0.175  1.00  0.00    -0.268 OA
ENDBRANCH  14  16
ENDBRANCH  10  14
ENDBRANCH   9  10
ENDBRANCH   8   9
ENDBRANCH   1   8
BRANCH   2  26
HETATM   26  C5  UNL     1     -16.182  27.852  -1.642  1.00  0.00     0.128 C 
BRANCH  26  27
HETATM   27  C6  UNL     1     -16.144  27.141  -2.966  1.00  0.00     0.075 A 
HETATM   28  N2  UNL     1     -16.653  25.944  -3.233  1.00  0.00    -0.296 N 
HETATM   29  N3  UNL     1     -16.551  25.458  -4.401  1.00  0.00    -0.279 N 
ATOM     30  H2  UNL     1     -17.127  25.417  -2.501  1.00  0.00     0.187 HD
HETATM   31  C7  UNL     1     -15.926  26.166  -5.342  1.00  0.00     0.158 A 
ATOM     32  H3  UNL     1     -16.940  24.540  -4.616  1.00  0.00     0.189 HD
HETATM   33  N4  UNL     1     -15.716  25.844  -6.597  1.00  0.00    -0.379 N 
HETATM   34  S2  UNL     1     -15.485  27.579  -4.480  1.00  0.00    -0.038 SA
ATOM     35  H42 UNL     1     -15.978  25.003  -7.111  1.00  0.00     0.158 HD
ATOM     36  H41 UNL     1     -15.239  26.386  -7.317  1.00  0.00     0.158 HD
ENDBRANCH  26  27
ENDBRANCH   2  26
BRANCH   7  37
HETATM   37  C8  UNL     1     -13.321  25.152   1.524  1.00  0.00     0.230 C 
BRANCH  37  38
HETATM   38  C9  UNL     1     -13.300  25.548   2.922  1.00  0.00     0.133 A 
HETATM   39  N8  UNL     1     -13.110  24.739   4.008  1.00  0.00    -0.271 N 
HETATM   40  N9  UNL     1     -13.167  25.465   5.100  1.00  0.00    -0.227 N 
ATOM     41  H8  UNL     1     -12.951  23.733   3.975  1.00  0.00     0.190 HD
HETATM   42  N10 UNL     1     -13.384  26.713   4.781  1.00  0.00    -0.227 N 
ATOM     43  H9  UNL     1     -13.060  25.110   6.050  1.00  0.00     0.210 HD
HETATM   44  N11 UNL     1     -13.467  26.778   3.433  1.00  0.00    -0.271 N 
ATOM     45  H10 UNL     1     -13.474  27.496   5.429  1.00  0.00     0.210 HD
ATOM     46  H11 UNL     1     -13.631  27.626   2.890  1.00  0.00     0.190 HD
ENDBRANCH  37  38
ENDBRANCH   7  37
TORSDOF 9
ENDMDL
MODEL 5
REMARK VINA RESULT: -7.682479548      2.850      7.047
REMARK  9 active torsions:
REMARK  status: ('A' for Active; 'I' for Inactive)
REMARK    1  A    between atoms: C1_4  and  C2_5 
REMARK    2  A    between atoms: C1_4  and  N12_35 
REMARK    3  A    between atoms: C2_5  and  S1_6 
REMARK    4  A    between atoms: S1_6  and  C3_7 
REMARK    5  A    between atoms: C4_8  and  C5_9 
REMARK    6  A    between atoms: C5_9  and  C6_10 
REMARK    7  A    between atoms: N7_24  and  C8_25 
REMARK    8  A    between atoms: C8_25  and  C9_26 
REMARK    9  A    between atoms: N12_35  and  C10_37 
ROOT
HETATM    1  C3  UNL     1     -15.215  22.932  -3.186  1.00  0.00     0.114 A 
HETATM    2  C4  UNL     1     -14.362  22.744  -4.244  1.00  0.00     0.068 A 
HETATM    3  N5  UNL     1     -13.962  21.437  -4.167  1.00  0.00    -0.287 N 
ATOM      4  H5  UNL     1     -13.320  20.979  -4.813  1.00  0.00     0.188 HD
HETATM    5  N6  UNL     1     -14.531  20.865  -3.135  1.00  0.00    -0.239 N 
ATOM      6  H6  UNL     1     -14.401  19.893  -2.852  1.00  0.00     0.208 HD
HETATM    7  N7  UNL     1     -15.280  21.725  -2.532  1.00  0.00    -0.262 N 
ENDROOT
BRANCH   1   8
HETATM    8  S1  UNL     1     -16.130  24.296  -2.643  1.00  0.00    -0.101 SA
BRANCH   8   9
HETATM    9  C2  UNL     1     -15.481  25.909  -2.671  1.00  0.00     0.157 C 
BRANCH   9  10
HETATM   10  C1  UNL     1     -15.218  26.608  -1.411  1.00  0.00     0.085 C 
HETATM   11  N1  UNL     1     -16.206  26.878  -0.574  1.00  0.00    -0.388 N 
ATOM     12  H12 UNL     1     -17.120  26.585  -0.921  1.00  0.00     0.157 HD
ATOM     13  H11 UNL     1     -16.023  27.365   0.303  1.00  0.00     0.157 HD
BRANCH  10  14
HETATM   14  N12 UNL     1     -13.956  27.013  -0.931  1.00  0.00    -0.340 N 
ATOM     15  H12 UNL     1     -13.278  27.440  -1.562  1.00  0.00     0.167 HD
BRANCH  14  16
HETATM   16  C10 UNL     1     -13.633  26.816   0.462  1.00  0.00     0.076 A 
HETATM   17  C11 UNL     1     -13.312  25.627   1.067  1.00  0.00     0.055 A 
HETATM   18  C12 UNL     1     -13.058  25.659   2.402  1.00  0.00     0.049 A 
HETATM   19  C13 UNL     1     -13.143  26.861   3.026  1.00  0.00     0.018 A 
HETATM   20  C15 UNL     1     -12.672  24.700   3.473  1.00  0.00     0.253 A 
HETATM   21  S3  UNL     1     -13.574  27.929   1.742  1.00  0.00    -0.074 SA
HETATM   22  C14 UNL     1     -12.857  26.773   4.489  1.00  0.00     0.170 A 
HETATM   23  N13 UNL     1     -12.546  25.390   4.685  1.00  0.00    -0.352 N 
ATOM     24  H13 UNL     1     -12.274  24.970   5.573  1.00  0.00     0.163 HD
HETATM   25  O1  UNL     1     -12.473  23.453   3.378  1.00  0.00    -0.268 OA
ENDBRANCH  14  16
ENDBRANCH  10  14
ENDBRANCH   9  10
ENDBRANCH   8   9
ENDBRANCH   1   8
BRANCH   2  26
HETATM   26  C5  UNL     1     -13.936  23.718  -5.282  1.00  0.00     0.128 C 
BRANCH  26  27
HETATM   27  C6  UNL     1     -13.985  23.007  -6.607  1.00  0.00     0.075 A 
HETATM   28  N2  UNL     1     -12.956  22.767  -7.410  1.00  0.00    -0.296 N 
HETATM   29  N3  UNL     1     -13.137  22.153  -8.506  1.00  0.00    -0.279 N 
ATOM     30  H2  UNL     1     -12.020  23.074  -7.146  1.00  0.00     0.187 HD
HETATM   31  C7  UNL     1     -14.369  21.762  -8.830  1.00  0.00     0.158 A 
ATOM     32  H3  UNL     1     -12.352  21.963  -9.130  1.00  0.00     0.189 HD
HETATM   33  N4  UNL     1     -14.763  21.123  -9.907  1.00  0.00    -0.379 N 
HETATM   34  S2  UNL     1     -15.274  22.312  -7.484  1.00  0.00    -0.038 SA
ATOM     35  H42 UNL     1     -14.224  20.795 -10.709  1.00  0.00     0.158 HD
ATOM     36  H41 UNL     1     -15.706  20.823 -10.155  1.00  0.00     0.158 HD
ENDBRANCH  26  27
ENDBRANCH   2  26
BRANCH   7  37
HETATM   37  C8  UNL     1     -16.056  21.410  -1.323  1.00  0.00     0.230 C 
BRANCH  37  38
HETATM   38  C9  UNL     1     -15.312  21.599  -0.090  1.00  0.00     0.133 A 
HETATM   39  N8  UNL     1     -14.253  20.860   0.359  1.00  0.00    -0.271 N 
HETATM   40  N9  UNL     1     -13.857  21.335   1.517  1.00  0.00    -0.227 N 
ATOM     41  H8  UNL     1     -13.837  20.067  -0.128  1.00  0.00     0.190 HD
HETATM   42  N10 UNL     1     -14.607  22.353   1.848  1.00  0.00    -0.227 N 
ATOM     43  H9  UNL     1     -13.085  20.966   2.072  1.00  0.00     0.210 HD
HETATM   44  N11 UNL     1     -15.513  22.527   0.859  1.00  0.00    -0.271 N 
ATOM     45  H10 UNL     1     -14.525  22.913   2.696  1.00  0.00     0.210 HD
ATOM     46  H11 UNL     1     -16.233  23.248   0.837  1.00  0.00     0.190 HD
ENDBRANCH  37  38
ENDBRANCH   7  37
TORSDOF 9
ENDMDL
