MODEL 1
REMARK VINA RESULT: -7.332242375      0.000      0.000
REMARK  16 active torsions:
REMARK  status: ('A' for Active; 'I' for Inactive)
REMARK    1  A    between atoms: C2_2  and  O1_4 
REMARK    2  A    between atoms: C2_2  and  C4_6 
REMARK    3  A    between atoms: C5_7  and  C6_8 
REMARK    4  A    between atoms: C6_8  and  N1_9 
REMARK    5  A    between atoms: C7_10  and  C8_11 
REMARK    6  A    between atoms: N3_14  and  C9_15 
REMARK    7  A    between atoms: C9_15  and  C10_16 
REMARK    8  A    between atoms: C10_16  and  C11_17 
REMARK    9  A    between atoms: C11_17  and  C12_18 
REMARK   10  A    between atoms: C12_18  and  C13_19 
REMARK   11  A    between atoms: C13_19  and  C14_20 
REMARK   12  A    between atoms: C14_20  and  O2_21 
REMARK   13  A    between atoms: C15_23  and  N4_24 
REMARK   14  A    between atoms: N4_24  and  N5_26 
REMARK   15  A    between atoms: C17_37  and  N10_38 
REMARK   16  A    between atoms: C19_43  and  N11_44 
ROOT
HETATM    1  N1  UNL     1     -14.667  22.659  -5.074  1.00  0.00    -0.150 N 
HETATM    2  C7  UNL     1     -15.762  22.543  -4.311  1.00  0.00     0.186 A 
HETATM    3  N7  UNL     1     -16.692  22.019  -5.125  1.00  0.00    -0.259 N 
ATOM      4  H7  UNL     1     -17.648  21.809  -4.839  1.00  0.00     0.190 HD
HETATM    5  N8  UNL     1     -16.217  21.810  -6.341  1.00  0.00    -0.066 N 
HETATM    6  C16 UNL     1     -16.782  21.300  -7.494  1.00  0.00     0.168 A 
HETATM    7  N9  UNL     1     -18.021  20.875  -7.645  1.00  0.00    -0.320 N 
ATOM      8  H9  UNL     1     -18.679  20.898  -6.867  1.00  0.00     0.169 HD
HETATM    9  C17 UNL     1     -18.388  20.414  -8.835  1.00  0.00     0.144 A 
HETATM   10  S1  UNL     1     -16.968  20.578  -9.771  1.00  0.00    -0.047 SA
HETATM   11  C18 UNL     1     -15.953  21.241  -8.573  1.00  0.00     0.099 A 
HETATM   12  C19 UNL     1     -14.615  21.670  -8.515  1.00  0.00     0.136 A 
HETATM   13  N12 UNL     1     -14.090  22.169  -7.361  1.00  0.00    -0.173 N 
ATOM     14  H12 UNL     1     -13.124  22.489  -7.283  1.00  0.00     0.186 HD
HETATM   15  C20 UNL     1     -14.960  22.201  -6.330  1.00  0.00     0.711 A 
ENDROOT
BRANCH   2  16
HETATM   16  C8  UNL     1     -15.978  22.890  -2.902  1.00  0.00     0.182 A 
HETATM   17  N2  UNL     1     -15.650  22.195  -1.825  1.00  0.00    -0.265 N 
HETATM   18  N3  UNL     1     -16.002  22.823  -0.718  1.00  0.00    -0.121 N 
ATOM     19  H2  UNL     1     -15.183  21.289  -1.847  1.00  0.00     0.189 HD
HETATM   20  C15 UNL     1     -16.583  23.974  -1.093  1.00  0.00     0.715 A 
HETATM   21  N6  UNL     1     -16.566  24.011  -2.437  1.00  0.00    -0.169 N 
ATOM     22  H6  UNL     1     -16.938  24.766  -3.013  1.00  0.00     0.186 HD
BRANCH  18  23
HETATM   23  C9  UNL     1     -15.785  22.329   0.621  1.00  0.00     0.168 C 
BRANCH  23  24
HETATM   24  C10 UNL     1     -14.548  21.505   0.723  1.00  0.00     0.022 C 
BRANCH  24  25
HETATM   25  C11 UNL     1     -13.706  21.858   1.923  1.00  0.00     0.002 C 
BRANCH  25  26
HETATM   26  C12 UNL     1     -13.517  23.328   2.092  1.00  0.00     0.002 C 
BRANCH  26  27
HETATM   27  C13 UNL     1     -12.455  23.698   3.076  1.00  0.00     0.026 C 
BRANCH  27  28
HETATM   28  C14 UNL     1     -12.757  25.021   3.745  1.00  0.00     0.164 C 
BRANCH  28  29
HETATM   29  O2  UNL     1     -13.936  24.914   4.481  1.00  0.00    -0.401 OA
ATOM     30  H2  UNL     1     -14.406  25.739   4.451  1.00  0.00     0.209 HD
ENDBRANCH  28  29
ENDBRANCH  27  28
ENDBRANCH  26  27
ENDBRANCH  25  26
ENDBRANCH  24  25
ENDBRANCH  23  24
ENDBRANCH  18  23
BRANCH  20  31
HETATM   31  N4  UNL     1     -17.079  24.900  -0.307  1.00  0.00    -0.137 N 
ATOM     32  H4  UNL     1     -18.028  24.785   0.046  1.00  0.00     0.205 HD
BRANCH  31  33
HETATM   33  N5  UNL     1     -16.371  26.022   0.059  1.00  0.00    -0.331 N 
ATOM     34  H52 UNL     1     -16.817  26.928  -0.079  1.00  0.00     0.177 HD
ATOM     35  H51 UNL     1     -15.433  25.976   0.456  1.00  0.00     0.177 HD
ENDBRANCH  31  33
ENDBRANCH  20  31
ENDBRANCH   2  16
BRANCH   1  36
HETATM   36  C6  UNL     1     -13.391  23.179  -4.624  1.00  0.00     0.243 C 
BRANCH  36  37
HETATM   37  C5  UNL     1     -13.352  24.653  -4.689  1.00  0.00    -0.083 C 
HETATM   38  C4  UNL     1     -13.316  25.858  -4.742  1.00  0.00    -0.067 C 
BRANCH  38  39
HETATM   39  C2  UNL     1     -13.248  27.325  -4.799  1.00  0.00     0.114 C 
HETATM   40  C1  UNL     1     -13.628  27.716  -6.216  1.00  0.00     0.060 C 
HETATM   41  C3  UNL     1     -14.235  27.975  -3.858  1.00  0.00     0.060 C 
BRANCH  39  42
HETATM   42  O1  UNL     1     -11.981  27.805  -4.487  1.00  0.00    -0.378 OA
ATOM     43  H1  UNL     1     -11.669  27.417  -3.678  1.00  0.00     0.211 HD
ENDBRANCH  39  42
ENDBRANCH  38  39
ENDBRANCH  36  37
ENDBRANCH   1  36
BRANCH  12  44
HETATM   44  N11 UNL     1     -13.925  21.571  -9.584  1.00  0.00    -0.384 N 
ATOM     45 2H11 UNL     1     -14.359  21.547 -10.507  1.00  0.00     0.157 HD
ATOM     46 1H11 UNL     1     -12.912  21.516  -9.481  1.00  0.00     0.157 HD
ENDBRANCH  12  44
BRANCH   9  47
HETATM   47  N10 UNL     1     -19.559  19.943  -9.212  1.00  0.00    -0.380 N 
ATOM     48 2H10 UNL     1     -20.260  19.471  -8.640  1.00  0.00     0.158 HD
ATOM     49 1H10 UNL     1     -19.985  19.958 -10.138  1.00  0.00     0.158 HD
ENDBRANCH   9  47
TORSDOF 16
ENDMDL
MODEL 2
REMARK VINA RESULT: -7.248307886      1.992      2.193
REMARK  16 active torsions:
REMARK  status: ('A' for Active; 'I' for Inactive)
REMARK    1  A    between atoms: C2_2  and  O1_4 
REMARK    2  A    between atoms: C2_2  and  C4_6 
REMARK    3  A    between atoms: C5_7  and  C6_8 
REMARK    4  A    between atoms: C6_8  and  N1_9 
REMARK    5  A    between atoms: C7_10  and  C8_11 
REMARK    6  A    between atoms: N3_14  and  C9_15 
REMARK    7  A    between atoms: C9_15  and  C10_16 
REMARK    8  A    between atoms: C10_16  and  C11_17 
REMARK    9  A    between atoms: C11_17  and  C12_18 
REMARK   10  A    between atoms: C12_18  and  C13_19 
REMARK   11  A    between atoms: C13_19  and  C14_20 
REMARK   12  A    between atoms: C14_20  and  O2_21 
REMARK   13  A    between atoms: C15_23  and  N4_24 
REMARK   14  A    between atoms: N4_24  and  N5_26 
REMARK   15  A    between atoms: C17_37  and  N10_38 
REMARK   16  A    between atoms: C19_43  and  N11_44 
ROOT
HETATM    1  N1  UNL     1     -14.183  22.852  -5.164  1.00  0.00    -0.150 N 
HETATM    2  C7  UNL     1     -15.103  22.096  -4.552  1.00  0.00     0.186 A 
HETATM    3  N7  UNL     1     -15.640  21.351  -5.531  1.00  0.00    -0.259 N 
ATOM      4  H7  UNL     1     -16.381  20.665  -5.387  1.00  0.00     0.190 HD
HETATM    5  N8  UNL     1     -15.093  21.617  -6.705  1.00  0.00    -0.066 N 
HETATM    6  C16 UNL     1     -15.309  21.119  -7.975  1.00  0.00     0.168 A 
HETATM    7  N9  UNL     1     -16.180  20.193  -8.322  1.00  0.00    -0.320 N 
ATOM      8  H9  UNL     1     -16.788  19.760  -7.627  1.00  0.00     0.169 HD
HETATM    9  C17 UNL     1     -16.247  19.838  -9.601  1.00  0.00     0.144 A 
HETATM   10  S1  UNL     1     -15.062  20.822 -10.341  1.00  0.00    -0.047 SA
HETATM   11  C18 UNL     1     -14.528  21.656  -8.953  1.00  0.00     0.099 A 
HETATM   12  C19 UNL     1     -13.569  22.650  -8.686  1.00  0.00     0.136 A 
HETATM   13  N12 UNL     1     -13.382  23.119  -7.421  1.00  0.00    -0.173 N 
ATOM     14  H12 UNL     1     -12.696  23.838  -7.191  1.00  0.00     0.186 HD
HETATM   15  C20 UNL     1     -14.184  22.547  -6.498  1.00  0.00     0.711 A 
ENDROOT
BRANCH   2  16
HETATM   16  C8  UNL     1     -15.497  22.037  -3.140  1.00  0.00     0.182 A 
HETATM   17  N2  UNL     1     -14.981  21.294  -2.174  1.00  0.00    -0.265 N 
HETATM   18  N3  UNL     1     -15.592  21.505  -1.022  1.00  0.00    -0.121 N 
ATOM     19  H2  UNL     1     -14.209  20.639  -2.302  1.00  0.00     0.189 HD
HETATM   20  C15 UNL     1     -16.543  22.425  -1.251  1.00  0.00     0.715 A 
HETATM   21  N6  UNL     1     -16.480  22.749  -2.555  1.00  0.00    -0.169 N 
ATOM     22  H6  UNL     1     -17.081  23.425  -3.026  1.00  0.00     0.186 HD
BRANCH  18  23
HETATM   23  C9  UNL     1     -15.267  20.850   0.222  1.00  0.00     0.168 C 
BRANCH  23  24
HETATM   24  C10 UNL     1     -13.986  21.345   0.801  1.00  0.00     0.022 C 
BRANCH  24  25
HETATM   25  C11 UNL     1     -14.193  22.254   1.986  1.00  0.00     0.002 C 
BRANCH  25  26
HETATM   26  C12 UNL     1     -13.549  23.590   1.818  1.00  0.00     0.002 C 
BRANCH  26  27
HETATM   27  C13 UNL     1     -13.941  24.303   0.566  1.00  0.00     0.026 C 
BRANCH  27  28
HETATM   28  C14 UNL     1     -14.676  25.590   0.868  1.00  0.00     0.164 C 
BRANCH  28  29
HETATM   29  O2  UNL     1     -16.048  25.345   0.907  1.00  0.00    -0.401 OA
ATOM     30  H2  UNL     1     -16.434  25.566   0.067  1.00  0.00     0.209 HD
ENDBRANCH  28  29
ENDBRANCH  27  28
ENDBRANCH  26  27
ENDBRANCH  25  26
ENDBRANCH  24  25
ENDBRANCH  23  24
ENDBRANCH  18  23
BRANCH  20  31
HETATM   31  N4  UNL     1     -17.384  22.925  -0.377  1.00  0.00    -0.137 N 
ATOM     32  H4  UNL     1     -17.460  22.481   0.538  1.00  0.00     0.205 HD
BRANCH  31  33
HETATM   33  N5  UNL     1     -18.167  24.023  -0.644  1.00  0.00    -0.331 N 
ATOM     34  H52 UNL     1     -18.396  24.215  -1.620  1.00  0.00     0.177 HD
ATOM     35  H51 UNL     1     -18.520  24.640   0.088  1.00  0.00     0.177 HD
ENDBRANCH  31  33
ENDBRANCH  20  31
ENDBRANCH   2  16
BRANCH   1  36
HETATM   36  C6  UNL     1     -13.332  23.824  -4.505  1.00  0.00     0.243 C 
BRANCH  36  37
HETATM   37  C5  UNL     1     -14.122  24.909  -3.890  1.00  0.00    -0.083 C 
HETATM   38  C4  UNL     1     -14.772  25.793  -3.389  1.00  0.00    -0.067 C 
BRANCH  38  39
HETATM   39  C2  UNL     1     -15.584  26.862  -2.789  1.00  0.00     0.114 C 
HETATM   40  C1  UNL     1     -14.615  27.782  -2.069  1.00  0.00     0.060 C 
HETATM   41  C3  UNL     1     -16.306  27.677  -3.836  1.00  0.00     0.060 C 
BRANCH  39  42
HETATM   42  O1  UNL     1     -16.534  26.367  -1.904  1.00  0.00    -0.378 OA
ATOM     43  H1  UNL     1     -16.903  25.556  -2.232  1.00  0.00     0.211 HD
ENDBRANCH  39  42
ENDBRANCH  38  39
ENDBRANCH  36  37
ENDBRANCH   1  36
BRANCH  12  44
HETATM   44  N11 UNL     1     -12.891  23.085  -9.676  1.00  0.00    -0.384 N 
ATOM     45 2H11 UNL     1     -12.938  22.649 -10.597  1.00  0.00     0.157 HD
ATOM     46 1H11 UNL     1     -12.294  23.895  -9.510  1.00  0.00     0.157 HD
ENDBRANCH  12  44
BRANCH   9  47
HETATM   47  N10 UNL     1     -17.032  18.945 -10.169  1.00  0.00    -0.380 N 
ATOM     48 2H10 UNL     1     -17.958  18.641  -9.868  1.00  0.00     0.158 HD
ATOM     49 1H10 UNL     1     -16.866  18.393 -11.010  1.00  0.00     0.158 HD
ENDBRANCH   9  47
TORSDOF 16
ENDMDL
MODEL 3
REMARK VINA RESULT: -7.225260347      0.951      1.161
REMARK  16 active torsions:
REMARK  status: ('A' for Active; 'I' for Inactive)
REMARK    1  A    between atoms: C2_2  and  O1_4 
REMARK    2  A    between atoms: C2_2  and  C4_6 
REMARK    3  A    between atoms: C5_7  and  C6_8 
REMARK    4  A    between atoms: C6_8  and  N1_9 
REMARK    5  A    between atoms: C7_10  and  C8_11 
REMARK    6  A    between atoms: N3_14  and  C9_15 
REMARK    7  A    between atoms: C9_15  and  C10_16 
REMARK    8  A    between atoms: C10_16  and  C11_17 
REMARK    9  A    between atoms: C11_17  and  C12_18 
REMARK   10  A    between atoms: C12_18  and  C13_19 
REMARK   11  A    between atoms: C13_19  and  C14_20 
REMARK   12  A    between atoms: C14_20  and  O2_21 
REMARK   13  A    between atoms: C15_23  and  N4_24 
REMARK   14  A    between atoms: N4_24  and  N5_26 
REMARK   15  A    between atoms: C17_37  and  N10_38 
REMARK   16  A    between atoms: C19_43  and  N11_44 
ROOT
HETATM    1  N1  UNL     1     -14.707  22.566  -5.175  1.00  0.00    -0.150 N 
HETATM    2  C7  UNL     1     -15.783  22.423  -4.390  1.00  0.00     0.186 A 
HETATM    3  N7  UNL     1     -16.729  21.917  -5.197  1.00  0.00    -0.259 N 
ATOM      4  H7  UNL     1     -17.678  21.693  -4.896  1.00  0.00     0.190 HD
HETATM    5  N8  UNL     1     -16.282  21.745  -6.429  1.00  0.00    -0.066 N 
HETATM    6  C16 UNL     1     -16.871  21.266  -7.583  1.00  0.00     0.168 A 
HETATM    7  N9  UNL     1     -18.111  20.837  -7.717  1.00  0.00    -0.320 N 
ATOM      8  H9  UNL     1     -18.751  20.835  -6.925  1.00  0.00     0.169 HD
HETATM    9  C17 UNL     1     -18.504  20.409  -8.912  1.00  0.00     0.144 A 
HETATM   10  S1  UNL     1     -17.107  20.608  -9.876  1.00  0.00    -0.047 SA
HETATM   11  C18 UNL     1     -16.067  21.242  -8.682  1.00  0.00     0.099 A 
HETATM   12  C19 UNL     1     -14.730  21.677  -8.644  1.00  0.00     0.136 A 
HETATM   13  N12 UNL     1     -14.181  22.145  -7.488  1.00  0.00    -0.173 N 
ATOM     14  H12 UNL     1     -13.215  22.469  -7.423  1.00  0.00     0.186 HD
HETATM   15  C20 UNL     1     -15.027  22.143  -6.436  1.00  0.00     0.711 A 
ENDROOT
BRANCH   2  16
HETATM   16  C8  UNL     1     -15.968  22.728  -2.967  1.00  0.00     0.182 A 
HETATM   17  N2  UNL     1     -15.656  21.982  -1.920  1.00  0.00    -0.265 N 
HETATM   18  N3  UNL     1     -15.969  22.584  -0.787  1.00  0.00    -0.121 N 
ATOM     19  H2  UNL     1     -15.228  21.058  -1.980  1.00  0.00     0.189 HD
HETATM   20  C15 UNL     1     -16.505  23.771  -1.113  1.00  0.00     0.715 A 
HETATM   21  N6  UNL     1     -16.503  23.855  -2.456  1.00  0.00    -0.169 N 
ATOM     22  H6  UNL     1     -16.849  24.644  -3.000  1.00  0.00     0.186 HD
BRANCH  18  23
HETATM   23  C9  UNL     1     -15.757  22.034   0.531  1.00  0.00     0.168 C 
BRANCH  23  24
HETATM   24  C10 UNL     1     -14.351  21.586   0.733  1.00  0.00     0.022 C 
BRANCH  24  25
HETATM   25  C11 UNL     1     -13.793  21.997   2.073  1.00  0.00     0.002 C 
BRANCH  25  26
HETATM   26  C12 UNL     1     -13.508  23.458   2.165  1.00  0.00     0.002 C 
BRANCH  26  27
HETATM   27  C13 UNL     1     -12.396  23.806   3.099  1.00  0.00     0.026 C 
BRANCH  27  28
HETATM   28  C14 UNL     1     -12.670  25.103   3.827  1.00  0.00     0.164 C 
BRANCH  28  29
HETATM   29  O2  UNL     1     -13.883  25.009   4.507  1.00  0.00    -0.401 OA
ATOM     30  H2  UNL     1     -14.325  25.850   4.487  1.00  0.00     0.209 HD
ENDBRANCH  28  29
ENDBRANCH  27  28
ENDBRANCH  26  27
ENDBRANCH  25  26
ENDBRANCH  24  25
ENDBRANCH  23  24
ENDBRANCH  18  23
BRANCH  20  31
HETATM   31  N4  UNL     1     -16.952  24.688  -0.290  1.00  0.00    -0.137 N 
ATOM     32  H4  UNL     1     -17.958  24.763  -0.141  1.00  0.00     0.205 HD
BRANCH  31  33
HETATM   33  N5  UNL     1     -16.120  25.553   0.382  1.00  0.00    -0.331 N 
ATOM     34  H52 UNL     1     -15.766  26.361  -0.130  1.00  0.00     0.177 HD
ATOM     35  H51 UNL     1     -15.852  25.415   1.356  1.00  0.00     0.177 HD
ENDBRANCH  31  33
ENDBRANCH  20  31
ENDBRANCH   2  16
BRANCH   1  36
HETATM   36  C6  UNL     1     -13.423  23.081  -4.740  1.00  0.00     0.243 C 
BRANCH  36  37
HETATM   37  C5  UNL     1     -13.565  24.370  -4.037  1.00  0.00    -0.083 C 
HETATM   38  C4  UNL     1     -13.684  25.423  -3.460  1.00  0.00    -0.067 C 
BRANCH  38  39
HETATM   39  C2  UNL     1     -13.853  26.698  -2.747  1.00  0.00     0.114 C 
HETATM   40  C1  UNL     1     -12.723  26.775  -1.736  1.00  0.00     0.060 C 
HETATM   41  C3  UNL     1     -13.727  27.884  -3.674  1.00  0.00     0.060 C 
BRANCH  39  42
HETATM   42  O1  UNL     1     -15.084  26.785  -2.108  1.00  0.00    -0.378 OA
ATOM     43  H1  UNL     1     -15.565  27.543  -2.415  1.00  0.00     0.211 HD
ENDBRANCH  39  42
ENDBRANCH  38  39
ENDBRANCH  36  37
ENDBRANCH   1  36
BRANCH  12  44
HETATM   44  N11 UNL     1     -14.065  21.612  -9.731  1.00  0.00    -0.384 N 
ATOM     45 2H11 UNL     1     -13.527  22.403 -10.083  1.00  0.00     0.157 HD
ATOM     46 1H11 UNL     1     -14.093  20.729 -10.241  1.00  0.00     0.157 HD
ENDBRANCH  12  44
BRANCH   9  47
HETATM   47  N10 UNL     1     -19.681  19.942  -9.274  1.00  0.00    -0.380 N 
ATOM     48 2H10 UNL     1     -20.205  19.170  -8.862  1.00  0.00     0.158 HD
ATOM     49 1H10 UNL     1     -20.288  20.259 -10.030  1.00  0.00     0.158 HD
ENDBRANCH   9  47
TORSDOF 16
ENDMDL
MODEL 4
REMARK VINA RESULT: -7.060657171      1.023      1.210
REMARK  16 active torsions:
REMARK  status: ('A' for Active; 'I' for Inactive)
REMARK    1  A    between atoms: C2_2  and  O1_4 
REMARK    2  A    between atoms: C2_2  and  C4_6 
REMARK    3  A    between atoms: C5_7  and  C6_8 
REMARK    4  A    between atoms: C6_8  and  N1_9 
REMARK    5  A    between atoms: C7_10  and  C8_11 
REMARK    6  A    between atoms: N3_14  and  C9_15 
REMARK    7  A    between atoms: C9_15  and  C10_16 
REMARK    8  A    between atoms: C10_16  and  C11_17 
REMARK    9  A    between atoms: C11_17  and  C12_18 
REMARK   10  A    between atoms: C12_18  and  C13_19 
REMARK   11  A    between atoms: C13_19  and  C14_20 
REMARK   12  A    between atoms: C14_20  and  O2_21 
REMARK   13  A    between atoms: C15_23  and  N4_24 
REMARK   14  A    between atoms: N4_24  and  N5_26 
REMARK   15  A    between atoms: C17_37  and  N10_38 
REMARK   16  A    between atoms: C19_43  and  N11_44 
ROOT
HETATM    1  N1  UNL     1     -14.073  23.233  -5.008  1.00  0.00    -0.150 N 
HETATM    2  C7  UNL     1     -15.139  22.795  -4.326  1.00  0.00     0.186 A 
HETATM    3  N7  UNL     1     -15.828  22.055  -5.209  1.00  0.00    -0.259 N 
ATOM      4  H7  UNL     1     -16.704  21.577  -4.994  1.00  0.00     0.190 HD
HETATM    5  N8  UNL     1     -15.235  22.021  -6.390  1.00  0.00    -0.066 N 
HETATM    6  C16 UNL     1     -15.556  21.406  -7.584  1.00  0.00     0.168 A 
HETATM    7  N9  UNL     1     -16.612  20.656  -7.827  1.00  0.00    -0.320 N 
ATOM      8  H9  UNL     1     -17.301  20.473  -7.098  1.00  0.00     0.169 HD
HETATM    9  C17 UNL     1     -16.756  20.144  -9.044  1.00  0.00     0.144 A 
HETATM   10  S1  UNL     1     -15.380  20.725  -9.876  1.00  0.00    -0.047 SA
HETATM   11  C18 UNL     1     -14.674  21.612  -8.602  1.00  0.00     0.099 A 
HETATM   12  C19 UNL     1     -13.517  22.396  -8.445  1.00  0.00     0.136 A 
HETATM   13  N12 UNL     1     -13.231  22.989  -7.252  1.00  0.00    -0.173 N 
ATOM     14  H12 UNL     1     -12.402  23.564  -7.103  1.00  0.00     0.186 HD
HETATM   15  C20 UNL     1     -14.141  22.748  -6.285  1.00  0.00     0.711 A 
ENDROOT
BRANCH   2  16
HETATM   16  C8  UNL     1     -15.537  23.028  -2.933  1.00  0.00     0.182 A 
HETATM   17  N2  UNL     1     -15.280  22.283  -1.871  1.00  0.00    -0.265 N 
HETATM   18  N3  UNL     1     -15.799  22.808  -0.776  1.00  0.00    -0.121 N 
ATOM     19  H2  UNL     1     -14.746  21.414  -1.894  1.00  0.00     0.189 HD
HETATM   20  C15 UNL     1     -16.419  23.940  -1.144  1.00  0.00     0.715 A 
HETATM   21  N6  UNL     1     -16.255  24.071  -2.472  1.00  0.00    -0.169 N 
ATOM     22  H6  UNL     1     -16.616  24.837  -3.040  1.00  0.00     0.186 HD
BRANCH  18  23
HETATM   23  C9  UNL     1     -15.697  22.237   0.547  1.00  0.00     0.168 C 
BRANCH  23  24
HETATM   24  C10 UNL     1     -14.379  21.579   0.775  1.00  0.00     0.022 C 
BRANCH  24  25
HETATM   25  C11 UNL     1     -13.721  22.017   2.059  1.00  0.00     0.002 C 
BRANCH  25  26
HETATM   26  C12 UNL     1     -13.438  23.481   2.102  1.00  0.00     0.002 C 
BRANCH  26  27
HETATM   27  C13 UNL     1     -12.468  23.885   3.163  1.00  0.00     0.026 C 
BRANCH  27  28
HETATM   28  C14 UNL     1     -12.873  25.187   3.817  1.00  0.00     0.164 C 
BRANCH  28  29
HETATM   29  O2  UNL     1     -13.981  24.974   4.635  1.00  0.00    -0.401 OA
ATOM     30  H2  UNL     1     -14.744  24.794   4.097  1.00  0.00     0.209 HD
ENDBRANCH  28  29
ENDBRANCH  27  28
ENDBRANCH  26  27
ENDBRANCH  25  26
ENDBRANCH  24  25
ENDBRANCH  23  24
ENDBRANCH  18  23
BRANCH  20  31
HETATM   31  N4  UNL     1     -17.068  24.774  -0.366  1.00  0.00    -0.137 N 
ATOM     32  H4  UNL     1     -18.002  24.518  -0.048  1.00  0.00     0.205 HD
BRANCH  31  33
HETATM   33  N5  UNL     1     -16.539  25.978   0.037  1.00  0.00    -0.331 N 
ATOM     34  H52 UNL     1     -16.501  26.166   1.038  1.00  0.00     0.177 HD
ATOM     35  H51 UNL     1     -16.192  26.675  -0.622  1.00  0.00     0.177 HD
ENDBRANCH  31  33
ENDBRANCH  20  31
ENDBRANCH   2  16
BRANCH   1  36
HETATM   36  C6  UNL     1     -13.027  24.077  -4.464  1.00  0.00     0.243 C 
BRANCH  36  37
HETATM   37  C5  UNL     1     -13.217  25.490  -4.843  1.00  0.00    -0.083 C 
HETATM   38  C4  UNL     1     -13.371  26.647  -5.149  1.00  0.00    -0.067 C 
BRANCH  38  39
HETATM   39  C2  UNL     1     -13.566  28.062  -5.498  1.00  0.00     0.114 C 
HETATM   40  C1  UNL     1     -12.344  28.801  -4.983  1.00  0.00     0.060 C 
HETATM   41  C3  UNL     1     -13.640  28.272  -6.992  1.00  0.00     0.060 C 
BRANCH  39  42
HETATM   42  O1  UNL     1     -14.724  28.588  -4.936  1.00  0.00    -0.378 OA
ATOM     43  H1  UNL     1     -15.492  28.227  -5.361  1.00  0.00     0.211 HD
ENDBRANCH  39  42
ENDBRANCH  38  39
ENDBRANCH  36  37
ENDBRANCH   1  36
BRANCH  12  44
HETATM   44  N11 UNL     1     -12.758  22.524  -9.463  1.00  0.00    -0.384 N 
ATOM     45 2H11 UNL     1     -11.925  21.950  -9.592  1.00  0.00     0.157 HD
ATOM     46 1H11 UNL     1     -13.019  23.229 -10.153  1.00  0.00     0.157 HD
ENDBRANCH  12  44
BRANCH   9  47
HETATM   47  N10 UNL     1     -17.720  19.376  -9.508  1.00  0.00    -0.380 N 
ATOM     48 2H10 UNL     1     -18.698  19.354  -9.221  1.00  0.00     0.158 HD
ATOM     49 1H10 UNL     1     -17.673  18.661 -10.234  1.00  0.00     0.158 HD
ENDBRANCH   9  47
TORSDOF 16
ENDMDL
MODEL 5
REMARK VINA RESULT: -6.954187682      1.467      1.654
REMARK  16 active torsions:
REMARK  status: ('A' for Active; 'I' for Inactive)
REMARK    1  A    between atoms: C2_2  and  O1_4 
REMARK    2  A    between atoms: C2_2  and  C4_6 
REMARK    3  A    between atoms: C5_7  and  C6_8 
REMARK    4  A    between atoms: C6_8  and  N1_9 
REMARK    5  A    between atoms: C7_10  and  C8_11 
REMARK    6  A    between atoms: N3_14  and  C9_15 
REMARK    7  A    between atoms: C9_15  and  C10_16 
REMARK    8  A    between atoms: C10_16  and  C11_17 
REMARK    9  A    between atoms: C11_17  and  C12_18 
REMARK   10  A    between atoms: C12_18  and  C13_19 
REMARK   11  A    between atoms: C13_19  and  C14_20 
REMARK   12  A    between atoms: C14_20  and  O2_21 
REMARK   13  A    between atoms: C15_23  and  N4_24 
REMARK   14  A    between atoms: N4_24  and  N5_26 
REMARK   15  A    between atoms: C17_37  and  N10_38 
REMARK   16  A    between atoms: C19_43  and  N11_44 
ROOT
HETATM    1  N1  UNL     1     -14.973  21.869  -5.408  1.00  0.00    -0.150 N 
HETATM    2  C7  UNL     1     -16.048  21.605  -4.655  1.00  0.00     0.186 A 
HETATM    3  N7  UNL     1     -17.001  21.251  -5.531  1.00  0.00    -0.259 N 
ATOM      4  H7  UNL     1     -17.951  20.988  -5.268  1.00  0.00     0.190 HD
HETATM    5  N8  UNL     1     -16.559  21.285  -6.776  1.00  0.00    -0.066 N 
HETATM    6  C16 UNL     1     -17.155  21.011  -7.992  1.00  0.00     0.168 A 
HETATM    7  N9  UNL     1     -18.399  20.623  -8.192  1.00  0.00    -0.320 N 
ATOM      8  H9  UNL     1     -19.038  20.493  -7.408  1.00  0.00     0.169 HD
HETATM    9  C17 UNL     1     -18.799  20.405  -9.440  1.00  0.00     0.144 A 
HETATM   10  S1  UNL     1     -17.402  20.751 -10.362  1.00  0.00    -0.047 SA
HETATM   11  C18 UNL     1     -16.354  21.166  -9.083  1.00  0.00     0.099 A 
HETATM   12  C19 UNL     1     -15.013  21.576  -8.977  1.00  0.00     0.136 A 
HETATM   13  N12 UNL     1     -14.456  21.838  -7.761  1.00  0.00    -0.173 N 
ATOM     14  H12 UNL     1     -13.488  22.137  -7.647  1.00  0.00     0.186 HD
HETATM   15  C20 UNL     1     -15.300  21.667  -6.722  1.00  0.00     0.711 A 
ENDROOT
BRANCH   2  16
HETATM   16  C8  UNL     1     -16.227  21.669  -3.200  1.00  0.00     0.182 A 
HETATM   17  N2  UNL     1     -15.587  20.987  -2.263  1.00  0.00    -0.265 N 
HETATM   18  N3  UNL     1     -16.015  21.307  -1.056  1.00  0.00    -0.121 N 
ATOM     19  H2  UNL     1     -14.856  20.302  -2.451  1.00  0.00     0.189 HD
HETATM   20  C15 UNL     1     -16.971  22.235  -1.215  1.00  0.00     0.715 A 
HETATM   21  N6  UNL     1     -17.099  22.454  -2.536  1.00  0.00    -0.169 N 
ATOM     22  H6  UNL     1     -17.750  23.109  -2.967  1.00  0.00     0.186 HD
BRANCH  18  23
HETATM   23  C9  UNL     1     -15.519  20.741   0.177  1.00  0.00     0.168 C 
BRANCH  23  24
HETATM   24  C10 UNL     1     -14.236  21.365   0.606  1.00  0.00     0.022 C 
BRANCH  24  25
HETATM   25  C11 UNL     1     -14.424  22.416   1.671  1.00  0.00     0.002 C 
BRANCH  25  26
HETATM   26  C12 UNL     1     -13.796  23.723   1.321  1.00  0.00     0.002 C 
BRANCH  26  27
HETATM   27  C13 UNL     1     -14.228  24.274   0.002  1.00  0.00     0.026 C 
BRANCH  27  28
HETATM   28  C14 UNL     1     -15.056  25.528   0.169  1.00  0.00     0.164 C 
BRANCH  28  29
HETATM   29  O2  UNL     1     -16.222  25.228   0.873  1.00  0.00    -0.401 OA
ATOM     30  H2  UNL     1     -16.270  25.768   1.654  1.00  0.00     0.209 HD
ENDBRANCH  28  29
ENDBRANCH  27  28
ENDBRANCH  26  27
ENDBRANCH  25  26
ENDBRANCH  24  25
ENDBRANCH  23  24
ENDBRANCH  18  23
BRANCH  20  31
HETATM   31  N4  UNL     1     -17.662  22.828  -0.271  1.00  0.00    -0.137 N 
ATOM     32  H4  UNL     1     -17.454  22.602   0.702  1.00  0.00     0.205 HD
BRANCH  31  33
HETATM   33  N5  UNL     1     -18.656  23.740  -0.538  1.00  0.00    -0.331 N 
ATOM     34  H52 UNL     1     -18.378  24.644  -0.919  1.00  0.00     0.177 HD
ATOM     35  H51 UNL     1     -19.643  23.545  -0.370  1.00  0.00     0.177 HD
ENDBRANCH  31  33
ENDBRANCH  20  31
ENDBRANCH   2  16
BRANCH   1  36
HETATM   36  C6  UNL     1     -13.683  22.292  -4.898  1.00  0.00     0.243 C 
BRANCH  36  37
HETATM   37  C5  UNL     1     -13.592  23.761  -4.802  1.00  0.00    -0.083 C 
HETATM   38  C4  UNL     1     -13.514  24.963  -4.725  1.00  0.00    -0.067 C 
BRANCH  38  39
HETATM   39  C2  UNL     1     -13.392  26.424  -4.627  1.00  0.00     0.114 C 
HETATM   40  C1  UNL     1     -13.831  26.981  -5.970  1.00  0.00     0.060 C 
HETATM   41  C3  UNL     1     -14.304  26.998  -3.567  1.00  0.00     0.060 C 
BRANCH  39  42
HETATM   42  O1  UNL     1     -12.094  26.826  -4.336  1.00  0.00    -0.378 OA
ATOM     43  H1  UNL     1     -11.467  26.293  -4.811  1.00  0.00     0.211 HD
ENDBRANCH  39  42
ENDBRANCH  38  39
ENDBRANCH  36  37
ENDBRANCH   1  36
BRANCH  12  44
HETATM   44  N11 UNL     1     -14.351  21.689 -10.063  1.00  0.00    -0.384 N 
ATOM     45 2H11 UNL     1     -14.513  22.455 -10.716  1.00  0.00     0.157 HD
ATOM     46 1H11 UNL     1     -13.647  20.977 -10.254  1.00  0.00     0.157 HD
ENDBRANCH  12  44
BRANCH   9  47
HETATM   47  N10 UNL     1     -19.981  20.017  -9.871  1.00  0.00    -0.380 N 
ATOM     48 2H10 UNL     1     -20.541  20.422 -10.621  1.00  0.00     0.158 HD
ATOM     49 1H10 UNL     1     -20.559  19.244  -9.540  1.00  0.00     0.158 HD
ENDBRANCH   9  47
TORSDOF 16
ENDMDL
