MODEL 1
REMARK VINA RESULT: -6.475873770      0.000      0.000
REMARK  7 active torsions:
REMARK  status: ('A' for Active; 'I' for Inactive)
REMARK    1  A    between atoms: C2_2  and  C3_3 
REMARK    2  A    between atoms: C3_3  and  C4_4 
REMARK    3  A    between atoms: C4_4  and  C5_5 
REMARK    4  A    between atoms: C5_5  and  C6_6 
REMARK    5  A    between atoms: C6_6  and  N1_7 
REMARK    6  A    between atoms: C8_9  and  O1_10 
REMARK    7  A    between atoms: C9_12  and  O2_13 
ROOT
HETATM    1  N1  UNL     1      39.783  16.345  -0.286  1.00  0.00    -0.311 N 
HETATM    2  C7  UNL     1      39.184  17.001   0.853  1.00  0.00     0.178 C 
HETATM    3  C8  UNL     1      39.893  18.224   1.321  1.00  0.00     0.173 C 
HETATM    4  C9  UNL     1      39.899  19.360   0.316  1.00  0.00     0.216 C 
HETATM    5  C10 UNL     1      40.888  19.101  -0.768  1.00  0.00     0.122 C 
HETATM    6  N2  UNL     1      41.280  20.155  -1.375  1.00  0.00    -0.386 N 
ATOM      7  H21 UNL     1      41.957  19.979  -2.117  1.00  0.00     0.157 HD
ATOM      8  H22 UNL     1      40.887  21.043  -1.062  1.00  0.00     0.157 HD
HETATM    9  N3  UNL     1      41.434  17.867  -1.203  1.00  0.00    -0.273 N 
ATOM     10  H3  UNL     1      42.300  17.910  -1.739  1.00  0.00     0.190 HD
HETATM   11  N4  UNL     1      40.940  16.693  -0.985  1.00  0.00    -0.243 N 
ATOM     12  H4  UNL     1      41.468  15.914  -1.377  1.00  0.00     0.208 HD
ENDROOT
BRANCH   1  13
HETATM   13  C6  UNL     1      39.074  15.186  -0.746  1.00  0.00     0.144 C 
BRANCH  13  14
HETATM   14  C5  UNL     1      39.863  14.358  -1.715  1.00  0.00     0.021 C 
BRANCH  14  15
HETATM   15  C4  UNL     1      39.956  12.911  -1.281  1.00  0.00     0.002 C 
BRANCH  15  16
HETATM   16  C3  UNL     1      39.804  11.962  -2.435  1.00  0.00    -0.000 C 
BRANCH  16  17
HETATM   17  C2  UNL     1      40.027  12.654  -3.776  1.00  0.00    -0.005 C 
HETATM   18  C1  UNL     1      40.394  11.559  -4.789  1.00  0.00     0.005 C 
ENDBRANCH  16  17
ENDBRANCH  15  16
ENDBRANCH  14  15
ENDBRANCH  13  14
ENDBRANCH   1  13
BRANCH   3  19
HETATM   19  O1  UNL     1      39.239  18.676   2.463  1.00  0.00    -0.391 OA
ATOM     20  H1  UNL     1      39.682  18.299   3.214  1.00  0.00     0.210 HD
ENDBRANCH   3  19
BRANCH   4  21
HETATM   21  O2  UNL     1      40.321  20.492   1.003  1.00  0.00    -0.385 OA
ATOM     22  H2  UNL     1      41.123  20.780   0.581  1.00  0.00     0.210 HD
ENDBRANCH   4  21
TORSDOF 7
ENDMDL
MODEL 2
REMARK VINA RESULT: -6.235565120      8.549      9.252
REMARK  7 active torsions:
REMARK  status: ('A' for Active; 'I' for Inactive)
REMARK    1  A    between atoms: C2_2  and  C3_3 
REMARK    2  A    between atoms: C3_3  and  C4_4 
REMARK    3  A    between atoms: C4_4  and  C5_5 
REMARK    4  A    between atoms: C5_5  and  C6_6 
REMARK    5  A    between atoms: C6_6  and  N1_7 
REMARK    6  A    between atoms: C8_9  and  O1_10 
REMARK    7  A    between atoms: C9_12  and  O2_13 
ROOT
HETATM    1  N1  UNL     1      47.994  14.501   1.828  1.00  0.00    -0.311 N 
HETATM    2  C7  UNL     1      49.368  14.069   1.731  1.00  0.00     0.178 C 
HETATM    3  C8  UNL     1      50.367  15.165   1.600  1.00  0.00     0.173 C 
HETATM    4  C9  UNL     1      50.446  16.078   2.809  1.00  0.00     0.216 C 
HETATM    5  C10 UNL     1      49.292  17.020   2.837  1.00  0.00     0.122 C 
HETATM    6  N2  UNL     1      49.503  18.078   3.521  1.00  0.00    -0.386 N 
ATOM      7  H21 UNL     1      48.713  18.723   3.541  1.00  0.00     0.157 HD
ATOM      8  H22 UNL     1      50.417  18.168   3.965  1.00  0.00     0.157 HD
HETATM    9  N3  UNL     1      48.022  16.894   2.220  1.00  0.00    -0.273 N 
ATOM     10  H3  UNL     1      47.481  17.751   2.100  1.00  0.00     0.190 HD
HETATM   11  N4  UNL     1      47.483  15.799   1.795  1.00  0.00    -0.243 N 
ATOM     12  H4  UNL     1      46.557  15.897   1.379  1.00  0.00     0.208 HD
ENDROOT
BRANCH   1  13
HETATM   13  C6  UNL     1      47.045  13.437   1.984  1.00  0.00     0.144 C 
BRANCH  13  14
HETATM   14  C5  UNL     1      45.859  13.567   1.077  1.00  0.00     0.021 C 
BRANCH  14  15
HETATM   15  C4  UNL     1      44.567  13.726   1.850  1.00  0.00     0.002 C 
BRANCH  15  16
HETATM   16  C3  UNL     1      43.698  14.813   1.285  1.00  0.00    -0.000 C 
BRANCH  16  17
HETATM   17  C2  UNL     1      43.847  16.121   2.057  1.00  0.00    -0.005 C 
HETATM   18  C1  UNL     1      44.230  17.202   1.034  1.00  0.00     0.005 C 
ENDBRANCH  16  17
ENDBRANCH  15  16
ENDBRANCH  14  15
ENDBRANCH  13  14
ENDBRANCH   1  13
BRANCH   3  19
HETATM   19  O1  UNL     1      51.616  14.577   1.434  1.00  0.00    -0.391 OA
ATOM     20  H1  UNL     1      52.271  15.237   1.626  1.00  0.00     0.210 HD
ENDBRANCH   3  19
BRANCH   4  21
HETATM   21  O2  UNL     1      51.600  16.838   2.654  1.00  0.00    -0.385 OA
ATOM     22  H2  UNL     1      52.145  16.658   3.411  1.00  0.00     0.210 HD
ENDBRANCH   4  21
TORSDOF 7
ENDMDL
MODEL 3
REMARK VINA RESULT: -6.095226757      9.367      9.773
REMARK  7 active torsions:
REMARK  status: ('A' for Active; 'I' for Inactive)
REMARK    1  A    between atoms: C2_2  and  C3_3 
REMARK    2  A    between atoms: C3_3  and  C4_4 
REMARK    3  A    between atoms: C4_4  and  C5_5 
REMARK    4  A    between atoms: C5_5  and  C6_6 
REMARK    5  A    between atoms: C6_6  and  N1_7 
REMARK    6  A    between atoms: C8_9  and  O1_10 
REMARK    7  A    between atoms: C9_12  and  O2_13 
ROOT
HETATM    1  N1  UNL     1      47.986  14.345   1.858  1.00  0.00    -0.311 N 
HETATM    2  C7  UNL     1      49.375  13.970   1.732  1.00  0.00     0.178 C 
HETATM    3  C8  UNL     1      50.322  15.107   1.557  1.00  0.00     0.173 C 
HETATM    4  C9  UNL     1      50.391  16.043   2.749  1.00  0.00     0.216 C 
HETATM    5  C10 UNL     1      49.199  16.934   2.792  1.00  0.00     0.122 C 
HETATM    6  N2  UNL     1      49.380  18.013   3.453  1.00  0.00    -0.386 N 
ATOM      7  H21 UNL     1      48.564  18.623   3.482  1.00  0.00     0.157 HD
ATOM      8  H22 UNL     1      50.300  18.150   3.871  1.00  0.00     0.157 HD
HETATM    9  N3  UNL     1      47.920  16.743   2.210  1.00  0.00    -0.273 N 
ATOM     10  H3  UNL     1      47.339  17.573   2.090  1.00  0.00     0.190 HD
HETATM   11  N4  UNL     1      47.418  15.619   1.817  1.00  0.00    -0.243 N 
ATOM     12  H4  UNL     1      46.479  15.670   1.423  1.00  0.00     0.208 HD
ENDROOT
BRANCH   1  13
HETATM   13  C6  UNL     1      47.089  13.244   2.056  1.00  0.00     0.144 C 
BRANCH  13  14
HETATM   14  C5  UNL     1      47.780  11.993   2.507  1.00  0.00     0.021 C 
BRANCH  14  15
HETATM   15  C4  UNL     1      46.888  10.776   2.386  1.00  0.00     0.002 C 
BRANCH  15  16
HETATM   16  C3  UNL     1      47.566   9.645   1.665  1.00  0.00    -0.000 C 
BRANCH  16  17
HETATM   17  C2  UNL     1      46.845   8.317   1.882  1.00  0.00    -0.005 C 
HETATM   18  C1  UNL     1      46.948   7.533   0.565  1.00  0.00     0.005 C 
ENDBRANCH  16  17
ENDBRANCH  15  16
ENDBRANCH  14  15
ENDBRANCH  13  14
ENDBRANCH   1  13
BRANCH   3  19
HETATM   19  O1  UNL     1      51.591  14.570   1.369  1.00  0.00    -0.391 OA
ATOM     20  H1  UNL     1      51.952  14.959   0.581  1.00  0.00     0.210 HD
ENDBRANCH   3  19
BRANCH   4  21
HETATM   21  O2  UNL     1      51.506  16.849   2.552  1.00  0.00    -0.385 OA
ATOM     22  H2  UNL     1      51.875  16.599   1.712  1.00  0.00     0.210 HD
ENDBRANCH   4  21
TORSDOF 7
ENDMDL
MODEL 4
REMARK VINA RESULT: -6.088065764      2.298      2.615
REMARK  7 active torsions:
REMARK  status: ('A' for Active; 'I' for Inactive)
REMARK    1  A    between atoms: C2_2  and  C3_3 
REMARK    2  A    between atoms: C3_3  and  C4_4 
REMARK    3  A    between atoms: C4_4  and  C5_5 
REMARK    4  A    between atoms: C5_5  and  C6_6 
REMARK    5  A    between atoms: C6_6  and  N1_7 
REMARK    6  A    between atoms: C8_9  and  O1_10 
REMARK    7  A    between atoms: C9_12  and  O2_13 
ROOT
HETATM    1  N1  UNL     1      40.931  16.065   0.077  1.00  0.00    -0.311 N 
HETATM    2  C7  UNL     1      40.728  17.472   0.332  1.00  0.00     0.178 C 
HETATM    3  C8  UNL     1      41.790  18.126   1.146  1.00  0.00     0.173 C 
HETATM    4  C9  UNL     1      43.151  18.157   0.477  1.00  0.00     0.216 C 
HETATM    5  C10 UNL     1      43.805  16.821   0.545  1.00  0.00     0.122 C 
HETATM    6  N2  UNL     1      45.077  16.859   0.430  1.00  0.00    -0.386 N 
ATOM      7  H21 UNL     1      45.525  15.944   0.477  1.00  0.00     0.157 HD
ATOM      8  H22 UNL     1      45.503  17.777   0.308  1.00  0.00     0.157 HD
HETATM    9  N3  UNL     1      43.212  15.544   0.716  1.00  0.00    -0.273 N 
ATOM     10  H3  UNL     1      43.822  14.791   1.035  1.00  0.00     0.190 HD
HETATM   11  N4  UNL     1      41.973  15.242   0.507  1.00  0.00    -0.243 N 
ATOM     12  H4  UNL     1      41.722  14.269   0.679  1.00  0.00     0.208 HD
ENDROOT
BRANCH   1  13
HETATM   13  C6  UNL     1      39.917  15.454  -0.733  1.00  0.00     0.144 C 
BRANCH  13  14
HETATM   14  C5  UNL     1      40.201  14.017  -1.049  1.00  0.00     0.021 C 
BRANCH  14  15
HETATM   15  C4  UNL     1      39.817  13.661  -2.469  1.00  0.00     0.002 C 
BRANCH  15  16
HETATM   16  C3  UNL     1      40.013  12.200  -2.760  1.00  0.00    -0.000 C 
BRANCH  16  17
HETATM   17  C2  UNL     1      40.454  11.961  -4.201  1.00  0.00    -0.005 C 
HETATM   18  C1  UNL     1      39.181  11.710  -5.023  1.00  0.00     0.005 C 
ENDBRANCH  16  17
ENDBRANCH  15  16
ENDBRANCH  14  15
ENDBRANCH  13  14
ENDBRANCH   1  13
BRANCH   3  19
HETATM   19  O1  UNL     1      41.398  19.442   1.366  1.00  0.00    -0.391 OA
ATOM     20  H1  UNL     1      40.451  19.450   1.438  1.00  0.00     0.210 HD
ENDBRANCH   3  19
BRANCH   4  21
HETATM   21  O2  UNL     1      43.931  19.041   1.213  1.00  0.00    -0.385 OA
ATOM     22  H2  UNL     1      43.334  19.676   1.593  1.00  0.00     0.210 HD
ENDBRANCH   4  21
TORSDOF 7
ENDMDL
MODEL 5
REMARK VINA RESULT: -6.041211885      8.521      9.023
REMARK  7 active torsions:
REMARK  status: ('A' for Active; 'I' for Inactive)
REMARK    1  A    between atoms: C2_2  and  C3_3 
REMARK    2  A    between atoms: C3_3  and  C4_4 
REMARK    3  A    between atoms: C4_4  and  C5_5 
REMARK    4  A    between atoms: C5_5  and  C6_6 
REMARK    5  A    between atoms: C6_6  and  N1_7 
REMARK    6  A    between atoms: C8_9  and  O1_10 
REMARK    7  A    between atoms: C9_12  and  O2_13 
ROOT
HETATM    1  N1  UNL     1      48.085  14.367   1.875  1.00  0.00    -0.311 N 
HETATM    2  C7  UNL     1      49.478  14.015   1.738  1.00  0.00     0.178 C 
HETATM    3  C8  UNL     1      50.405  15.166   1.557  1.00  0.00     0.173 C 
HETATM    4  C9  UNL     1      50.469  16.103   2.748  1.00  0.00     0.216 C 
HETATM    5  C10 UNL     1      49.263  16.975   2.801  1.00  0.00     0.122 C 
HETATM    6  N2  UNL     1      49.433  18.056   3.462  1.00  0.00    -0.386 N 
ATOM      7  H21 UNL     1      48.607  18.653   3.498  1.00  0.00     0.157 HD
ATOM      8  H22 UNL     1      50.354  18.207   3.873  1.00  0.00     0.157 HD
HETATM    9  N3  UNL     1      47.983  16.764   2.230  1.00  0.00    -0.273 N 
ATOM     10  H3  UNL     1      47.388  17.585   2.115  1.00  0.00     0.190 HD
HETATM   11  N4  UNL     1      47.496  15.632   1.840  1.00  0.00    -0.243 N 
ATOM     12  H4  UNL     1      46.553  15.668   1.454  1.00  0.00     0.208 HD
ENDROOT
BRANCH   1  13
HETATM   13  C6  UNL     1      47.207  13.252   2.080  1.00  0.00     0.144 C 
BRANCH  13  14
HETATM   14  C5  UNL     1      45.923  13.364   1.315  1.00  0.00     0.021 C 
BRANCH  14  15
HETATM   15  C4  UNL     1      44.933  12.287   1.705  1.00  0.00     0.002 C 
BRANCH  15  16
HETATM   16  C3  UNL     1      43.559  12.842   1.952  1.00  0.00    -0.000 C 
BRANCH  16  17
HETATM   17  C2  UNL     1      43.169  13.884   0.908  1.00  0.00    -0.005 C 
HETATM   18  C1  UNL     1      41.837  13.424   0.294  1.00  0.00     0.005 C 
ENDBRANCH  16  17
ENDBRANCH  15  16
ENDBRANCH  14  15
ENDBRANCH  13  14
ENDBRANCH   1  13
BRANCH   3  19
HETATM   19  O1  UNL     1      51.681  14.650   1.358  1.00  0.00    -0.391 OA
ATOM     20  H1  UNL     1      52.292  15.376   1.392  1.00  0.00     0.210 HD
ENDBRANCH   3  19
BRANCH   4  21
HETATM   21  O2  UNL     1      51.570  16.927   2.543  1.00  0.00    -0.385 OA
ATOM     22  H2  UNL     1      52.201  16.707   3.219  1.00  0.00     0.210 HD
ENDBRANCH   4  21
TORSDOF 7
ENDMDL
