MODEL 1
REMARK VINA RESULT: -6.196529847      0.000      0.000
REMARK  8 active torsions:
REMARK  status: ('A' for Active; 'I' for Inactive)
REMARK    1  A    between atoms: C2_2  and  C3_3 
REMARK    2  A    between atoms: C3_3  and  C4_4 
REMARK    3  A    between atoms: C4_4  and  C5_5 
REMARK    4  A    between atoms: C5_5  and  O1_6 
REMARK    5  A    between atoms: O1_6  and  C6_7 
REMARK    6  A    between atoms: C9_10  and  O2_11 
REMARK    7  A    between atoms: C10_13  and  O3_14 
REMARK    8  A    between atoms: C11_16  and  O4_17 
ROOT
HETATM    1  C6  UNL     1      40.118  16.863  -0.279  1.00  0.00     0.152 C 
HETATM    2  C7  UNL     1      39.960  16.835   1.210  1.00  0.00     0.037 C 
HETATM    3  C8  UNL     1      39.428  18.227   1.589  1.00  0.00     0.037 C 
HETATM    4  C9  UNL     1      40.670  19.109   1.616  1.00  0.00     0.149 C 
HETATM    5  C10 UNL     1      41.627  18.736   0.505  1.00  0.00     0.178 C 
HETATM    6  C11 UNL     1      40.918  18.093  -0.662  1.00  0.00     0.178 C 
ENDROOT
BRANCH   1   7
HETATM    7  O1  UNL     1      40.611  15.720  -0.861  1.00  0.00    -0.383 OA
BRANCH   7   8
HETATM    8  C5  UNL     1      40.642  14.591  -0.120  1.00  0.00     0.168 C 
BRANCH   8   9
HETATM    9  C4  UNL     1      40.578  13.299  -0.886  1.00  0.00     0.026 C 
BRANCH   9  10
HETATM   10  C3  UNL     1      39.971  13.395  -2.246  1.00  0.00     0.002 C 
BRANCH  10  11
HETATM   11  C2  UNL     1      40.022  12.013  -2.873  1.00  0.00    -0.004 C 
HETATM   12  C1  UNL     1      39.851  12.079  -4.370  1.00  0.00     0.005 C 
ENDBRANCH  10  11
ENDBRANCH   9  10
ENDBRANCH   8   9
ENDBRANCH   7   8
ENDBRANCH   1   7
BRANCH   6  13
HETATM   13  O4  UNL     1      41.894  17.759  -1.603  1.00  0.00    -0.390 OA
ATOM     14  H4  UNL     1      42.542  18.450  -1.662  1.00  0.00     0.210 HD
ENDBRANCH   6  13
BRANCH   5  15
HETATM   15  O3  UNL     1      42.178  19.927   0.033  1.00  0.00    -0.390 OA
ATOM     16  H3  UNL     1      41.972  19.976  -0.893  1.00  0.00     0.210 HD
ENDBRANCH   5  15
BRANCH   4  17
HETATM   17  O2  UNL     1      40.349  20.459   1.564  1.00  0.00    -0.393 OA
ATOM     18  H2  UNL     1      40.809  20.907   0.863  1.00  0.00     0.210 HD
ENDBRANCH   4  17
TORSDOF 8
ENDMDL
MODEL 2
REMARK VINA RESULT: -6.040378296      3.370      5.342
REMARK  8 active torsions:
REMARK  status: ('A' for Active; 'I' for Inactive)
REMARK    1  A    between atoms: C2_2  and  C3_3 
REMARK    2  A    between atoms: C3_3  and  C4_4 
REMARK    3  A    between atoms: C4_4  and  C5_5 
REMARK    4  A    between atoms: C5_5  and  O1_6 
REMARK    5  A    between atoms: O1_6  and  C6_7 
REMARK    6  A    between atoms: C9_10  and  O2_11 
REMARK    7  A    between atoms: C10_13  and  O3_14 
REMARK    8  A    between atoms: C11_16  and  O4_17 
ROOT
HETATM    1  C6  UNL     1      42.671  17.649   0.724  1.00  0.00     0.152 C 
HETATM    2  C7  UNL     1      42.356  16.194   0.887  1.00  0.00     0.037 C 
HETATM    3  C8  UNL     1      42.854  15.825   2.293  1.00  0.00     0.037 C 
HETATM    4  C9  UNL     1      44.351  15.604   2.116  1.00  0.00     0.149 C 
HETATM    5  C10 UNL     1      44.936  16.602   1.142  1.00  0.00     0.178 C 
HETATM    6  C11 UNL     1      44.128  17.875   1.080  1.00  0.00     0.178 C 
ENDROOT
BRANCH   1   7
HETATM    7  O1  UNL     1      42.337  18.214  -0.483  1.00  0.00    -0.383 OA
BRANCH   7   8
HETATM    8  C5  UNL     1      41.098  18.733  -0.621  1.00  0.00     0.168 C 
BRANCH   8   9
HETATM    9  C4  UNL     1      40.762  19.887   0.282  1.00  0.00     0.026 C 
BRANCH   9  10
HETATM   10  C3  UNL     1      39.816  19.573   1.393  1.00  0.00     0.002 C 
BRANCH  10  11
HETATM   11  C2  UNL     1      39.161  18.240   1.078  1.00  0.00    -0.004 C 
HETATM   12  C1  UNL     1      38.936  17.427   2.328  1.00  0.00     0.005 C 
ENDBRANCH  10  11
ENDBRANCH   9  10
ENDBRANCH   8   9
ENDBRANCH   7   8
ENDBRANCH   1   7
BRANCH   6  13
HETATM   13  O4  UNL     1      44.733  18.701   0.129  1.00  0.00    -0.390 OA
ATOM     14  H4  UNL     1      45.629  18.424  -0.021  1.00  0.00     0.210 HD
ENDBRANCH   6  13
BRANCH   5  15
HETATM   15  O3  UNL     1      46.196  16.949   1.629  1.00  0.00    -0.390 OA
ATOM     16  H3  UNL     1      46.761  16.201   1.484  1.00  0.00     0.210 HD
ENDBRANCH   5  15
BRANCH   4  17
HETATM   17  O2  UNL     1      45.028  15.637   3.329  1.00  0.00    -0.393 OA
ATOM     18  H2  UNL     1      44.809  16.410   3.836  1.00  0.00     0.210 HD
ENDBRANCH   4  17
TORSDOF 8
ENDMDL
MODEL 3
REMARK VINA RESULT: -6.024311923      7.401      8.822
REMARK  8 active torsions:
REMARK  status: ('A' for Active; 'I' for Inactive)
REMARK    1  A    between atoms: C2_2  and  C3_3 
REMARK    2  A    between atoms: C3_3  and  C4_4 
REMARK    3  A    between atoms: C4_4  and  C5_5 
REMARK    4  A    between atoms: C5_5  and  O1_6 
REMARK    5  A    between atoms: O1_6  and  C6_7 
REMARK    6  A    between atoms: C9_10  and  O2_11 
REMARK    7  A    between atoms: C10_13  and  O3_14 
REMARK    8  A    between atoms: C11_16  and  O4_17 
ROOT
HETATM    1  C6  UNL     1      47.984  15.404   3.049  1.00  0.00     0.152 C 
HETATM    2  C7  UNL     1      48.002  14.515   1.845  1.00  0.00     0.037 C 
HETATM    3  C8  UNL     1      49.381  13.838   1.859  1.00  0.00     0.037 C 
HETATM    4  C9  UNL     1      50.317  14.877   1.255  1.00  0.00     0.149 C 
HETATM    5  C10 UNL     1      49.948  16.271   1.711  1.00  0.00     0.178 C 
HETATM    6  C11 UNL     1      49.234  16.263   3.041  1.00  0.00     0.178 C 
ENDROOT
BRANCH   1   7
HETATM    7  O1  UNL     1      46.845  16.147   3.243  1.00  0.00    -0.383 OA
BRANCH   7   8
HETATM    8  C5  UNL     1      45.919  16.160   2.259  1.00  0.00     0.168 C 
BRANCH   8   9
HETATM    9  C4  UNL     1      44.543  15.692   2.643  1.00  0.00     0.026 C 
BRANCH   9  10
HETATM   10  C3  UNL     1      43.419  16.355   1.919  1.00  0.00     0.002 C 
BRANCH  10  11
HETATM   11  C2  UNL     1      44.012  17.450   1.051  1.00  0.00    -0.004 C 
HETATM   12  C1  UNL     1      42.976  18.481   0.679  1.00  0.00     0.005 C 
ENDBRANCH  10  11
ENDBRANCH   9  10
ENDBRANCH   8   9
ENDBRANCH   7   8
ENDBRANCH   1   7
BRANCH   6  13
HETATM   13  O4  UNL     1      48.910  17.588   3.341  1.00  0.00    -0.390 OA
ATOM     14  H4  UNL     1      49.031  18.136   2.576  1.00  0.00     0.210 HD
ENDBRANCH   6  13
BRANCH   5  15
HETATM   15  O3  UNL     1      51.144  16.962   1.901  1.00  0.00    -0.390 OA
ATOM     16  H3  UNL     1      51.018  17.525   2.656  1.00  0.00     0.210 HD
ENDBRANCH   5  15
BRANCH   4  17
HETATM   17  O2  UNL     1      51.649  14.600   1.533  1.00  0.00    -0.393 OA
ATOM     18  H2  UNL     1      52.239  15.102   0.982  1.00  0.00     0.210 HD
ENDBRANCH   4  17
TORSDOF 8
ENDMDL
MODEL 4
REMARK VINA RESULT: -5.844665981      1.748      2.943
REMARK  8 active torsions:
REMARK  status: ('A' for Active; 'I' for Inactive)
REMARK    1  A    between atoms: C2_2  and  C3_3 
REMARK    2  A    between atoms: C3_3  and  C4_4 
REMARK    3  A    between atoms: C4_4  and  C5_5 
REMARK    4  A    between atoms: C5_5  and  O1_6 
REMARK    5  A    between atoms: O1_6  and  C6_7 
REMARK    6  A    between atoms: C9_10  and  O2_11 
REMARK    7  A    between atoms: C10_13  and  O3_14 
REMARK    8  A    between atoms: C11_16  and  O4_17 
ROOT
HETATM    1  C6  UNL     1      40.109  16.858  -0.275  1.00  0.00     0.152 C 
HETATM    2  C7  UNL     1      39.931  16.857   1.212  1.00  0.00     0.037 C 
HETATM    3  C8  UNL     1      39.416  18.263   1.561  1.00  0.00     0.037 C 
HETATM    4  C9  UNL     1      40.671  19.126   1.591  1.00  0.00     0.149 C 
HETATM    5  C10 UNL     1      41.636  18.721   0.499  1.00  0.00     0.178 C 
HETATM    6  C11 UNL     1      40.933  18.070  -0.667  1.00  0.00     0.178 C 
ENDROOT
BRANCH   1   7
HETATM    7  O1  UNL     1      40.592  15.699  -0.832  1.00  0.00    -0.383 OA
BRANCH   7   8
HETATM    8  C5  UNL     1      40.387  14.541  -0.168  1.00  0.00     0.168 C 
BRANCH   8   9
HETATM    9  C4  UNL     1      41.606  13.696   0.075  1.00  0.00     0.026 C 
BRANCH   9  10
HETATM   10  C3  UNL     1      42.263  13.894   1.401  1.00  0.00     0.002 C 
BRANCH  10  11
HETATM   11  C2  UNL     1      43.335  14.956   1.231  1.00  0.00    -0.004 C 
HETATM   12  C1  UNL     1      43.316  15.945   2.370  1.00  0.00     0.005 C 
ENDBRANCH  10  11
ENDBRANCH   9  10
ENDBRANCH   8   9
ENDBRANCH   7   8
ENDBRANCH   1   7
BRANCH   6  13
HETATM   13  O4  UNL     1      41.916  17.705  -1.589  1.00  0.00    -0.390 OA
ATOM     14  H4  UNL     1      41.632  17.915  -2.471  1.00  0.00     0.210 HD
ENDBRANCH   6  13
BRANCH   5  15
HETATM   15  O3  UNL     1      42.213  19.895   0.015  1.00  0.00    -0.390 OA
ATOM     16  H3  UNL     1      42.704  19.658  -0.762  1.00  0.00     0.210 HD
ENDBRANCH   5  15
BRANCH   4  17
HETATM   17  O2  UNL     1      40.372  20.480   1.513  1.00  0.00    -0.393 OA
ATOM     18  H2  UNL     1      41.132  20.999   1.277  1.00  0.00     0.210 HD
ENDBRANCH   4  17
TORSDOF 8
ENDMDL
MODEL 5
REMARK VINA RESULT: -5.778804451      7.564      8.665
REMARK  8 active torsions:
REMARK  status: ('A' for Active; 'I' for Inactive)
REMARK    1  A    between atoms: C2_2  and  C3_3 
REMARK    2  A    between atoms: C3_3  and  C4_4 
REMARK    3  A    between atoms: C4_4  and  C5_5 
REMARK    4  A    between atoms: C5_5  and  O1_6 
REMARK    5  A    between atoms: O1_6  and  C6_7 
REMARK    6  A    between atoms: C9_10  and  O2_11 
REMARK    7  A    between atoms: C10_13  and  O3_14 
REMARK    8  A    between atoms: C11_16  and  O4_17 
ROOT
HETATM    1  C6  UNL     1      48.016  15.422   3.029  1.00  0.00     0.152 C 
HETATM    2  C7  UNL     1      48.035  14.552   1.811  1.00  0.00     0.037 C 
HETATM    3  C8  UNL     1      49.413  13.873   1.817  1.00  0.00     0.037 C 
HETATM    4  C9  UNL     1      50.352  14.920   1.231  1.00  0.00     0.149 C 
HETATM    5  C10 UNL     1      49.983  16.308   1.709  1.00  0.00     0.178 C 
HETATM    6  C11 UNL     1      49.267  16.280   3.037  1.00  0.00     0.178 C 
ENDROOT
BRANCH   1   7
HETATM    7  O1  UNL     1      46.877  16.163   3.232  1.00  0.00    -0.383 OA
BRANCH   7   8
HETATM    8  C5  UNL     1      45.958  16.201   2.243  1.00  0.00     0.168 C 
BRANCH   8   9
HETATM    9  C4  UNL     1      44.614  15.614   2.570  1.00  0.00     0.026 C 
BRANCH   9  10
HETATM   10  C3  UNL     1      43.841  15.101   1.401  1.00  0.00     0.002 C 
BRANCH  10  11
HETATM   11  C2  UNL     1      44.656  13.991   0.761  1.00  0.00    -0.004 C 
HETATM   12  C1  UNL     1      44.701  12.764   1.639  1.00  0.00     0.005 C 
ENDBRANCH  10  11
ENDBRANCH   9  10
ENDBRANCH   8   9
ENDBRANCH   7   8
ENDBRANCH   1   7
BRANCH   6  13
HETATM   13  O4  UNL     1      48.944  17.600   3.358  1.00  0.00    -0.390 OA
ATOM     14  H4  UNL     1      49.515  17.918   4.047  1.00  0.00     0.210 HD
ENDBRANCH   6  13
BRANCH   5  15
HETATM   15  O3  UNL     1      51.180  16.994   1.912  1.00  0.00    -0.390 OA
ATOM     16  H3  UNL     1      50.992  17.697   2.522  1.00  0.00     0.210 HD
ENDBRANCH   5  15
BRANCH   4  17
HETATM   17  O2  UNL     1      51.683  14.637   1.507  1.00  0.00    -0.393 OA
ATOM     18  H2  UNL     1      51.968  15.029   2.325  1.00  0.00     0.210 HD
ENDBRANCH   4  17
TORSDOF 8
ENDMDL
