MODEL 1
REMARK VINA RESULT: -6.483689674      0.000      0.000
REMARK  5 active torsions:
REMARK  status: ('A' for Active; 'I' for Inactive)
REMARK    1  A    between atoms: C6_6  and  O1_7 
REMARK    2  A    between atoms: O1_7  and  C7_8 
REMARK    3  A    between atoms: C7_8  and  C8_9 
REMARK    4  A    between atoms: C9_13  and  C10_14 
REMARK    5  A    between atoms: C10_14  and  O2_15 
ROOT
HETATM    1  C8  UNL     1      48.877  16.362   3.040  1.00  0.00     0.221 A 
HETATM    2  N1  UNL     1      49.603  16.557   4.281  1.00  0.00    -0.112 NA
HETATM    3  N2  UNL     1      50.931  16.890   4.023  1.00  0.00    -0.289 N 
ATOM      4  H2  UNL     1      51.639  17.103   4.726  1.00  0.00     0.183 HD
HETATM    5  C9  UNL     1      51.115  16.883   2.750  1.00  0.00     0.114 A 
HETATM    6  N3  UNL     1      49.914  16.543   2.075  1.00  0.00    -0.355 N 
ATOM      7  H3  UNL     1      49.809  16.443   1.065  1.00  0.00     0.162 HD
ENDROOT
BRANCH   1   8
HETATM    8  C7  UNL     1      48.275  14.953   2.987  1.00  0.00     0.212 C 
BRANCH   8   9
HETATM    9  O1  UNL     1      47.128  15.056   2.220  1.00  0.00    -0.382 OA
BRANCH   9  10
HETATM   10  C6  UNL     1      47.043  14.074   1.232  1.00  0.00     0.121 C 
HETATM   11  C5  UNL     1      45.937  14.394   0.296  1.00  0.00     0.032 C 
HETATM   12  C4  UNL     1      44.583  13.930   0.696  1.00  0.00     0.003 C 
HETATM   13  C3  UNL     1      44.570  13.061   1.927  1.00  0.00     0.004 C 
HETATM   14  C2  UNL     1      45.667  12.035   1.745  1.00  0.00    -0.016 C 
HETATM   15  C1  UNL     1      45.605  10.979   2.841  1.00  0.00     0.010 C 
HETATM   16  C11 UNL     1      46.972  12.764   1.915  1.00  0.00     0.036 C 
ENDBRANCH   9  10
ENDBRANCH   8   9
ENDBRANCH   1   8
BRANCH   5  17
HETATM   17  C10 UNL     1      52.411  17.188   2.034  1.00  0.00     0.241 C 
BRANCH  17  18
HETATM   18  O2  UNL     1      52.470  18.547   1.784  1.00  0.00    -0.393 OA
ATOM     19  H2  UNL     1      51.789  18.772   1.160  1.00  0.00     0.209 HD
ENDBRANCH  17  18
ENDBRANCH   5  17
TORSDOF 5
ENDMDL
MODEL 2
REMARK VINA RESULT: -6.409102017      1.483      2.307
REMARK  5 active torsions:
REMARK  status: ('A' for Active; 'I' for Inactive)
REMARK    1  A    between atoms: C6_6  and  O1_7 
REMARK    2  A    between atoms: O1_7  and  C7_8 
REMARK    3  A    between atoms: C7_8  and  C8_9 
REMARK    4  A    between atoms: C9_13  and  C10_14 
REMARK    5  A    between atoms: C10_14  and  O2_15 
ROOT
HETATM    1  C8  UNL     1      48.702  16.527   2.504  1.00  0.00     0.221 A 
HETATM    2  N1  UNL     1      48.979  17.536   3.508  1.00  0.00    -0.112 NA
HETATM    3  N2  UNL     1      50.313  17.932   3.450  1.00  0.00    -0.289 N 
ATOM      4  H2  UNL     1      50.748  18.647   4.032  1.00  0.00     0.183 HD
HETATM    5  C9  UNL     1      50.904  17.243   2.538  1.00  0.00     0.114 A 
HETATM    6  N3  UNL     1      49.996  16.339   1.928  1.00  0.00    -0.355 N 
ATOM      7  H3  UNL     1      50.229  15.666   1.198  1.00  0.00     0.162 HD
ENDROOT
BRANCH   1   8
HETATM    8  C7  UNL     1      48.170  15.248   3.162  1.00  0.00     0.212 C 
BRANCH   8   9
HETATM    9  O1  UNL     1      46.862  15.519   3.522  1.00  0.00    -0.382 OA
BRANCH   9  10
HETATM   10  C6  UNL     1      45.978  14.495   3.178  1.00  0.00     0.121 C 
HETATM   11  C5  UNL     1      46.383  13.894   1.882  1.00  0.00     0.032 C 
HETATM   12  C4  UNL     1      45.879  14.569   0.659  1.00  0.00     0.003 C 
HETATM   13  C3  UNL     1      44.896  15.679   0.930  1.00  0.00     0.004 C 
HETATM   14  C2  UNL     1      43.895  15.139   1.928  1.00  0.00    -0.016 C 
HETATM   15  C1  UNL     1      42.740  16.114   2.114  1.00  0.00     0.010 C 
HETATM   16  C11 UNL     1      44.609  15.050   3.249  1.00  0.00     0.036 C 
ENDBRANCH   9  10
ENDBRANCH   8   9
ENDBRANCH   1   8
BRANCH   5  17
HETATM   17  C10 UNL     1      52.359  17.350   2.141  1.00  0.00     0.241 C 
BRANCH  17  18
HETATM   18  O2  UNL     1      52.607  18.640   1.709  1.00  0.00    -0.393 OA
ATOM     19  H2  UNL     1      52.132  19.245   2.267  1.00  0.00     0.209 HD
ENDBRANCH  17  18
ENDBRANCH   5  17
TORSDOF 5
ENDMDL
MODEL 3
REMARK VINA RESULT: -6.408941686      5.507      7.629
REMARK  5 active torsions:
REMARK  status: ('A' for Active; 'I' for Inactive)
REMARK    1  A    between atoms: C6_6  and  O1_7 
REMARK    2  A    between atoms: O1_7  and  C7_8 
REMARK    3  A    between atoms: C7_8  and  C8_9 
REMARK    4  A    between atoms: C9_13  and  C10_14 
REMARK    5  A    between atoms: C10_14  and  O2_15 
ROOT
HETATM    1  C8  UNL     1      44.733  16.694   1.167  1.00  0.00     0.221 A 
HETATM    2  N1  UNL     1      44.176  16.504   2.492  1.00  0.00    -0.112 NA
HETATM    3  N2  UNL     1      43.547  15.264   2.586  1.00  0.00    -0.289 N 
ATOM      4  H2  UNL     1      43.103  14.883   3.421  1.00  0.00     0.183 HD
HETATM    5  C9  UNL     1      43.621  14.680   1.442  1.00  0.00     0.114 A 
HETATM    6  N3  UNL     1      44.308  15.500   0.509  1.00  0.00    -0.355 N 
ATOM      7  H3  UNL     1      44.471  15.273  -0.473  1.00  0.00     0.162 HD
ENDROOT
BRANCH   1   8
HETATM    8  C7  UNL     1      44.148  17.954   0.515  1.00  0.00     0.212 C 
BRANCH   8   9
HETATM    9  O1  UNL     1      42.941  18.186   1.150  1.00  0.00    -0.382 OA
BRANCH   9  10
HETATM   10  C6  UNL     1      41.840  17.969   0.322  1.00  0.00     0.121 C 
HETATM   11  C5  UNL     1      41.453  19.237  -0.348  1.00  0.00     0.032 C 
HETATM   12  C4  UNL     1      40.545  20.131   0.415  1.00  0.00     0.003 C 
HETATM   13  C3  UNL     1      40.027  19.533   1.698  1.00  0.00     0.004 C 
HETATM   14  C2  UNL     1      39.559  18.133   1.366  1.00  0.00    -0.016 C 
HETATM   15  C1  UNL     1      38.829  17.514   2.550  1.00  0.00     0.010 C 
HETATM   16  C11 UNL     1      40.796  17.308   1.137  1.00  0.00     0.036 C 
ENDBRANCH   9  10
ENDBRANCH   8   9
ENDBRANCH   1   8
BRANCH   5  17
HETATM   17  C10 UNL     1      43.069  13.316   1.099  1.00  0.00     0.241 C 
BRANCH  17  18
HETATM   18  O2  UNL     1      42.511  13.370  -0.166  1.00  0.00    -0.393 OA
ATOM     19  H2  UNL     1      43.018  13.973  -0.697  1.00  0.00     0.209 HD
ENDBRANCH  17  18
ENDBRANCH   5  17
TORSDOF 5
ENDMDL
MODEL 4
REMARK VINA RESULT: -6.369462414      5.025      6.326
REMARK  5 active torsions:
REMARK  status: ('A' for Active; 'I' for Inactive)
REMARK    1  A    between atoms: C6_6  and  O1_7 
REMARK    2  A    between atoms: O1_7  and  C7_8 
REMARK    3  A    between atoms: C7_8  and  C8_9 
REMARK    4  A    between atoms: C9_13  and  C10_14 
REMARK    5  A    between atoms: C10_14  and  O2_15 
ROOT
HETATM    1  C8  UNL     1      44.664  16.527   1.533  1.00  0.00     0.221 A 
HETATM    2  N1  UNL     1      45.153  15.442   0.704  1.00  0.00    -0.112 NA
HETATM    3  N2  UNL     1      46.485  15.162   0.998  1.00  0.00    -0.289 N 
ATOM      4  H2  UNL     1      47.047  14.425   0.572  1.00  0.00     0.183 HD
HETATM    5  C9  UNL     1      46.888  15.989   1.897  1.00  0.00     0.114 A 
HETATM    6  N3  UNL     1      45.843  16.878   2.260  1.00  0.00    -0.355 N 
ATOM      7  H3  UNL     1      45.920  17.643   2.932  1.00  0.00     0.162 HD
ENDROOT
BRANCH   1   8
HETATM    8  C7  UNL     1      44.158  17.682   0.660  1.00  0.00     0.212 C 
BRANCH   8   9
HETATM    9  O1  UNL     1      42.960  18.088   1.221  1.00  0.00    -0.382 OA
BRANCH   9  10
HETATM   10  C6  UNL     1      41.861  17.840   0.397  1.00  0.00     0.121 C 
HETATM   11  C5  UNL     1      41.516  19.066  -0.366  1.00  0.00     0.032 C 
HETATM   12  C4  UNL     1      40.625  20.037   0.319  1.00  0.00     0.003 C 
HETATM   13  C3  UNL     1      40.077  19.546   1.636  1.00  0.00     0.004 C 
HETATM   14  C2  UNL     1      39.576  18.138   1.400  1.00  0.00    -0.016 C 
HETATM   15  C1  UNL     1      38.817  17.626   2.616  1.00  0.00     0.010 C 
HETATM   16  C11 UNL     1      40.792  17.268   1.245  1.00  0.00     0.036 C 
ENDBRANCH   9  10
ENDBRANCH   8   9
ENDBRANCH   1   8
BRANCH   5  17
HETATM   17  C10 UNL     1      48.270  16.042   2.506  1.00  0.00     0.241 C 
BRANCH  17  18
HETATM   18  O2  UNL     1      48.438  17.272   3.117  1.00  0.00    -0.393 OA
ATOM     19  H2  UNL     1      47.975  17.929   2.611  1.00  0.00     0.209 HD
ENDBRANCH  17  18
ENDBRANCH   5  17
TORSDOF 5
ENDMDL
MODEL 5
REMARK VINA RESULT: -6.354937098      1.187      1.460
REMARK  5 active torsions:
REMARK  status: ('A' for Active; 'I' for Inactive)
REMARK    1  A    between atoms: C6_6  and  O1_7 
REMARK    2  A    between atoms: O1_7  and  C7_8 
REMARK    3  A    between atoms: C7_8  and  C8_9 
REMARK    4  A    between atoms: C9_13  and  C10_14 
REMARK    5  A    between atoms: C10_14  and  O2_15 
ROOT
HETATM    1  C8  UNL     1      48.941  16.340   3.019  1.00  0.00     0.221 A 
HETATM    2  N1  UNL     1      49.655  16.528   4.267  1.00  0.00    -0.112 NA
HETATM    3  N2  UNL     1      50.975  16.903   4.026  1.00  0.00    -0.289 N 
ATOM      4  H2  UNL     1      51.672  17.120   4.737  1.00  0.00     0.183 HD
HETATM    5  C9  UNL     1      51.166  16.928   2.754  1.00  0.00     0.114 A 
HETATM    6  N3  UNL     1      49.979  16.569   2.064  1.00  0.00    -0.355 N 
ATOM      7  H3  UNL     1      49.882  16.489   1.051  1.00  0.00     0.162 HD
ENDROOT
BRANCH   1   8
HETATM    8  C7  UNL     1      48.379  14.915   2.932  1.00  0.00     0.212 C 
BRANCH   8   9
HETATM    9  O1  UNL     1      47.970  14.746   1.621  1.00  0.00    -0.382 OA
BRANCH   9  10
HETATM   10  C6  UNL     1      46.892  13.868   1.496  1.00  0.00     0.121 C 
HETATM   11  C5  UNL     1      45.954  14.364   0.458  1.00  0.00     0.032 C 
HETATM   12  C4  UNL     1      44.938  15.350   0.908  1.00  0.00     0.003 C 
HETATM   13  C3  UNL     1      44.917  15.575   2.398  1.00  0.00     0.004 C 
HETATM   14  C2  UNL     1      44.942  14.207   3.045  1.00  0.00    -0.016 C 
HETATM   15  C1  UNL     1      44.717  14.317   4.547  1.00  0.00     0.010 C 
HETATM   16  C11 UNL     1      46.330  13.663   2.849  1.00  0.00     0.036 C 
ENDBRANCH   9  10
ENDBRANCH   8   9
ENDBRANCH   1   8
BRANCH   5  17
HETATM   17  C10 UNL     1      52.457  17.284   2.052  1.00  0.00     0.241 C 
BRANCH  17  18
HETATM   18  O2  UNL     1      52.473  18.648   1.819  1.00  0.00    -0.393 OA
ATOM     19  H2  UNL     1      52.535  18.795   0.882  1.00  0.00     0.209 HD
ENDBRANCH  17  18
ENDBRANCH   5  17
TORSDOF 5
ENDMDL
