MODEL 1
REMARK VINA RESULT: -5.632813457      0.000      0.000
REMARK  7 active torsions:
REMARK  status: ('A' for Active; 'I' for Inactive)
REMARK    1  A    between atoms: C2_2  and  C3_3 
REMARK    2  A    between atoms: C3_3  and  O1_4 
REMARK    3  A    between atoms: O1_4  and  C4_5 
REMARK    4  A    between atoms: C6_10  and  C7_11 
REMARK    5  A    between atoms: C9_13  and  C10_14 
REMARK    6  A    between atoms: C10_14  and  O2_15 
REMARK    7  A    between atoms: C10_14  and  O3_17 
ROOT
HETATM    1  C4  UNL     1      43.790  17.427   1.154  1.00  0.00     0.285 C 
HETATM    2  C5  UNL     1      42.910  16.384   1.780  1.00  0.00     0.293 C 
HETATM    3  N1  UNL     1      42.013  15.874   0.777  1.00  0.00    -0.064 N 
ATOM      4  H11 UNL     1      41.506  15.040   1.073  1.00  0.00     0.277 HD
ATOM      5  H12 UNL     1      42.492  15.453  -0.020  1.00  0.00     0.277 HD
HETATM    6  C6  UNL     1      41.133  16.995   0.408  1.00  0.00     0.219 C 
HETATM    7  C9  UNL     1      41.990  18.043  -0.211  1.00  0.00     0.209 C 
HETATM    8  O4  UNL     1      43.330  17.951  -0.016  1.00  0.00    -0.347 OA
ENDROOT
BRANCH   7   9
HETATM    9  C10 UNL     1      41.505  19.453   0.120  1.00  0.00     0.284 C 
BRANCH   9  10
HETATM   10  O2  UNL     1      42.506  20.392  -0.118  1.00  0.00    -0.369 OA
ATOM     11  H2  UNL     1      42.142  21.268  -0.177  1.00  0.00     0.212 HD
ENDBRANCH   9  10
BRANCH   9  12
HETATM   12  O3  UNL     1      41.183  19.516   1.472  1.00  0.00    -0.369 OA
ATOM     13  H3  UNL     1      41.228  20.420   1.759  1.00  0.00     0.212 HD
ENDBRANCH   9  12
ENDBRANCH   7   9
BRANCH   6  14
HETATM   14  C7  UNL     1      40.142  16.409  -0.581  1.00  0.00     0.031 C 
HETATM   15  C8  UNL     1      40.289  14.926  -0.745  1.00  0.00     0.007 C 
ENDBRANCH   6  14
BRANCH   1  16
HETATM   16  O1  UNL     1      45.081  16.927   0.892  1.00  0.00    -0.360 OA
BRANCH  16  17
HETATM   17  C3  UNL     1      45.534  16.090   1.895  1.00  0.00     0.170 C 
BRANCH  17  18
HETATM   18  C2  UNL     1      46.392  15.015   1.272  1.00  0.00     0.022 C 
HETATM   19  C1  UNL     1      45.643  14.289   0.185  1.00  0.00     0.007 C 
ENDBRANCH  17  18
ENDBRANCH  16  17
ENDBRANCH   1  16
TORSDOF 7
ENDMDL
MODEL 2
REMARK VINA RESULT: -5.550046639      1.899      2.808
REMARK  7 active torsions:
REMARK  status: ('A' for Active; 'I' for Inactive)
REMARK    1  A    between atoms: C2_2  and  C3_3 
REMARK    2  A    between atoms: C3_3  and  O1_4 
REMARK    3  A    between atoms: O1_4  and  C4_5 
REMARK    4  A    between atoms: C6_10  and  C7_11 
REMARK    5  A    between atoms: C9_13  and  C10_14 
REMARK    6  A    between atoms: C10_14  and  O2_15 
REMARK    7  A    between atoms: C10_14  and  O3_17 
ROOT
HETATM    1  C4  UNL     1      43.481  16.812   1.291  1.00  0.00     0.285 C 
HETATM    2  C5  UNL     1      43.866  18.035   0.510  1.00  0.00     0.293 C 
HETATM    3  N1  UNL     1      42.939  19.091   0.819  1.00  0.00    -0.064 N 
ATOM      4  H11 UNL     1      43.234  20.004   0.471  1.00  0.00     0.277 HD
ATOM      5  H12 UNL     1      42.918  19.336   1.809  1.00  0.00     0.277 HD
HETATM    6  C6  UNL     1      41.635  18.656   0.294  1.00  0.00     0.219 C 
HETATM    7  C9  UNL     1      41.237  17.439   1.053  1.00  0.00     0.209 C 
HETATM    8  O4  UNL     1      42.202  16.801   1.762  1.00  0.00    -0.347 OA
ENDROOT
BRANCH   7   9
HETATM    9  C10 UNL     1      40.476  16.441   0.183  1.00  0.00     0.284 C 
BRANCH   9  10
HETATM   10  O2  UNL     1      40.835  16.572  -1.156  1.00  0.00    -0.369 OA
ATOM     11  H2  UNL     1      40.078  16.479  -1.722  1.00  0.00     0.212 HD
ENDBRANCH   9  10
BRANCH   9  12
HETATM   12  O3  UNL     1      39.113  16.700   0.280  1.00  0.00    -0.369 OA
ATOM     13  H3  UNL     1      38.687  16.423  -0.523  1.00  0.00     0.212 HD
ENDBRANCH   9  12
ENDBRANCH   7   9
BRANCH   6  14
HETATM   14  C7  UNL     1      40.698  19.821   0.550  1.00  0.00     0.031 C 
HETATM   15  C8  UNL     1      40.019  19.742   1.885  1.00  0.00     0.007 C 
ENDBRANCH   6  14
BRANCH   1  16
HETATM   16  O1  UNL     1      44.323  16.620   2.403  1.00  0.00    -0.360 OA
BRANCH  16  17
HETATM   17  C3  UNL     1      45.577  16.162   2.042  1.00  0.00     0.170 C 
BRANCH  17  18
HETATM   18  C2  UNL     1      45.493  14.676   1.794  1.00  0.00     0.022 C 
HETATM   19  C1  UNL     1      46.036  14.325   0.433  1.00  0.00     0.007 C 
ENDBRANCH  17  18
ENDBRANCH  16  17
ENDBRANCH   1  16
TORSDOF 7
ENDMDL
MODEL 3
REMARK VINA RESULT: -5.460191992      3.695      5.657
REMARK  7 active torsions:
REMARK  status: ('A' for Active; 'I' for Inactive)
REMARK    1  A    between atoms: C2_2  and  C3_3 
REMARK    2  A    between atoms: C3_3  and  O1_4 
REMARK    3  A    between atoms: O1_4  and  C4_5 
REMARK    4  A    between atoms: C6_10  and  C7_11 
REMARK    5  A    between atoms: C9_13  and  C10_14 
REMARK    6  A    between atoms: C10_14  and  O2_15 
REMARK    7  A    between atoms: C10_14  and  O3_17 
ROOT
HETATM    1  C4  UNL     1      48.303  15.317   1.798  1.00  0.00     0.285 C 
HETATM    2  C5  UNL     1      47.638  16.400   2.597  1.00  0.00     0.293 C 
HETATM    3  N1  UNL     1      46.525  15.831   3.310  1.00  0.00    -0.064 N 
ATOM      4  H11 UNL     1      46.131  16.456   4.013  1.00  0.00     0.277 HD
ATOM      5  H12 UNL     1      46.792  15.080   3.947  1.00  0.00     0.277 HD
HETATM    6  C6  UNL     1      45.554  15.414   2.286  1.00  0.00     0.219 C 
HETATM    7  C9  UNL     1      46.197  14.342   1.478  1.00  0.00     0.209 C 
HETATM    8  O4  UNL     1      47.544  14.207   1.578  1.00  0.00    -0.347 OA
ENDROOT
BRANCH   7   9
HETATM    9  C10 UNL     1      45.782  14.400   0.009  1.00  0.00     0.284 C 
BRANCH   9  10
HETATM   10  O2  UNL     1      45.394  15.689  -0.348  1.00  0.00    -0.369 OA
ATOM     11  H2  UNL     1      44.601  15.671  -0.872  1.00  0.00     0.212 HD
ENDBRANCH   9  10
BRANCH   9  12
HETATM   12  O3  UNL     1      44.690  13.562  -0.187  1.00  0.00    -0.369 OA
ATOM     13  H3  UNL     1      43.916  14.092  -0.343  1.00  0.00     0.212 HD
ENDBRANCH   9  12
ENDBRANCH   7   9
BRANCH   6  14
HETATM   14  C7  UNL     1      44.356  14.902   3.063  1.00  0.00     0.031 C 
HETATM   15  C8  UNL     1      43.076  15.580   2.675  1.00  0.00     0.007 C 
ENDBRANCH   6  14
BRANCH   1  16
HETATM   16  O1  UNL     1      49.493  14.878   2.408  1.00  0.00    -0.360 OA
BRANCH  16  17
HETATM   17  C3  UNL     1      50.257  15.927   2.887  1.00  0.00     0.170 C 
BRANCH  17  18
HETATM   18  C2  UNL     1      51.350  16.219   1.888  1.00  0.00     0.022 C 
HETATM   19  C1  UNL     1      52.187  17.392   2.331  1.00  0.00     0.007 C 
ENDBRANCH  17  18
ENDBRANCH  16  17
ENDBRANCH   1  16
TORSDOF 7
ENDMDL
MODEL 4
REMARK VINA RESULT: -5.408715892      2.377      4.302
REMARK  7 active torsions:
REMARK  status: ('A' for Active; 'I' for Inactive)
REMARK    1  A    between atoms: C2_2  and  C3_3 
REMARK    2  A    between atoms: C3_3  and  O1_4 
REMARK    3  A    between atoms: O1_4  and  C4_5 
REMARK    4  A    between atoms: C6_10  and  C7_11 
REMARK    5  A    between atoms: C9_13  and  C10_14 
REMARK    6  A    between atoms: C10_14  and  O2_15 
REMARK    7  A    between atoms: C10_14  and  O3_17 
ROOT
HETATM    1  C4  UNL     1      40.409  16.532   0.745  1.00  0.00     0.285 C 
HETATM    2  C5  UNL     1      39.645  17.656   1.382  1.00  0.00     0.293 C 
HETATM    3  N1  UNL     1      39.746  18.819   0.540  1.00  0.00    -0.064 N 
ATOM      4  H11 UNL     1      39.110  19.570   0.807  1.00  0.00     0.277 HD
ATOM      5  H12 UNL     1      39.377  18.672  -0.401  1.00  0.00     0.277 HD
HETATM    6  C6  UNL     1      41.163  19.215   0.559  1.00  0.00     0.219 C 
HETATM    7  C9  UNL     1      41.939  18.109  -0.065  1.00  0.00     0.209 C 
HETATM    8  O4  UNL     1      41.322  16.907  -0.194  1.00  0.00    -0.347 OA
ENDROOT
BRANCH   7   9
HETATM    9  C10 UNL     1      43.310  17.929   0.585  1.00  0.00     0.284 C 
BRANCH   9  10
HETATM   10  O2  UNL     1      43.793  19.141   1.072  1.00  0.00    -0.369 OA
ATOM     11  H2  UNL     1      44.576  19.009   1.594  1.00  0.00     0.212 HD
ENDBRANCH   9  10
BRANCH   9  12
HETATM   12  O3  UNL     1      44.210  17.472  -0.372  1.00  0.00    -0.369 OA
ATOM     13  H3  UNL     1      44.062  16.546  -0.520  1.00  0.00     0.212 HD
ENDBRANCH   9  12
ENDBRANCH   7   9
BRANCH   6  14
HETATM   14  C7  UNL     1      41.228  20.490  -0.259  1.00  0.00     0.031 C 
HETATM   15  C8  UNL     1      40.835  20.286  -1.692  1.00  0.00     0.007 C 
ENDBRANCH   6  14
BRANCH   1  16
HETATM   16  O1  UNL     1      39.548  15.606   0.124  1.00  0.00    -0.360 OA
BRANCH  16  17
HETATM   17  C3  UNL     1      40.101  15.059  -1.020  1.00  0.00     0.170 C 
BRANCH  17  18
HETATM   18  C2  UNL     1      40.321  13.584  -0.789  1.00  0.00     0.022 C 
HETATM   19  C1  UNL     1      40.048  12.795  -2.043  1.00  0.00     0.007 C 
ENDBRANCH  17  18
ENDBRANCH  16  17
ENDBRANCH   1  16
TORSDOF 7
ENDMDL
MODEL 5
REMARK VINA RESULT: -5.360606643      2.274      4.638
REMARK  7 active torsions:
REMARK  status: ('A' for Active; 'I' for Inactive)
REMARK    1  A    between atoms: C2_2  and  C3_3 
REMARK    2  A    between atoms: C3_3  and  O1_4 
REMARK    3  A    between atoms: O1_4  and  C4_5 
REMARK    4  A    between atoms: C6_10  and  C7_11 
REMARK    5  A    between atoms: C9_13  and  C10_14 
REMARK    6  A    between atoms: C10_14  and  O2_15 
REMARK    7  A    between atoms: C10_14  and  O3_17 
ROOT
HETATM    1  C4  UNL     1      39.509  17.506   0.264  1.00  0.00     0.285 C 
HETATM    2  C5  UNL     1      40.434  16.458  -0.284  1.00  0.00     0.293 C 
HETATM    3  N1  UNL     1      41.696  16.551   0.402  1.00  0.00    -0.064 N 
ATOM      4  H11 UNL     1      42.317  15.764   0.218  1.00  0.00     0.277 HD
ATOM      5  H12 UNL     1      41.621  16.418   1.411  1.00  0.00     0.277 HD
HETATM    6  C6  UNL     1      42.270  17.853   0.023  1.00  0.00     0.219 C 
HETATM    7  C9  UNL     1      41.363  18.907   0.553  1.00  0.00     0.209 C 
HETATM    8  O4  UNL     1      40.117  18.527   0.931  1.00  0.00    -0.347 OA
ENDROOT
BRANCH   7   9
HETATM    9  C10 UNL     1      41.286  20.120  -0.373  1.00  0.00     0.284 C 
BRANCH   9  10
HETATM   10  O2  UNL     1      41.223  19.724  -1.707  1.00  0.00    -0.369 OA
ATOM     11  H2  UNL     1      40.876  18.843  -1.783  1.00  0.00     0.212 HD
ENDBRANCH   9  10
BRANCH   9  12
HETATM   12  O3  UNL     1      42.436  20.885  -0.215  1.00  0.00    -0.369 OA
ATOM     13  H3  UNL     1      42.529  21.463  -0.964  1.00  0.00     0.212 HD
ENDBRANCH   9  12
ENDBRANCH   7   9
BRANCH   6  14
HETATM   14  C7  UNL     1      43.636  17.889   0.683  1.00  0.00     0.031 C 
HETATM   15  C8  UNL     1      43.918  16.669   1.508  1.00  0.00     0.007 C 
ENDBRANCH   6  14
BRANCH   1  16
HETATM   16  O1  UNL     1      38.563  16.952   1.148  1.00  0.00    -0.360 OA
BRANCH  16  17
HETATM   17  C3  UNL     1      38.881  17.188   2.474  1.00  0.00     0.170 C 
BRANCH  17  18
HETATM   18  C2  UNL     1      38.620  15.926   3.261  1.00  0.00     0.022 C 
HETATM   19  C1  UNL     1      38.561  16.216   4.739  1.00  0.00     0.007 C 
ENDBRANCH  17  18
ENDBRANCH  16  17
ENDBRANCH   1  16
TORSDOF 7
ENDMDL
