MODEL 1
REMARK VINA RESULT: -5.101377094      0.000      0.000
REMARK  6 active torsions:
REMARK  status: ('A' for Active; 'I' for Inactive)
REMARK    1  A    between atoms: C2_2  and  N1_3 
REMARK    2  A    between atoms: C5_7  and  C6_8 
REMARK    3  A    between atoms: C6_8  and  C7_9 
REMARK    4  A    between atoms: C7_9  and  O2_10 
REMARK    5  A    between atoms: C7_9  and  C8_12 
REMARK    6  A    between atoms: C8_12  and  C9_13 
ROOT
HETATM    1  N1  UNL     1      46.287  13.529   2.267  1.00  0.00     0.092 N 
HETATM    2  C3  UNL     1      45.512  13.601   3.463  1.00  0.00     0.298 C 
HETATM    3  C4  UNL     1      45.900  14.667   4.419  1.00  0.00     0.198 C 
HETATM    4  O1  UNL     1      46.407  15.822   3.866  1.00  0.00    -0.382 OA
HETATM    5  C5  UNL     1      47.410  15.598   2.940  1.00  0.00     0.152 C 
HETATM    6  C10 UNL     1      46.899  14.740   1.836  1.00  0.00     0.304 C 
ENDROOT
BRANCH   5   7
HETATM    7  C6  UNL     1      48.666  15.082   3.571  1.00  0.00     0.065 C 
BRANCH   7   8
HETATM    8  C7  UNL     1      49.719  16.111   3.794  1.00  0.00     0.121 C 
BRANCH   8   9
HETATM    9  O2  UNL     1      50.058  16.312   5.121  1.00  0.00    -0.395 OA
ATOM     10  H2  UNL     1      50.030  17.219   5.404  1.00  0.00     0.210 HD
ENDBRANCH   8   9
BRANCH   8  11
HETATM   11  C8  UNL     1      49.488  17.412   3.078  1.00  0.00     0.043 C 
BRANCH  11  12
HETATM   12  C9  UNL     1      50.772  18.245   3.035  1.00  0.00     0.088 C 
HETATM   13  S1  UNL     1      52.090  17.268   2.261  1.00  0.00    -0.098 SA
ENDBRANCH  11  12
ENDBRANCH   8  11
ENDBRANCH   7   8
ENDBRANCH   5   7
BRANCH   1  14
HETATM   14  C2  UNL     1      45.508  12.903   1.236  1.00  0.00     0.268 C 
HETATM   15  C1  UNL     1      45.280  13.881   0.080  1.00  0.00     0.037 C 
ENDBRANCH   1  14
TORSDOF 6
ENDMDL
MODEL 2
REMARK VINA RESULT: -5.022027681      5.586      7.513
REMARK  6 active torsions:
REMARK  status: ('A' for Active; 'I' for Inactive)
REMARK    1  A    between atoms: C2_2  and  N1_3 
REMARK    2  A    between atoms: C5_7  and  C6_8 
REMARK    3  A    between atoms: C6_8  and  C7_9 
REMARK    4  A    between atoms: C7_9  and  O2_10 
REMARK    5  A    between atoms: C7_9  and  C8_12 
REMARK    6  A    between atoms: C8_12  and  C9_13 
ROOT
HETATM    1  N1  UNL     1      44.519  15.598   2.038  1.00  0.00     0.092 N 
HETATM    2  C3  UNL     1      45.131  16.659   1.305  1.00  0.00     0.298 C 
HETATM    3  C4  UNL     1      44.201  17.629   0.677  1.00  0.00     0.198 C 
HETATM    4  O1  UNL     1      43.020  17.858   1.348  1.00  0.00    -0.382 OA
HETATM    5  C5  UNL     1      42.357  16.700   1.713  1.00  0.00     0.152 C 
HETATM    6  C10 UNL     1      43.232  15.867   2.583  1.00  0.00     0.304 C 
ENDROOT
BRANCH   5   7
HETATM    7  C6  UNL     1      41.804  15.962   0.532  1.00  0.00     0.065 C 
BRANCH   7   8
HETATM    8  C7  UNL     1      40.789  16.717  -0.253  1.00  0.00     0.121 C 
BRANCH   8   9
HETATM    9  O2  UNL     1      41.315  17.580  -1.200  1.00  0.00    -0.395 OA
ATOM     10  H2  UNL     1      41.822  17.157  -1.883  1.00  0.00     0.210 HD
ENDBRANCH   8   9
BRANCH   8  11
HETATM   11  C8  UNL     1      39.724  17.384   0.572  1.00  0.00     0.043 C 
BRANCH  11  12
HETATM   12  C9  UNL     1      39.706  18.895   0.321  1.00  0.00     0.088 C 
HETATM   13  S1  UNL     1      40.002  19.762   1.886  1.00  0.00    -0.098 SA
ENDBRANCH  11  12
ENDBRANCH   8  11
ENDBRANCH   7   8
ENDBRANCH   5   7
BRANCH   1  14
HETATM   14  C2  UNL     1      45.446  15.106   3.018  1.00  0.00     0.268 C 
HETATM   15  C1  UNL     1      46.809  15.782   2.842  1.00  0.00     0.037 C 
ENDBRANCH   1  14
TORSDOF 6
ENDMDL
MODEL 3
REMARK VINA RESULT: -4.926571151      1.960      2.131
REMARK  6 active torsions:
REMARK  status: ('A' for Active; 'I' for Inactive)
REMARK    1  A    between atoms: C2_2  and  N1_3 
REMARK    2  A    between atoms: C5_7  and  C6_8 
REMARK    3  A    between atoms: C6_8  and  C7_9 
REMARK    4  A    between atoms: C7_9  and  O2_10 
REMARK    5  A    between atoms: C7_9  and  C8_12 
REMARK    6  A    between atoms: C8_12  and  C9_13 
ROOT
HETATM    1  N1  UNL     1      44.339  15.251   1.827  1.00  0.00     0.092 N 
HETATM    2  C3  UNL     1      44.169  14.592   3.081  1.00  0.00     0.298 C 
HETATM    3  C4  UNL     1      45.332  14.647   4.001  1.00  0.00     0.198 C 
HETATM    4  O1  UNL     1      46.110  15.781   3.927  1.00  0.00    -0.382 OA
HETATM    5  C5  UNL     1      46.482  16.114   2.637  1.00  0.00     0.152 C 
HETATM    6  C10 UNL     1      45.270  16.327   1.799  1.00  0.00     0.304 C 
ENDROOT
BRANCH   5   7
HETATM    7  C6  UNL     1      47.454  15.137   2.052  1.00  0.00     0.065 C 
BRANCH   7   8
HETATM    8  C7  UNL     1      48.818  15.182   2.650  1.00  0.00     0.121 C 
BRANCH   8   9
HETATM    9  O2  UNL     1      48.849  15.523   3.991  1.00  0.00    -0.395 OA
ATOM     10  H2  UNL     1      49.659  15.926   4.279  1.00  0.00     0.210 HD
ENDBRANCH   8   9
BRANCH   8  11
HETATM   11  C8  UNL     1      49.826  15.964   1.856  1.00  0.00     0.043 C 
BRANCH  11  12
HETATM   12  C9  UNL     1      50.342  17.162   2.661  1.00  0.00     0.088 C 
HETATM   13  S1  UNL     1      52.107  17.395   2.314  1.00  0.00    -0.098 SA
ENDBRANCH  11  12
ENDBRANCH   8  11
ENDBRANCH   7   8
ENDBRANCH   5   7
BRANCH   1  14
HETATM   14  C2  UNL     1      43.051  15.617   1.307  1.00  0.00     0.268 C 
HETATM   15  C1  UNL     1      42.880  17.138   1.345  1.00  0.00     0.037 C 
ENDBRANCH   1  14
TORSDOF 6
ENDMDL
MODEL 4
REMARK VINA RESULT: -4.874261262      6.047      7.375
REMARK  6 active torsions:
REMARK  status: ('A' for Active; 'I' for Inactive)
REMARK    1  A    between atoms: C2_2  and  N1_3 
REMARK    2  A    between atoms: C5_7  and  C6_8 
REMARK    3  A    between atoms: C6_8  and  C7_9 
REMARK    4  A    between atoms: C7_9  and  O2_10 
REMARK    5  A    between atoms: C7_9  and  C8_12 
REMARK    6  A    between atoms: C8_12  and  C9_13 
ROOT
HETATM    1  N1  UNL     1      44.783  16.620   1.948  1.00  0.00     0.092 N 
HETATM    2  C3  UNL     1      43.857  15.730   2.569  1.00  0.00     0.298 C 
HETATM    3  C4  UNL     1      42.455  15.825   2.094  1.00  0.00     0.198 C 
HETATM    4  O1  UNL     1      42.286  16.170   0.771  1.00  0.00    -0.382 OA
HETATM    5  C5  UNL     1      43.014  17.284   0.391  1.00  0.00     0.152 C 
HETATM    6  C10 UNL     1      44.464  17.045   0.627  1.00  0.00     0.304 C 
ENDROOT
BRANCH   5   7
HETATM    7  C6  UNL     1      42.501  18.543   1.019  1.00  0.00     0.065 C 
BRANCH   7   8
HETATM    8  C7  UNL     1      41.747  19.436   0.096  1.00  0.00     0.121 C 
BRANCH   8   9
HETATM    9  O2  UNL     1      42.423  20.586  -0.275  1.00  0.00    -0.395 OA
ATOM     10  H2  UNL     1      41.977  21.116  -0.925  1.00  0.00     0.210 HD
ENDBRANCH   8   9
BRANCH   8  11
HETATM   11  C8  UNL     1      40.338  19.735   0.522  1.00  0.00     0.043 C 
BRANCH  11  12
HETATM   12  C9  UNL     1      39.909  18.815   1.669  1.00  0.00     0.088 C 
HETATM   13  S1  UNL     1      38.947  17.433   0.995  1.00  0.00    -0.098 SA
ENDBRANCH  11  12
ENDBRANCH   8  11
ENDBRANCH   7   8
ENDBRANCH   5   7
BRANCH   1  14
HETATM   14  C2  UNL     1      46.107  16.071   2.050  1.00  0.00     0.268 C 
HETATM   15  C1  UNL     1      46.214  14.795   1.209  1.00  0.00     0.037 C 
ENDBRANCH   1  14
TORSDOF 6
ENDMDL
MODEL 5
REMARK VINA RESULT: -4.864120708      5.935      7.149
REMARK  6 active torsions:
REMARK  status: ('A' for Active; 'I' for Inactive)
REMARK    1  A    between atoms: C2_2  and  N1_3 
REMARK    2  A    between atoms: C5_7  and  C6_8 
REMARK    3  A    between atoms: C6_8  and  C7_9 
REMARK    4  A    between atoms: C7_9  and  O2_10 
REMARK    5  A    between atoms: C7_9  and  C8_12 
REMARK    6  A    between atoms: C8_12  and  C9_13 
ROOT
HETATM    1  N1  UNL     1      39.823  16.812   0.633  1.00  0.00     0.092 N 
HETATM    2  C3  UNL     1      39.059  18.001   0.822  1.00  0.00     0.298 C 
HETATM    3  C4  UNL     1      39.772  19.276   0.559  1.00  0.00     0.198 C 
HETATM    4  O1  UNL     1      40.741  19.236  -0.419  1.00  0.00    -0.382 OA
HETATM    5  C5  UNL     1      41.633  18.189  -0.274  1.00  0.00     0.152 C 
HETATM    6  C10 UNL     1      40.901  16.893  -0.293  1.00  0.00     0.304 C 
ENDROOT
BRANCH   5   7
HETATM    7  C6  UNL     1      42.524  18.359   0.918  1.00  0.00     0.065 C 
BRANCH   7   8
HETATM    8  C7  UNL     1      43.859  17.711   0.793  1.00  0.00     0.121 C 
BRANCH   8   9
HETATM    9  O2  UNL     1      44.277  17.494  -0.509  1.00  0.00    -0.395 OA
ATOM     10  H2  UNL     1      44.342  18.278  -1.040  1.00  0.00     0.210 HD
ENDBRANCH   8   9
BRANCH   8  11
HETATM   11  C8  UNL     1      44.046  16.487   1.646  1.00  0.00     0.043 C 
BRANCH  11  12
HETATM   12  C9  UNL     1      45.308  15.724   1.234  1.00  0.00     0.088 C 
HETATM   13  S1  UNL     1      46.624  16.057   2.436  1.00  0.00    -0.098 SA
ENDBRANCH  11  12
ENDBRANCH   8  11
ENDBRANCH   7   8
ENDBRANCH   5   7
BRANCH   1  14
HETATM   14  C2  UNL     1      38.935  15.718   0.358  1.00  0.00     0.268 C 
HETATM   15  C1  UNL     1      39.332  15.034  -0.954  1.00  0.00     0.037 C 
ENDBRANCH   1  14
TORSDOF 6
ENDMDL
