MODEL 1
REMARK VINA RESULT: -7.905581979      0.000      0.000
REMARK  8 active torsions:
REMARK  status: ('A' for Active; 'I' for Inactive)
REMARK    1  A    between atoms: O1_2  and  C2_3 
REMARK    2  A    between atoms: C4_5  and  O2_6 
REMARK    3  A    between atoms: C6_10  and  O3_11 
REMARK    4  A    between atoms: O3_11  and  C7_12 
REMARK    5  A    between atoms: C8_13  and  O4_14 
REMARK    6  A    between atoms: C9_16  and  O5_17 
REMARK    7  A    between atoms: C24_35  and  N3_36 
REMARK    8  A    between atoms: N3_36  and  C26_38 
ROOT
HETATM    1  C7  UNL     1      18.978   3.797   8.945  1.00  0.00     0.206 C 
HETATM    2  C8  UNL     1      19.508   5.120   9.291  1.00  0.00     0.182 C 
HETATM    3  C9  UNL     1      19.897   5.346  10.684  1.00  0.00     0.172 C 
HETATM    4  C10 UNL     1      19.458   4.427  11.750  1.00  0.00     0.120 C 
HETATM    5  C11 UNL     1      20.663   4.154  12.623  1.00  0.00     0.028 C 
HETATM    6  C12 UNL     1      20.988   5.210  13.618  1.00  0.00     0.002 C 
HETATM    7  C13 UNL     1      19.866   5.961  14.218  1.00  0.00     0.000 C 
HETATM    8  C14 UNL     1      20.196   6.602  15.545  1.00  0.00     0.000 C 
HETATM    9  C15 UNL     1      20.685   5.641  16.585  1.00  0.00     0.000 C 
HETATM   10  C16 UNL     1      19.712   4.556  16.950  1.00  0.00     0.000 C 
HETATM   11  C17 UNL     1      20.494   3.290  17.225  1.00  0.00     0.000 C 
HETATM   12  C18 UNL     1      19.648   2.098  16.762  1.00  0.00     0.000 C 
HETATM   13  C19 UNL     1      20.447   1.396  15.719  1.00  0.00     0.000 C 
HETATM   14  C20 UNL     1      19.707   0.551  14.756  1.00  0.00     0.000 C 
HETATM   15  C21 UNL     1      18.338   0.952  14.386  1.00  0.00     0.009 C 
HETATM   16  C22 UNL     1      18.164   2.231  13.638  1.00  0.00     0.103 C 
HETATM   17  C23 UNL     1      18.600   2.160  12.234  1.00  0.00     0.222 C 
HETATM   18  O6  UNL     1      18.862   0.965  11.811  1.00  0.00    -0.273 OA
HETATM   19  N2  UNL     1      18.754   3.237  11.334  1.00  0.00    -0.321 N 
HETATM   20  C24 UNL     1      18.191   3.101   9.996  1.00  0.00     0.224 C 
ENDROOT
BRANCH   1  21
HETATM   21  O3  UNL     1      18.078   3.987   7.838  1.00  0.00    -0.310 OA
BRANCH  21  22
HETATM   22  C6  UNL     1      18.406   3.691   6.534  1.00  0.00     0.228 A 
HETATM   23  N1  UNL     1      19.643   3.860   6.026  1.00  0.00    -0.302 N 
HETATM   24  C4  UNL     1      19.944   3.561   4.742  1.00  0.00     0.148 A 
ATOM     25  H1  UNL     1      20.378   4.227   6.631  1.00  0.00     0.171 HD
HETATM   26  C3  UNL     1      18.964   3.066   3.923  1.00  0.00     0.112 A 
HETATM   27  C2  UNL     1      17.695   2.887   4.423  1.00  0.00     0.148 A 
HETATM   28  N4  UNL     1      17.464   3.205   5.710  1.00  0.00    -0.302 N 
ATOM     29  H4  UNL     1      16.523   3.068   6.080  1.00  0.00     0.171 HD
BRANCH  24  30
HETATM   30  O2  UNL     1      21.219   3.733   4.211  1.00  0.00    -0.341 OA
HETATM   31  C5  UNL     1      21.329   3.760   2.801  1.00  0.00     0.211 C 
ENDBRANCH  24  30
BRANCH  27  32
HETATM   32  O1  UNL     1      16.698   2.385   3.595  1.00  0.00    -0.341 OA
HETATM   33  C1  UNL     1      15.461   2.053   4.197  1.00  0.00     0.211 C 
ENDBRANCH  27  32
ENDBRANCH  21  22
ENDBRANCH   1  21
BRANCH   2  34
HETATM   34  O4  UNL     1      18.743   6.181   8.750  1.00  0.00    -0.390 OA
ATOM     35  H4  UNL     1      19.149   6.583   7.991  1.00  0.00     0.210 HD
ENDBRANCH   2  34
BRANCH  20  36
HETATM   36  N3  UNL     1      16.819   3.335   9.862  1.00  0.00    -0.304 N 
HETATM   37  C25 UNL     1      16.164   4.359  10.554  1.00  0.00     0.154 C 
BRANCH  36  38
HETATM   38  C26 UNL     1      16.012   2.430   9.135  1.00  0.00     0.483 C 
HETATM   39  F1  UNL     1      15.432   3.167   8.077  1.00  0.00    -0.150 F 
HETATM   40  F2  UNL     1      14.878   2.044   9.877  1.00  0.00    -0.150 F 
HETATM   41  F3  UNL     1      16.626   1.360   8.571  1.00  0.00    -0.150 F 
ENDBRANCH  36  38
ENDBRANCH  20  36
BRANCH   3  42
HETATM   42  O5  UNL     1      21.302   5.583  10.725  1.00  0.00    -0.391 OA
ATOM     43  H5  UNL     1      21.452   6.418  11.152  1.00  0.00     0.210 HD
ENDBRANCH   3  42
TORSDOF 8
ENDMDL
MODEL 2
REMARK VINA RESULT: -7.803761916      0.116      1.935
REMARK  8 active torsions:
REMARK  status: ('A' for Active; 'I' for Inactive)
REMARK    1  A    between atoms: O1_2  and  C2_3 
REMARK    2  A    between atoms: C4_5  and  O2_6 
REMARK    3  A    between atoms: C6_10  and  O3_11 
REMARK    4  A    between atoms: O3_11  and  C7_12 
REMARK    5  A    between atoms: C8_13  and  O4_14 
REMARK    6  A    between atoms: C9_16  and  O5_17 
REMARK    7  A    between atoms: C24_35  and  N3_36 
REMARK    8  A    between atoms: N3_36  and  C26_38 
ROOT
HETATM    1  C7  UNL     1      18.921   3.784   8.876  1.00  0.00     0.206 C 
HETATM    2  C8  UNL     1      19.470   5.100   9.220  1.00  0.00     0.182 C 
HETATM    3  C9  UNL     1      19.889   5.311  10.607  1.00  0.00     0.172 C 
HETATM    4  C10 UNL     1      19.464   4.389  11.675  1.00  0.00     0.120 C 
HETATM    5  C11 UNL     1      20.683   4.098  12.521  1.00  0.00     0.028 C 
HETATM    6  C12 UNL     1      21.039   5.144  13.517  1.00  0.00     0.002 C 
HETATM    7  C13 UNL     1      19.936   5.900  14.145  1.00  0.00     0.000 C 
HETATM    8  C14 UNL     1      20.299   6.528  15.470  1.00  0.00     0.000 C 
HETATM    9  C15 UNL     1      20.800   5.555  16.492  1.00  0.00     0.000 C 
HETATM   10  C16 UNL     1      19.824   4.475  16.869  1.00  0.00     0.000 C 
HETATM   11  C17 UNL     1      20.600   3.201  17.119  1.00  0.00     0.000 C 
HETATM   12  C18 UNL     1      19.733   2.020  16.665  1.00  0.00     0.000 C 
HETATM   13  C19 UNL     1      20.505   1.319  15.600  1.00  0.00     0.000 C 
HETATM   14  C20 UNL     1      19.737   0.488  14.646  1.00  0.00     0.000 C 
HETATM   15  C21 UNL     1      18.366   0.904  14.307  1.00  0.00     0.009 C 
HETATM   16  C22 UNL     1      18.188   2.190  13.572  1.00  0.00     0.103 C 
HETATM   17  C23 UNL     1      18.595   2.126  12.159  1.00  0.00     0.222 C 
HETATM   18  O6  UNL     1      18.837   0.932  11.722  1.00  0.00    -0.273 OA
HETATM   19  N2  UNL     1      18.741   3.208  11.264  1.00  0.00    -0.321 N 
HETATM   20  C24 UNL     1      18.149   3.087   9.937  1.00  0.00     0.224 C 
ENDROOT
BRANCH   1  21
HETATM   21  O3  UNL     1      18.001   3.991   7.789  1.00  0.00    -0.310 OA
BRANCH  21  22
HETATM   22  C6  UNL     1      18.279   3.652   6.484  1.00  0.00     0.228 A 
HETATM   23  N1  UNL     1      17.363   3.124   5.646  1.00  0.00    -0.302 N 
HETATM   24  C4  UNL     1      17.657   2.800   4.367  1.00  0.00     0.148 A 
ATOM     25  H1  UNL     1      16.416   2.964   5.990  1.00  0.00     0.171 HD
HETATM   26  C3  UNL     1      18.925   3.013   3.897  1.00  0.00     0.112 A 
HETATM   27  C2  UNL     1      19.873   3.550   4.735  1.00  0.00     0.148 A 
HETATM   28  N4  UNL     1      19.514   3.851   5.997  1.00  0.00    -0.302 N 
ATOM     29  H4  UNL     1      20.218   4.251   6.617  1.00  0.00     0.171 HD
BRANCH  24  30
HETATM   30  O2  UNL     1      16.716   2.255   3.497  1.00  0.00    -0.341 OA
HETATM   31  C5  UNL     1      15.392   2.132   3.977  1.00  0.00     0.211 C 
ENDBRANCH  24  30
BRANCH  27  32
HETATM   32  O1  UNL     1      21.162   3.768   4.262  1.00  0.00    -0.341 OA
HETATM   33  C1  UNL     1      21.347   3.762   2.859  1.00  0.00     0.211 C 
ENDBRANCH  27  32
ENDBRANCH  21  22
ENDBRANCH   1  21
BRANCH   2  34
HETATM   34  O4  UNL     1      18.704   6.172   8.703  1.00  0.00    -0.390 OA
ATOM     35  H4  UNL     1      18.515   6.840   9.352  1.00  0.00     0.210 HD
ENDBRANCH   2  34
BRANCH  20  36
HETATM   36  N3  UNL     1      16.777   3.334   9.832  1.00  0.00    -0.304 N 
HETATM   37  C25 UNL     1      16.144   4.353  10.553  1.00  0.00     0.154 C 
BRANCH  36  38
HETATM   38  C26 UNL     1      15.948   2.449   9.107  1.00  0.00     0.483 C 
HETATM   39  F1  UNL     1      15.341   3.212   8.083  1.00  0.00    -0.150 F 
HETATM   40  F2  UNL     1      14.835   2.046   9.869  1.00  0.00    -0.150 F 
HETATM   41  F3  UNL     1      16.545   1.392   8.500  1.00  0.00    -0.150 F 
ENDBRANCH  36  38
ENDBRANCH  20  36
BRANCH   3  42
HETATM   42  O5  UNL     1      21.297   5.535  10.621  1.00  0.00    -0.391 OA
ATOM     43  H5  UNL     1      21.451   6.472  10.620  1.00  0.00     0.210 HD
ENDBRANCH   3  42
TORSDOF 8
ENDMDL
MODEL 3
REMARK VINA RESULT: -7.791830499      2.227      4.482
REMARK  8 active torsions:
REMARK  status: ('A' for Active; 'I' for Inactive)
REMARK    1  A    between atoms: O1_2  and  C2_3 
REMARK    2  A    between atoms: C4_5  and  O2_6 
REMARK    3  A    between atoms: C6_10  and  O3_11 
REMARK    4  A    between atoms: O3_11  and  C7_12 
REMARK    5  A    between atoms: C8_13  and  O4_14 
REMARK    6  A    between atoms: C9_16  and  O5_17 
REMARK    7  A    between atoms: C24_35  and  N3_36 
REMARK    8  A    between atoms: N3_36  and  C26_38 
ROOT
HETATM    1  C7  UNL     1      18.095   3.115   9.870  1.00  0.00     0.206 C 
HETATM    2  C8  UNL     1      18.118   1.734  10.361  1.00  0.00     0.182 C 
HETATM    3  C9  UNL     1      18.492   1.524  11.761  1.00  0.00     0.172 C 
HETATM    4  C10 UNL     1      19.145   2.593  12.538  1.00  0.00     0.120 C 
HETATM    5  C11 UNL     1      18.462   2.641  13.886  1.00  0.00     0.028 C 
HETATM    6  C12 UNL     1      18.900   1.612  14.867  1.00  0.00     0.002 C 
HETATM    7  C13 UNL     1      20.315   1.186  14.832  1.00  0.00     0.000 C 
HETATM    8  C14 UNL     1      20.806   0.582  16.127  1.00  0.00     0.000 C 
HETATM    9  C15 UNL     1      20.647   1.476  17.318  1.00  0.00     0.000 C 
HETATM   10  C16 UNL     1      21.388   2.781  17.233  1.00  0.00     0.000 C 
HETATM   11  C17 UNL     1      20.551   3.847  17.904  1.00  0.00     0.000 C 
HETATM   12  C18 UNL     1      20.772   5.166  17.154  1.00  0.00     0.000 C 
HETATM   13  C19 UNL     1      19.437   5.588  16.644  1.00  0.00     0.000 C 
HETATM   14  C20 UNL     1      19.417   6.511  15.487  1.00  0.00     0.000 C 
HETATM   15  C21 UNL     1      20.505   6.412  14.498  1.00  0.00     0.009 C 
HETATM   16  C22 UNL     1      20.608   5.158  13.697  1.00  0.00     0.103 C 
HETATM   17  C23 UNL     1      19.564   5.026  12.668  1.00  0.00     0.222 C 
HETATM   18  O6  UNL     1      18.859   6.094  12.475  1.00  0.00    -0.273 OA
HETATM   19  N2  UNL     1      19.268   3.881  11.896  1.00  0.00    -0.321 N 
HETATM   20  C24 UNL     1      19.090   4.047  10.459  1.00  0.00     0.224 C 
ENDROOT
BRANCH   1  21
HETATM   21  O3  UNL     1      18.389   3.060   8.462  1.00  0.00    -0.310 OA
BRANCH  21  22
HETATM   22  C6  UNL     1      17.420   2.995   7.486  1.00  0.00     0.228 A 
HETATM   23  N1  UNL     1      16.098   3.032   7.752  1.00  0.00    -0.302 N 
HETATM   24  C4  UNL     1      15.163   2.969   6.778  1.00  0.00     0.148 A 
ATOM     25  H1  UNL     1      15.794   3.110   8.723  1.00  0.00     0.171 HD
HETATM   26  C3  UNL     1      15.563   2.866   5.472  1.00  0.00     0.112 A 
HETATM   27  C2  UNL     1      16.906   2.827   5.180  1.00  0.00     0.148 A 
HETATM   28  N4  UNL     1      17.784   2.894   6.198  1.00  0.00    -0.302 N 
ATOM     29  H4  UNL     1      18.780   2.867   5.980  1.00  0.00     0.171 HD
BRANCH  24  30
HETATM   30  O2  UNL     1      13.797   3.007   7.046  1.00  0.00    -0.341 OA
HETATM   31  C5  UNL     1      13.273   1.974   7.857  1.00  0.00     0.211 C 
ENDBRANCH  24  30
BRANCH  27  32
HETATM   32  O1  UNL     1      17.316   2.722   3.856  1.00  0.00    -0.341 OA
HETATM   33  C1  UNL     1      18.700   2.860   3.592  1.00  0.00     0.211 C 
ENDBRANCH  27  32
ENDBRANCH  21  22
ENDBRANCH   1  21
BRANCH   2  34
HETATM   34  O4  UNL     1      18.769   0.842   9.475  1.00  0.00    -0.390 OA
ATOM     35  H4  UNL     1      19.675   0.680   9.710  1.00  0.00     0.210 HD
ENDBRANCH   2  34
BRANCH  20  36
HETATM   36  N3  UNL     1      20.251   4.129   9.684  1.00  0.00    -0.304 N 
HETATM   37  C25 UNL     1      21.391   3.368   9.965  1.00  0.00     0.154 C 
BRANCH  36  38
HETATM   38  C26 UNL     1      20.366   5.112   8.676  1.00  0.00     0.483 C 
HETATM   39  F1  UNL     1      21.386   5.998   9.090  1.00  0.00    -0.150 F 
HETATM   40  F2  UNL     1      19.239   5.956   8.651  1.00  0.00    -0.150 F 
HETATM   41  F3  UNL     1      20.700   4.692   7.430  1.00  0.00    -0.150 F 
ENDBRANCH  36  38
ENDBRANCH  20  36
BRANCH   3  42
HETATM   42  O5  UNL     1      17.370   0.972  12.446  1.00  0.00    -0.391 OA
ATOM     43  H5  UNL     1      17.563   0.964  13.377  1.00  0.00     0.210 HD
ENDBRANCH   3  42
TORSDOF 8
ENDMDL
MODEL 4
REMARK VINA RESULT: -7.419584524      2.464      4.299
REMARK  8 active torsions:
REMARK  status: ('A' for Active; 'I' for Inactive)
REMARK    1  A    between atoms: O1_2  and  C2_3 
REMARK    2  A    between atoms: C4_5  and  O2_6 
REMARK    3  A    between atoms: C6_10  and  O3_11 
REMARK    4  A    between atoms: O3_11  and  C7_12 
REMARK    5  A    between atoms: C8_13  and  O4_14 
REMARK    6  A    between atoms: C9_16  and  O5_17 
REMARK    7  A    between atoms: C24_35  and  N3_36 
REMARK    8  A    between atoms: N3_36  and  C26_38 
ROOT
HETATM    1  C7  UNL     1      17.902   2.979   9.943  1.00  0.00     0.206 C 
HETATM    2  C8  UNL     1      17.890   1.617  10.485  1.00  0.00     0.182 C 
HETATM    3  C9  UNL     1      18.295   1.444  11.882  1.00  0.00     0.172 C 
HETATM    4  C10 UNL     1      19.009   2.516  12.599  1.00  0.00     0.120 C 
HETATM    5  C11 UNL     1      18.367   2.639  13.963  1.00  0.00     0.028 C 
HETATM    6  C12 UNL     1      18.796   1.631  14.969  1.00  0.00     0.002 C 
HETATM    7  C13 UNL     1      20.193   1.151  14.912  1.00  0.00     0.000 C 
HETATM    8  C14 UNL     1      20.698   0.577  16.215  1.00  0.00     0.000 C 
HETATM    9  C15 UNL     1      20.606   1.519  17.375  1.00  0.00     0.000 C 
HETATM   10  C16 UNL     1      21.391   2.791  17.222  1.00  0.00     0.000 C 
HETATM   11  C17 UNL     1      20.613   3.912  17.874  1.00  0.00     0.000 C 
HETATM   12  C18 UNL     1      20.860   5.194  17.069  1.00  0.00     0.000 C 
HETATM   13  C19 UNL     1      19.527   5.646  16.580  1.00  0.00     0.000 C 
HETATM   14  C20 UNL     1      19.508   6.526  15.391  1.00  0.00     0.000 C 
HETATM   15  C21 UNL     1      20.562   6.350  14.377  1.00  0.00     0.009 C 
HETATM   16  C22 UNL     1      20.597   5.065  13.621  1.00  0.00     0.103 C 
HETATM   17  C23 UNL     1      19.519   4.935  12.626  1.00  0.00     0.222 C 
HETATM   18  O6  UNL     1      18.849   6.021  12.413  1.00  0.00    -0.273 OA
HETATM   19  N2  UNL     1      19.160   3.774  11.907  1.00  0.00    -0.321 N 
HETATM   20  C24 UNL     1      18.947   3.895  10.470  1.00  0.00     0.224 C 
ENDROOT
BRANCH   1  21
HETATM   21  O3  UNL     1      18.154   2.861   8.531  1.00  0.00    -0.310 OA
BRANCH  21  22
HETATM   22  C6  UNL     1      17.173   2.582   7.606  1.00  0.00     0.228 A 
HETATM   23  N1  UNL     1      17.382   2.620   6.274  1.00  0.00    -0.302 N 
HETATM   24  C4  UNL     1      16.405   2.340   5.382  1.00  0.00     0.148 A 
ATOM     25  H1  UNL     1      18.309   2.867   5.927  1.00  0.00     0.171 HD
HETATM   26  C3  UNL     1      15.158   2.005   5.838  1.00  0.00     0.112 A 
HETATM   27  C2  UNL     1      14.925   1.962   7.193  1.00  0.00     0.148 A 
HETATM   28  N4  UNL     1      15.943   2.251   8.026  1.00  0.00    -0.302 N 
ATOM     29  H4  UNL     1      15.769   2.216   9.030  1.00  0.00     0.171 HD
BRANCH  24  30
HETATM   30  O2  UNL     1      16.613   2.376   4.006  1.00  0.00    -0.341 OA
HETATM   31  C5  UNL     1      15.645   1.743   3.193  1.00  0.00     0.211 C 
ENDBRANCH  24  30
BRANCH  27  32
HETATM   32  O1  UNL     1      13.661   1.622   7.660  1.00  0.00    -0.341 OA
HETATM   33  C1  UNL     1      12.602   1.619   6.722  1.00  0.00     0.211 C 
ENDBRANCH  27  32
ENDBRANCH  21  22
ENDBRANCH   1  21
BRANCH   2  34
HETATM   34  O4  UNL     1      18.483   0.670   9.616  1.00  0.00    -0.390 OA
ATOM     35  H4  UNL     1      19.134   0.128  10.045  1.00  0.00     0.210 HD
ENDBRANCH   2  34
BRANCH  20  36
HETATM   36  N3  UNL     1      20.089   3.904   9.661  1.00  0.00    -0.304 N 
HETATM   37  C25 UNL     1      21.151   3.016   9.858  1.00  0.00     0.154 C 
BRANCH  36  38
HETATM   38  C26 UNL     1      20.275   4.929   8.706  1.00  0.00     0.483 C 
HETATM   39  F1  UNL     1      21.334   5.735   9.182  1.00  0.00    -0.150 F 
HETATM   40  F2  UNL     1      19.196   5.835   8.708  1.00  0.00    -0.150 F 
HETATM   41  F3  UNL     1      20.609   4.555   7.446  1.00  0.00    -0.150 F 
ENDBRANCH  36  38
ENDBRANCH  20  36
BRANCH   3  42
HETATM   42  O5  UNL     1      17.175   0.960  12.617  1.00  0.00    -0.391 OA
ATOM     43  H5  UNL     1      17.435   0.858  13.525  1.00  0.00     0.210 HD
ENDBRANCH   3  42
TORSDOF 8
ENDMDL
MODEL 5
REMARK VINA RESULT: -7.139739598      4.195      6.804
REMARK  8 active torsions:
REMARK  status: ('A' for Active; 'I' for Inactive)
REMARK    1  A    between atoms: O1_2  and  C2_3 
REMARK    2  A    between atoms: C4_5  and  O2_6 
REMARK    3  A    between atoms: C6_10  and  O3_11 
REMARK    4  A    between atoms: O3_11  and  C7_12 
REMARK    5  A    between atoms: C8_13  and  O4_14 
REMARK    6  A    between atoms: C9_16  and  O5_17 
REMARK    7  A    between atoms: C24_35  and  N3_36 
REMARK    8  A    between atoms: N3_36  and  C26_38 
ROOT
HETATM    1  C7  UNL     1      18.411   3.318  14.264  1.00  0.00     0.206 C 
HETATM    2  C8  UNL     1      18.647   1.934  13.839  1.00  0.00     0.182 C 
HETATM    3  C9  UNL     1      18.535   0.889  14.858  1.00  0.00     0.172 C 
HETATM    4  C10 UNL     1      18.534   1.229  16.293  1.00  0.00     0.120 C 
HETATM    5  C11 UNL     1      17.428   0.425  16.937  1.00  0.00     0.028 C 
HETATM    6  C12 UNL     1      17.756  -0.995  17.238  1.00  0.00     0.002 C 
HETATM    7  C13 UNL     1      19.147  -1.313  17.622  1.00  0.00     0.000 C 
HETATM    8  C14 UNL     1      19.288  -2.600  18.402  1.00  0.00     0.000 C 
HETATM    9  C15 UNL     1      18.465  -2.651  19.652  1.00  0.00     0.000 C 
HETATM   10  C16 UNL     1      18.786  -1.588  20.665  1.00  0.00     0.000 C 
HETATM   11  C17 UNL     1      17.498  -1.174  21.342  1.00  0.00     0.000 C 
HETATM   12  C18 UNL     1      17.591   0.322  21.665  1.00  0.00     0.000 C 
HETATM   13  C19 UNL     1      16.468   0.980  20.938  1.00  0.00     0.000 C 
HETATM   14  C20 UNL     1      16.605   2.424  20.649  1.00  0.00     0.000 C 
HETATM   15  C21 UNL     1      17.956   2.961  20.409  1.00  0.00     0.009 C 
HETATM   16  C22 UNL     1      18.691   2.488  19.200  1.00  0.00     0.103 C 
HETATM   17  C23 UNL     1      18.170   3.038  17.938  1.00  0.00     0.222 C 
HETATM   18  O6  UNL     1      17.311   3.995  18.081  1.00  0.00    -0.273 OA
HETATM   19  N2  UNL     1      18.508   2.634  16.628  1.00  0.00    -0.321 N 
HETATM   20  C24 UNL     1      18.820   3.667  15.648  1.00  0.00     0.224 C 
ENDROOT
BRANCH   1  21
HETATM   21  O3  UNL     1      19.195   4.157  13.396  1.00  0.00    -0.310 OA
BRANCH  21  22
HETATM   22  C6  UNL     1      19.078   4.150  12.024  1.00  0.00     0.228 A 
HETATM   23  N1  UNL     1      20.129   4.301  11.191  1.00  0.00    -0.302 N 
HETATM   24  C4  UNL     1      19.992   4.289   9.847  1.00  0.00     0.148 A 
ATOM     25  H1  UNL     1      21.059   4.427  11.591  1.00  0.00     0.171 HD
HETATM   26  C3  UNL     1      18.747   4.118   9.302  1.00  0.00     0.112 A 
HETATM   27  C2  UNL     1      17.663   3.963  10.134  1.00  0.00     0.148 A 
HETATM   28  N4  UNL     1      17.870   3.984  11.464  1.00  0.00    -0.302 N 
ATOM     29  H4  UNL     1      17.065   3.866  12.080  1.00  0.00     0.171 HD
BRANCH  24  30
HETATM   30  O2  UNL     1      21.072   4.443   8.982  1.00  0.00    -0.341 OA
HETATM   31  C5  UNL     1      20.959   3.852   7.702  1.00  0.00     0.211 C 
ENDBRANCH  24  30
BRANCH  27  32
HETATM   32  O1  UNL     1      16.398   3.788   9.585  1.00  0.00    -0.341 OA
HETATM   33  C1  UNL     1      15.299   3.776  10.477  1.00  0.00     0.211 C 
ENDBRANCH  27  32
ENDBRANCH  21  22
ENDBRANCH   1  21
BRANCH   2  34
HETATM   34  O4  UNL     1      19.797   1.793  13.026  1.00  0.00    -0.390 OA
ATOM     35  H4  UNL     1      20.384   1.110  13.327  1.00  0.00     0.210 HD
ENDBRANCH   2  34
BRANCH  20  36
HETATM   36  N3  UNL     1      20.109   4.210  15.691  1.00  0.00    -0.304 N 
HETATM   37  C25 UNL     1      21.255   3.410  15.729  1.00  0.00     0.154 C 
BRANCH  36  38
HETATM   38  C26 UNL     1      20.289   5.601  15.860  1.00  0.00     0.483 C 
HETATM   39  F1  UNL     1      20.799   5.787  17.165  1.00  0.00    -0.150 F 
HETATM   40  F2  UNL     1      19.054   6.274  15.931  1.00  0.00    -0.150 F 
HETATM   41  F3  UNL     1      21.148   6.226  15.016  1.00  0.00    -0.150 F 
ENDBRANCH  36  38
ENDBRANCH  20  36
BRANCH   3  42
HETATM   42  O5  UNL     1      17.447   0.037  14.508  1.00  0.00    -0.391 OA
ATOM     43  H5  UNL     1      17.673  -0.852  14.757  1.00  0.00     0.210 HD
ENDBRANCH   3  42
TORSDOF 8
ENDMDL
